@<TRIPOS>MOLECULE
NONAME
48 49 1 0 0 
SMALL
USER_CHARGES


@<TRIPOS>ATOM
  1 S        0.8200     0.2920     0.5360 S.3   1 <1>  -0.3320 
  2 C        0.4040     2.0120     0.3390 C.ar  1 <1>   0.7720 
  3 C       -0.6510    -0.6180     1.2020 C.3   1 <1>  -0.0100 
  4 N        1.3210     2.7990    -0.1150 N.ar  1 <1>  -0.6200 
  5 N       -0.8460     2.3910     0.6770 N.ar  1 <1>  -0.1790 
  6 C        0.9950     4.0880    -0.2560 C.ar  1 <1>   0.4100 
  7 C       -1.2160     3.6740     0.5500 C.ar  1 <1>   0.4610 
  8 N        2.0050     4.8310    -0.7390 N.pl3 1 <1>  -0.8690 
  9 C       -0.2660     4.5530     0.0680 C.ar  1 <1>  -0.1500 
 10 N       -2.4690     4.0490     0.8880 N.pl3 1 <1>  -0.9000 
 11 C        2.0980     6.2790    -1.0020 C.3   1 <1>   0.2090 
 12 C        3.4680     6.7550    -0.5200 C.3   1 <1>  -0.1600 
 13 C        3.6400     8.2570    -0.7480 C.3   1 <1>   0.3430 
 14 N        4.9320     8.7240    -0.1710 N.4   1 <1>  -0.9590 
 15 C        4.9190    10.2130     0.0310 C.3   1 <1>   0.3430 
 16 C        6.1200     8.3030    -0.9700 C.3   1 <1>   0.3430 
 17 C        6.3220    10.7960     0.2940 C.3   1 <1>  -0.0800 
 18 C        7.3910     8.5370    -0.1440 C.3   1 <1>  -0.1600 
 19 C        7.3000     9.7300     0.8260 C.3   1 <1>  -0.1600 
 20 C        6.2030    12.0070     1.2310 C.3   1 <1>   0.1200 
 21 O        7.4140    12.6670     1.2730 O.3   1 <1>  -0.6800 
 22 H       -0.3610    -1.6500     1.3090 H     1 <1>   0.0800 
 23 H       -1.4580    -0.5360     0.4950 H     1 <1>   0.0800 
 24 H       -0.9060    -0.2080     2.1630 H     1 <1>   0.0800 
 25 H       -1.4920     1.6970     1.0220 H     1 <1>   0.4570 
 26 H        2.8340     4.2860    -1.0110 H     1 <1>   0.4000 
 27 H       -0.5130     5.5880    -0.0570 H     1 <1>   0.1500 
 28 H       -2.7830     5.0260     0.7970 H     1 <1>   0.4000 
 29 H       -3.2240     3.4530     1.2490 H     1 <1>   0.4000 
 30 H        1.3160     6.8040    -0.4790 H     1 <1>   0.0800 
 31 H        1.9870     6.4530    -2.0600 H     1 <1>   0.0800 
 32 H        4.2250     6.2130    -1.0590 H     1 <1>   0.0800 
 33 H        3.5530     6.5400     0.5300 H     1 <1>   0.0800 
 34 H        2.8260     8.7750    -0.2660 H     1 <1>   0.0800 
 35 H        3.6040     8.4810    -1.8030 H     1 <1>   0.0800 
 36 H        5.0460     8.2970     0.7580 H     1 <1>   0.4500 
 37 H        4.2800    10.4430     0.8680 H     1 <1>   0.0800 
 38 H        4.5070    10.6990    -0.8380 H     1 <1>   0.0800 
 39 H        6.1670     8.8850    -1.8760 H     1 <1>   0.0800 
 40 H        6.0570     7.2610    -1.2400 H     1 <1>   0.0800 
 41 H        6.6930    11.1630    -0.6480 H     1 <1>   0.0800 
 42 H        8.2030     8.7000    -0.8330 H     1 <1>   0.0800 
 43 H        7.6300     7.6450     0.4090 H     1 <1>   0.0800 
 44 H        6.9620     9.3850     1.7890 H     1 <1>   0.0800 
 45 H        8.2830    10.1500     0.9600 H     1 <1>   0.0800 
 46 H        5.9360    11.7190     2.2350 H     1 <1>   0.0800 
 47 H        5.4750    12.7080     0.8590 H     1 <1>   0.0800 
 48 H        8.0760    12.1830     1.8060 H     1 <1>   0.4000 
@<TRIPOS>BOND
  1   1   2  1   
  2   1   3  1   
  3   2   4  ar  
  4   2   5  ar  
  5   3  22  1   
  6   3  23  1   
  7   3  24  1   
  8   4   6  ar  
  9   5   7  ar  
 10   5  25  1   
 11   6   8  1   
 12   6   9  ar  
 13   7   9  ar  
 14   7  10  1   
 15   8  11  1   
 16   8  26  1   
 17   9  27  1   
 18  10  28  1   
 19  10  29  1   
 20  11  12  1   
 21  11  30  1   
 22  11  31  1   
 23  12  13  1   
 24  12  32  1   
 25  12  33  1   
 26  13  14  1   
 27  13  34  1   
 28  13  35  1   
 29  14  15  1   
 30  14  16  1   
 31  14  36  1   
 32  15  17  1   
 33  15  37  1   
 34  15  38  1   
 35  16  18  1   
 36  16  39  1   
 37  16  40  1   
 38  17  19  1   
 39  17  20  1   
 40  17  41  1   
 41  18  19  1   
 42  18  42  1   
 43  18  43  1   
 44  19  44  1   
 45  19  45  1   
 46  20  21  1   
 47  20  46  1   
 48  20  47  1   
 49  21  48  1   
@<TRIPOS>SUBSTRUCTURE
  1 ****  12 GROUP 4 **** **** 0

# MOE 2024.06 (io_trps.svl 2023.06)
