@<TRIPOS>MOLECULE
NONAME
53 55 1 0 0 
SMALL
USER_CHARGES


@<TRIPOS>ATOM
  1 O        0.7750     1.5840    -0.1340 O.3   1 <1>  -0.2800 
  2 C        1.8170     2.2990     0.1400 C.2   1 <1>   0.2980 
  3 C        0.9600     1.2260    -1.3640 C.2   1 <1>   0.2980 
  4 N        2.6150     2.3910    -0.8580 N.2   1 <1>  -0.3380 
  5 C        1.9660     2.9160     1.5320 C.3   1 <1>   0.2900 
  6 N        2.0550     1.6880    -1.8400 N.2   1 <1>  -0.3380 
  7 C       -0.0820     0.3550    -2.0480 C.3   1 <1>   0.0200 
  8 N        3.3470     3.4100     1.7890 N.3   1 <1>  -0.8100 
  9 C        0.2670     0.0100    -3.5030 C.3   1 <1>  -0.2400 
 10 C        3.4320     4.4680     2.8240 C.3   1 <1>   0.1100 
 11 C        4.3170     2.3150     1.9920 C.3   1 <1>   0.1100 
 12 C        4.7590     5.2530     2.7280 C.3   1 <1>   0.3430 
 13 C        5.5730     2.5670     1.1480 C.3   1 <1>  -0.1600 
 14 N        5.3840     5.0040     1.3920 N.4   1 <1>  -0.9590 
 15 C        6.3290     3.8650     1.4500 C.3   1 <1>   0.3430 
 16 C        5.9210     6.1960     0.6910 C.3   1 <1>   0.3430 
 17 C        4.7750     7.1270     0.3000 C.3   1 <1>  -0.1600 
 18 C        5.2670     8.2790    -0.5820 C.3   1 <1>  -0.0170 
 19 C        4.1090     9.2090    -0.8950 C.ar  1 <1>  -0.1440 
 20 C        3.9000    10.3510    -0.1370 C.ar  1 <1>  -0.1500 
 21 C        3.2430     8.9180    -1.9390 C.ar  1 <1>  -0.1500 
 22 C        2.8360    11.1910    -0.4170 C.ar  1 <1>  -0.1500 
 23 C        2.1790     9.7580    -2.2190 C.ar  1 <1>  -0.1500 
 24 C        1.9750    10.8950    -1.4580 C.ar  1 <1>  -0.1500 
 25 H        1.6940     2.1880     2.2760 H     1 <1>   0.0800 
 26 H        1.2700     3.7330     1.5940 H     1 <1>   0.0800 
 27 H       -1.0250     0.8710    -2.0230 H     1 <1>   0.0800 
 28 H       -0.1860    -0.5550    -1.4840 H     1 <1>   0.0800 
 29 H        0.3590     0.9100    -4.0860 H     1 <1>   0.0800 
 30 H       -0.5020    -0.6050    -3.9360 H     1 <1>   0.0800 
 31 H        1.2010    -0.5230    -3.5450 H     1 <1>   0.0800 
 32 H        3.3150     4.0480     3.8090 H     1 <1>   0.0800 
 33 H        2.6280     5.1700     2.6750 H     1 <1>   0.0800 
 34 H        3.8900     1.3770     1.6720 H     1 <1>   0.0800 
 35 H        4.5690     2.2160     3.0350 H     1 <1>   0.0800 
 36 H        5.4250     4.9380     3.5130 H     1 <1>   0.0800 
 37 H        4.5570     6.3020     2.8680 H     1 <1>   0.0800 
 38 H        5.3000     2.5520     0.1070 H     1 <1>   0.0800 
 39 H        6.2500     1.7440     1.2960 H     1 <1>   0.0800 
 40 H        4.5840     4.6150     0.8480 H     1 <1>   0.4500 
 41 H        7.1070     3.9910     0.7140 H     1 <1>   0.0800 
 42 H        6.7880     3.8110     2.4230 H     1 <1>   0.0800 
 43 H        6.4320     5.8820    -0.2050 H     1 <1>   0.0800 
 44 H        6.6260     6.7150     1.3210 H     1 <1>   0.0800 
 45 H        4.3170     7.5460     1.1770 H     1 <1>   0.0800 
 46 H        4.0300     6.5740    -0.2460 H     1 <1>   0.0800 
 47 H        5.6750     7.8980    -1.5030 H     1 <1>   0.0800 
 48 H        6.0440     8.8310    -0.0810 H     1 <1>   0.0800 
 49 H        4.5610    10.5970     0.6750 H     1 <1>   0.1500 
 50 H        3.3890     8.0380    -2.5400 H     1 <1>   0.1500 
 51 H        2.6790    12.0770     0.1740 H     1 <1>   0.1500 
 52 H        1.5100     9.5270    -3.0300 H     1 <1>   0.1500 
 53 H        1.1480    11.5480    -1.6760 H     1 <1>   0.1500 
@<TRIPOS>BOND
  1   1   2  1   
  2   1   3  1   
  3   2   4  2   
  4   2   5  1   
  5   3   6  2   
  6   3   7  1   
  7   4   6  1   
  8   5   8  1   
  9   5  25  1   
 10   5  26  1   
 11   7   9  1   
 12   7  27  1   
 13   7  28  1   
 14   8  10  1   
 15   8  11  1   
 16   9  29  1   
 17   9  30  1   
 18   9  31  1   
 19  10  12  1   
 20  10  32  1   
 21  10  33  1   
 22  11  13  1   
 23  11  34  1   
 24  11  35  1   
 25  12  14  1   
 26  12  36  1   
 27  12  37  1   
 28  13  15  1   
 29  13  38  1   
 30  13  39  1   
 31  14  15  1   
 32  14  16  1   
 33  14  40  1   
 34  15  41  1   
 35  15  42  1   
 36  16  17  1   
 37  16  43  1   
 38  16  44  1   
 39  17  18  1   
 40  17  45  1   
 41  17  46  1   
 42  18  19  1   
 43  18  47  1   
 44  18  48  1   
 45  19  20  ar  
 46  19  21  ar  
 47  20  22  ar  
 48  20  49  1   
 49  21  23  ar  
 50  21  50  1   
 51  22  24  ar  
 52  22  51  1   
 53  23  24  ar  
 54  23  52  1   
 55  24  53  1   
@<TRIPOS>SUBSTRUCTURE
  1 ****   8 GROUP 4 **** **** 0

# MOE 2024.06 (io_trps.svl 2023.06)
