@<TRIPOS>MOLECULE
NONAME
56 58 1 0 0 
SMALL
USER_CHARGES


@<TRIPOS>ATOM
  1 O        4.2310    -1.4990     1.8130 O.2   1 <1>  -0.5700 
  2 C        3.4560    -1.5420     0.8750 C.2   1 <1>   0.5440 
  3 N        3.2540    -0.3640     0.1960 N.am  1 <1>  -0.6600 
  4 C        2.8570    -2.7940     0.4460 C.ar  1 <1>   0.0860 
  5 C        3.2140     0.9320     0.9730 C.3   1 <1>   0.2200 
  6 C        3.5530    -0.3230    -1.2640 C.3   1 <1>   0.1400 
  7 C        3.4760    -4.0160     0.7120 C.ar  1 <1>  -0.1500 
  8 C        1.6470    -2.8290    -0.2500 C.ar  1 <1>  -0.1500 
  9 C        2.4610     2.0510     0.2350 C.3   1 <1>   0.1200 
 10 C        4.6360     1.4090     1.3620 C.3   1 <1>   0.3430 
 11 C        4.4220     0.8770    -1.6900 C.3   1 <1>  -0.0800 
 12 C        2.9260    -5.2120     0.2890 C.ar  1 <1>  -0.1500 
 13 C        1.0940    -4.0220    -0.6750 C.ar  1 <1>  -0.1500 
 14 O        3.3280     2.7510    -0.6100 O.3   1 <1>  -0.5600 
 15 N        5.7000     0.7180     0.5600 N.4   1 <1>  -0.9590 
 16 C        3.5890     2.1610    -1.8390 C.3   1 <1>   0.1200 
 17 C        5.7290     1.1010    -0.8910 C.3   1 <1>   0.3430 
 18 C        1.7320    -5.2220    -0.4110 C.ar  1 <1>  -0.1430 
 19 C        7.0330     0.8480     1.2080 C.3   1 <1>   0.2630 
 20 C        1.1170    -6.5320    -0.8740 C.3   1 <1>  -0.0170 
 21 C        0.1330    -7.0570     0.1860 C.3   1 <1>  -0.1600 
 22 C       -0.6070    -8.3520    -0.1930 C.3   1 <1>   0.2800 
 23 O       -1.2680    -8.1370    -1.3740 O.3   1 <1>  -0.6800 
 24 C       -1.6700    -8.6930     0.8490 C.3   1 <1>  -0.2400 
 25 C        0.3300    -9.5380    -0.4150 C.3   1 <1>  -0.2400 
 26 H        2.6710     0.7440     1.8840 H     1 <1>   0.0800 
 27 H        4.0640    -1.2310    -1.5400 H     1 <1>   0.0800 
 28 H        2.6230    -0.3070    -1.8080 H     1 <1>   0.0800 
 29 H        4.4020    -4.0280     1.2610 H     1 <1>   0.1500 
 30 H        1.1260    -1.9120    -0.4570 H     1 <1>   0.1500 
 31 H        2.0990     2.7650     0.9550 H     1 <1>   0.0800 
 32 H        1.6180     1.6750    -0.3190 H     1 <1>   0.0800 
 33 H        4.7790     1.1790     2.4040 H     1 <1>   0.0800 
 34 H        4.7110     2.4780     1.2490 H     1 <1>   0.0800 
 35 H        4.7350     0.6550    -2.6940 H     1 <1>   0.0800 
 36 H        3.4280    -6.1380     0.5110 H     1 <1>   0.1500 
 37 H        0.1590    -4.0210    -1.2100 H     1 <1>   0.1500 
 38 H        5.3990    -0.2760     0.6270 H     1 <1>   0.4500 
 39 H        2.6540     1.9760    -2.3420 H     1 <1>   0.0800 
 40 H        4.1370     2.8860    -2.4180 H     1 <1>   0.0800 
 41 H        6.0060     2.1400    -0.9760 H     1 <1>   0.0800 
 42 H        6.5040     0.5250    -1.3690 H     1 <1>   0.0800 
 43 H        7.3470     1.8800     1.2150 H     1 <1>   0.0800 
 44 H        7.7660     0.2650     0.6750 H     1 <1>   0.0800 
 45 H        6.9870     0.4920     2.2250 H     1 <1>   0.0800 
 46 H        0.6030    -6.3760    -1.8060 H     1 <1>   0.0800 
 47 H        1.8980    -7.2500    -1.0480 H     1 <1>   0.0800 
 48 H       -0.5980    -6.2920     0.3810 H     1 <1>   0.0800 
 49 H        0.6700    -7.2210     1.1030 H     1 <1>   0.0800 
 50 H       -1.7730    -8.9360    -1.6090 H     1 <1>   0.4000 
 51 H       -1.2060    -8.8620     1.8030 H     1 <1>   0.0800 
 52 H       -2.2070    -9.5830     0.5740 H     1 <1>   0.0800 
 53 H       -2.3670    -7.8800     0.9540 H     1 <1>   0.0800 
 54 H        0.9240    -9.7040     0.4650 H     1 <1>   0.0800 
 55 H        0.9910    -9.3570    -1.2430 H     1 <1>   0.0800 
 56 H       -0.2310   -10.4340    -0.6120 H     1 <1>   0.0800 
@<TRIPOS>BOND
  1   1   2  2   
  2   2   3  am  
  3   2   4  1   
  4   3   5  1   
  5   3   6  1   
  6   4   7  ar  
  7   4   8  ar  
  8   5   9  1   
  9   5  10  1   
 10   5  26  1   
 11   6  11  1   
 12   6  27  1   
 13   6  28  1   
 14   7  12  ar  
 15   7  29  1   
 16   8  13  ar  
 17   8  30  1   
 18   9  14  1   
 19   9  31  1   
 20   9  32  1   
 21  10  15  1   
 22  10  33  1   
 23  10  34  1   
 24  11  16  1   
 25  11  17  1   
 26  11  35  1   
 27  12  18  ar  
 28  12  36  1   
 29  13  18  ar  
 30  13  37  1   
 31  14  16  1   
 32  15  17  1   
 33  15  19  1   
 34  15  38  1   
 35  16  39  1   
 36  16  40  1   
 37  17  41  1   
 38  17  42  1   
 39  18  20  1   
 40  19  43  1   
 41  19  44  1   
 42  19  45  1   
 43  20  21  1   
 44  20  46  1   
 45  20  47  1   
 46  21  22  1   
 47  21  48  1   
 48  21  49  1   
 49  22  23  1   
 50  22  24  1   
 51  22  25  1   
 52  23  50  1   
 53  24  51  1   
 54  24  52  1   
 55  24  53  1   
 56  25  54  1   
 57  25  55  1   
 58  25  56  1   
@<TRIPOS>SUBSTRUCTURE
  1 ****   4 GROUP 4 **** **** 0

# MOE 2024.06 (io_trps.svl 2023.06)
