@<TRIPOS>MOLECULE
NONAME
50 53 1 0 0 
SMALL
USER_CHARGES


@<TRIPOS>ATOM
  1 O        1.3500    -0.3650    -2.1590 O.2   1 <1>  -0.5700 
  2 C        2.0120    -0.8190    -1.2480 C.2   1 <1>   0.7150 
  3 N        2.9270     0.0020    -0.6240 N.am  1 <1>  -0.6600 
  4 C        1.8480    -2.1920    -0.8480 C.2   1 <1>  -0.2370 
  5 C        3.5080    -0.3440     0.7270 C.3   1 <1>   0.2200 
  6 C        3.2300     1.3380    -1.2330 C.3   1 <1>   0.1400 
  7 N        0.6240    -2.7420    -0.5310 N.pl3 1 <1>   0.0480 
  8 C        2.7950    -3.1680    -0.7110 C.2   1 <1>  -0.1500 
  9 C        3.3260     0.7790     1.7610 C.3   1 <1>   0.1200 
 10 C        4.9980    -0.7410     0.6010 C.3   1 <1>   0.3430 
 11 C        4.4950     2.0350    -0.6940 C.3   1 <1>  -0.0800 
 12 C        0.8160    -4.0510    -0.1650 C.ar  1 <1>  -0.1520 
 13 C       -0.6890    -2.0740    -0.6560 C.3   1 <1>   0.0160 
 14 C        2.1700    -4.3440    -0.2700 C.ar  1 <1>   0.0000 
 15 O        4.3760     1.6970     1.6880 O.3   1 <1>  -0.5600 
 16 N        5.6080    -0.2740    -0.6960 N.4   1 <1>  -0.9590 
 17 C        4.2670     2.6560     0.6920 C.3   1 <1>   0.1200 
 18 C        5.7990     1.2110    -0.7540 C.3   1 <1>   0.3430 
 19 C       -0.0850    -5.0370     0.2530 C.ar  1 <1>  -0.1500 
 20 C        2.6370    -5.6260     0.0420 C.ar  1 <1>  -0.1500 
 21 C        6.8750    -1.0010    -0.9970 C.3   1 <1>   0.2630 
 22 C        0.3870    -6.2910     0.5600 C.ar  1 <1>  -0.1500 
 23 C        1.7510    -6.5930     0.4570 C.ar  1 <1>  -0.1440 
 24 C        2.2210    -7.9940     0.8040 C.3   1 <1>  -0.0970 
 25 H        2.9770    -1.1870     1.1330 H     1 <1>   0.0800 
 26 H        3.3360     1.2090    -2.2980 H     1 <1>   0.0800 
 27 H        2.3770     1.9800    -1.0840 H     1 <1>   0.0800 
 28 H        3.8470    -3.1060    -0.9100 H     1 <1>   0.1500 
 29 H        3.3630     0.3560     2.7500 H     1 <1>   0.0800 
 30 H        2.3800     1.2810     1.6480 H     1 <1>   0.0800 
 31 H        5.0560    -1.8150     0.6530 H     1 <1>   0.0800 
 32 H        5.5500    -0.3470     1.4380 H     1 <1>   0.0800 
 33 H        4.6510     2.8810    -1.3400 H     1 <1>   0.0800 
 34 H       -0.6100    -1.0530    -0.3320 H     1 <1>   0.0800 
 35 H       -1.4180    -2.5790    -0.0510 H     1 <1>   0.0800 
 36 H       -0.9970    -2.0960    -1.6860 H     1 <1>   0.0800 
 37 H        4.8920    -0.4960    -1.4080 H     1 <1>   0.4500 
 38 H        3.3050     3.1370     0.7650 H     1 <1>   0.0800 
 39 H        5.0240     3.3960     0.8900 H     1 <1>   0.0800 
 40 H        6.4480     1.5240     0.0490 H     1 <1>   0.0800 
 41 H        6.2960     1.4510    -1.6810 H     1 <1>   0.0800 
 42 H       -1.1330    -4.8150     0.3310 H     1 <1>   0.1500 
 43 H        3.6870    -5.8340    -0.0510 H     1 <1>   0.1500 
 44 H        7.6190    -0.7810    -0.2480 H     1 <1>   0.0800 
 45 H        7.2560    -0.7030    -1.9610 H     1 <1>   0.0800 
 46 H        6.7020    -2.0650    -1.0110 H     1 <1>   0.0800 
 47 H       -0.2960    -7.0570     0.8830 H     1 <1>   0.1500 
 48 H        1.7360    -8.7110     0.1650 H     1 <1>   0.0800 
 49 H        1.9780    -8.2190     1.8270 H     1 <1>   0.0800 
 50 H        3.2840    -8.0860     0.6760 H     1 <1>   0.0800 
@<TRIPOS>BOND
  1   1   2  2   
  2   2   3  am  
  3   2   4  1   
  4   3   5  1   
  5   3   6  1   
  6   4   7  1   
  7   4   8  2   
  8   5   9  1   
  9   5  10  1   
 10   5  25  1   
 11   6  11  1   
 12   6  26  1   
 13   6  27  1   
 14   7  12  1   
 15   7  13  1   
 16   8  14  1   
 17   8  28  1   
 18   9  15  1   
 19   9  29  1   
 20   9  30  1   
 21  10  16  1   
 22  10  31  1   
 23  10  32  1   
 24  11  17  1   
 25  11  18  1   
 26  11  33  1   
 27  12  14  ar  
 28  12  19  ar  
 29  13  34  1   
 30  13  35  1   
 31  13  36  1   
 32  14  20  ar  
 33  15  17  1   
 34  16  18  1   
 35  16  21  1   
 36  16  37  1   
 37  17  38  1   
 38  17  39  1   
 39  18  40  1   
 40  18  41  1   
 41  19  22  ar  
 42  19  42  1   
 43  20  23  ar  
 44  20  43  1   
 45  21  44  1   
 46  21  45  1   
 47  21  46  1   
 48  22  23  ar  
 49  22  47  1   
 50  23  24  1   
 51  24  48  1   
 52  24  49  1   
 53  24  50  1   
@<TRIPOS>SUBSTRUCTURE
  1 ****   4 GROUP 4 **** **** 0

# MOE 2024.06 (io_trps.svl 2023.06)
