@<TRIPOS>MOLECULE
NONAME
42 43 1 0 0 
SMALL
USER_CHARGES


@<TRIPOS>ATOM
  1 O        1.6410     3.2590     0.4330 O.2   1 <1>  -0.5700 
  2 C        0.6070     2.9160    -0.0860 C.2   1 <1>   0.5690 
  3 N       -0.6180     3.1590     0.4150 N.am  1 <1>  -0.6600 
  4 C        0.5170     2.2230    -1.4150 C.3   1 <1>  -0.0990 
  5 C       -1.7050     2.7730    -0.4990 C.3   1 <1>   0.1400 
  6 C       -0.8920     3.8860     1.6940 C.3   1 <1>   0.2010 
  7 C       -0.9730     2.3480    -1.7820 C.3   1 <1>  -0.1600 
  8 C       -0.7210     5.3990     1.5740 C.2   1 <1>   0.5690 
  9 O       -1.6540     6.1040     1.8840 O.2   1 <1>  -0.5700 
 10 N        0.4820     5.8780     1.1250 N.am  1 <1>  -0.4940 
 11 C        0.9050     7.2190     0.9300 C.2   1 <1>  -0.0880 
 12 N        2.0820     7.6180     0.3630 N.pl3 1 <1>   0.3140 
 13 C        0.2460     8.3550     1.2580 C.2   1 <1>  -0.1500 
 14 N        2.1750     8.9710     0.3270 N.2   1 <1>  -0.7070 
 15 C        3.1870     6.7910    -0.2000 C.3   1 <1>   0.1760 
 16 C        1.0760     9.3940     0.8630 C.2   1 <1>   0.1080 
 17 C        2.6950     5.9970    -1.4290 C.3   1 <1>  -0.1600 
 18 C        3.8370     5.9280     0.8960 C.3   1 <1>  -0.2400 
 19 C        0.7680    10.8630     1.0230 C.3   1 <1>  -0.0590 
 20 C        3.7940     5.1740    -2.1170 C.3   1 <1>  -0.2400 
 21 H        0.8040     1.1940    -1.2930 H     1 <1>   0.0800 
 22 H        1.1510     2.7020    -2.1380 H     1 <1>   0.0800 
 23 H       -2.3640     3.6050    -0.6800 H     1 <1>   0.0800 
 24 H       -2.2570     1.9500    -0.0760 H     1 <1>   0.0800 
 25 H       -0.2150     3.5310     2.4500 H     1 <1>   0.0800 
 26 H       -1.8940     3.6730     2.0200 H     1 <1>   0.0800 
 27 H       -1.3700     1.4260    -2.1700 H     1 <1>   0.0800 
 28 H       -1.1010     3.1160    -2.5250 H     1 <1>   0.0800 
 29 H        1.1490     5.1370     0.8660 H     1 <1>   0.3700 
 30 H       -0.7170     8.4530     1.7240 H     1 <1>   0.1500 
 31 H        3.9350     7.4830    -0.5430 H     1 <1>   0.0800 
 32 H        2.3020     6.7010    -2.1430 H     1 <1>   0.0800 
 33 H        1.8960     5.3380    -1.1500 H     1 <1>   0.0800 
 34 H        3.1710     5.1590     1.2380 H     1 <1>   0.0800 
 35 H        4.1110     6.5490     1.7310 H     1 <1>   0.0800 
 36 H        4.7300     5.4610     0.5250 H     1 <1>   0.0800 
 37 H       -0.1930    10.9970     1.4840 H     1 <1>   0.0800 
 38 H        0.7670    11.3350     0.0580 H     1 <1>   0.0800 
 39 H        1.5210    11.3220     1.6360 H     1 <1>   0.0800 
 40 H        4.6340     5.7980    -2.3650 H     1 <1>   0.0800 
 41 H        3.4110     4.7410    -3.0240 H     1 <1>   0.0800 
 42 H        4.1260     4.3740    -1.4790 H     1 <1>   0.0800 
@<TRIPOS>BOND
  1   1   2  2   
  2   2   3  am  
  3   2   4  1   
  4   3   5  1   
  5   3   6  1   
  6   4   7  1   
  7   4  21  1   
  8   4  22  1   
  9   5   7  1   
 10   5  23  1   
 11   5  24  1   
 12   6   8  1   
 13   6  25  1   
 14   6  26  1   
 15   7  27  1   
 16   7  28  1   
 17   8   9  2   
 18   8  10  am  
 19  10  11  1   
 20  10  29  1   
 21  11  12  1   
 22  11  13  2   
 23  12  14  1   
 24  12  15  1   
 25  13  16  1   
 26  13  30  1   
 27  14  16  2   
 28  15  17  1   
 29  15  18  1   
 30  15  31  1   
 31  16  19  1   
 32  17  20  1   
 33  17  32  1   
 34  17  33  1   
 35  18  34  1   
 36  18  35  1   
 37  18  36  1   
 38  19  37  1   
 39  19  38  1   
 40  19  39  1   
 41  20  40  1   
 42  20  41  1   
 43  20  42  1   
@<TRIPOS>SUBSTRUCTURE
  1 ****  10 GROUP 4 **** **** 0

# MOE 2024.06 (io_trps.svl 2023.06)
