@<TRIPOS>MOLECULE
NONAME
50 53 1 0 0 
SMALL
USER_CHARGES


@<TRIPOS>ATOM
  1 O        0.2350     1.3000    -0.5110 O.2   1 <1>  -0.5700 
  2 C        0.6210     2.3830    -0.1010 C.2   1 <1>   0.6900 
  3 N        1.9760     2.6930    -0.1620 N.am  1 <1>  -0.4200 
  4 N       -0.2820     3.2940     0.4150 N.am  1 <1>  -0.4230 
  5 C        2.4370     3.9290     0.2530 C.2   1 <1>   0.7150 
  6 C        2.9280     1.6850    -0.7160 C.3   1 <1>   0.0600 
  7 C        0.1820     4.5270     0.8580 C.2   1 <1>   0.2900 
  8 C       -1.7390     3.0120     0.5140 C.3   1 <1>   0.0600 
  9 O        3.6160     4.2260     0.1540 O.2   1 <1>  -0.5700 
 10 C        1.4930     4.8410     0.7850 C.2   1 <1>  -0.2370 
 11 N       -0.5500     5.5170     1.3840 N.2   1 <1>  -0.5650 
 12 N        1.5980     6.0950     1.2960 N.pl3 1 <1>   0.0480 
 13 C        0.3350     6.4330     1.6340 C.2   1 <1>   0.0360 
 14 C        2.8180     6.9120     1.4480 C.3   1 <1>   0.0960 
 15 C        3.2030     7.5370     0.1040 C.3   1 <1>   0.1100 
 16 N        4.3080     8.4950     0.2750 N.3   1 <1>  -0.8100 
 17 C        4.3610     9.4390    -0.8630 C.3   1 <1>   0.2900 
 18 C        5.5980     7.7990     0.4510 C.3   1 <1>   0.0300 
 19 C        5.3600    10.5600    -0.6340 C.2   1 <1>  -0.0400 
 20 O        6.5960    10.4340    -1.0310 O.3   1 <1>  -0.0190 
 21 C        5.2370    11.7700    -0.0740 C.2   1 <1>  -0.1500 
 22 N        7.3070    11.4880    -0.7660 N.2   1 <1>  -0.4100 
 23 C        6.5140    12.3370    -0.1760 C.2   1 <1>   0.2350 
 24 C        6.8800    13.6620     0.3010 C.ar  1 <1>   0.3640 
 25 N        5.9260    14.4260     0.8520 N.ar  1 <1>  -0.6200 
 26 C        8.1960    14.1120     0.1820 C.ar  1 <1>  -0.1500 
 27 C        6.2890    15.6240     1.2760 C.ar  1 <1>   0.1600 
 28 C        8.5620    15.3620     0.6270 C.ar  1 <1>  -0.1500 
 29 C        7.5710    16.1350     1.1900 C.ar  1 <1>  -0.1500 
 30 H        2.6570     0.6990    -0.3790 H     1 <1>   0.0800 
 31 H        3.9340     1.8870    -0.3930 H     1 <1>   0.0800 
 32 H        2.8890     1.7100    -1.7900 H     1 <1>   0.0800 
 33 H       -1.9650     2.0140     0.1830 H     1 <1>   0.0800 
 34 H       -2.2790     3.7150    -0.0950 H     1 <1>   0.0800 
 35 H       -2.0540     3.1220     1.5360 H     1 <1>   0.0800 
 36 H        0.0980     7.3880     2.0720 H     1 <1>   0.1500 
 37 H        3.6080     6.2830     1.8130 H     1 <1>   0.0800 
 38 H        2.6290     7.6910     2.1640 H     1 <1>   0.0800 
 39 H        2.3400     8.0560    -0.2790 H     1 <1>   0.0800 
 40 H        3.4840     6.7710    -0.6000 H     1 <1>   0.0800 
 41 H        3.3910     9.8890    -0.9850 H     1 <1>   0.0800 
 42 H        4.6040     8.9160    -1.7720 H     1 <1>   0.0800 
 43 H        5.5480     7.1060     1.2720 H     1 <1>   0.0800 
 44 H        6.3770     8.5080     0.6750 H     1 <1>   0.0800 
 45 H        5.8630     7.2590    -0.4420 H     1 <1>   0.0800 
 46 H        4.3800    12.2420     0.3680 H     1 <1>   0.1500 
 47 H        8.9330    13.4690    -0.2650 H     1 <1>   0.1500 
 48 H        5.5200    16.2360     1.7180 H     1 <1>   0.1500 
 49 H        9.5740    15.7190     0.5390 H     1 <1>   0.1500 
 50 H        7.7870    17.1210     1.5580 H     1 <1>   0.1500 
@<TRIPOS>BOND
  1   1   2  2   
  2   2   3  am  
  3   2   4  am  
  4   3   5  am  
  5   3   6  1   
  6   4   7  1   
  7   4   8  1   
  8   5   9  2   
  9   5  10  1   
 10   6  30  1   
 11   6  31  1   
 12   6  32  1   
 13   7  10  2   
 14   7  11  1   
 15   8  33  1   
 16   8  34  1   
 17   8  35  1   
 18  10  12  1   
 19  11  13  2   
 20  12  13  1   
 21  12  14  1   
 22  13  36  1   
 23  14  15  1   
 24  14  37  1   
 25  14  38  1   
 26  15  16  1   
 27  15  39  1   
 28  15  40  1   
 29  16  17  1   
 30  16  18  1   
 31  17  19  1   
 32  17  41  1   
 33  17  42  1   
 34  18  43  1   
 35  18  44  1   
 36  18  45  1   
 37  19  20  1   
 38  19  21  2   
 39  20  22  1   
 40  21  23  1   
 41  21  46  1   
 42  22  23  2   
 43  23  24  1   
 44  24  25  ar  
 45  24  26  ar  
 46  25  27  ar  
 47  26  28  ar  
 48  26  47  1   
 49  27  29  ar  
 50  27  48  1   
 51  28  29  ar  
 52  28  49  1   
 53  29  50  1   
@<TRIPOS>SUBSTRUCTURE
  1 ****  16 GROUP 4 **** **** 0

# MOE 2024.06 (io_trps.svl 2023.06)
