@<TRIPOS>MOLECULE
NONAME
40 41 1 0 0 
SMALL
USER_CHARGES


@<TRIPOS>ATOM
  1 S        0.5860     0.2420    -1.4370 S.o2  1 <1>   1.3330 
  2 O        0.8840    -1.0370    -2.0430 O.2   1 <1>  -0.6500 
  3 O       -0.2700     1.1780    -2.1300 O.2   1 <1>  -0.6500 
  4 N       -0.1240    -0.0570     0.0780 N.am  1 <1>  -0.8490 
  5 C        2.1400     1.0460    -1.0400 C.3   1 <1>  -0.0550 
  6 C       -0.7590     1.1290     0.6640 C.3   1 <1>   0.1160 
  7 C       -1.0880    -1.1590     0.0240 C.3   1 <1>   0.1160 
  8 C        3.1700     0.1310    -0.3440 C.3   1 <1>  -0.0800 
  9 C        4.5390     0.7580    -0.1490 C.3   1 <1>   0.2890 
 10 C        2.7990    -0.3050     1.0780 C.3   1 <1>   0.1200 
 11 N        4.4060     2.1610     0.3130 N.pl3 1 <1>  -0.8690 
 12 C        5.0860    -0.1000     0.9850 C.3   1 <1>   0.1200 
 13 O        3.9920    -0.3940     1.8020 O.3   1 <1>  -0.5600 
 14 C        4.9090     3.2320    -0.3320 C.ar  1 <1>   0.7200 
 15 N        5.1920     4.2600     0.4480 N.ar  1 <1>  -0.6200 
 16 N        5.0600     3.1550    -1.6460 N.ar  1 <1>  -0.6200 
 17 C        5.6860     5.3430    -0.1390 C.ar  1 <1>   0.1670 
 18 C        5.5450     4.2250    -2.2210 C.ar  1 <1>   0.1600 
 19 C        5.8780     5.3530    -1.5090 C.ar  1 <1>  -0.1500 
 20 C        6.0480     6.5920     0.7150 C.3   1 <1>   1.1630 
 21 F        6.5260     7.5980    -0.0140 F     1 <1>  -0.3400 
 22 F        6.9780     6.3390     1.6310 F     1 <1>  -0.3400 
 23 F        5.0020     7.0880     1.3700 F     1 <1>  -0.3400 
 24 H        2.5780     1.4000    -1.9530 H     1 <1>   0.0800 
 25 H        1.9490     1.9060    -0.4290 H     1 <1>   0.0800 
 26 H       -1.1190     0.9040     1.6540 H     1 <1>   0.0800 
 27 H       -1.5880     1.4540     0.0560 H     1 <1>   0.0800 
 28 H       -0.0490     1.9340     0.7380 H     1 <1>   0.0800 
 29 H       -1.5090    -1.3350     0.9990 H     1 <1>   0.0800 
 30 H       -0.5970    -2.0630    -0.2970 H     1 <1>   0.0800 
 31 H       -1.8790    -0.9310    -0.6700 H     1 <1>   0.0800 
 32 H        3.2950    -0.7590    -0.9360 H     1 <1>   0.0800 
 33 H        5.1540     0.6930    -1.0310 H     1 <1>   0.0800 
 34 H        2.3040    -1.2610     1.0910 H     1 <1>   0.0800 
 35 H        2.1820     0.4300     1.5650 H     1 <1>   0.0800 
 36 H        4.3730     2.2670     1.3280 H     1 <1>   0.4000 
 37 H        5.8450     0.4020     1.5590 H     1 <1>   0.0800 
 38 H        5.4680    -1.0310     0.6040 H     1 <1>   0.0800 
 39 H        5.6810     4.2050    -3.2900 H     1 <1>   0.1500 
 40 H        6.2750     6.2080    -2.0260 H     1 <1>   0.1500 
@<TRIPOS>BOND
  1   1   2  2   
  2   1   3  2   
  3   1   4  am  
  4   1   5  1   
  5   4   6  1   
  6   4   7  1   
  7   5   8  1   
  8   5  24  1   
  9   5  25  1   
 10   6  26  1   
 11   6  27  1   
 12   6  28  1   
 13   7  29  1   
 14   7  30  1   
 15   7  31  1   
 16   8   9  1   
 17   8  10  1   
 18   8  32  1   
 19   9  11  1   
 20   9  12  1   
 21   9  33  1   
 22  10  13  1   
 23  10  34  1   
 24  10  35  1   
 25  11  14  1   
 26  11  36  1   
 27  12  13  1   
 28  12  37  1   
 29  12  38  1   
 30  14  15  ar  
 31  14  16  ar  
 32  15  17  ar  
 33  16  18  ar  
 34  17  19  ar  
 35  17  20  1   
 36  18  19  ar  
 37  18  39  1   
 38  19  40  1   
 39  20  21  1   
 40  20  22  1   
 41  20  23  1   
@<TRIPOS>SUBSTRUCTURE
  1 ****  11 GROUP 4 **** **** 0

# MOE 2024.06 (io_trps.svl 2023.06)
