@<TRIPOS>MOLECULE
NONAME
57 58 1 0 0 
SMALL
USER_CHARGES


@<TRIPOS>ATOM
  1 O       -0.0110    -0.5720     0.1240 O.2   1 <1>  -0.5700 
  2 C        1.1440    -0.9190     0.0500 C.2   1 <1>   0.5690 
  3 N        2.2050    -0.0500    -0.0060 N.am  1 <1>  -0.5470 
  4 C        1.3980    -2.4370     0.0140 C.3   1 <1>   0.4040 
  5 C        2.2310     1.3550    -0.0310 C.ar  1 <1>   0.1170 
  6 N        0.1930    -3.2270    -0.4540 N.4   1 <1>  -0.9590 
  7 C        1.1460     2.1380    -0.4120 C.ar  1 <1>  -0.1500 
  8 C        3.4090     1.9990     0.3260 C.ar  1 <1>  -0.1500 
  9 C        0.2650    -4.6590    -0.0530 C.3   1 <1>   0.3430 
 10 C       -0.0520    -3.0240    -1.9190 C.3   1 <1>   0.2630 
 11 C        1.2390     3.5180    -0.4290 C.ar  1 <1>  -0.1500 
 12 C        3.5030     3.3780     0.3070 C.ar  1 <1>  -0.1500 
 13 C       -1.1160    -5.3120    -0.1510 C.3   1 <1>  -0.1600 
 14 C        2.4180     4.1550    -0.0710 C.ar  1 <1>  -0.1430 
 15 C       -1.1090    -6.7730     0.3330 C.3   1 <1>  -0.0800 
 16 C        2.5340     5.6790    -0.0850 C.3   1 <1>   0.0630 
 17 C       -2.4980    -7.4010     0.1260 C.3   1 <1>  -0.1600 
 18 C       -0.7130    -6.9020     1.8160 C.3   1 <1>  -0.1600 
 19 C        1.5690     6.2940     0.9460 C.3   1 <1>  -0.1600 
 20 C        2.3010     6.2140    -1.5040 C.3   1 <1>  -0.2400 
 21 C       -2.5710    -8.8060     0.7360 C.3   1 <1>   0.1200 
 22 C       -0.9030    -8.3390     2.3170 C.3   1 <1>   0.1200 
 23 C        1.7610     7.8050     1.1410 C.3   1 <1>  -0.2400 
 24 O       -2.2150    -8.7360     2.0800 O.3   1 <1>  -0.5600 
 25 H        3.1420    -0.4510     0.0210 H     1 <1>   0.3700 
 26 H        1.6550    -2.7420     1.0130 H     1 <1>   0.0800 
 27 H        2.2370    -2.6390    -0.6280 H     1 <1>   0.0800 
 28 H       -0.6070    -2.7830     0.0370 H     1 <1>   0.4500 
 29 H        0.2170     1.6860    -0.7020 H     1 <1>   0.1500 
 30 H        4.2680     1.4280     0.6270 H     1 <1>   0.1500 
 31 H        0.6050    -4.7280     0.9680 H     1 <1>   0.0800 
 32 H        0.9650    -5.1880    -0.6790 H     1 <1>   0.0800 
 33 H        0.7550    -3.4410    -2.5000 H     1 <1>   0.0800 
 34 H       -0.1330    -1.9710    -2.1410 H     1 <1>   0.0800 
 35 H       -0.9720    -3.5000    -2.2160 H     1 <1>   0.0800 
 36 H        0.3820     4.0970    -0.7260 H     1 <1>   0.1500 
 37 H        4.4280     3.8480     0.5910 H     1 <1>   0.1500 
 38 H       -1.4500    -5.3010    -1.1730 H     1 <1>   0.0800 
 39 H       -1.8200    -4.7540     0.4430 H     1 <1>   0.0800 
 40 H       -0.4030    -7.3370    -0.2560 H     1 <1>   0.0800 
 41 H        3.5370     5.9440     0.2030 H     1 <1>   0.0800 
 42 H       -2.7260    -7.4640    -0.9230 H     1 <1>   0.0800 
 43 H       -3.2560    -6.7960     0.5930 H     1 <1>   0.0800 
 44 H       -1.3250    -6.2560     2.4230 H     1 <1>   0.0800 
 45 H        0.3150    -6.6260     1.9650 H     1 <1>   0.0800 
 46 H        1.7290     5.8060     1.8930 H     1 <1>   0.0800 
 47 H        0.5520     6.1030     0.6530 H     1 <1>   0.0800 
 48 H        1.2780     6.0740    -1.8030 H     1 <1>   0.0800 
 49 H        2.9350     5.6920    -2.1990 H     1 <1>   0.0800 
 50 H        2.5360     7.2610    -1.5590 H     1 <1>   0.0800 
 51 H       -1.9080    -9.4910     0.2370 H     1 <1>   0.0800 
 52 H       -3.5760    -9.1890     0.6830 H     1 <1>   0.0800 
 53 H       -0.7310    -8.3980     3.3780 H     1 <1>   0.0800 
 54 H       -0.2400    -9.0260     1.8170 H     1 <1>   0.0800 
 55 H        2.7790     8.0250     1.4080 H     1 <1>   0.0800 
 56 H        1.1190     8.1530     1.9310 H     1 <1>   0.0800 
 57 H        1.5100     8.3430     0.2440 H     1 <1>   0.0800 
@<TRIPOS>BOND
  1   1   2  2   
  2   2   3  am  
  3   2   4  1   
  4   3   5  1   
  5   3  25  1   
  6   4   6  1   
  7   4  26  1   
  8   4  27  1   
  9   5   7  ar  
 10   5   8  ar  
 11   6   9  1   
 12   6  10  1   
 13   6  28  1   
 14   7  11  ar  
 15   7  29  1   
 16   8  12  ar  
 17   8  30  1   
 18   9  13  1   
 19   9  31  1   
 20   9  32  1   
 21  10  33  1   
 22  10  34  1   
 23  10  35  1   
 24  11  14  ar  
 25  11  36  1   
 26  12  14  ar  
 27  12  37  1   
 28  13  15  1   
 29  13  38  1   
 30  13  39  1   
 31  14  16  1   
 32  15  17  1   
 33  15  18  1   
 34  15  40  1   
 35  16  19  1   
 36  16  20  1   
 37  16  41  1   
 38  17  21  1   
 39  17  42  1   
 40  17  43  1   
 41  18  22  1   
 42  18  44  1   
 43  18  45  1   
 44  19  23  1   
 45  19  46  1   
 46  19  47  1   
 47  20  48  1   
 48  20  49  1   
 49  20  50  1   
 50  21  24  1   
 51  21  51  1   
 52  21  52  1   
 53  22  24  1   
 54  22  53  1   
 55  22  54  1   
 56  23  55  1   
 57  23  56  1   
 58  23  57  1   
@<TRIPOS>SUBSTRUCTURE
  1 ****   2 GROUP 4 **** **** 0

# MOE 2024.06 (io_trps.svl 2023.06)
