@<TRIPOS>MOLECULE
NONAME
40 41 1 0 0 
SMALL
USER_CHARGES


@<TRIPOS>ATOM
  1 CL       1.4220    -1.5700    -2.9990 Cl    1 <1>  -0.1770 
  2 C        2.1410    -0.8500    -1.5830 C.ar  1 <1>   0.1770 
  3 C        1.3260    -0.4440    -0.5440 C.ar  1 <1>  -0.1500 
  4 C        3.5160    -0.6970    -1.5280 C.ar  1 <1>  -0.1500 
  5 C        1.9210     0.1240     0.5650 C.ar  1 <1>   0.1770 
  6 C        4.1030    -0.1250    -0.4060 C.ar  1 <1>  -0.1440 
  7 CL       0.9220     0.6570     1.8920 Cl    1 <1>  -0.1770 
  8 C        3.2930     0.2840     0.6460 C.ar  1 <1>  -0.1500 
  9 C        5.6070     0.0660    -0.3190 C.3   1 <1>   0.2840 
 10 N        5.8820     1.5130    -0.3390 N.am  1 <1>  -0.7300 
 11 C        6.5840     2.1800     0.6100 C.2   1 <1>   0.5690 
 12 O        7.1400     1.6030     1.5110 O.2   1 <1>  -0.5700 
 13 C        6.6460     3.7050     0.5560 C.3   1 <1>  -0.0190 
 14 C        5.2420     4.3340     0.6540 C.3   1 <1>  -0.1600 
 15 C        7.4090     4.2150    -0.6910 C.3   1 <1>  -0.1600 
 16 C        5.3000     5.8720     0.7620 C.3   1 <1>   0.2000 
 17 C        7.0510     5.6620    -1.0860 C.3   1 <1>  -0.1600 
 18 O        4.1650     6.3930     0.1140 O.3   1 <1>  -0.5600 
 19 C        6.5770     6.4760     0.1210 C.3   1 <1>   0.2000 
 20 C        2.9950     6.3850     0.8720 C.3   1 <1>   0.0400 
 21 O        6.3050     7.7580    -0.3100 O.3   1 <1>  -0.6800 
 22 H        0.2600    -0.5650    -0.5980 H     1 <1>   0.1500 
 23 H        4.1110    -1.0260    -2.3610 H     1 <1>   0.1500 
 24 H        3.7240     0.7290     1.5260 H     1 <1>   0.1500 
 25 H        6.1010    -0.4030    -1.1530 H     1 <1>   0.0800 
 26 H        5.9810    -0.3760     0.5890 H     1 <1>   0.0800 
 27 H        5.3870     2.0360    -1.0620 H     1 <1>   0.3700 
 28 H        7.1960     4.0190     1.4260 H     1 <1>   0.0800 
 29 H        4.7350     3.9400     1.5170 H     1 <1>   0.0800 
 30 H        4.6800     4.0630    -0.2220 H     1 <1>   0.0800 
 31 H        8.4640     4.1530    -0.4860 H     1 <1>   0.0800 
 32 H        7.2160     3.5800    -1.5380 H     1 <1>   0.0800 
 33 H        5.2800     6.1740     1.7960 H     1 <1>   0.0800 
 34 H        6.2580     5.6410    -1.8130 H     1 <1>   0.0800 
 35 H        7.9070     6.1370    -1.5340 H     1 <1>   0.0800 
 36 H        7.3700     6.5330     0.8470 H     1 <1>   0.0800 
 37 H        2.2080     6.8120     0.2760 H     1 <1>   0.0800 
 38 H        3.1400     6.9810     1.7570 H     1 <1>   0.0800 
 39 H        2.7400     5.3730     1.1330 H     1 <1>   0.0800 
 40 H        5.3500     7.7630    -0.5480 H     1 <1>   0.4000 
@<TRIPOS>BOND
  1   1   2  1   
  2   2   3  ar  
  3   2   4  ar  
  4   3   5  ar  
  5   3  22  1   
  6   4   6  ar  
  7   4  23  1   
  8   5   7  1   
  9   5   8  ar  
 10   6   8  ar  
 11   6   9  1   
 12   8  24  1   
 13   9  10  1   
 14   9  25  1   
 15   9  26  1   
 16  10  11  am  
 17  10  27  1   
 18  11  12  2   
 19  11  13  1   
 20  13  14  1   
 21  13  15  1   
 22  13  28  1   
 23  14  16  1   
 24  14  29  1   
 25  14  30  1   
 26  15  17  1   
 27  15  31  1   
 28  15  32  1   
 29  16  18  1   
 30  16  19  1   
 31  16  33  1   
 32  17  19  1   
 33  17  34  1   
 34  17  35  1   
 35  18  20  1   
 36  19  21  1   
 37  19  36  1   
 38  20  37  1   
 39  20  38  1   
 40  20  39  1   
 41  21  40  1   
@<TRIPOS>SUBSTRUCTURE
  1 ****  10 GROUP 4 **** **** 0

# MOE 2024.06 (io_trps.svl 2023.06)
