@<TRIPOS>MOLECULE
NONAME
42 45 1 0 0 
SMALL
USER_CHARGES


@<TRIPOS>ATOM
  1 O       -0.7910     0.1470    -0.7600 O.2   1 <1>  -0.5700 
  2 C       -1.5140     0.7780    -0.0090 C.2   1 <1>   0.7160 
  3 N       -2.5520     0.1140     0.6080 N.am  1 <1>  -0.6600 
  4 C       -1.2890     2.1950     0.1980 C.2   1 <1>  -0.0860 
  5 C       -2.5950    -1.3810     0.6700 C.3   1 <1>   0.1400 
  6 C       -3.9000     0.7340     0.7770 C.3   1 <1>   0.1400 
  7 C       -1.6380     3.0060     1.2510 C.2   1 <1>  -0.3020 
  8 C       -0.6120     3.0440    -0.7020 C.2   1 <1>  -0.1500 
  9 C       -3.6880    -1.9390    -0.2600 C.3   1 <1>   0.3440 
 10 C       -4.9350     0.0550    -0.1450 C.3   1 <1>   0.2950 
 11 N       -1.2220     4.2740     1.0310 N.pl3 1 <1>   0.0330 
 12 C       -0.5930     4.2920    -0.1720 C.2   1 <1>  -0.3020 
 13 O       -4.9200    -1.3310     0.0330 O.3   1 <1>  -0.5600 
 14 C       -3.8070    -3.4520    -0.1000 C.ar  1 <1>  -0.1430 
 15 C       -6.3550     0.5430     0.1530 C.3   1 <1>  -0.1950 
 16 C       -4.6690    -4.0210     0.8290 C.ar  1 <1>  -0.1500 
 17 C       -3.0270    -4.2840    -0.8900 C.ar  1 <1>  -0.1500 
 18 C       -7.4400     0.4400    -0.8720 C.3   1 <1>  -0.2000 
 19 C       -6.8960     1.7860    -0.4820 C.3   1 <1>  -0.2000 
 20 C       -4.7490    -5.3960     0.9650 C.ar  1 <1>  -0.1500 
 21 C       -3.1050    -5.6600    -0.7550 C.ar  1 <1>  -0.1500 
 22 C       -3.9670    -6.2170     0.1730 C.ar  1 <1>  -0.1500 
 23 H       -1.6440    -1.8010     0.3920 H     1 <1>   0.0800 
 24 H       -2.8030    -1.6890     1.6790 H     1 <1>   0.0800 
 25 H       -4.2120     0.6310     1.8010 H     1 <1>   0.0800 
 26 H       -3.8710     1.7820     0.5400 H     1 <1>   0.0800 
 27 H       -2.1570     2.7200     2.1480 H     1 <1>   0.1500 
 28 H       -0.1940     2.7150    -1.6390 H     1 <1>   0.1500 
 29 H       -3.4400    -1.7110    -1.2830 H     1 <1>   0.0800 
 30 H       -4.6940     0.2630    -1.1740 H     1 <1>   0.0800 
 31 H       -1.3440     5.0780     1.6580 H     1 <1>   0.2700 
 32 H       -0.1610     5.1870    -0.5840 H     1 <1>   0.1500 
 33 H       -6.6360     0.3550     1.1750 H     1 <1>   0.1000 
 34 H       -5.2850    -3.3910     1.4470 H     1 <1>   0.1500 
 35 H       -2.3510    -3.8650    -1.6160 H     1 <1>   0.1500 
 36 H       -7.1970     0.0350    -1.8400 H     1 <1>   0.1000 
 37 H       -8.4260     0.1580    -0.5460 H     1 <1>   0.1000 
 38 H       -7.5190     2.4410     0.1030 H     1 <1>   0.1000 
 39 H       -6.3010     2.3200    -1.2030 H     1 <1>   0.1000 
 40 H       -5.4220    -5.8250     1.6860 H     1 <1>   0.1500 
 41 H       -2.4960    -6.2970    -1.3730 H     1 <1>   0.1500 
 42 H       -4.0290    -7.2860     0.2780 H     1 <1>   0.1500 
@<TRIPOS>BOND
  1   1   2  2   
  2   2   3  am  
  3   2   4  1   
  4   3   5  1   
  5   3   6  1   
  6   4   7  2   
  7   4   8  1   
  8   5   9  1   
  9   5  23  1   
 10   5  24  1   
 11   6  10  1   
 12   6  25  1   
 13   6  26  1   
 14   7  11  1   
 15   7  27  1   
 16   8  12  2   
 17   8  28  1   
 18   9  13  1   
 19   9  14  1   
 20   9  29  1   
 21  10  13  1   
 22  10  15  1   
 23  10  30  1   
 24  11  12  1   
 25  11  31  1   
 26  12  32  1   
 27  14  16  ar  
 28  14  17  ar  
 29  15  18  1   
 30  15  19  1   
 31  15  33  1   
 32  16  20  ar  
 33  16  34  1   
 34  17  21  ar  
 35  17  35  1   
 36  18  19  1   
 37  18  36  1   
 38  18  37  1   
 39  19  38  1   
 40  19  39  1   
 41  20  22  ar  
 42  20  40  1   
 43  21  22  ar  
 44  21  41  1   
 45  22  42  1   
@<TRIPOS>SUBSTRUCTURE
  1 ****   3 GROUP 4 **** **** 0

# MOE 2024.06 (io_trps.svl 2023.06)
