@<TRIPOS>MOLECULE
NONAME
56 59 1 0 0 
SMALL
USER_CHARGES


@<TRIPOS>ATOM
  1 S        1.0020    -2.9030     0.7650 S.3   1 <1>  -0.0800 
  2 C        0.8570    -3.0530    -0.9690 C.2   1 <1>   0.2280 
  3 C       -0.6530    -2.3740     0.8220 C.2   1 <1>  -0.1100 
  4 N       -0.2880    -2.7460    -1.4330 N.2   1 <1>  -0.5650 
  5 C       -1.1570    -2.3560    -0.4240 C.2   1 <1>   0.0460 
  6 C       -2.5490    -1.9640    -0.9050 C.3   1 <1>   0.0210 
  7 C       -3.6500    -1.7230     0.1630 C.3   1 <1>   0.0610 
  8 C       -3.8080    -2.9950     1.0090 C.2   1 <1>   0.5690 
  9 C       -3.3600    -0.4350     0.9770 C.3   1 <1>   0.2200 
 10 C       -4.9760    -1.3130    -0.5580 C.3   1 <1>  -0.1600 
 11 O       -3.3450    -3.0580     2.1230 O.2   1 <1>  -0.5700 
 12 N       -4.4650    -4.0570     0.4760 N.am  1 <1>  -0.7300 
 13 N       -3.8010     0.5740     0.0220 N.am  1 <1>  -0.6600 
 14 C       -4.4030    -0.1760     2.0840 C.3   1 <1>  -0.1600 
 15 C       -5.1780     0.1560    -0.1570 C.3   1 <1>   0.2200 
 16 C       -4.7900    -5.2980     1.1990 C.3   1 <1>   0.2840 
 17 C       -3.1590     1.7350    -0.3080 C.2   1 <1>   0.5690 
 18 C       -5.6650     0.2120     1.2920 C.3   1 <1>  -0.1600 
 19 C       -6.2500    -5.6140     0.9300 C.ar  1 <1>  -0.1430 
 20 O       -2.0240     1.9390     0.0570 O.2   1 <1>  -0.5700 
 21 C       -3.8290     2.7950    -1.1870 C.3   1 <1>   0.1810 
 22 C       -6.6010    -6.5770    -0.0090 C.ar  1 <1>  -0.1500 
 23 C       -7.2380    -4.9260     1.6220 C.ar  1 <1>  -0.1500 
 24 O       -5.1140     3.1570    -0.7370 O.3   1 <1>  -0.5600 
 25 C       -7.9330    -6.8630    -0.2670 C.ar  1 <1>  -0.1430 
 26 C       -8.5740    -5.1970     1.3800 C.ar  1 <1>  -0.1500 
 27 C       -5.6930     4.1950    -1.4580 C.3   1 <1>   0.0400 
 28 C       -8.8960    -6.1580     0.4410 C.ar  1 <1>   0.1900 
 29 C       -8.3210    -7.9170    -1.2930 C.3   1 <1>  -0.0970 
 30 F      -10.1610    -6.4010     0.2210 F     1 <1>  -0.1900 
 31 H        1.7280    -3.3860    -1.5060 H     1 <1>   0.1500 
 32 H       -1.0570    -2.1370     1.7890 H     1 <1>   0.1500 
 33 H       -2.4360    -1.0860    -1.5160 H     1 <1>   0.0800 
 34 H       -2.8830    -2.7510    -1.5570 H     1 <1>   0.0800 
 35 H       -2.3400    -0.3070     1.2970 H     1 <1>   0.0800 
 36 H       -5.8230    -1.8980    -0.2480 H     1 <1>   0.0800 
 37 H       -4.8920    -1.3810    -1.6280 H     1 <1>   0.0800 
 38 H       -4.8750    -4.0000    -0.4560 H     1 <1>   0.3700 
 39 H       -4.5690    -1.0160     2.7310 H     1 <1>   0.0800 
 40 H       -4.0750     0.6530     2.6870 H     1 <1>   0.0800 
 41 H       -5.7510     0.7450    -0.8530 H     1 <1>   0.0800 
 42 H       -4.1560    -6.0940     0.8480 H     1 <1>   0.0800 
 43 H       -4.6270    -5.1730     2.2570 H     1 <1>   0.0800 
 44 H       -5.9690     1.2160     1.5330 H     1 <1>   0.0800 
 45 H       -6.4870    -0.4580     1.4700 H     1 <1>   0.0800 
 46 H       -3.9130     2.4160    -2.1880 H     1 <1>   0.0800 
 47 H       -3.2120     3.6760    -1.1900 H     1 <1>   0.0800 
 48 H       -5.8310    -7.1070    -0.5430 H     1 <1>   0.1500 
 49 H       -6.9670    -4.1780     2.3480 H     1 <1>   0.1500 
 50 H       -9.3530    -4.6770     1.9060 H     1 <1>   0.1500 
 51 H       -6.6680     4.3870    -1.0450 H     1 <1>   0.0800 
 52 H       -5.7870     3.9030    -2.4900 H     1 <1>   0.0800 
 53 H       -5.0820     5.0760    -1.3660 H     1 <1>   0.0800 
 54 H       -7.4510    -8.3540    -1.7500 H     1 <1>   0.0800 
 55 H       -8.9280    -7.4740    -2.0630 H     1 <1>   0.0800 
 56 H       -8.8860    -8.6990    -0.8170 H     1 <1>   0.0800 
@<TRIPOS>BOND
  1   1   2  1   
  2   1   3  1   
  3   2   4  2   
  4   2  31  1   
  5   3   5  2   
  6   3  32  1   
  7   4   5  1   
  8   5   6  1   
  9   6   7  1   
 10   6  33  1   
 11   6  34  1   
 12   7   8  1   
 13   7   9  1   
 14   7  10  1   
 15   8  11  2   
 16   8  12  am  
 17   9  13  1   
 18   9  14  1   
 19   9  35  1   
 20  10  15  1   
 21  10  36  1   
 22  10  37  1   
 23  12  16  1   
 24  12  38  1   
 25  13  15  1   
 26  13  17  am  
 27  14  18  1   
 28  14  39  1   
 29  14  40  1   
 30  15  18  1   
 31  15  41  1   
 32  16  19  1   
 33  16  42  1   
 34  16  43  1   
 35  17  20  2   
 36  17  21  1   
 37  18  44  1   
 38  18  45  1   
 39  19  22  ar  
 40  19  23  ar  
 41  21  24  1   
 42  21  46  1   
 43  21  47  1   
 44  22  25  ar  
 45  22  48  1   
 46  23  26  ar  
 47  23  49  1   
 48  24  27  1   
 49  25  28  ar  
 50  25  29  1   
 51  26  28  ar  
 52  26  50  1   
 53  27  51  1   
 54  27  52  1   
 55  27  53  1   
 56  28  30  1   
 57  29  54  1   
 58  29  55  1   
 59  29  56  1   
@<TRIPOS>SUBSTRUCTURE
  1 ****   7 GROUP 4 **** **** 0

# MOE 2024.06 (io_trps.svl 2023.06)
