@<TRIPOS>MOLECULE
NONAME
50 52 1 0 0 
SMALL
USER_CHARGES


@<TRIPOS>ATOM
  1 O        1.7410     0.5470     0.5920 O.2   1 <1>  -0.5700 
  2 C        2.3370    -0.5130     0.6230 C.2   1 <1>   0.5440 
  3 N        3.7010    -0.4620     0.8160 N.am  1 <1>  -0.6600 
  4 C        1.6300    -1.7620     0.4080 C.ar  1 <1>   0.0860 
  5 C        4.3130     0.6310     1.6430 C.3   1 <1>   0.1400 
  6 C        4.6430    -1.3490     0.0740 C.3   1 <1>   0.1400 
  7 C        1.9720    -2.9280     1.0970 C.ar  1 <1>  -0.1500 
  8 C        0.5750    -1.8450    -0.5020 C.ar  1 <1>  -0.1500 
  9 C        5.2140     1.6510     0.8870 C.3   1 <1>   0.4230 
 10 C        5.4120    -0.5660    -1.0130 C.3   1 <1>  -0.0800 
 11 C        1.3160    -4.1240     0.8730 C.ar  1 <1>  -0.1500 
 12 C       -0.0850    -3.0380    -0.7320 C.ar  1 <1>  -0.1500 
 13 N        4.8670     1.9170    -0.5660 N.4   1 <1>  -0.9590 
 14 C        6.7140     1.3150     1.0440 C.3   1 <1>   0.1200 
 15 C        6.8900    -0.3370    -0.6600 C.3   1 <1>   0.1200 
 16 C        4.6720     0.7120    -1.4450 C.3   1 <1>   0.3430 
 17 C        0.2810    -4.1890    -0.0550 C.ar  1 <1>   0.0830 
 18 C        3.6450     2.7780    -0.6490 C.3   1 <1>   0.2630 
 19 O        7.0300     0.0070     0.6790 O.3   1 <1>  -0.5600 
 20 O       -0.4140    -5.3130    -0.3500 O.3   1 <1>  -0.3630 
 21 C       -0.1450    -6.5760     0.2170 C.3   1 <1>   0.2000 
 22 C        1.0490    -7.2000    -0.5090 C.3   1 <1>  -0.2400 
 23 C       -1.4010    -7.4240     0.0380 C.3   1 <1>  -0.2400 
 24 H        3.5260     1.1840     2.1250 H     1 <1>   0.0800 
 25 H        4.8830     0.1780     2.4350 H     1 <1>   0.0800 
 26 H        5.3220    -1.8190     0.7670 H     1 <1>   0.0800 
 27 H        4.0880    -2.1370    -0.4060 H     1 <1>   0.0800 
 28 H        2.7640    -2.8920     1.8250 H     1 <1>   0.1500 
 29 H        0.2690    -0.9600    -1.0320 H     1 <1>   0.1500 
 30 H        5.0940     2.5840     1.4110 H     1 <1>   0.0800 
 31 H        5.4200    -1.2010    -1.8810 H     1 <1>   0.0800 
 32 H        1.6200    -4.9920     1.4270 H     1 <1>   0.1500 
 33 H       -0.8940    -3.0870    -1.4400 H     1 <1>   0.1500 
 34 H        5.6530     2.4480    -0.9590 H     1 <1>   0.4500 
 35 H        6.9850     1.4110     2.0810 H     1 <1>   0.0800 
 36 H        7.3310     1.9930     0.4800 H     1 <1>   0.0800 
 37 H        7.3520     0.4140    -1.2790 H     1 <1>   0.0800 
 38 H        7.4330    -1.2580    -0.7930 H     1 <1>   0.0800 
 39 H        3.6190     0.4780    -1.4880 H     1 <1>   0.0800 
 40 H        4.9780     0.9650    -2.4470 H     1 <1>   0.0800 
 41 H        2.7950     2.2680    -0.2310 H     1 <1>   0.0800 
 42 H        3.4240     3.0200    -1.6760 H     1 <1>   0.0800 
 43 H        3.7920     3.6960    -0.1050 H     1 <1>   0.0800 
 44 H        0.0500    -6.4530     1.2680 H     1 <1>   0.0800 
 45 H        0.8330    -7.3020    -1.5580 H     1 <1>   0.0800 
 46 H        1.2530    -8.1750    -0.1060 H     1 <1>   0.0800 
 47 H        1.9280    -6.5950    -0.3890 H     1 <1>   0.0800 
 48 H       -1.6360    -7.5310    -1.0060 H     1 <1>   0.0800 
 49 H       -2.2290    -6.9590     0.5420 H     1 <1>   0.0800 
 50 H       -1.2510    -8.4010     0.4600 H     1 <1>   0.0800 
@<TRIPOS>BOND
  1   1   2  2   
  2   2   3  am  
  3   2   4  1   
  4   3   5  1   
  5   3   6  1   
  6   4   7  ar  
  7   4   8  ar  
  8   5   9  1   
  9   5  24  1   
 10   5  25  1   
 11   6  10  1   
 12   6  26  1   
 13   6  27  1   
 14   7  11  ar  
 15   7  28  1   
 16   8  12  ar  
 17   8  29  1   
 18   9  13  1   
 19   9  14  1   
 20   9  30  1   
 21  10  15  1   
 22  10  16  1   
 23  10  31  1   
 24  11  17  ar  
 25  11  32  1   
 26  12  17  ar  
 27  12  33  1   
 28  13  16  1   
 29  13  18  1   
 30  13  34  1   
 31  14  19  1   
 32  14  35  1   
 33  14  36  1   
 34  15  19  1   
 35  15  37  1   
 36  15  38  1   
 37  16  39  1   
 38  16  40  1   
 39  17  20  1   
 40  18  41  1   
 41  18  42  1   
 42  18  43  1   
 43  20  21  1   
 44  21  22  1   
 45  21  23  1   
 46  21  44  1   
 47  22  45  1   
 48  22  46  1   
 49  22  47  1   
 50  23  48  1   
 51  23  49  1   
 52  23  50  1   
@<TRIPOS>SUBSTRUCTURE
  1 ****   4 GROUP 4 **** **** 0

# MOE 2024.06 (io_trps.svl 2023.06)
