@<TRIPOS>MOLECULE
NONAME
36 38 1 0 0 
SMALL
USER_CHARGES


@<TRIPOS>ATOM
  1 O       -0.7000     0.0230     0.7660 O.3   1 <1>  -0.3430 
  2 C       -1.9400     0.1620     0.2370 C.2   1 <1>   0.2490 
  3 C       -0.0170    -1.1950     0.5510 C.3   1 <1>   0.0400 
  4 N       -2.5660    -0.7290    -0.4440 N.2   1 <1>  -0.5650 
  5 N       -2.6580     1.2820     0.3810 N.pl3 1 <1>   0.3140 
  6 C       -3.7170    -0.0880    -0.7110 C.2   1 <1>   0.5990 
  7 N       -3.8280     1.1150    -0.2420 N.2   1 <1>  -0.7070 
  8 C       -2.2940     2.5250     1.0890 C.3   1 <1>   0.0960 
  9 N       -4.7100    -0.7040    -1.4710 N.3   1 <1>  -0.5730 
 10 C       -1.6320     3.5290     0.1380 C.3   1 <1>  -0.2400 
 11 C       -5.0170    -2.1180    -1.0530 C.3   1 <1>   0.2450 
 12 C       -6.1170    -0.3300    -1.0950 C.3   1 <1>   0.2450 
 13 C       -6.5070    -1.8070    -1.3160 C.3   1 <1>   0.1080 
 14 C       -7.4630    -2.3910    -0.2830 C.ar  1 <1>   0.2020 
 15 N       -7.2410    -3.6450     0.0870 N.ar  1 <1>  -0.6200 
 16 C       -8.5120    -1.6220     0.2060 C.ar  1 <1>  -0.1500 
 17 C       -8.0790    -4.1440     0.9820 C.ar  1 <1>   0.1600 
 18 C       -9.3780    -2.1540     1.1380 C.ar  1 <1>  -0.1500 
 19 C       -9.1450    -3.4530     1.5310 C.ar  1 <1>  -0.1500 
 20 H        0.9420    -1.1370     1.0320 H     1 <1>   0.0800 
 21 H        0.1060    -1.3410    -0.5080 H     1 <1>   0.0800 
 22 H       -0.5980    -1.9970     0.9720 H     1 <1>   0.0800 
 23 H       -1.6250     2.2790     1.8930 H     1 <1>   0.0800 
 24 H       -3.1910     2.9480     1.5060 H     1 <1>   0.0800 
 25 H       -0.7270     3.1160    -0.2720 H     1 <1>   0.0800 
 26 H       -1.3880     4.4310     0.6700 H     1 <1>   0.0800 
 27 H       -2.3050     3.7770    -0.6650 H     1 <1>   0.0800 
 28 H       -4.7830    -2.2930    -0.0160 H     1 <1>   0.0000 
 29 H       -4.6000    -2.8410    -1.7310 H     1 <1>   0.0000 
 30 H       -6.5610     0.3450    -1.8040 H     1 <1>   0.0000 
 31 H       -6.1970    -0.0130    -0.0690 H     1 <1>   0.0000 
 32 H       -6.7980    -2.0160    -2.3310 H     1 <1>   0.0000 
 33 H       -8.6590    -0.6140    -0.1350 H     1 <1>   0.1500 
 34 H       -7.9070    -5.1590     1.2940 H     1 <1>   0.1500 
 35 H      -10.1980    -1.5820     1.5370 H     1 <1>   0.1500 
 36 H       -9.7810    -3.9290     2.2550 H     1 <1>   0.1500 
@<TRIPOS>BOND
  1   1   2  1   
  2   1   3  1   
  3   2   4  2   
  4   2   5  1   
  5   3  20  1   
  6   3  21  1   
  7   3  22  1   
  8   4   6  1   
  9   5   7  1   
 10   5   8  1   
 11   6   7  2   
 12   6   9  1   
 13   8  10  1   
 14   8  23  1   
 15   8  24  1   
 16   9  11  1   
 17   9  12  1   
 18  10  25  1   
 19  10  26  1   
 20  10  27  1   
 21  11  13  1   
 22  11  28  1   
 23  11  29  1   
 24  12  13  1   
 25  12  30  1   
 26  12  31  1   
 27  13  14  1   
 28  13  32  1   
 29  14  15  ar  
 30  14  16  ar  
 31  15  17  ar  
 32  16  18  ar  
 33  16  33  1   
 34  17  19  ar  
 35  17  34  1   
 36  18  19  ar  
 37  18  35  1   
 38  19  36  1   
@<TRIPOS>SUBSTRUCTURE
  1 ****   9 GROUP 4 **** **** 0

# MOE 2024.06 (io_trps.svl 2023.06)
