@<TRIPOS>MOLECULE
NONAME
46 49 1 0 0 
SMALL
USER_CHARGES


@<TRIPOS>ATOM
  1 O       -1.6750     0.1310    -1.8280 O.2   1 <1>  -0.5700 
  2 C       -1.7680     0.3580    -0.6370 C.2   1 <1>   0.7160 
  3 N       -1.9480    -0.6940     0.2060 N.am  1 <1>  -0.7300 
  4 C       -1.7070     1.6930    -0.0960 C.2   1 <1>  -0.0860 
  5 C       -1.9540    -2.1250    -0.1700 C.3   1 <1>   0.2200 
  6 C       -0.8900     2.7240    -0.5790 C.2   1 <1>   0.2030 
  7 C       -2.3590     2.2740     0.9570 C.2   1 <1>  -0.3320 
  8 C       -3.3700    -2.6830    -0.2090 C.3   1 <1>  -0.0800 
  9 C       -1.3720    -2.9310     0.9820 C.3   1 <1>   0.1200 
 10 N       -1.0150     3.8230     0.0960 N.2   1 <1>  -0.7070 
 11 C        0.0630     2.5990    -1.7580 C.3   1 <1>  -0.0140 
 12 N       -1.9210     3.5410     1.0420 N.pl3 1 <1>   0.3000 
 13 C       -3.4080     1.7100     1.9050 C.3   1 <1>  -0.0600 
 14 C       -3.6430    -3.0360     1.2580 C.3   1 <1>   0.1200 
 15 C       -4.4370    -1.7790    -0.8550 C.3   1 <1>  -0.0160 
 16 O       -2.4070    -3.0200     1.9140 O.3   1 <1>  -0.5600 
 17 C        1.2780     1.7280    -1.6400 C.3   1 <1>  -0.2000 
 18 C        1.4300     3.2150    -1.7150 C.3   1 <1>  -0.2000 
 19 C       -5.7800    -2.4900    -0.9210 C.ar  1 <1>  -0.1440 
 20 C       -6.0730    -3.3890    -1.9260 C.ar  1 <1>  -0.1500 
 21 C       -6.7720    -2.2790     0.0160 C.ar  1 <1>  -0.1500 
 22 C       -7.3060    -4.0200    -1.9430 C.ar  1 <1>   0.1600 
 23 C       -7.9710    -2.9630    -0.0920 C.ar  1 <1>   0.1600 
 24 N       -8.2610    -3.8310    -1.0480 N.ar  1 <1>  -0.6200 
 25 H       -2.0100    -0.5130     1.2090 H     1 <1>   0.3700 
 26 H       -1.4180    -2.2800    -1.0920 H     1 <1>   0.0800 
 27 H       -3.3410    -3.6070    -0.7590 H     1 <1>   0.0800 
 28 H       -0.5140    -2.4630     1.4320 H     1 <1>   0.0800 
 29 H       -1.1240    -3.9300     0.6660 H     1 <1>   0.0800 
 30 H       -0.4560     2.6060    -2.7000 H     1 <1>   0.1000 
 31 H       -2.2200     4.2470     1.7270 H     1 <1>   0.2700 
 32 H       -3.7720     0.7600     1.5590 H     1 <1>   0.0800 
 33 H       -4.2460     2.3810     1.9690 H     1 <1>   0.0800 
 34 H       -2.9900     1.5830     2.8880 H     1 <1>   0.0800 
 35 H       -4.0800    -4.0150     1.3570 H     1 <1>   0.0800 
 36 H       -4.2730    -2.3070     1.7350 H     1 <1>   0.0800 
 37 H       -4.1250    -1.5140    -1.8500 H     1 <1>   0.0800 
 38 H       -4.5450    -0.8650    -0.2990 H     1 <1>   0.0800 
 39 H        1.4700     1.2380    -0.7020 H     1 <1>   0.1000 
 40 H        1.5470     1.1240    -2.4880 H     1 <1>   0.1000 
 41 H        1.8140     3.6610    -2.6150 H     1 <1>   0.1000 
 42 H        1.7030     3.7630    -0.8300 H     1 <1>   0.1000 
 43 H       -5.3560    -3.6030    -2.6970 H     1 <1>   0.1500 
 44 H       -6.6260    -1.5910     0.8270 H     1 <1>   0.1500 
 45 H       -7.5160    -4.7180    -2.7350 H     1 <1>   0.1500 
 46 H       -8.7340    -2.7870     0.6480 H     1 <1>   0.1500 
@<TRIPOS>BOND
  1   1   2  2   
  2   2   3  am  
  3   2   4  1   
  4   3   5  1   
  5   3  25  1   
  6   4   6  1   
  7   4   7  2   
  8   5   8  1   
  9   5   9  1   
 10   5  26  1   
 11   6  10  2   
 12   6  11  1   
 13   7  12  1   
 14   7  13  1   
 15   8  14  1   
 16   8  15  1   
 17   8  27  1   
 18   9  16  1   
 19   9  28  1   
 20   9  29  1   
 21  10  12  1   
 22  11  17  1   
 23  11  18  1   
 24  11  30  1   
 25  12  31  1   
 26  13  32  1   
 27  13  33  1   
 28  13  34  1   
 29  14  16  1   
 30  14  35  1   
 31  14  36  1   
 32  15  19  1   
 33  15  37  1   
 34  15  38  1   
 35  17  18  1   
 36  17  39  1   
 37  17  40  1   
 38  18  41  1   
 39  18  42  1   
 40  19  20  ar  
 41  19  21  ar  
 42  20  22  ar  
 43  20  43  1   
 44  21  23  ar  
 45  21  44  1   
 46  22  24  ar  
 47  22  45  1   
 48  23  24  ar  
 49  23  46  1   
@<TRIPOS>SUBSTRUCTURE
  1 ****   3 GROUP 4 **** **** 0

# MOE 2024.06 (io_trps.svl 2023.06)
