@<TRIPOS>MOLECULE
NONAME
45 46 1 0 0 
SMALL
USER_CHARGES


@<TRIPOS>ATOM
  1 O       -0.8470     0.2060    -0.3970 O.2   1 <1>  -0.5700 
  2 C       -1.8930     0.8120    -0.4300 C.2   1 <1>   0.6300 
  3 N       -2.9860     0.3860     0.2790 N.am  1 <1>  -0.6600 
  4 C       -1.9780     2.0480    -1.3260 C.3   1 <1>  -0.1000 
  5 C       -2.8600    -0.7160     1.2700 C.3   1 <1>   0.3200 
  6 C       -4.3600     0.9560     0.1290 C.3   1 <1>   0.1400 
  7 C       -0.9130     3.1100    -1.3560 C.3   1 <1>  -0.1950 
  8 C       -2.2450     3.4230    -0.7630 C.3   1 <1>  -0.2000 
  9 C       -3.6730    -1.9080     0.8050 C.2   1 <1>  -0.3320 
 10 C       -5.0530     0.4040    -1.1230 C.3   1 <1>   0.1200 
 11 C        0.3320     3.0640    -0.4640 C.3   1 <1>  -0.0650 
 12 N       -3.3440    -2.6990    -0.2360 N.pl3 1 <1>   0.0480 
 13 C       -4.8320    -2.3920     1.3050 C.2   1 <1>   0.0770 
 14 O       -6.3320     0.9340    -1.2060 O.3   1 <1>  -0.6800 
 15 C        0.9200     4.4670    -0.2770 C.3   1 <1>  -0.1600 
 16 C       -4.3430    -3.6070    -0.3020 C.2   1 <1>   0.0360 
 17 C       -2.1640    -2.6060    -1.1160 C.3   1 <1>   0.0160 
 18 N       -5.2560    -3.4560     0.6020 N.2   1 <1>  -0.5650 
 19 C        2.1630     4.4360     0.6200 C.3   1 <1>  -0.1600 
 20 C        2.7440     5.8400     0.8060 C.3   1 <1>  -0.2400 
 21 H       -2.4170     1.8020    -2.2750 H     1 <1>   0.1000 
 22 H       -1.8320    -1.0060     1.4050 H     1 <1>   0.0800 
 23 H       -3.2270    -0.3740     2.2220 H     1 <1>   0.0800 
 24 H       -4.9460     0.7060     0.9960 H     1 <1>   0.0800 
 25 H       -4.3080     2.0270     0.0620 H     1 <1>   0.0800 
 26 H       -0.6950     3.5260    -2.3250 H     1 <1>   0.1000 
 27 H       -2.9050     4.0840    -1.2970 H     1 <1>   0.1000 
 28 H       -2.3150     3.5440     0.3040 H     1 <1>   0.1000 
 29 H       -5.1370    -0.6680    -1.0900 H     1 <1>   0.0800 
 30 H       -4.5210     0.6990    -2.0100 H     1 <1>   0.0800 
 31 H        0.0830     2.6500     0.4980 H     1 <1>   0.0800 
 32 H        1.0650     2.4190    -0.9190 H     1 <1>   0.0800 
 33 H       -5.3980    -2.0240     2.1450 H     1 <1>   0.1500 
 34 H       -6.9440     0.4420    -0.6230 H     1 <1>   0.4000 
 35 H        1.1820     4.8730    -1.2390 H     1 <1>   0.0800 
 36 H        0.1750     5.1070     0.1640 H     1 <1>   0.0800 
 37 H       -4.3590    -4.3820    -1.0480 H     1 <1>   0.1500 
 38 H       -1.2800    -2.4780    -0.5180 H     1 <1>   0.0800 
 39 H       -2.2740    -1.7620    -1.7710 H     1 <1>   0.0800 
 40 H       -2.0730    -3.5040    -1.6990 H     1 <1>   0.0800 
 41 H        1.9030     4.0300     1.5830 H     1 <1>   0.0800 
 42 H        2.9110     3.7980     0.1800 H     1 <1>   0.0800 
 43 H        2.0190     6.4890     1.2650 H     1 <1>   0.0800 
 44 H        3.0300     6.2560    -0.1440 H     1 <1>   0.0800 
 45 H        3.6130     5.7970     1.4370 H     1 <1>   0.0800 
@<TRIPOS>BOND
  1   1   2  2   
  2   2   3  am  
  3   2   4  1   
  4   3   5  1   
  5   3   6  1   
  6   4   7  1   
  7   4   8  1   
  8   4  21  1   
  9   5   9  1   
 10   5  22  1   
 11   5  23  1   
 12   6  10  1   
 13   6  24  1   
 14   6  25  1   
 15   7   8  1   
 16   7  11  1   
 17   7  26  1   
 18   8  27  1   
 19   8  28  1   
 20   9  12  1   
 21   9  13  2   
 22  10  14  1   
 23  10  29  1   
 24  10  30  1   
 25  11  15  1   
 26  11  31  1   
 27  11  32  1   
 28  12  16  1   
 29  12  17  1   
 30  13  18  1   
 31  13  33  1   
 32  14  34  1   
 33  15  19  1   
 34  15  35  1   
 35  15  36  1   
 36  16  18  2   
 37  16  37  1   
 38  17  38  1   
 39  17  39  1   
 40  17  40  1   
 41  19  20  1   
 42  19  41  1   
 43  19  42  1   
 44  20  43  1   
 45  20  44  1   
 46  20  45  1   
@<TRIPOS>SUBSTRUCTURE
  1 ****   2 GROUP 4 **** **** 0

# MOE 2024.06 (io_trps.svl 2023.06)
