@<TRIPOS>MOLECULE
NONAME
50 52 1 0 0 
SMALL
USER_CHARGES


@<TRIPOS>ATOM
  1 S       -0.9250     0.0430    -0.5040 S.3   1 <1>  -0.0800 
  2 C        0.2920    -0.7830     0.4500 C.2   1 <1>   0.4620 
  3 C       -1.9070    -1.3940    -0.4390 C.2   1 <1>  -0.1100 
  4 N       -0.0140    -1.9830     0.7700 N.2   1 <1>  -0.5650 
  5 N        1.4310    -0.1250     0.7740 N.pl3 1 <1>  -0.8840 
  6 C       -1.2550    -2.3320     0.2700 C.2   1 <1>   0.0460 
  7 C       -1.7270    -3.7450     0.5880 C.3   1 <1>   0.0210 
  8 C       -3.1140    -4.0710     0.0090 C.3   1 <1>  -0.0990 
  9 C       -3.5940    -5.4820     0.3190 C.2   1 <1>   0.5690 
 10 O       -2.8900    -6.2000     0.9900 O.2   1 <1>  -0.5700 
 11 N       -4.8050    -5.9140    -0.1540 N.am  1 <1>  -0.6600 
 12 C       -5.2620    -7.3250     0.0680 C.3   1 <1>   0.1400 
 13 C       -5.7980    -5.0730    -0.8840 C.3   1 <1>   0.1400 
 14 C       -6.3030    -7.4350     1.1940 C.3   1 <1>   0.1400 
 15 C       -6.7190    -4.3100     0.0800 C.3   1 <1>  -0.1600 
 16 N       -7.4590    -6.5050     0.9940 N.am  1 <1>  -0.6600 
 17 C       -7.1510    -5.0890     1.3300 C.3   1 <1>   0.1400 
 18 C       -8.6960    -6.8790     0.4900 C.2   1 <1>   0.5440 
 19 O       -9.5760    -6.0320     0.4800 O.2   1 <1>  -0.5700 
 20 C       -9.0050    -8.2220    -0.0130 C.ar  1 <1>   0.3960 
 21 N       -8.1310    -8.8780    -0.8030 N.ar  1 <1>  -0.6200 
 22 C      -10.2260    -8.7940     0.3360 C.ar  1 <1>  -0.1500 
 23 C       -8.4850   -10.0770    -1.2280 C.ar  1 <1>   0.1600 
 24 C      -10.5810   -10.0470    -0.1080 C.ar  1 <1>   0.0830 
 25 C       -9.6750   -10.7050    -0.9180 C.ar  1 <1>  -0.1500 
 26 O      -11.7770   -10.5450     0.2730 O.3   1 <1>  -0.3620 
 27 C      -12.2290   -11.8070    -0.1680 C.3   1 <1>   0.0400 
 28 H       -2.8570    -1.3690    -0.9380 H     1 <1>   0.1500 
 29 H        2.1450    -0.6060     1.3210 H     1 <1>   0.4000 
 30 H        1.6180     0.8310     0.4750 H     1 <1>   0.4000 
 31 H       -1.7490    -3.8630     1.6570 H     1 <1>   0.0800 
 32 H       -1.0040    -4.4410     0.1990 H     1 <1>   0.0800 
 33 H       -3.0770    -3.9570    -1.0580 H     1 <1>   0.0800 
 34 H       -3.8270    -3.3760     0.4100 H     1 <1>   0.0800 
 35 H       -4.4210    -7.9490     0.3140 H     1 <1>   0.0800 
 36 H       -5.6830    -7.7120    -0.8430 H     1 <1>   0.0800 
 37 H       -6.4050    -5.7130    -1.5030 H     1 <1>   0.0800 
 38 H       -5.2980    -4.3830    -1.5400 H     1 <1>   0.0800 
 39 H       -5.8220    -7.2110     2.1310 H     1 <1>   0.0800 
 40 H       -6.6490    -8.4510     1.2580 H     1 <1>   0.0800 
 41 H       -7.6030    -4.0210    -0.4590 H     1 <1>   0.0800 
 42 H       -6.2380    -3.4030     0.3940 H     1 <1>   0.0800 
 43 H       -8.0140    -4.6200     1.7710 H     1 <1>   0.0800 
 44 H       -6.3600    -5.0600     2.0600 H     1 <1>   0.0800 
 45 H      -10.9070    -8.2450     0.9600 H     1 <1>   0.1500 
 46 H       -7.7840   -10.5930    -1.8630 H     1 <1>   0.1500 
 47 H       -9.8730   -11.6830    -1.3110 H     1 <1>   0.1500 
 48 H      -13.2030   -11.9780     0.2540 H     1 <1>   0.0800 
 49 H      -11.5450   -12.5630     0.1740 H     1 <1>   0.0800 
 50 H      -12.2920   -11.8000    -1.2420 H     1 <1>   0.0800 
@<TRIPOS>BOND
  1   1   2  1   
  2   1   3  1   
  3   2   4  2   
  4   2   5  1   
  5   3   6  2   
  6   3  28  1   
  7   4   6  1   
  8   5  29  1   
  9   5  30  1   
 10   6   7  1   
 11   7   8  1   
 12   7  31  1   
 13   7  32  1   
 14   8   9  1   
 15   8  33  1   
 16   8  34  1   
 17   9  10  2   
 18   9  11  am  
 19  11  12  1   
 20  11  13  1   
 21  12  14  1   
 22  12  35  1   
 23  12  36  1   
 24  13  15  1   
 25  13  37  1   
 26  13  38  1   
 27  14  16  1   
 28  14  39  1   
 29  14  40  1   
 30  15  17  1   
 31  15  41  1   
 32  15  42  1   
 33  16  17  1   
 34  16  18  am  
 35  17  43  1   
 36  17  44  1   
 37  18  19  2   
 38  18  20  1   
 39  20  21  ar  
 40  20  22  ar  
 41  21  23  ar  
 42  22  24  ar  
 43  22  45  1   
 44  23  25  ar  
 45  23  46  1   
 46  24  25  ar  
 47  24  26  1   
 48  25  47  1   
 49  26  27  1   
 50  27  48  1   
 51  27  49  1   
 52  27  50  1   
@<TRIPOS>SUBSTRUCTURE
  1 ****  11 GROUP 4 **** **** 0

# MOE 2024.06 (io_trps.svl 2023.06)
