@<TRIPOS>MOLECULE
NONAME
54 57 1 0 0 
SMALL
USER_CHARGES


@<TRIPOS>ATOM
  1 O       -1.2290    -0.7280     0.1840 O.3   1 <1>  -0.3630 
  2 C       -1.0710     0.4670    -0.4440 C.ar  1 <1>   0.0830 
  3 C       -0.4160    -1.8530    -0.0920 C.3   1 <1>   0.0400 
  4 C       -1.7690     1.6100     0.0650 C.ar  1 <1>   0.0000 
  5 C       -0.2480     0.5650    -1.5430 C.ar  1 <1>  -0.1500 
  6 C       -1.5230     2.8580    -0.5720 C.ar  1 <1>   0.0000 
  7 C       -2.6940     1.6090     1.1530 C.ar  1 <1>  -0.1440 
  8 C       -0.0490     1.7870    -2.1750 C.ar  1 <1>  -0.1500 
  9 C       -2.1330     4.0410    -0.0790 C.ar  1 <1>   0.0830 
 10 C       -0.6690     2.9010    -1.6950 C.ar  1 <1>  -0.1500 
 11 C       -3.2640     2.7710     1.6030 C.ar  1 <1>  -0.1500 
 12 C       -3.1340     0.3390     1.8630 C.3   1 <1>   0.4860 
 13 O       -1.8390     5.2040    -0.7150 O.3   1 <1>  -0.3630 
 14 C       -2.9830     3.9910     0.9960 C.ar  1 <1>  -0.1500 
 15 N       -3.8810    -0.5090     0.8990 N.4   1 <1>  -0.9590 
 16 C       -2.3120     6.4580    -0.2710 C.3   1 <1>   0.0400 
 17 C       -4.9850     0.1740     0.1530 C.3   1 <1>   0.3430 
 18 C       -4.4120    -1.7800     1.4410 C.3   1 <1>   0.3430 
 19 C       -6.1320    -0.8450     0.0680 C.3   1 <1>   0.2000 
 20 C       -5.5100    -2.1880     0.4550 C.3   1 <1>  -0.0800 
 21 O       -7.1110    -0.5230     1.0000 O.3   1 <1>  -0.6800 
 22 C       -4.9540    -2.9120    -0.7920 C.3   1 <1>  -0.0170 
 23 C       -4.2340    -4.2050    -0.4400 C.ar  1 <1>   0.1670 
 24 N       -2.9880    -4.0860    -0.0070 N.ar  1 <1>  -0.6200 
 25 C       -4.8880    -5.4280    -0.5850 C.ar  1 <1>   0.1600 
 26 C       -2.4430    -5.2650     0.2590 C.ar  1 <1>   0.1600 
 27 N       -4.3470    -6.6000    -0.3070 N.ar  1 <1>  -0.6200 
 28 C       -3.1010    -6.4810     0.1150 C.ar  1 <1>   0.1600 
 29 H       -0.6510    -2.6230     0.6200 H     1 <1>   0.0800 
 30 H        0.6190    -1.5730     0.0070 H     1 <1>   0.0800 
 31 H       -0.6260    -2.2050    -1.0870 H     1 <1>   0.0800 
 32 H        0.2730    -0.2790    -1.9560 H     1 <1>   0.1500 
 33 H        0.5980     1.8430    -3.0350 H     1 <1>   0.1500 
 34 H       -0.5000     3.8440    -2.1850 H     1 <1>   0.1500 
 35 H       -3.9500     2.7820     2.4340 H     1 <1>   0.1500 
 36 H       -3.7640     0.5880     2.7010 H     1 <1>   0.0800 
 37 H       -2.2680    -0.1880     2.2310 H     1 <1>   0.0800 
 38 H       -3.4530     4.8710     1.3930 H     1 <1>   0.1500 
 39 H       -3.1480    -0.7610     0.2100 H     1 <1>   0.4500 
 40 H       -1.9100     7.2140    -0.9210 H     1 <1>   0.0800 
 41 H       -1.9710     6.6240     0.7350 H     1 <1>   0.0800 
 42 H       -3.3860     6.4660    -0.3230 H     1 <1>   0.0800 
 43 H       -5.3180     1.0650     0.6590 H     1 <1>   0.0800 
 44 H       -4.6430     0.4370    -0.8340 H     1 <1>   0.0800 
 45 H       -3.6390    -2.5250     1.5390 H     1 <1>   0.0800 
 46 H       -4.8510    -1.6070     2.4100 H     1 <1>   0.0800 
 47 H       -6.5990    -0.8490    -0.9030 H     1 <1>   0.0800 
 48 H       -6.2290    -2.8340     0.9310 H     1 <1>   0.0800 
 49 H       -6.8060    -0.5920     1.9240 H     1 <1>   0.4000 
 50 H       -4.2680    -2.2790    -1.3280 H     1 <1>   0.0800 
 51 H       -5.7670    -3.1350    -1.4610 H     1 <1>   0.0800 
 52 H       -5.9020    -5.4430    -0.9450 H     1 <1>   0.1500 
 53 H       -1.4260    -5.2770     0.6100 H     1 <1>   0.1500 
 54 H       -2.5760    -7.3880     0.3590 H     1 <1>   0.1500 
@<TRIPOS>BOND
  1   1   2  1   
  2   1   3  1   
  3   2   4  ar  
  4   2   5  ar  
  5   3  29  1   
  6   3  30  1   
  7   3  31  1   
  8   4   6  ar  
  9   4   7  ar  
 10   5   8  ar  
 11   5  32  1   
 12   6   9  ar  
 13   6  10  ar  
 14   7  11  ar  
 15   7  12  1   
 16   8  10  ar  
 17   8  33  1   
 18   9  13  1   
 19   9  14  ar  
 20  10  34  1   
 21  11  14  ar  
 22  11  35  1   
 23  12  15  1   
 24  12  36  1   
 25  12  37  1   
 26  13  16  1   
 27  14  38  1   
 28  15  17  1   
 29  15  18  1   
 30  15  39  1   
 31  16  40  1   
 32  16  41  1   
 33  16  42  1   
 34  17  19  1   
 35  17  43  1   
 36  17  44  1   
 37  18  20  1   
 38  18  45  1   
 39  18  46  1   
 40  19  20  1   
 41  19  21  1   
 42  19  47  1   
 43  20  22  1   
 44  20  48  1   
 45  21  49  1   
 46  22  23  1   
 47  22  50  1   
 48  22  51  1   
 49  23  24  ar  
 50  23  25  ar  
 51  24  26  ar  
 52  25  27  ar  
 53  25  52  1   
 54  26  28  ar  
 55  26  53  1   
 56  27  28  ar  
 57  28  54  1   
@<TRIPOS>SUBSTRUCTURE
  1 ****  15 GROUP 4 **** **** 0

# MOE 2024.06 (io_trps.svl 2023.06)
