@<TRIPOS>MOLECULE
NONAME
33 33 1 0 0 
SMALL
USER_CHARGES


@<TRIPOS>ATOM
  1 O       -0.8530     0.0110    -0.9180 O.2   1 <1>  -0.5700 
  2 C       -1.1250     0.5200     0.1500 C.2   1 <1>   0.7800 
  3 O       -0.7390     1.7530     0.4680 O.3   1 <1>  -0.4300 
  4 N       -1.8230    -0.1250     1.1100 N.am  1 <1>  -0.7300 
  5 C        0.0210     2.6360    -0.3290 C.3   1 <1>   0.2800 
  6 C       -2.4600    -1.4730     1.0550 C.3   1 <1>   0.2200 
  7 C        0.1810     3.9000     0.5170 C.3   1 <1>  -0.2400 
  8 C       -0.7410     2.9810    -1.6140 C.3   1 <1>  -0.2400 
  9 C        1.4050     2.0390    -0.6110 C.3   1 <1>  -0.2400 
 10 C       -1.5620    -2.6700     0.6350 C.3   1 <1>   0.2000 
 11 C       -3.6380    -1.4600     0.0720 C.3   1 <1>  -0.1600 
 12 O       -0.2480    -2.3260     0.3750 O.3   1 <1>  -0.6800 
 13 C       -2.1810    -3.2450    -0.6380 C.3   1 <1>  -0.1600 
 14 C       -3.6530    -2.8460    -0.5710 C.3   1 <1>  -0.1600 
 15 H       -1.9320     0.3820     1.9850 H     1 <1>   0.3700 
 16 H       -2.8490    -1.7020     2.0320 H     1 <1>   0.0800 
 17 H        0.7530     4.6370    -0.0160 H     1 <1>   0.0800 
 18 H        0.6930     3.6720     1.4350 H     1 <1>   0.0800 
 19 H       -0.7820     4.3200     0.7460 H     1 <1>   0.0800 
 20 H       -0.2240     3.7560    -2.1490 H     1 <1>   0.0800 
 21 H       -1.7300     3.3290    -1.3800 H     1 <1>   0.0800 
 22 H       -0.8100     2.1290    -2.2650 H     1 <1>   0.0800 
 23 H        2.0290     2.7690    -1.0930 H     1 <1>   0.0800 
 24 H        1.3370     1.1900    -1.2660 H     1 <1>   0.0800 
 25 H        1.8780     1.7390     0.3070 H     1 <1>   0.0800 
 26 H       -1.5650    -3.4170     1.4100 H     1 <1>   0.0800 
 27 H       -4.5680    -1.2460     0.5690 H     1 <1>   0.0800 
 28 H       -3.4730    -0.7290    -0.7010 H     1 <1>   0.0800 
 29 H       -0.2590    -1.5440    -0.2290 H     1 <1>   0.4000 
 30 H       -1.7360    -2.7860    -1.5050 H     1 <1>   0.0800 
 31 H       -2.0590    -4.3120    -0.6910 H     1 <1>   0.0800 
 32 H       -4.1110    -2.8330    -1.5460 H     1 <1>   0.0800 
 33 H       -4.1870    -3.5350     0.0620 H     1 <1>   0.0800 
@<TRIPOS>BOND
  1   1   2  2   
  2   2   3  1   
  3   2   4  am  
  4   3   5  1   
  5   4   6  1   
  6   4  15  1   
  7   5   7  1   
  8   5   8  1   
  9   5   9  1   
 10   6  10  1   
 11   6  11  1   
 12   6  16  1   
 13   7  17  1   
 14   7  18  1   
 15   7  19  1   
 16   8  20  1   
 17   8  21  1   
 18   8  22  1   
 19   9  23  1   
 20   9  24  1   
 21   9  25  1   
 22  10  12  1   
 23  10  13  1   
 24  10  26  1   
 25  11  14  1   
 26  11  27  1   
 27  11  28  1   
 28  12  29  1   
 29  13  14  1   
 30  13  30  1   
 31  13  31  1   
 32  14  32  1   
 33  14  33  1   
@<TRIPOS>SUBSTRUCTURE
  1 ****   2 GROUP 4 **** **** 0

# MOE 2024.06 (io_trps.svl 2023.06)
