@<TRIPOS>MOLECULE
NONAME
52 54 1 0 0 
SMALL
USER_CHARGES


@<TRIPOS>ATOM
  1 O       -0.5170    -0.2920     0.4620 O.2   1 <1>  -0.5700 
  2 C       -1.4700     0.4440     0.6330 C.2   1 <1>   0.7160 
  3 N       -2.5920    -0.0910     1.1860 N.am  1 <1>  -0.7300 
  4 C       -1.4320     1.8250     0.2500 C.2   1 <1>  -0.0860 
  5 C       -2.8560    -1.5270     1.4430 C.3   1 <1>   0.1400 
  6 C       -2.5360     2.6840     0.1470 C.2   1 <1>   0.3720 
  7 C       -0.3890     2.6210    -0.1220 C.2   1 <1>   0.0870 
  8 C       -3.7980    -2.1150     0.3810 C.3   1 <1>   0.2000 
  9 N       -2.1850     3.8520    -0.2590 N.2   1 <1>  -0.4100 
 10 N       -3.8650     2.3300     0.4190 N.pl3 1 <1>  -0.8210 
 11 O       -0.8910     3.7940    -0.4160 O.3   1 <1>  -0.0190 
 12 C        1.0340     2.4240    -0.2320 C.ar  1 <1>   0.0530 
 13 O       -5.0030    -1.4240     0.3730 O.3   1 <1>  -0.6800 
 14 C       -4.1060    -3.5980     0.6300 C.3   1 <1>   0.1200 
 15 C       -4.6520     3.3020     1.2270 C.3   1 <1>   0.2090 
 16 C       -4.6520     1.9680    -0.7920 C.3   1 <1>   0.2090 
 17 C        1.7570     1.6780     0.6990 C.ar  1 <1>  -0.1500 
 18 C        1.7510     3.0010    -1.2820 C.ar  1 <1>  -0.1500 
 19 O       -5.1800    -3.9900    -0.1780 O.3   1 <1>  -0.5600 
 20 C       -6.0660     3.2470     0.6670 C.3   1 <1>  -0.1600 
 21 C       -5.8650     2.8860    -0.7960 C.3   1 <1>  -0.1600 
 22 C        3.1240     1.5050     0.5890 C.ar  1 <1>  -0.1500 
 23 C        3.1180     2.8360    -1.3990 C.ar  1 <1>  -0.1500 
 24 C       -5.5430    -5.3240    -0.0250 C.3   1 <1>   0.0400 
 25 C        3.8180     2.0870    -0.4680 C.ar  1 <1>   0.0830 
 26 O        5.1540     1.9680    -0.6520 O.3   1 <1>  -0.3620 
 27 C        5.9500     1.1880     0.2120 C.3   1 <1>   0.0400 
 28 H       -3.4340     0.5060     1.1280 H     1 <1>   0.3700 
 29 H       -3.2980    -1.6350     2.4180 H     1 <1>   0.0800 
 30 H       -1.9270    -2.0710     1.4360 H     1 <1>   0.0800 
 31 H       -3.3510    -2.0100    -0.5920 H     1 <1>   0.0800 
 32 H       -5.6600    -2.0310    -0.0380 H     1 <1>   0.4000 
 33 H       -4.3770    -3.7510     1.6610 H     1 <1>   0.0800 
 34 H       -3.2470    -4.2000     0.3910 H     1 <1>   0.0800 
 35 H       -4.2550     4.2970     1.1180 H     1 <1>   0.0800 
 36 H       -4.6350     3.0270     2.2680 H     1 <1>   0.0800 
 37 H       -4.9660     0.9420    -0.7080 H     1 <1>   0.0800 
 38 H       -4.0720     2.0860    -1.6930 H     1 <1>   0.0800 
 39 H        1.2370     1.2250     1.5250 H     1 <1>   0.1500 
 40 H        1.2250     3.5860    -2.0160 H     1 <1>   0.1500 
 41 H       -6.5840     4.1800     0.7960 H     1 <1>   0.0800 
 42 H       -6.6100     2.4650     1.1680 H     1 <1>   0.0800 
 43 H       -6.7270     2.4080    -1.2260 H     1 <1>   0.0800 
 44 H       -5.6300     3.7700    -1.3640 H     1 <1>   0.0800 
 45 H        3.6300     0.9180     1.3310 H     1 <1>   0.1500 
 46 H        3.6540     3.2860    -2.2150 H     1 <1>   0.1500 
 47 H       -6.3690    -5.5240    -0.6840 H     1 <1>   0.0800 
 48 H       -5.8440    -5.4970     0.9940 H     1 <1>   0.0800 
 49 H       -4.7100    -5.9530    -0.2880 H     1 <1>   0.0800 
 50 H        6.9650     1.2290    -0.1400 H     1 <1>   0.0800 
 51 H        5.5950     0.1720     0.1890 H     1 <1>   0.0800 
 52 H        5.8890     1.5960     1.2050 H     1 <1>   0.0800 
@<TRIPOS>BOND
  1   1   2  2   
  2   2   3  am  
  3   2   4  1   
  4   3   5  1   
  5   3  28  1   
  6   4   6  1   
  7   4   7  2   
  8   5   8  1   
  9   5  29  1   
 10   5  30  1   
 11   6   9  2   
 12   6  10  1   
 13   7  11  1   
 14   7  12  1   
 15   8  13  1   
 16   8  14  1   
 17   8  31  1   
 18   9  11  1   
 19  10  15  1   
 20  10  16  1   
 21  12  17  ar  
 22  12  18  ar  
 23  13  32  1   
 24  14  19  1   
 25  14  33  1   
 26  14  34  1   
 27  15  20  1   
 28  15  35  1   
 29  15  36  1   
 30  16  21  1   
 31  16  37  1   
 32  16  38  1   
 33  17  22  ar  
 34  17  39  1   
 35  18  23  ar  
 36  18  40  1   
 37  19  24  1   
 38  20  21  1   
 39  20  41  1   
 40  20  42  1   
 41  21  43  1   
 42  21  44  1   
 43  22  25  ar  
 44  22  45  1   
 45  23  25  ar  
 46  23  46  1   
 47  24  47  1   
 48  24  48  1   
 49  24  49  1   
 50  25  26  1   
 51  26  27  1   
 52  27  50  1   
 53  27  51  1   
 54  27  52  1   
@<TRIPOS>SUBSTRUCTURE
  1 ****   2 GROUP 4 **** **** 0

# MOE 2024.06 (io_trps.svl 2023.06)
