@<TRIPOS>MOLECULE
NONAME
49 51 1 0 0 
SMALL
USER_CHARGES


@<TRIPOS>ATOM
  1 O        1.3120    -0.4470     1.5810 O.co2 1 <1>  -0.9000 
  2 C        1.2870     0.4150     0.6870 C.2   1 <1>   0.9060 
  3 O        0.4530     1.3180     0.6860 O.co2 1 <1>  -0.9000 
  4 C        2.3430     0.3550    -0.4350 C.3   1 <1>  -0.1060 
  5 C        3.6500    -0.2310     0.1440 C.3   1 <1>   0.4230 
  6 C        2.6450     1.7810    -0.9780 C.3   1 <1>  -0.1600 
  7 C        1.8520    -0.5320    -1.6030 C.3   1 <1>  -0.1600 
  8 N        3.4330    -1.6500     0.5900 N.4   1 <1>  -0.9590 
  9 C        4.2090     0.7050     1.2400 C.3   1 <1>   0.1400 
 10 C        3.2430     2.6980     0.1000 C.3   1 <1>   0.1400 
 11 C        1.7350    -2.0050    -1.1800 C.3   1 <1>  -0.1600 
 12 C        3.0190    -2.5300    -0.5320 C.3   1 <1>   0.3430 
 13 C        4.5320    -2.2400     1.4010 C.3   1 <1>   0.2630 
 14 N        4.4720     2.0510     0.6450 N.am  1 <1>  -0.6600 
 15 C        5.7520     2.5130     0.4820 C.2   1 <1>   0.5690 
 16 O        6.7020     1.7960     0.6970 O.2   1 <1>  -0.5700 
 17 C        6.0000     3.9350     0.0030 C.3   1 <1>  -0.0990 
 18 C        7.4530     4.4020     0.1760 C.3   1 <1>  -0.0170 
 19 C        7.6070     5.8370    -0.2990 C.ar  1 <1>  -0.1430 
 20 C        7.3990     6.9100     0.5440 C.ar  1 <1>  -0.1500 
 21 C        7.9600     6.1420    -1.5980 C.ar  1 <1>  -0.1500 
 22 C        7.5480     8.2000     0.0600 C.ar  1 <1>   0.1600 
 23 C        8.0810     7.4680    -1.9810 C.ar  1 <1>   0.1600 
 24 N        7.8820     8.5050    -1.1830 N.ar  1 <1>  -0.6200 
 25 H        4.3830    -0.2460    -0.6440 H     1 <1>   0.0800 
 26 H        1.7340     2.2280    -1.3390 H     1 <1>   0.0800 
 27 H        3.3290     1.7330    -1.8070 H     1 <1>   0.0800 
 28 H        0.8890    -0.1790    -1.9380 H     1 <1>   0.0800 
 29 H        2.5360    -0.4580    -2.4310 H     1 <1>   0.0800 
 30 H        2.5790    -1.5330     1.2010 H     1 <1>   0.4500 
 31 H        5.1200     0.3060     1.6430 H     1 <1>   0.0800 
 32 H        3.5040     0.8110     2.0480 H     1 <1>   0.0800 
 33 H        2.5320     2.8470     0.8980 H     1 <1>   0.0800 
 34 H        3.4580     3.6600    -0.3290 H     1 <1>   0.0800 
 35 H        1.5020    -2.6060    -2.0400 H     1 <1>   0.0800 
 36 H        0.9210    -2.1200    -0.4840 H     1 <1>   0.0800 
 37 H        3.8040    -2.5690    -1.2680 H     1 <1>   0.0800 
 38 H        2.8440    -3.5290    -0.1650 H     1 <1>   0.0800 
 39 H        5.4470    -2.2610     0.8320 H     1 <1>   0.0800 
 40 H        4.2770    -3.2440     1.6940 H     1 <1>   0.0800 
 41 H        4.6890    -1.6570     2.2940 H     1 <1>   0.0800 
 42 H        5.7330     3.9960    -1.0360 H     1 <1>   0.0800 
 43 H        5.3620     4.5990     0.5570 H     1 <1>   0.0800 
 44 H        8.1110     3.7620    -0.3870 H     1 <1>   0.0800 
 45 H        7.7360     4.3290     1.2120 H     1 <1>   0.0800 
 46 H        7.1250     6.7560     1.5710 H     1 <1>   0.1500 
 47 H        8.1410     5.3620    -2.3150 H     1 <1>   0.1500 
 48 H        7.3820     9.0240     0.7320 H     1 <1>   0.1500 
 49 H        8.3580     7.6860    -2.9980 H     1 <1>   0.1500 
@<TRIPOS>BOND
  1   1   2  ar  
  2   2   3  ar  
  3   2   4  1   
  4   4   5  1   
  5   4   6  1   
  6   4   7  1   
  7   5   8  1   
  8   5   9  1   
  9   5  25  1   
 10   6  10  1   
 11   6  26  1   
 12   6  27  1   
 13   7  11  1   
 14   7  28  1   
 15   7  29  1   
 16   8  12  1   
 17   8  13  1   
 18   8  30  1   
 19   9  14  1   
 20   9  31  1   
 21   9  32  1   
 22  10  14  1   
 23  10  33  1   
 24  10  34  1   
 25  11  12  1   
 26  11  35  1   
 27  11  36  1   
 28  12  37  1   
 29  12  38  1   
 30  13  39  1   
 31  13  40  1   
 32  13  41  1   
 33  14  15  am  
 34  15  16  2   
 35  15  17  1   
 36  17  18  1   
 37  17  42  1   
 38  17  43  1   
 39  18  19  1   
 40  18  44  1   
 41  18  45  1   
 42  19  20  ar  
 43  19  21  ar  
 44  20  22  ar  
 45  20  46  1   
 46  21  23  ar  
 47  21  47  1   
 48  22  24  ar  
 49  22  48  1   
 50  23  24  ar  
 51  23  49  1   
@<TRIPOS>SUBSTRUCTURE
  1 ****  14 GROUP 4 **** **** 0

# MOE 2024.06 (io_trps.svl 2023.06)
