@<TRIPOS>MOLECULE
NONAME
55 59 1 0 0 
SMALL
USER_CHARGES


@<TRIPOS>ATOM
  1 O       -0.3990     0.5780     0.6630 O.2   1 <1>  -0.5700 
  2 C       -0.8860     1.5800     0.1600 C.2   1 <1>   0.7160 
  3 N       -2.2390     1.5470    -0.1520 N.am  1 <1>  -0.6600 
  4 C       -0.0190     2.7330    -0.0950 C.2   1 <1>   0.1410 
  5 C       -3.1110     0.3920     0.2270 C.3   1 <1>   0.1400 
  6 C       -2.9280     2.5930    -0.9520 C.3   1 <1>   0.1400 
  7 N       -0.3840     4.0370     0.1320 N.2   1 <1>  -0.5650 
  8 C        1.2700     2.7300    -0.5600 C.2   1 <1>  -0.3320 
  9 C       -4.3760     0.7660     1.0270 C.3   1 <1>   0.1900 
 10 C       -3.9700     3.3720    -0.1300 C.3   1 <1>  -0.0800 
 11 C        0.6490     4.7390    -0.1820 C.2   1 <1>   0.0360 
 12 N        1.6890     4.0010    -0.6100 N.pl3 1 <1>   0.0330 
 13 C        2.1620     1.5660    -0.9670 C.3   1 <1>  -0.0600 
 14 N       -5.4420     1.3040     0.1260 N.3   1 <1>  -0.8100 
 15 C       -4.0640     1.5810     2.3140 C.3   1 <1>   0.1200 
 16 C       -3.5520     3.6730     1.3270 C.3   1 <1>   0.1200 
 17 C       -5.3710     2.7420    -0.2120 C.3   1 <1>   0.1100 
 18 C       -6.7900     0.9790     0.6370 C.3   1 <1>   0.2900 
 19 O       -4.3270     2.9550     2.2410 O.3   1 <1>  -0.5600 
 20 C       -7.0830    -0.5170     0.6210 C.2   1 <1>  -0.0400 
 21 O       -7.7580    -1.0060     1.6590 O.3   1 <1>  -0.2800 
 22 C       -6.7900    -1.4930    -0.2660 C.2   1 <1>  -0.1810 
 23 C       -7.9060    -2.3150     1.4610 C.ar  1 <1>   0.1400 
 24 C       -7.3180    -2.6890     0.2670 C.ar  1 <1>   0.0000 
 25 C       -6.0590    -1.4260    -1.5940 C.3   1 <1>  -0.0590 
 26 C       -8.5450    -3.2310     2.2860 C.ar  1 <1>  -0.1500 
 27 C       -7.3630    -4.0280    -0.1270 C.ar  1 <1>  -0.1500 
 28 C       -8.5870    -4.5530     1.8890 C.ar  1 <1>  -0.1500 
 29 C       -7.9960    -4.9480     0.6850 C.ar  1 <1>  -0.1500 
 30 H       -3.4090    -0.1280    -0.6650 H     1 <1>   0.0800 
 31 H       -2.5510    -0.3050     0.8230 H     1 <1>   0.0800 
 32 H       -2.2110     3.2830    -1.3570 H     1 <1>   0.0800 
 33 H       -3.4120     2.1260    -1.7920 H     1 <1>   0.0800 
 34 H       -4.7160    -0.1890     1.3840 H     1 <1>   0.0800 
 35 H       -4.0520     4.3290    -0.6120 H     1 <1>   0.0800 
 36 H        0.7000     5.8120    -0.1150 H     1 <1>   0.1500 
 37 H        2.6070     4.3470    -0.9030 H     1 <1>   0.2700 
 38 H        1.6190     0.6380    -0.9400 H     1 <1>   0.0800 
 39 H        2.9960     1.4870    -0.2930 H     1 <1>   0.0800 
 40 H        2.5300     1.7100    -1.9670 H     1 <1>   0.0800 
 41 H       -3.0370     1.4460     2.6040 H     1 <1>   0.0800 
 42 H       -4.6760     1.1990     3.1110 H     1 <1>   0.0800 
 43 H       -3.7250     4.7140     1.5360 H     1 <1>   0.0800 
 44 H       -2.5130     3.4730     1.5170 H     1 <1>   0.0800 
 45 H       -5.7490     2.8630    -1.2120 H     1 <1>   0.0800 
 46 H       -6.0210     3.3020     0.4410 H     1 <1>   0.0800 
 47 H       -6.8820     1.3500     1.6440 H     1 <1>   0.0800 
 48 H       -7.5360     1.4670     0.0350 H     1 <1>   0.0800 
 49 H       -6.6760    -1.8400    -2.3710 H     1 <1>   0.0800 
 50 H       -5.1440    -1.9860    -1.5360 H     1 <1>   0.0800 
 51 H       -5.8270    -0.4080    -1.8500 H     1 <1>   0.0800 
 52 H       -8.9890    -2.8970     3.2050 H     1 <1>   0.1500 
 53 H       -6.9070    -4.3230    -1.0540 H     1 <1>   0.1500 
 54 H       -9.0750    -5.2880     2.5060 H     1 <1>   0.1500 
 55 H       -8.0400    -5.9830     0.3940 H     1 <1>   0.1500 
@<TRIPOS>BOND
  1   1   2  2   
  2   2   3  am  
  3   2   4  1   
  4   3   5  1   
  5   3   6  1   
  6   4   7  1   
  7   4   8  2   
  8   5   9  1   
  9   5  30  1   
 10   5  31  1   
 11   6  10  1   
 12   6  32  1   
 13   6  33  1   
 14   7  11  2   
 15   8  12  1   
 16   8  13  1   
 17   9  14  1   
 18   9  15  1   
 19   9  34  1   
 20  10  16  1   
 21  10  17  1   
 22  10  35  1   
 23  11  12  1   
 24  11  36  1   
 25  12  37  1   
 26  13  38  1   
 27  13  39  1   
 28  13  40  1   
 29  14  17  1   
 30  14  18  1   
 31  15  19  1   
 32  15  41  1   
 33  15  42  1   
 34  16  19  1   
 35  16  43  1   
 36  16  44  1   
 37  17  45  1   
 38  17  46  1   
 39  18  20  1   
 40  18  47  1   
 41  18  48  1   
 42  20  21  1   
 43  20  22  2   
 44  21  23  1   
 45  22  24  1   
 46  22  25  1   
 47  23  24  ar  
 48  23  26  ar  
 49  24  27  ar  
 50  25  49  1   
 51  25  50  1   
 52  25  51  1   
 53  26  28  ar  
 54  26  52  1   
 55  27  29  ar  
 56  27  53  1   
 57  28  29  ar  
 58  28  54  1   
 59  29  55  1   
@<TRIPOS>SUBSTRUCTURE
  1 ****   9 GROUP 4 **** **** 0

# MOE 2024.06 (io_trps.svl 2023.06)
