@<TRIPOS>MOLECULE
NONAME
58 61 1 0 0 
SMALL
USER_CHARGES


@<TRIPOS>ATOM
  1 O        1.3200    -0.9800    -1.9490 O.3   1 <1>  -0.5600 
  2 C        2.2110    -1.3160    -0.9120 C.3   1 <1>   0.4240 
  3 C       -0.0350    -1.2400    -1.7450 C.3   1 <1>   0.1200 
  4 C        1.8190    -2.6410    -0.2250 C.ar  1 <1>  -0.1440 
  5 C        2.2340    -0.1520     0.0930 C.3   1 <1>  -0.1600 
  6 C        3.5800    -1.4540    -1.5940 C.3   1 <1>  -0.1600 
  7 C       -0.2390    -2.7490    -1.6530 C.3   1 <1>  -0.0160 
  8 C        0.6620    -3.3230    -0.5770 C.ar  1 <1>  -0.1440 
  9 C        2.6200    -3.1810     0.7720 C.ar  1 <1>  -0.1500 
 10 C        2.7320     1.1390    -0.5560 C.3   1 <1>   0.2090 
 11 C        4.0390    -0.1290    -2.2020 C.3   1 <1>   0.2090 
 12 C        0.3250    -4.5120     0.0480 C.ar  1 <1>  -0.1500 
 13 C        2.3050    -4.3710     1.4050 C.ar  1 <1>   0.0830 
 14 N        4.1030     0.8970    -1.1160 N.pl3 1 <1>  -0.8380 
 15 C        1.1290    -5.0520     1.0490 C.ar  1 <1>   0.0830 
 16 O        3.2070    -4.7650     2.3490 O.3   1 <1>  -0.3630 
 17 C        5.2190     1.5140    -0.6510 C.ar  1 <1>   0.4100 
 18 O        0.7850    -6.2080     1.6900 O.3   1 <1>  -0.3630 
 19 C        3.4080    -6.1260     2.6590 C.3   1 <1>   0.0400 
 20 N        5.0660     2.3960     0.3490 N.ar  1 <1>  -0.6200 
 21 C        6.5080     1.2720    -1.1540 C.ar  1 <1>  -0.1500 
 22 C       -0.4530    -6.8500     1.4740 C.3   1 <1>   0.0400 
 23 C        6.1060     3.0070     0.8250 C.ar  1 <1>   0.5280 
 24 C        7.5820     1.9300    -0.6340 C.ar  1 <1>   0.2180 
 25 N        7.3560     2.8030     0.3650 N.ar  1 <1>  -0.1790 
 26 C        5.9040     4.0030     1.9610 C.3   1 <1>  -0.0170 
 27 C        9.0030     1.7220    -1.1290 C.3   1 <1>  -0.0970 
 28 C        6.3390     5.4320     1.5980 C.3   1 <1>  -0.2400 
 29 H       -0.5780    -0.8360    -2.5810 H     1 <1>   0.0800 
 30 H       -0.3590    -0.7490    -0.8440 H     1 <1>   0.0800 
 31 H        2.8910    -0.3890     0.9080 H     1 <1>   0.0800 
 32 H        1.2570    -0.0030     0.5080 H     1 <1>   0.0800 
 33 H        3.5130    -2.2060    -2.3590 H     1 <1>   0.0800 
 34 H        4.3190    -1.7750    -0.8860 H     1 <1>   0.0800 
 35 H       -0.0050    -3.2000    -2.6010 H     1 <1>   0.0800 
 36 H       -1.2690    -2.9520    -1.4250 H     1 <1>   0.0800 
 37 H        3.5200    -2.6810     1.0790 H     1 <1>   0.1500 
 38 H        2.7240     1.9290     0.1740 H     1 <1>   0.0800 
 39 H        2.0690     1.4300    -1.3530 H     1 <1>   0.0800 
 40 H        3.3340     0.1920    -2.9510 H     1 <1>   0.0800 
 41 H        4.9810    -0.2690    -2.6920 H     1 <1>   0.0800 
 42 H       -0.5760    -5.0060    -0.2600 H     1 <1>   0.1500 
 43 H        4.3560    -6.2200     3.1560 H     1 <1>   0.0800 
 44 H        3.4090    -6.6980     1.7480 H     1 <1>   0.0800 
 45 H        2.6210    -6.4510     3.3150 H     1 <1>   0.0800 
 46 H        6.6500     0.5690    -1.9470 H     1 <1>   0.1500 
 47 H       -0.5100    -7.6950     2.1360 H     1 <1>   0.0800 
 48 H       -0.5010    -7.1830     0.4530 H     1 <1>   0.0800 
 49 H       -1.2480    -6.1600     1.6960 H     1 <1>   0.0800 
 50 H        8.1210     3.3260     0.7870 H     1 <1>   0.4570 
 51 H        6.4410     3.6660     2.8300 H     1 <1>   0.0800 
 52 H        4.8590     4.0200     2.2230 H     1 <1>   0.0800 
 53 H        9.0230     1.0000    -1.9280 H     1 <1>   0.0800 
 54 H        9.6300     1.3570    -0.3340 H     1 <1>   0.0800 
 55 H        9.4110     2.6440    -1.5040 H     1 <1>   0.0800 
 56 H        7.3950     5.4930     1.4060 H     1 <1>   0.0800 
 57 H        6.1090     6.0990     2.4130 H     1 <1>   0.0800 
 58 H        5.8040     5.7760     0.7280 H     1 <1>   0.0800 
@<TRIPOS>BOND
  1   1   2  1   
  2   1   3  1   
  3   2   4  1   
  4   2   5  1   
  5   2   6  1   
  6   3   7  1   
  7   3  29  1   
  8   3  30  1   
  9   4   8  ar  
 10   4   9  ar  
 11   5  10  1   
 12   5  31  1   
 13   5  32  1   
 14   6  11  1   
 15   6  33  1   
 16   6  34  1   
 17   7   8  1   
 18   7  35  1   
 19   7  36  1   
 20   8  12  ar  
 21   9  13  ar  
 22   9  37  1   
 23  10  14  1   
 24  10  38  1   
 25  10  39  1   
 26  11  14  1   
 27  11  40  1   
 28  11  41  1   
 29  12  15  ar  
 30  12  42  1   
 31  13  15  ar  
 32  13  16  1   
 33  14  17  1   
 34  15  18  1   
 35  16  19  1   
 36  17  20  ar  
 37  17  21  ar  
 38  18  22  1   
 39  19  43  1   
 40  19  44  1   
 41  19  45  1   
 42  20  23  ar  
 43  21  24  ar  
 44  21  46  1   
 45  22  47  1   
 46  22  48  1   
 47  22  49  1   
 48  23  25  ar  
 49  23  26  1   
 50  24  25  ar  
 51  24  27  1   
 52  25  50  1   
 53  26  28  1   
 54  26  51  1   
 55  26  52  1   
 56  27  53  1   
 57  27  54  1   
 58  27  55  1   
 59  28  56  1   
 60  28  57  1   
 61  28  58  1   
@<TRIPOS>SUBSTRUCTURE
  1 ****   5 GROUP 4 **** **** 0

# MOE 2024.06 (io_trps.svl 2023.06)
