@<TRIPOS>MOLECULE
NONAME
49 50 1 0 0 
SMALL
USER_CHARGES


@<TRIPOS>ATOM
  1 O       -1.0410    -2.2330     2.1350 O.3   1 <1>  -0.8500 
  2 C       -0.8900    -2.5180     0.9330 C.2   1 <1>  -0.1500 
  3 C       -1.8520    -2.2810    -0.0500 C.2   1 <1>  -0.1240 
  4 C        0.3280    -3.1250     0.5340 C.2   1 <1>  -0.1500 
  5 C       -1.6000    -2.6290    -1.3860 C.2   1 <1>   0.6160 
  6 C       -3.1800    -1.6440     0.3620 C.3   1 <1>   0.2020 
  7 C        0.5820    -3.4570    -0.7550 C.2   1 <1>  -0.0290 
  8 O       -2.4370    -2.4530    -2.3000 O.2   1 <1>  -0.5700 
  9 N       -0.3650    -3.2000    -1.7490 N.am  1 <1>  -0.4690 
 10 C       -4.3330    -2.6420     0.2080 C.ar  1 <1>  -0.1440 
 11 C       -3.4150    -0.2740    -0.2980 C.3   1 <1>  -0.0990 
 12 C        1.8990    -4.1180    -1.1260 C.3   1 <1>  -0.1020 
 13 C       -0.1110    -3.5330    -3.1800 C.3   1 <1>   0.0600 
 14 C       -4.5190    -3.5600     1.2310 C.ar  1 <1>  -0.1500 
 15 C       -5.1710    -2.6820    -0.8980 C.ar  1 <1>  -0.1500 
 16 C       -2.2760     0.6590     0.0370 C.2   1 <1>   0.6590 
 17 C       -5.5440    -4.5020     1.1810 C.ar  1 <1>   0.0820 
 18 C       -6.1980    -3.6180    -0.9760 C.ar  1 <1>   0.0820 
 19 O       -1.5400     1.0980    -0.8110 O.2   1 <1>  -0.5700 
 20 O       -2.1310     0.9470     1.3230 O.3   1 <1>  -0.4300 
 21 O       -5.7430    -5.4190     2.1730 O.3   1 <1>  -0.3630 
 22 C       -6.3880    -4.5140     0.0720 C.ar  1 <1>   0.0820 
 23 O       -7.0330    -3.7150    -2.0530 O.3   1 <1>  -0.3630 
 24 C       -0.8770     1.3280     1.8390 C.3   1 <1>   0.0400 
 25 C       -4.7540    -5.6280     3.1580 C.3   1 <1>   0.0400 
 26 O       -7.4080    -5.3970    -0.0360 O.3   1 <1>  -0.5320 
 27 C       -6.6490    -3.1510    -3.2890 C.3   1 <1>   0.0400 
 28 H        1.0260    -3.3010     1.3300 H     1 <1>   0.1500 
 29 H       -3.1330    -1.4330     1.4160 H     1 <1>   0.0800 
 30 H       -4.3280     0.1500     0.0700 H     1 <1>   0.0800 
 31 H       -3.4790    -0.3620    -1.3640 H     1 <1>   0.0800 
 32 H        1.7160    -5.0510    -1.6250 H     1 <1>   0.0800 
 33 H        2.4790    -4.3140    -0.2430 H     1 <1>   0.0800 
 34 H        2.4700    -3.4690    -1.7650 H     1 <1>   0.0800 
 35 H       -0.6750    -2.8820    -3.8240 H     1 <1>   0.0800 
 36 H       -0.4070    -4.5500    -3.3630 H     1 <1>   0.0800 
 37 H        0.9270    -3.4080    -3.4220 H     1 <1>   0.0800 
 38 H       -3.8340    -3.5220     2.0600 H     1 <1>   0.1500 
 39 H       -5.0050    -1.9890    -1.6980 H     1 <1>   0.1500 
 40 H       -0.9900     1.5320     2.8880 H     1 <1>   0.0800 
 41 H       -0.5270     2.2000     1.3160 H     1 <1>   0.0800 
 42 H       -0.1960     0.5030     1.7020 H     1 <1>   0.0800 
 43 H       -5.0520    -6.4670     3.7590 H     1 <1>   0.0800 
 44 H       -4.6790    -4.7470     3.7700 H     1 <1>   0.0800 
 45 H       -3.8170    -5.8360     2.6720 H     1 <1>   0.0800 
 46 H       -7.8540    -5.2450    -0.8900 H     1 <1>   0.4500 
 47 H       -7.3400    -3.4850    -4.0410 H     1 <1>   0.0800 
 48 H       -5.6530    -3.4830    -3.5310 H     1 <1>   0.0800 
 49 H       -6.6840    -2.0790    -3.2100 H     1 <1>   0.0800 
@<TRIPOS>BOND
  1   1   2  1   
  2   2   3  2   
  3   2   4  1   
  4   3   5  1   
  5   3   6  1   
  6   4   7  2   
  7   4  28  1   
  8   5   8  2   
  9   5   9  am  
 10   6  10  1   
 11   6  11  1   
 12   6  29  1   
 13   7   9  1   
 14   7  12  1   
 15   9  13  1   
 16  10  14  ar  
 17  10  15  ar  
 18  11  16  1   
 19  11  30  1   
 20  11  31  1   
 21  12  32  1   
 22  12  33  1   
 23  12  34  1   
 24  13  35  1   
 25  13  36  1   
 26  13  37  1   
 27  14  17  ar  
 28  14  38  1   
 29  15  18  ar  
 30  15  39  1   
 31  16  19  2   
 32  16  20  1   
 33  17  21  1   
 34  17  22  ar  
 35  18  22  ar  
 36  18  23  1   
 37  20  24  1   
 38  21  25  1   
 39  22  26  1   
 40  23  27  1   
 41  24  40  1   
 42  24  41  1   
 43  24  42  1   
 44  25  43  1   
 45  25  44  1   
 46  25  45  1   
 47  26  46  1   
 48  27  47  1   
 49  27  48  1   
 50  27  49  1   
@<TRIPOS>SUBSTRUCTURE
  1 ****   6 GROUP 4 **** **** 0

# MOE 2024.06 (io_trps.svl 2023.06)
