@<TRIPOS>MOLECULE
NONAME
43 44 1 0 0 
SMALL
USER_CHARGES


@<TRIPOS>ATOM
  1 S       -0.1610     0.0600     0.2110 S.o2  1 <1>   1.3330 
  2 O       -0.0560    -0.6240     1.4800 O.2   1 <1>  -0.6500 
  3 O       -0.8350     1.3370     0.1420 O.2   1 <1>  -0.6500 
  4 N       -0.8990    -0.9970    -0.8940 N.am  1 <1>  -0.8490 
  5 C        1.4760     0.2790    -0.4900 C.3   1 <1>  -0.0550 
  6 C       -0.6190    -2.4110    -0.6240 C.3   1 <1>   0.1160 
  7 C       -2.3470    -0.7840    -0.9880 C.3   1 <1>   0.1160 
  8 C        2.3490     1.2820     0.2900 C.3   1 <1>  -0.0800 
  9 C        3.6310     1.5990    -0.4640 C.3   1 <1>   0.2200 
 10 C        2.8720     0.6890     1.6080 C.3   1 <1>   0.1200 
 11 N        4.1230     2.9280    -0.0380 N.am  1 <1>  -0.7300 
 12 C        4.5710     0.5260     0.0670 C.3   1 <1>   0.1200 
 13 O        4.2140     0.3530     1.4020 O.3   1 <1>  -0.5600 
 14 C        4.3610     3.9930    -0.8510 C.2   1 <1>   0.7160 
 15 O        4.1580     3.8710    -2.0430 O.2   1 <1>  -0.5700 
 16 C        4.8660     5.2200    -0.2920 C.2   1 <1>  -0.0860 
 17 C        4.6740     5.8140     0.9080 C.2   1 <1>  -0.0400 
 18 C        5.7300     6.1220    -0.8980 C.2   1 <1>   0.1080 
 19 O        5.3570     6.9280     1.0260 O.3   1 <1>  -0.0190 
 20 C        3.8030     5.4130     2.0850 C.3   1 <1>  -0.0600 
 21 N        5.9960     7.0920    -0.1080 N.2   1 <1>  -0.4100 
 22 C        6.3030     6.0100    -2.2960 C.3   1 <1>  -0.0590 
 23 H        1.9730    -0.6700    -0.5430 H     1 <1>   0.0800 
 24 H        1.3550     0.6400    -1.4940 H     1 <1>   0.0800 
 25 H       -1.0310    -3.0260    -1.4060 H     1 <1>   0.0800 
 26 H       -1.0510    -2.7070     0.3190 H     1 <1>   0.0800 
 27 H        0.4430    -2.5800    -0.5840 H     1 <1>   0.0800 
 28 H       -2.7780    -1.4580    -1.7080 H     1 <1>   0.0800 
 29 H       -2.5520     0.2240    -1.3080 H     1 <1>   0.0800 
 30 H       -2.8110    -0.9440    -0.0280 H     1 <1>   0.0800 
 31 H        1.7730     2.1760     0.4650 H     1 <1>   0.0800 
 32 H        3.5220     1.5550    -1.5350 H     1 <1>   0.0800 
 33 H        2.3450    -0.1960     1.9170 H     1 <1>   0.0800 
 34 H        2.8360     1.4170     2.4000 H     1 <1>   0.0800 
 35 H        4.4520     2.9630     0.9280 H     1 <1>   0.3700 
 36 H        5.6070     0.8090     0.0010 H     1 <1>   0.0800 
 37 H        4.4150    -0.4090    -0.4410 H     1 <1>   0.0800 
 38 H        3.1700     4.5810     1.8400 H     1 <1>   0.0800 
 39 H        3.1770     6.2410     2.3640 H     1 <1>   0.0800 
 40 H        4.4230     5.1520     2.9240 H     1 <1>   0.0800 
 41 H        6.7930     5.0620    -2.4180 H     1 <1>   0.0800 
 42 H        7.0150     6.7960    -2.4680 H     1 <1>   0.0800 
 43 H        5.5130     6.0930    -3.0200 H     1 <1>   0.0800 
@<TRIPOS>BOND
  1   1   2  2   
  2   1   3  2   
  3   1   4  am  
  4   1   5  1   
  5   4   6  1   
  6   4   7  1   
  7   5   8  1   
  8   5  23  1   
  9   5  24  1   
 10   6  25  1   
 11   6  26  1   
 12   6  27  1   
 13   7  28  1   
 14   7  29  1   
 15   7  30  1   
 16   8   9  1   
 17   8  10  1   
 18   8  31  1   
 19   9  11  1   
 20   9  12  1   
 21   9  32  1   
 22  10  13  1   
 23  10  33  1   
 24  10  34  1   
 25  11  14  am  
 26  11  35  1   
 27  12  13  1   
 28  12  36  1   
 29  12  37  1   
 30  14  15  2   
 31  14  16  1   
 32  16  17  2   
 33  16  18  1   
 34  17  19  1   
 35  17  20  1   
 36  18  21  2   
 37  18  22  1   
 38  19  21  1   
 39  20  38  1   
 40  20  39  1   
 41  20  40  1   
 42  22  41  1   
 43  22  42  1   
 44  22  43  1   
@<TRIPOS>SUBSTRUCTURE
  1 ****   9 GROUP 4 **** **** 0

# MOE 2024.06 (io_trps.svl 2023.06)
