@<TRIPOS>MOLECULE
NONAME
47 50 1 0 0 
SMALL
USER_CHARGES


@<TRIPOS>ATOM
  1 O       -0.1200     0.3930     0.1660 O.2   1 <1>  -0.5700 
  2 C       -0.1130     1.6020    -0.0050 C.2   1 <1>   0.7160 
  3 N       -1.3380     2.2520    -0.0340 N.am  1 <1>  -0.6600 
  4 C        1.1770     2.2650    -0.1480 C.2   1 <1>   0.1410 
  5 C       -1.4830     3.7300     0.1360 C.3   1 <1>   0.1400 
  6 C       -2.6010     1.4640    -0.1770 C.3   1 <1>   0.1400 
  7 N        1.3790     3.4960    -0.6720 N.2   1 <1>  -0.2270 
  8 C        2.3920     1.7760     0.1880 C.2   1 <1>  -0.3020 
  9 C       -2.8340     4.0600     0.7670 C.3   1 <1>  -0.1600 
 10 C       -3.6760     2.2970    -0.8780 C.3   1 <1>  -0.1600 
 11 N        2.6350     3.7550    -0.6540 N.2   1 <1>  -0.4180 
 12 N        3.2960     2.7040    -0.1330 N.pl3 1 <1>   0.5930 
 13 C       -3.9970     3.6050    -0.1320 C.3   1 <1>   0.4180 
 14 C        4.7110     2.6450     0.0360 C.ar  1 <1>  -0.0230 
 15 O       -4.1910     4.5660    -1.1400 O.3   1 <1>  -0.5600 
 16 C       -5.2700     3.4290     0.6950 C.2   1 <1>  -0.2880 
 17 C        5.4470     3.8030     0.2750 C.ar  1 <1>  -0.1500 
 18 C        5.3910     1.4300    -0.0320 C.ar  1 <1>  -0.1500 
 19 C       -4.9550     5.7000    -0.8320 C.3   1 <1>   0.1200 
 20 C       -6.3690     4.1750     0.5540 C.2   1 <1>  -0.2760 
 21 C        6.8190     3.7490     0.4470 C.ar  1 <1>  -0.1500 
 22 C        6.7630     1.3760     0.1400 C.ar  1 <1>  -0.1500 
 23 C       -6.3900     5.3050    -0.4580 C.3   1 <1>  -0.0220 
 24 C       -7.6520     3.9780     1.3410 C.3   1 <1>  -0.1020 
 25 C        7.4780     2.5350     0.3810 C.ar  1 <1>  -0.1500 
 26 H       -1.4030     4.2090    -0.8260 H     1 <1>   0.0800 
 27 H       -0.7000     4.1050     0.7730 H     1 <1>   0.0800 
 28 H       -2.9420     1.1660     0.8000 H     1 <1>   0.0800 
 29 H       -2.4130     0.5730    -0.7520 H     1 <1>   0.0800 
 30 H        2.6380     0.8300     0.6300 H     1 <1>   0.1500 
 31 H       -2.8990     5.1110     0.9680 H     1 <1>   0.0800 
 32 H       -2.8910     3.5550     1.7140 H     1 <1>   0.0800 
 33 H       -4.5690     1.7110    -0.9820 H     1 <1>   0.0800 
 34 H       -3.3190     2.5200    -1.8680 H     1 <1>   0.0800 
 35 H       -5.1960     2.6250     1.4030 H     1 <1>   0.1500 
 36 H        4.9460     4.7550     0.3260 H     1 <1>   0.1500 
 37 H        4.8540     0.5170    -0.2260 H     1 <1>   0.1500 
 38 H       -4.9570     6.3390    -1.6970 H     1 <1>   0.0800 
 39 H       -4.4880     6.2230    -0.0180 H     1 <1>   0.0800 
 40 H        7.3740     4.6530     0.6310 H     1 <1>   0.1500 
 41 H        7.2760     0.4310     0.0860 H     1 <1>   0.1500 
 42 H       -6.9250     4.9970    -1.3390 H     1 <1>   0.0800 
 43 H       -6.8850     6.1660    -0.0470 H     1 <1>   0.0800 
 44 H       -7.8790     4.8620     1.9100 H     1 <1>   0.0800 
 45 H       -7.5540     3.1510     2.0200 H     1 <1>   0.0800 
 46 H       -8.4680     3.7750     0.6710 H     1 <1>   0.0800 
 47 H        8.5460     2.4930     0.5150 H     1 <1>   0.1500 
@<TRIPOS>BOND
  1   1   2  2   
  2   2   3  am  
  3   2   4  1   
  4   3   5  1   
  5   3   6  1   
  6   4   7  1   
  7   4   8  2   
  8   5   9  1   
  9   5  26  1   
 10   5  27  1   
 11   6  10  1   
 12   6  28  1   
 13   6  29  1   
 14   7  11  2   
 15   8  12  1   
 16   8  30  1   
 17   9  13  1   
 18   9  31  1   
 19   9  32  1   
 20  10  13  1   
 21  10  33  1   
 22  10  34  1   
 23  11  12  1   
 24  12  14  1   
 25  13  15  1   
 26  13  16  1   
 27  14  17  ar  
 28  14  18  ar  
 29  15  19  1   
 30  16  20  2   
 31  16  35  1   
 32  17  21  ar  
 33  17  36  1   
 34  18  22  ar  
 35  18  37  1   
 36  19  23  1   
 37  19  38  1   
 38  19  39  1   
 39  20  23  1   
 40  20  24  1   
 41  21  25  ar  
 42  21  40  1   
 43  22  25  ar  
 44  22  41  1   
 45  23  42  1   
 46  23  43  1   
 47  24  44  1   
 48  24  45  1   
 49  24  46  1   
 50  25  47  1   
@<TRIPOS>SUBSTRUCTURE
  1 ****   3 GROUP 4 **** **** 0

# MOE 2024.06 (io_trps.svl 2023.06)
