@<TRIPOS>MOLECULE
NONAME
54 58 1 0 0 
SMALL
USER_CHARGES


@<TRIPOS>ATOM
  1 O        2.3870     1.7780    -0.0900 O.2   1 <1>  -0.5700 
  2 C        2.7280     0.6110    -0.1650 C.2   1 <1>   0.6950 
  3 N        4.0360     0.3770    -0.4970 N.2   1 <1>  -0.6610 
  4 C        1.8120    -0.4700     0.0980 C.ar  1 <1>   0.0860 
  5 C        4.4620    -0.8340    -0.5480 C.2   1 <1>   0.4390 
  6 C        2.3220    -1.7680     0.0280 C.ar  1 <1>   0.1000 
  7 C        0.4610    -0.3010     0.4190 C.ar  1 <1>  -0.1500 
  8 N        3.6610    -1.9090    -0.2930 N.pl3 1 <1>  -0.5500 
  9 C        5.9310    -1.1030    -0.9110 C.3   1 <1>   0.2010 
 10 C        1.4980    -2.8630     0.2750 C.ar  1 <1>  -0.1500 
 11 C       -0.3510    -1.3890     0.6620 C.ar  1 <1>  -0.1500 
 12 N        6.6900     0.1720    -1.0820 N.am  1 <1>  -0.7300 
 13 C        0.1700    -2.6750     0.5910 C.ar  1 <1>  -0.1500 
 14 C        7.4260     0.7250    -0.0880 C.2   1 <1>   0.5690 
 15 O        7.9110     0.0500     0.7860 O.2   1 <1>  -0.5700 
 16 C        7.6610     2.2360    -0.0490 C.3   1 <1>   0.0610 
 17 C        7.6670     2.7400     1.4170 C.3   1 <1>   0.4230 
 18 C        6.5040     3.1050    -0.6300 C.3   1 <1>  -0.1600 
 19 C        9.0170     2.4920    -0.7700 C.3   1 <1>  -0.0170 
 20 N        7.3790     4.1720     1.2410 N.4   1 <1>  -0.9060 
 21 C        6.4020     2.3400     2.2010 C.3   1 <1>  -0.1600 
 22 C        6.1120     4.0250     0.5340 C.3   1 <1>   0.4230 
 23 C        9.5900     3.8920    -0.5810 C.ar  1 <1>  -0.1430 
 24 C        5.3190     3.2270     1.5690 C.3   1 <1>  -0.1600 
 25 C        9.2620     4.9220    -1.4500 C.ar  1 <1>  -0.1500 
 26 C       10.4370     4.1520     0.4870 C.ar  1 <1>  -0.1500 
 27 C        9.7390     6.2010    -1.2310 C.ar  1 <1>  -0.1500 
 28 C       10.9160     5.4310     0.7060 C.ar  1 <1>  -0.1500 
 29 C       10.5620     6.4580    -0.1490 C.ar  1 <1>  -0.1500 
 30 H        0.0590     0.6970     0.4740 H     1 <1>   0.1500 
 31 H        4.0500    -2.8540    -0.3340 H     1 <1>   0.4000 
 32 H        5.9750    -1.6610    -1.8290 H     1 <1>   0.0800 
 33 H        6.3850    -1.6940    -0.1340 H     1 <1>   0.0800 
 34 H        1.8970    -3.8600     0.2210 H     1 <1>   0.1500 
 35 H       -1.3900    -1.2460     0.9090 H     1 <1>   0.1500 
 36 H        6.2420     0.7890    -1.7640 H     1 <1>   0.3700 
 37 H       -0.4710    -3.5190     0.7830 H     1 <1>   0.1500 
 38 H        8.5860     2.5300     1.9420 H     1 <1>   0.0800 
 39 H        5.6460     2.5340    -0.9370 H     1 <1>   0.0800 
 40 H        6.8150     3.6910    -1.4740 H     1 <1>   0.0800 
 41 H        9.7450     1.7830    -0.4090 H     1 <1>   0.0800 
 42 H        8.9040     2.2930    -1.8230 H     1 <1>   0.0800 
 43 H        7.2730     4.6570     2.1350 H     1 <1>   0.4500 
 44 H        8.1100     4.6210     0.6630 H     1 <1>   0.4500 
 45 H        6.1570     1.2960     2.1270 H     1 <1>   0.0800 
 46 H        6.5270     2.5760     3.2440 H     1 <1>   0.0800 
 47 H        5.6470     4.9530     0.2380 H     1 <1>   0.0800 
 48 H        4.8780     3.8850     2.2980 H     1 <1>   0.0800 
 49 H        4.5350     2.6510     1.1120 H     1 <1>   0.0800 
 50 H        8.6420     4.7420    -2.3120 H     1 <1>   0.1500 
 51 H       10.7390     3.3620     1.1560 H     1 <1>   0.1500 
 52 H        9.4810     6.9980    -1.9080 H     1 <1>   0.1500 
 53 H       11.5750     5.6290     1.5350 H     1 <1>   0.1500 
 54 H       10.9380     7.4540     0.0180 H     1 <1>   0.1500 
@<TRIPOS>BOND
  1   1   2  2   
  2   2   3  1   
  3   2   4  1   
  4   3   5  2   
  5   4   6  ar  
  6   4   7  ar  
  7   5   8  1   
  8   5   9  1   
  9   6   8  1   
 10   6  10  ar  
 11   7  11  ar  
 12   7  30  1   
 13   8  31  1   
 14   9  12  1   
 15   9  32  1   
 16   9  33  1   
 17  10  13  ar  
 18  10  34  1   
 19  11  13  ar  
 20  11  35  1   
 21  12  14  am  
 22  12  36  1   
 23  13  37  1   
 24  14  15  2   
 25  14  16  1   
 26  16  17  1   
 27  16  18  1   
 28  16  19  1   
 29  17  20  1   
 30  17  21  1   
 31  17  38  1   
 32  18  22  1   
 33  18  39  1   
 34  18  40  1   
 35  19  23  1   
 36  19  41  1   
 37  19  42  1   
 38  20  22  1   
 39  20  43  1   
 40  20  44  1   
 41  21  24  1   
 42  21  45  1   
 43  21  46  1   
 44  22  24  1   
 45  22  47  1   
 46  23  25  ar  
 47  23  26  ar  
 48  24  48  1   
 49  24  49  1   
 50  25  27  ar  
 51  25  50  1   
 52  26  28  ar  
 53  26  51  1   
 54  27  29  ar  
 55  27  52  1   
 56  28  29  ar  
 57  28  53  1   
 58  29  54  1   
@<TRIPOS>SUBSTRUCTURE
  1 ****  18 GROUP 4 **** **** 0

# MOE 2024.06 (io_trps.svl 2023.06)
