@<TRIPOS>MOLECULE
NONAME
47 50 1 0 0 
SMALL
USER_CHARGES


@<TRIPOS>ATOM
  1 S        1.1820     0.3430     3.2150 S.3   1 <1>  -0.0800 
  2 C        1.3630    -0.6230     1.7740 C.2   1 <1>   0.1980 
  3 C        1.6820     1.7340     2.3030 C.2   1 <1>  -0.1100 
  4 N        1.7430     0.0260     0.7490 N.2   1 <1>  -0.5650 
  5 C        1.0300    -2.1050     1.8750 C.3   1 <1>   0.5230 
  6 C        1.9360     1.3840     1.0240 C.2   1 <1>   0.1730 
  7 N       -0.3720    -2.3820     1.4220 N.4   1 <1>  -0.9590 
  8 C        2.3690     2.2730    -0.0410 C.ar  1 <1>   0.0540 
  9 C       -0.7130    -1.7950     0.0920 C.3   1 <1>   0.3430 
 10 C       -0.7400    -3.8260     1.3550 C.3   1 <1>   0.3430 
 11 C        3.1410     1.8120    -1.1070 C.ar  1 <1>  -0.1500 
 12 C        2.0280     3.6250    -0.0330 C.ar  1 <1>  -0.1500 
 13 C       -1.9490    -2.5810    -0.3440 C.3   1 <1>   0.2000 
 14 C       -1.6230    -4.0050     0.1060 C.3   1 <1>  -0.0800 
 15 C        3.5560     2.6590    -2.1180 C.ar  1 <1>  -0.1500 
 16 C        2.4400     4.4790    -1.0410 C.ar  1 <1>  -0.1500 
 17 O       -3.0260    -2.1340     0.4110 O.3   1 <1>  -0.6800 
 18 C       -0.9040    -4.8020    -1.0020 C.3   1 <1>   0.0200 
 19 C        3.2050     3.9970    -2.0870 C.ar  1 <1>  -0.1500 
 20 C       -0.2940    -6.0790    -0.4560 C.2   1 <1>  -0.0400 
 21 O       -0.9780    -6.8220     0.3730 O.3   1 <1>  -0.0190 
 22 C        0.9030    -6.6560    -0.6360 C.2   1 <1>  -0.1500 
 23 N       -0.2960    -7.8530     0.7720 N.2   1 <1>  -0.4100 
 24 C        0.8380    -7.7880     0.1720 C.2   1 <1>   0.1080 
 25 C        1.9420    -8.8110     0.3300 C.3   1 <1>  -0.0590 
 26 H        1.7420     2.6780     2.8130 H     1 <1>   0.1500 
 27 H        1.1650    -2.4320     2.8920 H     1 <1>   0.0800 
 28 H        1.7220    -2.6450     1.2510 H     1 <1>   0.0800 
 29 H       -1.0350    -1.9310     2.0720 H     1 <1>   0.4500 
 30 H       -0.9190    -0.7380     0.1550 H     1 <1>   0.0800 
 31 H        0.0930    -1.9590    -0.6040 H     1 <1>   0.0800 
 32 H        0.1400    -4.4450     1.2860 H     1 <1>   0.0800 
 33 H       -1.2900    -4.1100     2.2380 H     1 <1>   0.0800 
 34 H        3.4260     0.7760    -1.1420 H     1 <1>   0.1500 
 35 H        1.4290     4.0200     0.7670 H     1 <1>   0.1500 
 36 H       -2.1780    -2.4730    -1.3910 H     1 <1>   0.0800 
 37 H       -2.5180    -4.5430     0.3700 H     1 <1>   0.0800 
 38 H        4.1530     2.2800    -2.9300 H     1 <1>   0.1500 
 39 H        2.1640     5.5190    -1.0150 H     1 <1>   0.1500 
 40 H       -3.8750    -2.4910     0.0710 H     1 <1>   0.4000 
 41 H       -0.1230    -4.2180    -1.4570 H     1 <1>   0.0800 
 42 H       -1.6120    -5.0620    -1.7700 H     1 <1>   0.0800 
 43 H        3.5270     4.6590    -2.8720 H     1 <1>   0.1500 
 44 H        1.7390    -6.3590    -1.2440 H     1 <1>   0.1500 
 45 H        2.8440    -8.3320     0.6650 H     1 <1>   0.0800 
 46 H        2.1270    -9.2960    -0.6110 H     1 <1>   0.0800 
 47 H        1.6540    -9.5550     1.0510 H     1 <1>   0.0800 
@<TRIPOS>BOND
  1   1   2  1   
  2   1   3  1   
  3   2   4  2   
  4   2   5  1   
  5   3   6  2   
  6   3  26  1   
  7   4   6  1   
  8   5   7  1   
  9   5  27  1   
 10   5  28  1   
 11   6   8  1   
 12   7   9  1   
 13   7  10  1   
 14   7  29  1   
 15   8  11  ar  
 16   8  12  ar  
 17   9  13  1   
 18   9  30  1   
 19   9  31  1   
 20  10  14  1   
 21  10  32  1   
 22  10  33  1   
 23  11  15  ar  
 24  11  34  1   
 25  12  16  ar  
 26  12  35  1   
 27  13  14  1   
 28  13  17  1   
 29  13  36  1   
 30  14  18  1   
 31  14  37  1   
 32  15  19  ar  
 33  15  38  1   
 34  16  19  ar  
 35  16  39  1   
 36  17  40  1   
 37  18  20  1   
 38  18  41  1   
 39  18  42  1   
 40  19  43  1   
 41  20  21  1   
 42  20  22  2   
 43  21  23  1   
 44  22  24  1   
 45  22  44  1   
 46  23  24  2   
 47  24  25  1   
 48  25  45  1   
 49  25  46  1   
 50  25  47  1   
@<TRIPOS>SUBSTRUCTURE
  1 ****   9 GROUP 4 **** **** 0

# MOE 2024.06 (io_trps.svl 2023.06)
