@<TRIPOS>MOLECULE
NONAME
55 58 1 0 0 
SMALL
USER_CHARGES


@<TRIPOS>ATOM
  1 O       -1.0290    -0.0770    -0.2290 O.2   1 <1>  -0.5700 
  2 C       -2.0080     0.6460    -0.2430 C.2   1 <1>   0.5440 
  3 N       -1.8290     2.0010    -0.0520 N.am  1 <1>  -0.6600 
  4 C       -3.3130     0.0600    -0.4430 C.ar  1 <1>   0.0860 
  5 C       -2.8530     2.8920     0.5730 C.3   1 <1>   0.1400 
  6 C       -0.4830     2.6420    -0.1560 C.3   1 <1>   0.1400 
  7 C       -3.6390    -1.1530     0.1580 C.ar  1 <1>   0.1600 
  8 C       -4.2940     0.6470    -1.2370 C.ar  1 <1>  -0.1500 
  9 C       -2.3070     3.5200     1.8680 C.3   1 <1>   0.1200 
 10 C       -0.0780     3.2720     1.1860 C.3   1 <1>   0.1200 
 11 N       -4.7990    -1.7800     0.0690 N.ar  1 <1>  -0.6200 
 12 C       -5.5030     0.0060    -1.3480 C.ar  1 <1>  -0.1500 
 13 O       -1.0760     4.1440     1.6390 O.3   1 <1>  -0.5600 
 14 C       -5.7270    -1.1970    -0.6830 C.ar  1 <1>   0.4100 
 15 N       -6.9460    -1.8300    -0.7880 N.pl3 1 <1>  -0.8380 
 16 C       -7.0200    -3.3240    -0.7600 C.3   1 <1>   0.2090 
 17 C       -8.1820    -1.1410    -0.3410 C.3   1 <1>   0.2090 
 18 C       -7.3800    -3.8260     0.6480 C.3   1 <1>   0.1000 
 19 C       -8.5470    -1.6120     1.0720 C.3   1 <1>  -0.1600 
 20 C       -7.5330    -5.3390     0.6660 C.2   1 <1>   0.2980 
 21 C       -8.6640    -3.1430     1.1590 C.3   1 <1>  -0.1600 
 22 O       -7.5060    -5.9460     1.8270 O.3   1 <1>  -0.0190 
 23 N       -7.6980    -6.1010    -0.3420 N.2   1 <1>  -0.5650 
 24 N       -7.6690    -7.1990     1.5330 N.2   1 <1>  -0.4100 
 25 C       -7.7780    -7.2780     0.2650 C.2   1 <1>   0.3350 
 26 C       -7.9910    -8.5600    -0.5440 C.3   1 <1>   0.1010 
 27 C       -9.4750    -8.7330    -0.8990 C.3   1 <1>  -0.2400 
 28 C       -7.4760    -9.8110     0.1840 C.3   1 <1>  -0.2400 
 29 H       -3.7460     2.3420     0.8070 H     1 <1>   0.0800 
 30 H       -3.1100     3.6760    -0.1180 H     1 <1>   0.0800 
 31 H       -0.5140     3.4080    -0.9100 H     1 <1>   0.0800 
 32 H        0.2620     1.9230    -0.4520 H     1 <1>   0.0800 
 33 H       -2.8780    -1.6290     0.7540 H     1 <1>   0.1500 
 34 H       -4.0980     1.5710    -1.7520 H     1 <1>   0.1500 
 35 H       -2.1760     2.7680     2.6270 H     1 <1>   0.0800 
 36 H       -2.9890     4.2660     2.2360 H     1 <1>   0.0800 
 37 H        0.8280     3.8400     1.0720 H     1 <1>   0.0800 
 38 H        0.0810     2.5090     1.9270 H     1 <1>   0.0800 
 39 H       -6.2890     0.4110    -1.9560 H     1 <1>   0.1500 
 40 H       -6.0770    -3.7460    -1.0640 H     1 <1>   0.0800 
 41 H       -7.7660    -3.6470    -1.4640 H     1 <1>   0.0800 
 42 H       -8.9800    -1.3720    -1.0260 H     1 <1>   0.0800 
 43 H       -8.0350    -0.0750    -0.3390 H     1 <1>   0.0800 
 44 H       -6.5620    -3.5730     1.2990 H     1 <1>   0.0800 
 45 H       -9.4780    -1.1610     1.3660 H     1 <1>   0.0800 
 46 H       -7.7870    -1.2690     1.7520 H     1 <1>   0.0800 
 47 H       -8.8470    -3.4340     2.1790 H     1 <1>   0.0800 
 48 H       -9.4990    -3.4710     0.5640 H     1 <1>   0.0800 
 49 H       -7.4340    -8.4570    -1.4590 H     1 <1>   0.0800 
 50 H      -10.0620    -8.8280    -0.0030 H     1 <1>   0.0800 
 51 H       -9.6180    -9.6090    -1.5060 H     1 <1>   0.0800 
 52 H       -9.8220    -7.8750    -1.4470 H     1 <1>   0.0800 
 53 H       -8.0210    -9.9640     1.0990 H     1 <1>   0.0800 
 54 H       -6.4340    -9.6920     0.4240 H     1 <1>   0.0800 
 55 H       -7.5890   -10.6810    -0.4370 H     1 <1>   0.0800 
@<TRIPOS>BOND
  1   1   2  2   
  2   2   3  am  
  3   2   4  1   
  4   3   5  1   
  5   3   6  1   
  6   4   7  ar  
  7   4   8  ar  
  8   5   9  1   
  9   5  29  1   
 10   5  30  1   
 11   6  10  1   
 12   6  31  1   
 13   6  32  1   
 14   7  11  ar  
 15   7  33  1   
 16   8  12  ar  
 17   8  34  1   
 18   9  13  1   
 19   9  35  1   
 20   9  36  1   
 21  10  13  1   
 22  10  37  1   
 23  10  38  1   
 24  11  14  ar  
 25  12  14  ar  
 26  12  39  1   
 27  14  15  1   
 28  15  16  1   
 29  15  17  1   
 30  16  18  1   
 31  16  40  1   
 32  16  41  1   
 33  17  19  1   
 34  17  42  1   
 35  17  43  1   
 36  18  20  1   
 37  18  21  1   
 38  18  44  1   
 39  19  21  1   
 40  19  45  1   
 41  19  46  1   
 42  20  22  1   
 43  20  23  2   
 44  21  47  1   
 45  21  48  1   
 46  22  24  1   
 47  23  25  1   
 48  24  25  2   
 49  25  26  1   
 50  26  27  1   
 51  26  28  1   
 52  26  49  1   
 53  27  50  1   
 54  27  51  1   
 55  27  52  1   
 56  28  53  1   
 57  28  54  1   
 58  28  55  1   
@<TRIPOS>SUBSTRUCTURE
  1 ****  11 GROUP 4 **** **** 0

# MOE 2024.06 (io_trps.svl 2023.06)
