@<TRIPOS>MOLECULE
NONAME
35 37 1 0 0 
SMALL
USER_CHARGES


@<TRIPOS>ATOM
  1 F       -2.7420     0.7150     0.4230 F     1 <1>  -0.1900 
  2 C       -3.1380    -0.5340     0.4560 C.ar  1 <1>   0.1900 
  3 C       -2.9270    -1.3040     1.5740 C.ar  1 <1>   0.1600 
  4 C       -3.7700    -1.0950    -0.6270 C.ar  1 <1>   0.1600 
  5 N       -3.3200    -2.5600     1.6180 N.ar  1 <1>  -0.6200 
  6 N       -4.1720    -2.3490    -0.6040 N.ar  1 <1>  -0.6200 
  7 C       -3.9240    -3.0140     0.5250 C.ar  1 <1>   0.7200 
  8 N       -4.3240    -4.2990     0.6070 N.pl3 1 <1>  -0.8690 
  9 C       -4.6040    -5.1890    -0.5440 C.3   1 <1>   0.2890 
 10 C       -6.0210    -5.7350    -0.4730 C.3   1 <1>  -0.0800 
 11 C       -3.7990    -6.4760    -0.3970 C.3   1 <1>   0.1200 
 12 C       -5.8770    -6.9180     0.4860 C.3   1 <1>   0.1200 
 13 C       -7.1080    -4.7210    -0.0690 C.3   1 <1>  -0.0160 
 14 O       -4.5290    -7.2950     0.4700 O.3   1 <1>  -0.5600 
 15 C       -8.4850    -5.3680    -0.0820 C.ar  1 <1>  -0.1430 
 16 C       -9.1950    -5.5480    -1.2510 C.ar  1 <1>  -0.1500 
 17 C       -9.0930    -5.8120     1.0750 C.ar  1 <1>  -0.1500 
 18 C      -10.4420    -6.1500    -1.2080 C.ar  1 <1>   0.1600 
 19 C      -10.3440    -6.4010     1.0080 C.ar  1 <1>   0.1600 
 20 N      -11.0340    -6.5840    -0.1070 N.ar  1 <1>  -0.6200 
 21 H       -2.4330    -0.8830     2.4320 H     1 <1>   0.1500 
 22 H       -3.9440    -0.5070    -1.5110 H     1 <1>   0.1500 
 23 H       -4.0220    -4.7750     1.4570 H     1 <1>   0.4000 
 24 H       -4.3980    -4.6970    -1.4800 H     1 <1>   0.0800 
 25 H       -6.2720    -6.1330    -1.4410 H     1 <1>   0.0800 
 26 H       -2.8160    -6.3060     0.0060 H     1 <1>   0.0800 
 27 H       -3.7260    -6.9850    -1.3410 H     1 <1>   0.0800 
 28 H       -6.4830    -7.7570     0.1890 H     1 <1>   0.0800 
 29 H       -6.1180    -6.6330     1.4960 H     1 <1>   0.0800 
 30 H       -7.0950    -3.8910    -0.7540 H     1 <1>   0.0800 
 31 H       -6.9090    -4.3280     0.9120 H     1 <1>   0.0800 
 32 H       -8.7920    -5.2250    -2.1930 H     1 <1>   0.1500 
 33 H       -8.6070    -5.7040     2.0280 H     1 <1>   0.1500 
 34 H      -10.9820    -6.2820    -2.1310 H     1 <1>   0.1500 
 35 H      -10.8020    -6.7410     1.9210 H     1 <1>   0.1500 
@<TRIPOS>BOND
  1   1   2  1   
  2   2   3  ar  
  3   2   4  ar  
  4   3   5  ar  
  5   3  21  1   
  6   4   6  ar  
  7   4  22  1   
  8   5   7  ar  
  9   6   7  ar  
 10   7   8  1   
 11   8   9  1   
 12   8  23  1   
 13   9  10  1   
 14   9  11  1   
 15   9  24  1   
 16  10  12  1   
 17  10  13  1   
 18  10  25  1   
 19  11  14  1   
 20  11  26  1   
 21  11  27  1   
 22  12  14  1   
 23  12  28  1   
 24  12  29  1   
 25  13  15  1   
 26  13  30  1   
 27  13  31  1   
 28  15  16  ar  
 29  15  17  ar  
 30  16  18  ar  
 31  16  32  1   
 32  17  19  ar  
 33  17  33  1   
 34  18  20  ar  
 35  18  34  1   
 36  19  20  ar  
 37  19  35  1   
@<TRIPOS>SUBSTRUCTURE
  1 ****  13 GROUP 4 **** **** 0

# MOE 2024.06 (io_trps.svl 2023.06)
