@<TRIPOS>MOLECULE
NONAME
48 50 1 0 0 
SMALL
USER_CHARGES


@<TRIPOS>ATOM
  1 CL      -1.9140    -0.9940     1.9440 Cl    1 <1>  -0.1770 
  2 C       -2.2240    -2.4540     1.0410 C.ar  1 <1>   0.1770 
  3 C       -3.4360    -3.1000     1.1830 C.ar  1 <1>  -0.1500 
  4 C       -1.2510    -2.9490     0.1940 C.ar  1 <1>  -0.1500 
  5 C       -3.6720    -4.2600     0.4660 C.ar  1 <1>  -0.1500 
  6 C       -1.5020    -4.1080    -0.5190 C.ar  1 <1>  -0.1500 
  7 C       -2.7160    -4.7900    -0.4010 C.ar  1 <1>   0.0530 
  8 C       -2.9380    -6.0090    -1.1420 C.2   1 <1>   0.0870 
  9 O       -1.9330    -6.8430    -1.2900 O.3   1 <1>  -0.0190 
 10 C       -4.0090    -6.5690    -1.7690 C.2   1 <1>  -0.2330 
 11 N       -2.2540    -7.9160    -1.9600 N.2   1 <1>  -0.4100 
 12 C       -3.4930    -7.7670    -2.2620 C.2   1 <1>   0.3720 
 13 C       -5.3670    -6.1350    -1.9380 C.2   1 <1>   1.0330 
 14 N       -4.2270    -8.6960    -2.9840 N.pl3 1 <1>  -0.8520 
 15 O       -5.7350    -5.0090    -1.5740 O.co2 1 <1>  -0.9000 
 16 O       -6.2250    -6.8960    -2.4290 O.co2 1 <1>  -0.9000 
 17 C       -4.4880    -9.9670    -2.2730 C.3   1 <1>   0.2090 
 18 C       -5.7880    -9.8140    -1.4860 C.3   1 <1>  -0.0990 
 19 C       -6.2100   -11.0600    -0.7350 C.2   1 <1>   0.5690 
 20 O       -5.5250   -12.0540    -0.8310 O.2   1 <1>  -0.5700 
 21 N       -7.3500   -11.0380     0.0320 N.am  1 <1>  -0.6600 
 22 C       -8.2400    -9.8490     0.1960 C.3   1 <1>   0.1400 
 23 C       -7.8120   -12.2450     0.7700 C.3   1 <1>   0.1400 
 24 C       -9.6590   -10.2030    -0.2590 C.3   1 <1>  -0.1600 
 25 C       -9.2290   -12.6150     0.3210 C.3   1 <1>  -0.1600 
 26 C      -10.2020   -11.4360     0.4810 C.3   1 <1>  -0.0800 
 27 C      -11.5950   -11.8080    -0.0370 C.3   1 <1>  -0.2400 
 28 H       -4.1870    -2.7000     1.8400 H     1 <1>   0.1500 
 29 H       -0.3140    -2.4310     0.0960 H     1 <1>   0.1500 
 30 H       -4.6180    -4.7630     0.5740 H     1 <1>   0.1500 
 31 H       -0.7490    -4.4960    -1.1830 H     1 <1>   0.1500 
 32 H       -5.1480    -8.2370    -3.1510 H     1 <1>   0.4000 
 33 H       -3.6730   -10.2020    -1.6080 H     1 <1>   0.0800 
 34 H       -4.5810   -10.7620    -2.9920 H     1 <1>   0.0800 
 35 H       -6.5740    -9.5520    -2.1700 H     1 <1>   0.0800 
 36 H       -5.6630    -9.0200    -0.7750 H     1 <1>   0.0800 
 37 H       -7.8910    -9.0030    -0.3700 H     1 <1>   0.0800 
 38 H       -8.2520    -9.5650     1.2340 H     1 <1>   0.0800 
 39 H       -7.8040   -12.0330     1.8250 H     1 <1>   0.0800 
 40 H       -7.1510   -13.0760     0.5930 H     1 <1>   0.0800 
 41 H       -9.6430   -10.3850    -1.3200 H     1 <1>   0.0800 
 42 H      -10.3020    -9.3590    -0.0820 H     1 <1>   0.0800 
 43 H       -9.5730   -13.4530     0.9000 H     1 <1>   0.0800 
 44 H       -9.1900   -12.9220    -0.7100 H     1 <1>   0.0800 
 45 H      -10.2810   -11.1980     1.5290 H     1 <1>   0.0800 
 46 H      -11.5560   -12.0540    -1.0840 H     1 <1>   0.0800 
 47 H      -12.2750   -10.9860     0.0970 H     1 <1>   0.0800 
 48 H      -11.9780   -12.6570     0.5000 H     1 <1>   0.0800 
@<TRIPOS>BOND
  1   1   2  1   
  2   2   3  ar  
  3   2   4  ar  
  4   3   5  ar  
  5   3  28  1   
  6   4   6  ar  
  7   4  29  1   
  8   5   7  ar  
  9   5  30  1   
 10   6   7  ar  
 11   6  31  1   
 12   7   8  1   
 13   8   9  1   
 14   8  10  2   
 15   9  11  1   
 16  10  12  1   
 17  10  13  1   
 18  11  12  2   
 19  12  14  1   
 20  13  15  ar  
 21  13  16  ar  
 22  14  17  1   
 23  14  32  1   
 24  17  18  1   
 25  17  33  1   
 26  17  34  1   
 27  18  19  1   
 28  18  35  1   
 29  18  36  1   
 30  19  20  2   
 31  19  21  am  
 32  21  22  1   
 33  21  23  1   
 34  22  24  1   
 35  22  37  1   
 36  22  38  1   
 37  23  25  1   
 38  23  39  1   
 39  23  40  1   
 40  24  26  1   
 41  24  41  1   
 42  24  42  1   
 43  25  26  1   
 44  25  43  1   
 45  25  44  1   
 46  26  27  1   
 47  26  45  1   
 48  27  46  1   
 49  27  47  1   
 50  27  48  1   
@<TRIPOS>SUBSTRUCTURE
  1 ****  10 GROUP 4 **** **** 0

# MOE 2024.06 (io_trps.svl 2023.06)
