@<TRIPOS>MOLECULE
NONAME
48 50 1 0 0 
SMALL
USER_CHARGES


@<TRIPOS>ATOM
  1 O       -1.8450     0.4940    -1.8700 O.2   1 <1>  -0.5700 
  2 C       -1.6840     0.6080    -0.6780 C.2   1 <1>   0.6300 
  3 N       -1.7920    -0.4530     0.1540 N.am  1 <1>  -0.7300 
  4 C       -1.3130     1.9620    -0.0840 C.3   1 <1>  -0.1000 
  5 C       -1.9950    -1.8600    -0.2600 C.3   1 <1>   0.2200 
  6 C       -1.8830     2.5340     1.2000 C.3   1 <1>  -0.1900 
  7 C       -2.2410     3.1540    -0.1180 C.3   1 <1>  -0.1900 
  8 C       -3.4480    -2.2880    -0.1100 C.3   1 <1>  -0.0800 
  9 C       -1.3380    -2.7660     0.7720 C.3   1 <1>   0.1200 
 10 C       -2.9630     1.8100     2.0230 C.3   1 <1>  -0.1450 
 11 C       -0.8950     3.2250     2.1540 C.3   1 <1>  -0.1450 
 12 C       -1.6510     4.5130    -0.5300 C.3   1 <1>  -0.1450 
 13 C       -3.6460     2.9980    -0.7260 C.3   1 <1>  -0.1450 
 14 C       -3.5470    -2.6340     1.3790 C.3   1 <1>   0.1200 
 15 C       -4.5040    -1.2870    -0.6090 C.3   1 <1>  -0.0170 
 16 O       -2.2380    -2.8170     1.8390 O.3   1 <1>  -0.5600 
 17 C       -5.9060    -1.8590    -0.4670 C.ar  1 <1>  -0.1440 
 18 C       -6.4300    -2.7330    -1.3970 C.ar  1 <1>  -0.1500 
 19 C       -6.7240    -1.5370     0.5970 C.ar  1 <1>  -0.1500 
 20 C       -7.7100    -3.2340    -1.2210 C.ar  1 <1>   0.1600 
 21 C       -7.9900    -2.0940     0.6790 C.ar  1 <1>   0.1600 
 22 N       -8.5020    -2.9370    -0.2030 N.ar  1 <1>  -0.6200 
 23 H       -1.7030    -0.3060     1.1600 H     1 <1>   0.3700 
 24 H       -0.2800     2.1640    -0.2950 H     1 <1>   0.1000 
 25 H       -1.6120    -2.0200    -1.2540 H     1 <1>   0.0800 
 26 H       -3.5750    -3.2040    -0.6600 H     1 <1>   0.0800 
 27 H       -0.3880    -2.3950     1.1130 H     1 <1>   0.0800 
 28 H       -1.2260    -3.7650     0.3870 H     1 <1>   0.0800 
 29 H       -2.5080     1.1380     2.7280 H     1 <1>   0.0800 
 30 H       -3.6320     1.2380     1.4120 H     1 <1>   0.0800 
 31 H       -3.5450     2.5310     2.5690 H     1 <1>   0.0800 
 32 H       -0.5220     2.5220     2.8770 H     1 <1>   0.0800 
 33 H       -1.3890     4.0250     2.6770 H     1 <1>   0.0800 
 34 H       -0.0480     3.6310     1.6330 H     1 <1>   0.0800 
 35 H       -1.7190     4.6360    -1.5960 H     1 <1>   0.0800 
 36 H       -0.6160     4.6020    -0.2620 H     1 <1>   0.0800 
 37 H       -2.1980     5.3080    -0.0570 H     1 <1>   0.0800 
 38 H       -3.6080     3.1710    -1.7870 H     1 <1>   0.0800 
 39 H       -4.3190     3.7110    -0.2850 H     1 <1>   0.0800 
 40 H       -4.0490     2.0140    -0.5830 H     1 <1>   0.0800 
 41 H       -4.1100    -3.5370     1.5440 H     1 <1>   0.0800 
 42 H       -3.9790    -1.8260     1.9440 H     1 <1>   0.0800 
 43 H       -4.3150    -1.0530    -1.6430 H     1 <1>   0.0800 
 44 H       -4.4410    -0.3680    -0.0580 H     1 <1>   0.0800 
 45 H       -5.8570    -3.0280    -2.2570 H     1 <1>   0.1500 
 46 H       -6.3930    -0.8590     1.3610 H     1 <1>   0.1500 
 47 H       -8.1020    -3.9140    -1.9560 H     1 <1>   0.1500 
 48 H       -8.6150    -1.8320     1.5160 H     1 <1>   0.1500 
@<TRIPOS>BOND
  1   1   2  2   
  2   2   3  am  
  3   2   4  1   
  4   3   5  1   
  5   3  23  1   
  6   4   6  1   
  7   4   7  1   
  8   4  24  1   
  9   5   8  1   
 10   5   9  1   
 11   5  25  1   
 12   6   7  1   
 13   6  10  1   
 14   6  11  1   
 15   7  12  1   
 16   7  13  1   
 17   8  14  1   
 18   8  15  1   
 19   8  26  1   
 20   9  16  1   
 21   9  27  1   
 22   9  28  1   
 23  10  29  1   
 24  10  30  1   
 25  10  31  1   
 26  11  32  1   
 27  11  33  1   
 28  11  34  1   
 29  12  35  1   
 30  12  36  1   
 31  12  37  1   
 32  13  38  1   
 33  13  39  1   
 34  13  40  1   
 35  14  16  1   
 36  14  41  1   
 37  14  42  1   
 38  15  17  1   
 39  15  43  1   
 40  15  44  1   
 41  17  18  ar  
 42  17  19  ar  
 43  18  20  ar  
 44  18  45  1   
 45  19  21  ar  
 46  19  46  1   
 47  20  22  ar  
 48  20  47  1   
 49  21  22  ar  
 50  21  48  1   
@<TRIPOS>SUBSTRUCTURE
  1 ****  15 GROUP 4 **** **** 0

# MOE 2024.06 (io_trps.svl 2023.06)
