@<TRIPOS>MOLECULE
NONAME
55 59 1 0 0 
SMALL
USER_CHARGES


@<TRIPOS>ATOM
  1 O        0.2770    -0.1800     0.1060 O.3   1 <1>  -0.5600 
  2 C        0.6260    -1.5120     0.3780 C.3   1 <1>   0.1200 
  3 C        1.1470     0.5050    -0.7530 C.3   1 <1>   0.1200 
  4 C        2.0410    -1.5920     0.9920 C.3   1 <1>   0.5180 
  5 C        2.5880     0.5040    -0.1920 C.3   1 <1>   0.4230 
  6 N        3.0470    -0.8980     0.1350 N.4   1 <1>  -0.9590 
  7 C        2.4810    -3.0380     1.2510 C.3   1 <1>  -0.1950 
  8 C        3.5730     1.2180    -1.1530 C.3   1 <1>   0.1100 
  9 C        3.4790    -1.6340    -1.1020 C.3   1 <1>   0.3430 
 10 C        2.2660    -3.6590     2.5970 C.3   1 <1>  -0.2000 
 11 C        3.6580    -3.3570     2.1220 C.3   1 <1>  -0.2000 
 12 N        4.8490     0.4710    -1.2940 N.3   1 <1>  -0.8100 
 13 C        4.6110    -0.8810    -1.8440 C.3   1 <1>   0.1100 
 14 C        5.8760     1.2050    -2.0560 C.3   1 <1>   0.2900 
 15 C        6.1370     2.5510    -1.4060 C.2   1 <1>  -0.3320 
 16 N        5.8840     3.7270    -2.0610 N.pl3 1 <1>   0.0330 
 17 C        6.6210     2.8300    -0.1690 C.2   1 <1>  -0.1810 
 18 C        6.1920     4.7650    -1.2230 C.ar  1 <1>  -0.1520 
 19 C        6.6600     4.2350    -0.0270 C.ar  1 <1>   0.0000 
 20 C        7.0630     1.8700     0.9170 C.3   1 <1>  -0.0590 
 21 C        6.1030     6.1450    -1.4100 C.ar  1 <1>  -0.1500 
 22 C        7.0470     5.0990     1.0030 C.ar  1 <1>  -0.1500 
 23 C        6.4860     6.9810    -0.3870 C.ar  1 <1>  -0.1500 
 24 C        6.9610     6.4620     0.8260 C.ar  1 <1>  -0.1430 
 25 C        7.3740     7.4230     1.9250 C.3   1 <1>  -0.0970 
 26 H       -0.0960    -1.9030     1.0730 H     1 <1>   0.0800 
 27 H        0.5640    -2.0790    -0.5340 H     1 <1>   0.0800 
 28 H        1.1050     0.0430    -1.7230 H     1 <1>   0.0800 
 29 H        0.7860     1.5150    -0.8390 H     1 <1>   0.0800 
 30 H        2.0030    -1.0880     1.9440 H     1 <1>   0.0800 
 31 H        2.5680     1.0770     0.7210 H     1 <1>   0.0800 
 32 H        3.9150    -0.7650     0.6700 H     1 <1>   0.4500 
 33 H        2.2830    -3.6880     0.4160 H     1 <1>   0.1000 
 34 H        3.7570     2.2010    -0.7520 H     1 <1>   0.0800 
 35 H        3.1250     1.3480    -2.1230 H     1 <1>   0.0800 
 36 H        3.8340    -2.6190    -0.8450 H     1 <1>   0.0800 
 37 H        2.6400    -1.7530    -1.7670 H     1 <1>   0.0800 
 38 H        1.8720    -3.0730     3.4110 H     1 <1>   0.1000 
 39 H        1.9630    -4.6920     2.6590 H     1 <1>   0.1000 
 40 H        4.2950    -4.1890     1.8670 H     1 <1>   0.1000 
 41 H        4.1970    -2.5740     2.6280 H     1 <1>   0.1000 
 42 H        4.3620    -0.8170    -2.8900 H     1 <1>   0.0800 
 43 H        5.5190    -1.4550    -1.7620 H     1 <1>   0.0800 
 44 H        6.7930     0.6400    -2.0570 H     1 <1>   0.0800 
 45 H        5.5590     1.3380    -3.0760 H     1 <1>   0.0800 
 46 H        5.5470     3.8420    -3.0210 H     1 <1>   0.2700 
 47 H        6.4700     2.0210     1.8000 H     1 <1>   0.0800 
 48 H        8.0960     2.0470     1.1560 H     1 <1>   0.0800 
 49 H        6.9530     0.8530     0.5910 H     1 <1>   0.0800 
 50 H        5.7410     6.5420    -2.3410 H     1 <1>   0.1500 
 51 H        7.4100     4.6760     1.9210 H     1 <1>   0.1500 
 52 H        6.4250     8.0470    -0.5130 H     1 <1>   0.1500 
 53 H        8.1670     8.0590     1.5750 H     1 <1>   0.0800 
 54 H        7.7200     6.8890     2.7910 H     1 <1>   0.0800 
 55 H        6.5360     8.0340     2.2100 H     1 <1>   0.0800 
@<TRIPOS>BOND
  1   1   2  1   
  2   1   3  1   
  3   2   4  1   
  4   2  26  1   
  5   2  27  1   
  6   3   5  1   
  7   3  28  1   
  8   3  29  1   
  9   4   6  1   
 10   4   7  1   
 11   4  30  1   
 12   5   6  1   
 13   5   8  1   
 14   5  31  1   
 15   6   9  1   
 16   6  32  1   
 17   7  10  1   
 18   7  11  1   
 19   7  33  1   
 20   8  12  1   
 21   8  34  1   
 22   8  35  1   
 23   9  13  1   
 24   9  36  1   
 25   9  37  1   
 26  10  11  1   
 27  10  38  1   
 28  10  39  1   
 29  11  40  1   
 30  11  41  1   
 31  12  13  1   
 32  12  14  1   
 33  13  42  1   
 34  13  43  1   
 35  14  15  1   
 36  14  44  1   
 37  14  45  1   
 38  15  16  1   
 39  15  17  2   
 40  16  18  1   
 41  16  46  1   
 42  17  19  1   
 43  17  20  1   
 44  18  19  ar  
 45  18  21  ar  
 46  19  22  ar  
 47  20  47  1   
 48  20  48  1   
 49  20  49  1   
 50  21  23  ar  
 51  21  50  1   
 52  22  24  ar  
 53  22  51  1   
 54  23  24  ar  
 55  23  52  1   
 56  24  25  1   
 57  25  53  1   
 58  25  54  1   
 59  25  55  1   
@<TRIPOS>SUBSTRUCTURE
  1 ****   8 GROUP 4 **** **** 0

# MOE 2024.06 (io_trps.svl 2023.06)
