@<TRIPOS>MOLECULE
NONAME
40 41 1 0 0 
SMALL
USER_CHARGES


@<TRIPOS>ATOM
  1 N        0.1350     0.6440     0.4040 N.ar  1 <1>  -0.6200 
  2 C       -0.1350     1.7700    -0.2240 C.ar  1 <1>   0.7710 
  3 C       -0.8830    -0.0990     0.7670 C.ar  1 <1>   0.4100 
  4 N       -1.3890     2.1740    -0.5050 N.ar  1 <1>  -0.1790 
  5 N        0.9250     2.5040    -0.5820 N.pl3 1 <1>  -0.8690 
  6 N       -0.5840    -1.2310     1.4040 N.pl3 1 <1>  -0.9000 
  7 C       -2.2170     0.2590     0.5090 C.ar  1 <1>  -0.1500 
  8 C       -2.4600     1.4220    -0.1420 C.ar  1 <1>   0.2110 
  9 C        1.0920     3.8160    -1.2490 C.3   1 <1>   0.2090 
 10 C        2.2470     4.5520    -0.5720 C.3   1 <1>  -0.1600 
 11 C        2.5210     5.9100    -1.2360 C.3   1 <1>   0.0960 
 12 N        3.6400     6.6000    -0.5560 N.pl3 1 <1>   0.0480 
 13 C        3.6410     7.7030     0.2400 C.2   1 <1>   0.0060 
 14 C        4.9280     6.2160    -0.6170 C.2   1 <1>  -0.3020 
 15 N        4.8230     8.0130     0.6750 N.2   1 <1>  -0.5650 
 16 C        2.3790     8.4980     0.5920 C.3   1 <1>   0.1000 
 17 C        5.6310     7.0850     0.1370 C.2   1 <1>   0.0770 
 18 C        2.6980     9.9510     0.9700 C.3   1 <1>  -0.2400 
 19 C        1.6260     7.8200     1.7430 C.3   1 <1>  -0.2400 
 20 H       -1.4790     3.0520    -1.0030 H     1 <1>   0.4570 
 21 H        1.8160     2.0590    -0.3290 H     1 <1>   0.4000 
 22 H       -1.2600    -1.9170     1.7500 H     1 <1>   0.4000 
 23 H        0.3940    -1.4770     1.5810 H     1 <1>   0.4000 
 24 H       -3.0040    -0.3970     0.8330 H     1 <1>   0.1500 
 25 H       -3.4550     1.7650    -0.3780 H     1 <1>   0.1500 
 26 H        0.1920     4.4020    -1.1760 H     1 <1>   0.0800 
 27 H        1.3240     3.6570    -2.2910 H     1 <1>   0.0800 
 28 H        3.1360     3.9490    -0.6390 H     1 <1>   0.0800 
 29 H        2.0110     4.7080     0.4670 H     1 <1>   0.0800 
 30 H        1.6440     6.5280    -1.1960 H     1 <1>   0.0800 
 31 H        2.7920     5.7720    -2.2680 H     1 <1>   0.0800 
 32 H        5.2770     5.3700    -1.1780 H     1 <1>   0.1500 
 33 H        1.7400     8.5340    -0.2720 H     1 <1>   0.0800 
 34 H        6.6920     7.0940     0.3250 H     1 <1>   0.1500 
 35 H        3.3100     9.9800     1.8550 H     1 <1>   0.0800 
 36 H        1.7960    10.5040     1.1530 H     1 <1>   0.0800 
 37 H        3.2400    10.4240     0.1710 H     1 <1>   0.0800 
 38 H        2.2610     7.7730     2.6110 H     1 <1>   0.0800 
 39 H        1.3430     6.8210     1.4740 H     1 <1>   0.0800 
 40 H        0.7410     8.3760     1.9920 H     1 <1>   0.0800 
@<TRIPOS>BOND
  1   1   2  ar  
  2   1   3  ar  
  3   2   4  ar  
  4   2   5  1   
  5   3   6  1   
  6   3   7  ar  
  7   4   8  ar  
  8   4  20  1   
  9   5   9  1   
 10   5  21  1   
 11   6  22  1   
 12   6  23  1   
 13   7   8  ar  
 14   7  24  1   
 15   8  25  1   
 16   9  10  1   
 17   9  26  1   
 18   9  27  1   
 19  10  11  1   
 20  10  28  1   
 21  10  29  1   
 22  11  12  1   
 23  11  30  1   
 24  11  31  1   
 25  12  13  1   
 26  12  14  1   
 27  13  15  2   
 28  13  16  1   
 29  14  17  2   
 30  14  32  1   
 31  15  17  1   
 32  16  18  1   
 33  16  19  1   
 34  16  33  1   
 35  17  34  1   
 36  18  35  1   
 37  18  36  1   
 38  18  37  1   
 39  19  38  1   
 40  19  39  1   
 41  19  40  1   
@<TRIPOS>SUBSTRUCTURE
  1 ****  10 GROUP 4 **** **** 0

# MOE 2024.06 (io_trps.svl 2023.06)
