@<TRIPOS>MOLECULE
NONAME
58 62 1 0 0 
SMALL
USER_CHARGES


@<TRIPOS>ATOM
  1 O        1.6970    -0.0810     0.7070 O.2   1 <1>  -0.5700 
  2 C        1.7320    -1.2750     0.5900 C.2   1 <1>   0.6590 
  3 O        2.5980    -1.9270    -0.1370 O.3   1 <1>  -0.4300 
  4 C        0.8340    -2.2220     1.2540 C.3   1 <1>  -0.0990 
  5 C        2.7190    -3.3550    -0.0790 C.3   1 <1>   0.2800 
  6 C        1.2430    -3.4990     0.5260 C.3   1 <1>  -0.0190 
  7 C        4.1270    -3.1760    -0.7620 C.3   1 <1>  -0.1600 
  8 C        2.9450    -4.9300     0.0470 C.3   1 <1>  -0.1600 
  9 C        0.2290    -3.7990    -0.5860 C.2   1 <1>   0.5690 
 10 C        4.6520    -4.4220    -1.4480 C.3   1 <1>  -0.1600 
 11 C        4.2850    -5.4550    -0.4480 C.3   1 <1>  -0.1600 
 12 O        0.4860    -3.4260    -1.7060 O.2   1 <1>  -0.5700 
 13 N       -0.9270    -4.4940    -0.3190 N.am  1 <1>  -0.6600 
 14 C       -1.7470    -5.0660    -1.4230 C.3   1 <1>   0.1400 
 15 C       -1.4350    -4.9060     1.0190 C.3   1 <1>   0.1400 
 16 C       -1.6280    -6.5920    -1.3710 C.3   1 <1>  -0.1600 
 17 C       -1.2960    -6.4250     1.1430 C.3   1 <1>  -0.1600 
 18 C       -2.0320    -7.1610     0.0070 C.3   1 <1>   0.4240 
 19 O       -3.3830    -6.8060     0.2080 O.3   1 <1>  -0.5600 
 20 C       -1.8190    -8.6990     0.1050 C.ar  1 <1>  -0.1430 
 21 C       -4.3610    -7.6320    -0.3360 C.3   1 <1>   0.1200 
 22 C       -0.5500    -9.2850    -0.0010 C.ar  1 <1>   0.0820 
 23 C       -2.9150    -9.5390     0.3020 C.ar  1 <1>  -0.1430 
 24 C       -4.3130    -8.9640     0.3950 C.3   1 <1>  -0.0170 
 25 O        0.5310    -8.4890    -0.2180 O.3   1 <1>  -0.3630 
 26 C       -0.4040   -10.6670     0.1120 C.ar  1 <1>  -0.1500 
 27 C       -2.7570   -10.9100     0.4120 C.ar  1 <1>  -0.1500 
 28 C        1.7890    -9.0060    -0.5930 C.3   1 <1>   0.0400 
 29 C       -1.5020   -11.4750     0.3190 C.ar  1 <1>  -0.1500 
 30 H       -0.1950    -1.9500     1.1040 H     1 <1>   0.0800 
 31 H        1.0760    -2.2600     2.2990 H     1 <1>   0.0800 
 32 H        1.1360    -4.2650     1.2690 H     1 <1>   0.0800 
 33 H        4.8350    -2.8850    -0.0040 H     1 <1>   0.0800 
 34 H        4.1420    -2.4170    -1.5340 H     1 <1>   0.0800 
 35 H        2.2030    -5.4590    -0.5300 H     1 <1>   0.0800 
 36 H        2.8870    -5.2710     1.0670 H     1 <1>   0.0800 
 37 H        5.7130    -4.3780    -1.6300 H     1 <1>   0.0800 
 38 H        4.1250    -4.5850    -2.3730 H     1 <1>   0.0800 
 39 H        4.2150    -6.4370    -0.8830 H     1 <1>   0.0800 
 40 H        5.0060    -5.4630     0.3540 H     1 <1>   0.0800 
 41 H       -1.4090    -4.7080    -2.3800 H     1 <1>   0.0800 
 42 H       -2.7730    -4.7660    -1.2980 H     1 <1>   0.0800 
 43 H       -2.4720    -4.6270     1.1000 H     1 <1>   0.0800 
 44 H       -0.9090    -4.4160     1.8160 H     1 <1>   0.0800 
 45 H       -0.6090    -6.8400    -1.5930 H     1 <1>   0.0800 
 46 H       -2.2260    -7.0340    -2.1440 H     1 <1>   0.0800 
 47 H       -1.6960    -6.7540     2.0840 H     1 <1>   0.0800 
 48 H       -0.2520    -6.6610     1.1420 H     1 <1>   0.0800 
 49 H       -4.1820    -7.7570    -1.3890 H     1 <1>   0.0800 
 50 H       -5.3150    -7.1550    -0.1910 H     1 <1>   0.0800 
 51 H       -5.0250    -9.6360    -0.0500 H     1 <1>   0.0800 
 52 H       -4.5810    -8.8190     1.4270 H     1 <1>   0.0800 
 53 H        0.5580   -11.1360     0.0470 H     1 <1>   0.1500 
 54 H       -3.6110   -11.5450     0.5700 H     1 <1>   0.1500 
 55 H        2.4340    -8.1790    -0.8260 H     1 <1>   0.0800 
 56 H        1.6650    -9.6280    -1.4630 H     1 <1>   0.0800 
 57 H        2.1960    -9.5670     0.2290 H     1 <1>   0.0800 
 58 H       -1.3830   -12.5410     0.4070 H     1 <1>   0.1500 
@<TRIPOS>BOND
  1   1   2  2   
  2   2   3  1   
  3   2   4  1   
  4   3   5  1   
  5   4   6  1   
  6   4  30  1   
  7   4  31  1   
  8   5   6  1   
  9   5   7  1   
 10   5   8  1   
 11   6   9  1   
 12   6  32  1   
 13   7  10  1   
 14   7  33  1   
 15   7  34  1   
 16   8  11  1   
 17   8  35  1   
 18   8  36  1   
 19   9  12  2   
 20   9  13  am  
 21  10  11  1   
 22  10  37  1   
 23  10  38  1   
 24  11  39  1   
 25  11  40  1   
 26  13  14  1   
 27  13  15  1   
 28  14  16  1   
 29  14  41  1   
 30  14  42  1   
 31  15  17  1   
 32  15  43  1   
 33  15  44  1   
 34  16  18  1   
 35  16  45  1   
 36  16  46  1   
 37  17  18  1   
 38  17  47  1   
 39  17  48  1   
 40  18  19  1   
 41  18  20  1   
 42  19  21  1   
 43  20  22  ar  
 44  20  23  ar  
 45  21  24  1   
 46  21  49  1   
 47  21  50  1   
 48  22  25  1   
 49  22  26  ar  
 50  23  24  1   
 51  23  27  ar  
 52  24  51  1   
 53  24  52  1   
 54  25  28  1   
 55  26  29  ar  
 56  26  53  1   
 57  27  29  ar  
 58  27  54  1   
 59  28  55  1   
 60  28  56  1   
 61  28  57  1   
 62  29  58  1   
@<TRIPOS>SUBSTRUCTURE
  1 ****  13 GROUP 4 **** **** 0

# MOE 2024.06 (io_trps.svl 2023.06)
