@<TRIPOS>MOLECULE
NONAME
53 56 1 0 0 
SMALL
USER_CHARGES


@<TRIPOS>ATOM
  1 O       -3.4630     2.7120     3.2300 O.2   1 <1>  -0.5700 
  2 C       -3.3980     2.8370     2.0320 C.2   1 <1>   0.5690 
  3 N       -4.3990     2.3560     1.2200 N.am  1 <1>  -0.6600 
  4 C       -2.1310     3.4520     1.4500 C.3   1 <1>   0.0440 
  5 C       -5.4020     1.3800     1.7480 C.3   1 <1>   0.1400 
  6 C       -4.4170     2.4420    -0.2680 C.3   1 <1>   0.1400 
  7 C       -1.3630     2.4200     0.6160 C.ar  1 <1>  -0.1440 
  8 C       -5.3280     0.0160     1.0090 C.3   1 <1>   0.4230 
  9 C       -4.0550     1.0840    -0.9090 C.3   1 <1>   0.3430 
 10 C       -0.9050     2.6660    -0.6770 C.ar  1 <1>  -0.1440 
 11 C       -1.1200     1.1820     1.1990 C.ar  1 <1>  -0.1500 
 12 N       -4.1560    -0.0840     0.0450 N.4   1 <1>  -0.9590 
 13 C       -6.6560    -0.2950     0.2830 C.3   1 <1>   0.1200 
 14 C       -0.2610     1.6530    -1.3700 C.ar  1 <1>  -0.1500 
 15 C       -1.0420     4.0240    -1.3570 C.3   1 <1>  -0.0970 
 16 C       -0.4660     0.1780     0.5080 C.ar  1 <1>  -0.1430 
 17 C       -4.1730    -1.4170    -0.6430 C.3   1 <1>   0.5180 
 18 O       -6.5870    -1.5430    -0.3450 O.3   1 <1>  -0.5600 
 19 C       -0.0440     0.4190    -0.7860 C.ar  1 <1>  -0.1500 
 20 C       -0.1820    -1.1550     1.1780 C.3   1 <1>  -0.0970 
 21 C       -2.9930    -1.5140    -1.6290 C.3   1 <1>  -0.1950 
 22 C       -5.5570    -1.6860    -1.2860 C.3   1 <1>   0.1200 
 23 C       -3.0000    -1.0090    -3.0430 C.3   1 <1>  -0.2000 
 24 C       -2.9480    -2.4860    -2.7700 C.3   1 <1>  -0.2000 
 25 H       -2.4020     4.3210     0.8860 H     1 <1>   0.0800 
 26 H       -1.5010     3.7780     2.2580 H     1 <1>   0.0800 
 27 H       -5.2410     1.2040     2.7980 H     1 <1>   0.0800 
 28 H       -6.3860     1.8060     1.6580 H     1 <1>   0.0800 
 29 H       -5.4050     2.7270    -0.5850 H     1 <1>   0.0800 
 30 H       -3.7490     3.2020    -0.6240 H     1 <1>   0.0800 
 31 H       -5.2150    -0.7410     1.7670 H     1 <1>   0.0800 
 32 H       -3.0440     1.1420    -1.2800 H     1 <1>   0.0800 
 33 H       -4.6970     0.9250    -1.7590 H     1 <1>   0.0800 
 34 H       -1.4270     1.0000     2.2160 H     1 <1>   0.1500 
 35 H       -3.2970    -0.0240     0.6110 H     1 <1>   0.4500 
 36 H       -6.8870     0.4530    -0.4550 H     1 <1>   0.0800 
 37 H       -7.4650    -0.3370     0.9920 H     1 <1>   0.0800 
 38 H        0.0990     1.8220    -2.3710 H     1 <1>   0.1500 
 39 H       -0.4470     4.0640    -2.2530 H     1 <1>   0.0800 
 40 H       -0.6890     4.8010    -0.7030 H     1 <1>   0.0800 
 41 H       -2.0610     4.2250    -1.6250 H     1 <1>   0.0800 
 42 H       -4.0280    -2.1840     0.1000 H     1 <1>   0.0800 
 43 H        0.4760    -0.3440    -1.3400 H     1 <1>   0.1500 
 44 H       -0.0410    -1.9300     0.4460 H     1 <1>   0.0800 
 45 H       -0.9910    -1.4360     1.8280 H     1 <1>   0.0800 
 46 H        0.7160    -1.0750     1.7650 H     1 <1>   0.0800 
 47 H       -2.0650    -1.4420    -1.0930 H     1 <1>   0.1000 
 48 H       -5.6010    -2.6960    -1.6530 H     1 <1>   0.0800 
 49 H       -5.7470    -1.0190    -2.1070 H     1 <1>   0.0800 
 50 H       -3.8930    -0.6320    -3.5100 H     1 <1>   0.1000 
 51 H       -2.1120    -0.5350    -3.4290 H     1 <1>   0.1000 
 52 H       -2.0270    -3.0070    -2.9740 H     1 <1>   0.1000 
 53 H       -3.8060    -3.0750    -3.0470 H     1 <1>   0.1000 
@<TRIPOS>BOND
  1   1   2  2   
  2   2   3  am  
  3   2   4  1   
  4   3   5  1   
  5   3   6  1   
  6   4   7  1   
  7   4  25  1   
  8   4  26  1   
  9   5   8  1   
 10   5  27  1   
 11   5  28  1   
 12   6   9  1   
 13   6  29  1   
 14   6  30  1   
 15   7  10  ar  
 16   7  11  ar  
 17   8  12  1   
 18   8  13  1   
 19   8  31  1   
 20   9  12  1   
 21   9  32  1   
 22   9  33  1   
 23  10  14  ar  
 24  10  15  1   
 25  11  16  ar  
 26  11  34  1   
 27  12  17  1   
 28  12  35  1   
 29  13  18  1   
 30  13  36  1   
 31  13  37  1   
 32  14  19  ar  
 33  14  38  1   
 34  15  39  1   
 35  15  40  1   
 36  15  41  1   
 37  16  19  ar  
 38  16  20  1   
 39  17  21  1   
 40  17  22  1   
 41  17  42  1   
 42  18  22  1   
 43  19  43  1   
 44  20  44  1   
 45  20  45  1   
 46  20  46  1   
 47  21  23  1   
 48  21  24  1   
 49  21  47  1   
 50  22  48  1   
 51  22  49  1   
 52  23  24  1   
 53  23  50  1   
 54  23  51  1   
 55  24  52  1   
 56  24  53  1   
@<TRIPOS>SUBSTRUCTURE
  1 ****  12 GROUP 4 **** **** 0

# MOE 2024.06 (io_trps.svl 2023.06)
