@<TRIPOS>MOLECULE
NONAME
50 52 1 0 0 
SMALL
USER_CHARGES


@<TRIPOS>ATOM
  1 O        0.6290    -0.8490     1.3290 O.2   1 <1>  -0.5700 
  2 C        1.3910    -1.0640     0.4160 C.2   1 <1>   0.5690 
  3 N        2.1390    -0.0910    -0.1840 N.am  1 <1>  -0.5470 
  4 C        1.4680    -2.5180    -0.1160 C.3   1 <1>   0.4840 
  5 C        2.2030     1.2710     0.0000 C.ar  1 <1>   0.4270 
  6 N        0.1470    -3.2500     0.0200 N.4   1 <1>  -0.9590 
  7 C        2.5680    -3.2810     0.6330 C.3   1 <1>  -0.2400 
  8 N        2.8650     1.8580    -0.9810 N.ar  1 <1>  -0.6200 
  9 C        1.6530     1.9600     1.0810 C.ar  1 <1>  -0.1500 
 10 C        0.1770    -4.7010    -0.3370 C.3   1 <1>   0.3430 
 11 C       -0.9470    -2.5250    -0.6980 C.3   1 <1>   0.3430 
 12 C        2.9810     3.1750    -0.8950 C.ar  1 <1>   0.1600 
 13 C        1.7800     3.3270     1.1570 C.ar  1 <1>  -0.1500 
 14 C       -1.1540    -5.3540     0.0220 C.3   1 <1>  -0.1600 
 15 C       -2.2940    -3.1340    -0.3300 C.3   1 <1>  -0.1600 
 16 C        2.4670     3.9450     0.1330 C.ar  1 <1>  -0.1500 
 17 C       -2.3310    -4.6280    -0.6350 C.3   1 <1>   0.2000 
 18 O       -3.5030    -5.1080    -0.0800 O.3   1 <1>  -0.5600 
 19 C       -4.0590    -6.2380    -0.7050 C.3   1 <1>   0.2630 
 20 C       -5.2310    -6.8140     0.0840 C.ar  1 <1>   0.1670 
 21 N       -5.6030    -8.0360    -0.2760 N.ar  1 <1>  -0.6200 
 22 C       -5.8500    -6.0890     1.0950 C.ar  1 <1>  -0.1500 
 23 C       -6.6200    -8.5520     0.3970 C.ar  1 <1>   0.1600 
 24 C       -6.9070    -6.6400     1.7870 C.ar  1 <1>  -0.1500 
 25 C       -7.2950    -7.9090     1.4190 C.ar  1 <1>  -0.1500 
 26 H        2.7430    -0.3360    -0.9660 H     1 <1>   0.3700 
 27 H        1.7340    -2.4700    -1.1580 H     1 <1>   0.0800 
 28 H       -0.0890    -3.1670     1.0230 H     1 <1>   0.4500 
 29 H        2.2890    -3.4410     1.6600 H     1 <1>   0.0800 
 30 H        3.4750    -2.7020     0.6270 H     1 <1>   0.0800 
 31 H        2.7920    -4.2200     0.1620 H     1 <1>   0.0800 
 32 H        1.1320     1.4380     1.8600 H     1 <1>   0.1500 
 33 H        0.9620    -5.2040     0.2040 H     1 <1>   0.0800 
 34 H        0.3640    -4.8140    -1.3920 H     1 <1>   0.0800 
 35 H       -0.7980    -2.5910    -1.7630 H     1 <1>   0.0800 
 36 H       -0.9530    -1.4830    -0.4180 H     1 <1>   0.0800 
 37 H        3.5170     3.6690    -1.6880 H     1 <1>   0.1500 
 38 H        1.3660     3.8900     1.9770 H     1 <1>   0.1500 
 39 H       -1.2740    -5.3450     1.0920 H     1 <1>   0.0800 
 40 H       -1.1320    -6.3790    -0.3010 H     1 <1>   0.0800 
 41 H       -3.0680    -2.6390    -0.8900 H     1 <1>   0.0800 
 42 H       -2.4820    -2.9660     0.7170 H     1 <1>   0.0800 
 43 H        2.6030     5.0120     0.1310 H     1 <1>   0.1500 
 44 H       -2.3450    -4.7860    -1.7020 H     1 <1>   0.0800 
 45 H       -3.3020    -6.9970    -0.7940 H     1 <1>   0.0800 
 46 H       -4.3970    -5.9570    -1.6870 H     1 <1>   0.0800 
 47 H       -5.5100    -5.1010     1.3440 H     1 <1>   0.1500 
 48 H       -6.9330    -9.5440     0.1180 H     1 <1>   0.1500 
 49 H       -7.4050    -6.1030     2.5760 H     1 <1>   0.1500 
 50 H       -8.1120    -8.3980     1.9180 H     1 <1>   0.1500 
@<TRIPOS>BOND
  1   1   2  2   
  2   2   3  am  
  3   2   4  1   
  4   3   5  1   
  5   3  26  1   
  6   4   6  1   
  7   4   7  1   
  8   4  27  1   
  9   5   8  ar  
 10   5   9  ar  
 11   6  10  1   
 12   6  11  1   
 13   6  28  1   
 14   7  29  1   
 15   7  30  1   
 16   7  31  1   
 17   8  12  ar  
 18   9  13  ar  
 19   9  32  1   
 20  10  14  1   
 21  10  33  1   
 22  10  34  1   
 23  11  15  1   
 24  11  35  1   
 25  11  36  1   
 26  12  16  ar  
 27  12  37  1   
 28  13  16  ar  
 29  13  38  1   
 30  14  17  1   
 31  14  39  1   
 32  14  40  1   
 33  15  17  1   
 34  15  41  1   
 35  15  42  1   
 36  16  43  1   
 37  17  18  1   
 38  17  44  1   
 39  18  19  1   
 40  19  20  1   
 41  19  45  1   
 42  19  46  1   
 43  20  21  ar  
 44  20  22  ar  
 45  21  23  ar  
 46  22  24  ar  
 47  22  47  1   
 48  23  25  ar  
 49  23  48  1   
 50  24  25  ar  
 51  24  49  1   
 52  25  50  1   
@<TRIPOS>SUBSTRUCTURE
  1 ****  11 GROUP 4 **** **** 0

# MOE 2024.06 (io_trps.svl 2023.06)
