@<TRIPOS>MOLECULE
NONAME
46 47 1 0 0 
SMALL
USER_CHARGES


@<TRIPOS>ATOM
  1 O       -0.5930     0.1430     0.3850 O.2   1 <1>  -0.5700 
  2 C       -1.4820     0.8060    -0.1200 C.2   1 <1>   0.7160 
  3 N       -2.6220     0.1590    -0.5480 N.am  1 <1>  -0.6600 
  4 C       -1.3260     2.2410    -0.2460 C.2   1 <1>  -0.0860 
  5 C       -3.9750     0.7890    -0.5120 C.3   1 <1>   0.1400 
  6 C       -2.6730    -1.3230    -0.7260 C.3   1 <1>   0.1400 
  7 C       -1.8540     3.1180    -1.1630 C.2   1 <1>  -0.3020 
  8 C       -0.5330     3.0420     0.6010 C.2   1 <1>  -0.1500 
  9 C       -4.9050     0.0330     0.4630 C.3   1 <1>   0.2000 
 10 C       -3.6710    -1.9630     0.2610 C.3   1 <1>   0.2000 
 11 N       -1.4360     4.3790    -0.9100 N.pl3 1 <1>   0.0330 
 12 C       -0.6240     4.3270     0.1770 C.2   1 <1>  -0.3020 
 13 O       -4.9150    -1.3330     0.1530 O.3   1 <1>  -0.5600 
 14 C       -6.3680     0.5360     0.4680 C.3   1 <1>  -0.0800 
 15 C       -3.9080    -3.4560    -0.0010 C.3   1 <1>  -0.1600 
 16 C       -7.0780     0.3870    -0.8890 C.3   1 <1>  -0.2400 
 17 C       -6.4730     1.9930     0.9460 C.3   1 <1>  -0.2400 
 18 C       -2.6520    -4.3140     0.2250 C.3   1 <1>  -0.1600 
 19 C       -2.9640    -5.8040     0.0460 C.3   1 <1>  -0.1600 
 20 C       -1.7150    -6.6600     0.2680 C.3   1 <1>  -0.2400 
 21 H       -3.9020     1.8120    -0.1930 H     1 <1>   0.0800 
 22 H       -4.3920     0.7730    -1.5020 H     1 <1>   0.0800 
 23 H       -2.9800    -1.5450    -1.7330 H     1 <1>   0.0800 
 24 H       -1.6970    -1.7500    -0.5810 H     1 <1>   0.0800 
 25 H       -2.5030     2.8830    -1.9880 H     1 <1>   0.1500 
 26 H        0.0350     2.6560     1.4310 H     1 <1>   0.1500 
 27 H       -4.5130     0.1350     1.4610 H     1 <1>   0.0800 
 28 H       -3.3150    -1.8320     1.2690 H     1 <1>   0.0800 
 29 H       -1.6730     5.2240    -1.4440 H     1 <1>   0.2700 
 30 H       -0.1520     5.2030     0.5870 H     1 <1>   0.1500 
 31 H       -6.8970    -0.0720     1.1830 H     1 <1>   0.0800 
 32 H       -4.6810    -3.7930     0.6670 H     1 <1>   0.0800 
 33 H       -4.2560    -3.5860    -1.0110 H     1 <1>   0.0800 
 34 H       -6.6420     1.0280    -1.6330 H     1 <1>   0.0800 
 35 H       -8.1180     0.6410    -0.7910 H     1 <1>   0.0800 
 36 H       -7.0150    -0.6320    -1.2320 H     1 <1>   0.0800 
 37 H       -6.0240     2.6690     0.2410 H     1 <1>   0.0800 
 38 H       -5.9850     2.1110     1.8980 H     1 <1>   0.0800 
 39 H       -7.5060     2.2680     1.0640 H     1 <1>   0.0800 
 40 H       -1.8820    -4.0320    -0.4730 H     1 <1>   0.0800 
 41 H       -2.2780    -4.1460     1.2220 H     1 <1>   0.0800 
 42 H       -3.7260    -6.1010     0.7470 H     1 <1>   0.0800 
 43 H       -3.3410    -5.9780    -0.9480 H     1 <1>   0.0800 
 44 H       -1.3330    -6.5180     1.2640 H     1 <1>   0.0800 
 45 H       -0.9470    -6.3960    -0.4380 H     1 <1>   0.0800 
 46 H       -1.9540    -7.7010     0.1390 H     1 <1>   0.0800 
@<TRIPOS>BOND
  1   1   2  2   
  2   2   3  am  
  3   2   4  1   
  4   3   5  1   
  5   3   6  1   
  6   4   7  2   
  7   4   8  1   
  8   5   9  1   
  9   5  21  1   
 10   5  22  1   
 11   6  10  1   
 12   6  23  1   
 13   6  24  1   
 14   7  11  1   
 15   7  25  1   
 16   8  12  2   
 17   8  26  1   
 18   9  13  1   
 19   9  14  1   
 20   9  27  1   
 21  10  13  1   
 22  10  15  1   
 23  10  28  1   
 24  11  12  1   
 25  11  29  1   
 26  12  30  1   
 27  14  16  1   
 28  14  17  1   
 29  14  31  1   
 30  15  18  1   
 31  15  32  1   
 32  15  33  1   
 33  16  34  1   
 34  16  35  1   
 35  16  36  1   
 36  17  37  1   
 37  17  38  1   
 38  17  39  1   
 39  18  19  1   
 40  18  40  1   
 41  18  41  1   
 42  19  20  1   
 43  19  42  1   
 44  19  43  1   
 45  20  44  1   
 46  20  45  1   
 47  20  46  1   
@<TRIPOS>SUBSTRUCTURE
  1 ****   3 GROUP 4 **** **** 0

# MOE 2024.06 (io_trps.svl 2023.06)
