@<TRIPOS>MOLECULE
NONAME
64 67 1 0 0 
SMALL
USER_CHARGES


@<TRIPOS>ATOM
  1 O        0.0130    -0.7510    -1.1550 O.2   1 <1>  -0.5700 
  2 C        0.1400    -1.6970    -0.4070 C.2   1 <1>   0.5690 
  3 N        1.1930    -1.8140     0.4690 N.am  1 <1>  -0.6600 
  4 C       -0.9550    -2.7770    -0.5050 C.3   1 <1>   0.4040 
  5 C        2.2690    -0.7680     0.4830 C.3   1 <1>   0.2200 
  6 C        1.3490    -2.9460     1.4370 C.3   1 <1>   0.0600 
  7 N       -2.1400    -2.3190    -1.3220 N.4   1 <1>  -0.9590 
  8 C        3.6750    -1.3850     0.4130 C.3   1 <1>  -0.1600 
  9 C        2.1170     0.1430     1.7090 C.3   1 <1>  -0.1600 
 10 C       -3.0350    -1.4150    -0.5230 C.3   1 <1>   0.3430 
 11 C       -2.8910    -3.4290    -1.9670 C.3   1 <1>   0.3430 
 12 C        4.7500    -0.2880     0.4110 C.3   1 <1>  -0.1600 
 13 C        3.1960     1.2360     1.7160 C.3   1 <1>  -0.1600 
 14 C       -4.1230    -0.7780    -1.4030 C.3   1 <1>   0.1430 
 15 C       -3.9520    -2.8450    -2.9050 C.3   1 <1>  -0.1600 
 16 C        4.6040     0.6310     1.6320 C.3   1 <1>  -0.1600 
 17 C       -5.0670    -0.0100    -0.5120 C.ar  1 <1>   0.1670 
 18 C       -4.8950    -1.8670    -2.1800 C.3   1 <1>  -0.1600 
 19 C       -3.5630     0.3280    -2.3390 C.3   1 <1>  -0.1600 
 20 N       -5.6020    -0.4880     0.5810 N.ar  1 <1>  -0.6200 
 21 C       -5.2910     1.2500    -0.9740 C.ar  1 <1>  -0.1430 
 22 C       -4.5340     1.5220    -2.2490 C.3   1 <1>  -0.0170 
 23 C       -6.4130     0.3590     1.2260 C.ar  1 <1>   0.7200 
 24 C       -6.1320     2.0500    -0.2430 C.ar  1 <1>   0.1600 
 25 N       -6.6960     1.6130     0.8580 N.ar  1 <1>  -0.6200 
 26 N       -7.0070    -0.1060     2.3810 N.pl3 1 <1>  -0.8380 
 27 C       -7.2280    -1.5550     2.6390 C.3   1 <1>   0.1290 
 28 C       -7.6570     0.8190     3.3510 C.3   1 <1>   0.1290 
 29 H       -1.2760    -3.0490     0.4850 H     1 <1>   0.0800 
 30 H       -0.5110    -3.6410    -0.9670 H     1 <1>   0.0800 
 31 H        2.1640    -0.1440    -0.3900 H     1 <1>   0.0800 
 32 H        0.4060    -3.4090     1.6620 H     1 <1>   0.0800 
 33 H        1.7670    -2.5920     2.3630 H     1 <1>   0.0800 
 34 H        2.0150    -3.6860     1.0260 H     1 <1>   0.0800 
 35 H       -1.7200    -1.7200    -2.0550 H     1 <1>   0.4500 
 36 H        3.7660    -1.9700    -0.4850 H     1 <1>   0.0800 
 37 H        3.8510    -2.0210     1.2610 H     1 <1>   0.0800 
 38 H        2.2060    -0.4300     2.6130 H     1 <1>   0.0800 
 39 H        1.1460     0.6070     1.6910 H     1 <1>   0.0800 
 40 H       -2.4570    -0.6290    -0.0630 H     1 <1>   0.0800 
 41 H       -3.5160    -1.9770     0.2610 H     1 <1>   0.0800 
 42 H       -3.3710    -4.0320    -1.2130 H     1 <1>   0.0800 
 43 H       -2.2190    -4.0560    -2.5310 H     1 <1>   0.0800 
 44 H        4.6620     0.2980    -0.4880 H     1 <1>   0.0800 
 45 H        5.7270    -0.7400     0.4140 H     1 <1>   0.0800 
 46 H        3.1090     1.8250     2.6130 H     1 <1>   0.0800 
 47 H        3.0420     1.8940     0.8770 H     1 <1>   0.0800 
 48 H       -4.5330    -3.6520    -3.3170 H     1 <1>   0.0800 
 49 H       -3.4660    -2.3530    -3.7300 H     1 <1>   0.0800 
 50 H        5.3320     1.4220     1.5750 H     1 <1>   0.0800 
 51 H        4.8030     0.0670     2.5280 H     1 <1>   0.0800 
 52 H       -5.5700    -1.4100    -2.8840 H     1 <1>   0.0800 
 53 H       -5.4990    -2.4250    -1.4830 H     1 <1>   0.0800 
 54 H       -3.4500     0.0010    -3.3580 H     1 <1>   0.0800 
 55 H       -2.6010     0.6550    -1.9810 H     1 <1>   0.0800 
 56 H       -5.2170     1.5240    -3.0810 H     1 <1>   0.0800 
 57 H       -4.0070     2.4600    -2.2070 H     1 <1>   0.0800 
 58 H       -6.3450     3.0560    -0.5610 H     1 <1>   0.1500 
 59 H       -7.1220    -2.1270     1.7340 H     1 <1>   0.0800 
 60 H       -8.2220    -1.7120     3.0210 H     1 <1>   0.0800 
 61 H       -6.5120    -1.9040     3.3620 H     1 <1>   0.0800 
 62 H       -7.1540     1.7710     3.3590 H     1 <1>   0.0800 
 63 H       -7.6150     0.4050     4.3430 H     1 <1>   0.0800 
 64 H       -8.6850     0.9710     3.0710 H     1 <1>   0.0800 
@<TRIPOS>BOND
  1   1   2  2   
  2   2   3  am  
  3   2   4  1   
  4   3   5  1   
  5   3   6  1   
  6   4   7  1   
  7   4  29  1   
  8   4  30  1   
  9   5   8  1   
 10   5   9  1   
 11   5  31  1   
 12   6  32  1   
 13   6  33  1   
 14   6  34  1   
 15   7  10  1   
 16   7  11  1   
 17   7  35  1   
 18   8  12  1   
 19   8  36  1   
 20   8  37  1   
 21   9  13  1   
 22   9  38  1   
 23   9  39  1   
 24  10  14  1   
 25  10  40  1   
 26  10  41  1   
 27  11  15  1   
 28  11  42  1   
 29  11  43  1   
 30  12  16  1   
 31  12  44  1   
 32  12  45  1   
 33  13  16  1   
 34  13  46  1   
 35  13  47  1   
 36  14  17  1   
 37  14  18  1   
 38  14  19  1   
 39  15  18  1   
 40  15  48  1   
 41  15  49  1   
 42  16  50  1   
 43  16  51  1   
 44  17  20  ar  
 45  17  21  ar  
 46  18  52  1   
 47  18  53  1   
 48  19  22  1   
 49  19  54  1   
 50  19  55  1   
 51  20  23  ar  
 52  21  22  1   
 53  21  24  ar  
 54  22  56  1   
 55  22  57  1   
 56  23  25  ar  
 57  23  26  1   
 58  24  25  ar  
 59  24  58  1   
 60  26  27  1   
 61  26  28  1   
 62  27  59  1   
 63  27  60  1   
 64  27  61  1   
 65  28  62  1   
 66  28  63  1   
 67  28  64  1   
@<TRIPOS>SUBSTRUCTURE
  1 ****  10 GROUP 4 **** **** 0

# MOE 2024.06 (io_trps.svl 2023.06)
