@<TRIPOS>MOLECULE
NONAME
52 53 1 0 0 
SMALL
USER_CHARGES


@<TRIPOS>ATOM
  1 S        2.3900     2.2980    -0.2460 S.o2  1 <1>   1.3330 
  2 O        3.4530     1.4300     0.2050 O.2   1 <1>  -0.6500 
  3 O        2.1550     2.4330    -1.6660 O.2   1 <1>  -0.6500 
  4 N        2.7310     3.8420     0.3690 N.am  1 <1>  -0.8490 
  5 C        0.8620     1.7330     0.5280 C.3   1 <1>  -0.0550 
  6 C        3.1660     3.8330     1.7700 C.3   1 <1>   0.1160 
  7 C        3.7590     4.5120    -0.4400 C.3   1 <1>   0.1160 
  8 C       -0.4590     2.5260     0.3530 C.3   1 <1>  -0.0800 
  9 C       -0.7600     3.0000    -1.0750 C.3   1 <1>   0.2000 
 10 C       -0.5370     3.7950     1.2120 C.3   1 <1>   0.1400 
 11 O       -2.1380     2.9960    -1.2290 O.3   1 <1>  -0.6800 
 12 C       -0.2910     4.4550    -1.1200 C.3   1 <1>   0.1400 
 13 N       -0.4360     4.9360     0.2790 N.am  1 <1>  -0.6600 
 14 C       -0.2870     6.2150     0.7360 C.2   1 <1>   0.5690 
 15 O       -0.4110     6.4830     1.9070 O.2   1 <1>  -0.5700 
 16 C        0.0810     7.3440    -0.2120 C.3   1 <1>  -0.0990 
 17 C        1.5970     7.3640    -0.4460 C.3   1 <1>  -0.1600 
 18 C        2.0570     8.5220    -1.3390 C.3   1 <1>  -0.0990 
 19 C        3.5670     8.4710    -1.5340 C.2   1 <1>   0.4230 
 20 O        3.9660     7.7660    -2.4260 O.2   1 <1>  -0.5700 
 21 C        4.4580     9.2220    -0.6680 C.ar  1 <1>   0.0860 
 22 C        5.7880     9.4240    -1.0460 C.ar  1 <1>  -0.1500 
 23 C        4.0630     9.7620     0.5610 C.ar  1 <1>  -0.1500 
 24 C        6.6740    10.1290    -0.2530 C.ar  1 <1>  -0.1500 
 25 C        4.9440    10.4690     1.3590 C.ar  1 <1>  -0.1500 
 26 C        6.2520    10.6550     0.9540 C.ar  1 <1>  -0.1500 
 27 H        0.6770     0.7480     0.1450 H     1 <1>   0.0800 
 28 H        1.0390     1.6100     1.5790 H     1 <1>   0.0800 
 29 H        3.2890     4.8430     2.1210 H     1 <1>   0.0800 
 30 H        4.1020     3.3090     1.8720 H     1 <1>   0.0800 
 31 H        2.4310     3.3500     2.3890 H     1 <1>   0.0800 
 32 H        3.9690     5.4920    -0.0480 H     1 <1>   0.0800 
 33 H        3.4200     4.6240    -1.4560 H     1 <1>   0.0800 
 34 H        4.6690     3.9340    -0.4460 H     1 <1>   0.0800 
 35 H       -1.2400     1.8590     0.6770 H     1 <1>   0.0800 
 36 H       -0.3360     2.3850    -1.8510 H     1 <1>   0.0800 
 37 H        0.2500     3.8430     1.9440 H     1 <1>   0.0800 
 38 H       -1.4850     3.8480     1.7190 H     1 <1>   0.0800 
 39 H       -2.5230     3.6730    -0.6370 H     1 <1>   0.4000 
 40 H       -0.8790     5.0360    -1.8090 H     1 <1>   0.0800 
 41 H        0.7430     4.5040    -1.4080 H     1 <1>   0.0800 
 42 H       -0.4460     7.2320    -1.1410 H     1 <1>   0.0800 
 43 H       -0.2300     8.2720     0.2330 H     1 <1>   0.0800 
 44 H        2.0970     7.4150     0.5070 H     1 <1>   0.0800 
 45 H        1.8830     6.4410    -0.9140 H     1 <1>   0.0800 
 46 H        1.7620     9.4680    -0.9250 H     1 <1>   0.0800 
 47 H        1.5900     8.4340    -2.3040 H     1 <1>   0.0800 
 48 H        6.1310     9.0170    -1.9820 H     1 <1>   0.1500 
 49 H        3.0580     9.6300     0.9170 H     1 <1>   0.1500 
 50 H        7.6920    10.2690    -0.5740 H     1 <1>   0.1500 
 51 H        4.6140    10.8750     2.3010 H     1 <1>   0.1500 
 52 H        6.9390    11.2050     1.5740 H     1 <1>   0.1500 
@<TRIPOS>BOND
  1   1   2  2   
  2   1   3  2   
  3   1   4  am  
  4   1   5  1   
  5   4   6  1   
  6   4   7  1   
  7   5   8  1   
  8   5  27  1   
  9   5  28  1   
 10   6  29  1   
 11   6  30  1   
 12   6  31  1   
 13   7  32  1   
 14   7  33  1   
 15   7  34  1   
 16   8   9  1   
 17   8  10  1   
 18   8  35  1   
 19   9  11  1   
 20   9  12  1   
 21   9  36  1   
 22  10  13  1   
 23  10  37  1   
 24  10  38  1   
 25  11  39  1   
 26  12  13  1   
 27  12  40  1   
 28  12  41  1   
 29  13  14  am  
 30  14  15  2   
 31  14  16  1   
 32  16  17  1   
 33  16  42  1   
 34  16  43  1   
 35  17  18  1   
 36  17  44  1   
 37  17  45  1   
 38  18  19  1   
 39  18  46  1   
 40  18  47  1   
 41  19  20  2   
 42  19  21  1   
 43  21  22  ar  
 44  21  23  ar  
 45  22  24  ar  
 46  22  48  1   
 47  23  25  ar  
 48  23  49  1   
 49  24  26  ar  
 50  24  50  1   
 51  25  26  ar  
 52  25  51  1   
 53  26  52  1   
@<TRIPOS>SUBSTRUCTURE
  1 ****  17 GROUP 4 **** **** 0

# MOE 2024.06 (io_trps.svl 2023.06)
