@<TRIPOS>MOLECULE
NONAME
45 46 1 0 0 
SMALL
USER_CHARGES


@<TRIPOS>ATOM
  1 S        0.0160     0.3350     0.8330 S.o2  1 <1>   1.3330 
  2 O        0.4090    -0.1690     2.1290 O.2   1 <1>  -0.6500 
  3 O       -0.7400     1.5630     0.7470 O.2   1 <1>  -0.6500 
  4 N       -0.8650    -0.8870     0.0490 N.am  1 <1>  -0.8490 
  5 C        1.4580     0.5110    -0.2200 C.3   1 <1>  -0.0550 
  6 C       -0.4240    -2.2400     0.4050 C.3   1 <1>   0.1160 
  7 C       -2.3080    -0.7590     0.2700 C.3   1 <1>   0.1160 
  8 C        2.4220     1.6270     0.2310 C.3   1 <1>  -0.0800 
  9 C        3.4840     1.8890    -0.8220 C.3   1 <1>   0.2200 
 10 C        3.2780     1.1940     1.4220 C.3   1 <1>   0.1200 
 11 N        4.0170     3.2570    -0.6460 N.am  1 <1>  -0.7300 
 12 C        4.5570     0.8600    -0.4690 C.3   1 <1>   0.1200 
 13 O        4.3910     0.5470     0.8840 O.3   1 <1>  -0.5600 
 14 C        3.8920     4.2750    -1.5360 C.2   1 <1>   0.5690 
 15 O        3.3160     4.1280    -2.5870 O.2   1 <1>  -0.5700 
 16 C        4.4830     5.6420    -1.2100 C.3   1 <1>   0.1810 
 17 O        5.2180     5.6140     0.0080 O.3   1 <1>  -0.3630 
 18 C        5.8290     6.7280     0.4820 C.ar  1 <1>   0.0820 
 19 C        5.7760     7.9700    -0.1480 C.ar  1 <1>  -0.1500 
 20 C        6.5390     6.5940     1.6650 C.ar  1 <1>  -0.1500 
 21 C        6.4300     9.0560     0.4080 C.ar  1 <1>  -0.1500 
 22 C        7.1910     7.6810     2.2190 C.ar  1 <1>  -0.1500 
 23 C        7.1370     8.9130     1.5900 C.ar  1 <1>  -0.1500 
 24 H        1.9850    -0.4220    -0.2660 H     1 <1>   0.0800 
 25 H        1.1120     0.7400    -1.2100 H     1 <1>   0.0800 
 26 H       -0.9500    -2.9690    -0.1880 H     1 <1>   0.0800 
 27 H       -0.6120    -2.4360     1.4490 H     1 <1>   0.0800 
 28 H        0.6310    -2.3500     0.2190 H     1 <1>   0.0800 
 29 H       -2.8370    -1.5390    -0.2510 H     1 <1>   0.0800 
 30 H       -2.6560     0.1890    -0.1040 H     1 <1>   0.0800 
 31 H       -2.5330    -0.8190     1.3220 H     1 <1>   0.0800 
 32 H        1.8560     2.5170     0.4480 H     1 <1>   0.0800 
 33 H        3.1220     1.7610    -1.8290 H     1 <1>   0.0800 
 34 H        2.7790     0.5260     2.1020 H     1 <1>   0.0800 
 35 H        3.6330     2.0520     1.9670 H     1 <1>   0.0800 
 36 H        4.5400     3.4320     0.2170 H     1 <1>   0.3700 
 37 H        5.5530     1.2330    -0.6320 H     1 <1>   0.0800 
 38 H        4.4120    -0.0460    -1.0300 H     1 <1>   0.0800 
 39 H        3.6860     6.3550    -1.1100 H     1 <1>   0.0800 
 40 H        5.1470     5.9370    -2.0010 H     1 <1>   0.0800 
 41 H        5.2370     8.1140    -1.0640 H     1 <1>   0.1500 
 42 H        6.5790     5.6360     2.1490 H     1 <1>   0.1500 
 43 H        6.3900    10.0160    -0.0780 H     1 <1>   0.1500 
 44 H        7.7410     7.5690     3.1380 H     1 <1>   0.1500 
 45 H        7.6440     9.7590     2.0200 H     1 <1>   0.1500 
@<TRIPOS>BOND
  1   1   2  2   
  2   1   3  2   
  3   1   4  am  
  4   1   5  1   
  5   4   6  1   
  6   4   7  1   
  7   5   8  1   
  8   5  24  1   
  9   5  25  1   
 10   6  26  1   
 11   6  27  1   
 12   6  28  1   
 13   7  29  1   
 14   7  30  1   
 15   7  31  1   
 16   8   9  1   
 17   8  10  1   
 18   8  32  1   
 19   9  11  1   
 20   9  12  1   
 21   9  33  1   
 22  10  13  1   
 23  10  34  1   
 24  10  35  1   
 25  11  14  am  
 26  11  36  1   
 27  12  13  1   
 28  12  37  1   
 29  12  38  1   
 30  14  15  2   
 31  14  16  1   
 32  16  17  1   
 33  16  39  1   
 34  16  40  1   
 35  17  18  1   
 36  18  19  ar  
 37  18  20  ar  
 38  19  21  ar  
 39  19  41  1   
 40  20  22  ar  
 41  20  42  1   
 42  21  23  ar  
 43  21  43  1   
 44  22  23  ar  
 45  22  44  1   
 46  23  45  1   
@<TRIPOS>SUBSTRUCTURE
  1 ****  11 GROUP 4 **** **** 0

# MOE 2024.06 (io_trps.svl 2023.06)
