@<TRIPOS>MOLECULE
NONAME
42 43 1 0 0 
SMALL
USER_CHARGES


@<TRIPOS>ATOM
  1 O        0.0620     0.1150    -0.4810 O.2   1 <1>  -0.5700 
  2 C        1.1790    -0.3100    -0.2480 C.2   1 <1>   0.7160 
  3 N        2.1850     0.5480     0.1230 N.am  1 <1>  -0.4940 
  4 C        1.5000    -1.7180    -0.3370 C.2   1 <1>  -0.0860 
  5 C        2.2080     1.9630     0.2150 C.2   1 <1>  -0.0880 
  6 C        0.7280    -2.8350    -0.1050 C.2   1 <1>  -0.3320 
  7 C        2.7660    -2.2230    -0.7030 C.2   1 <1>  -0.1500 
  8 N        3.2590     2.6970     0.6710 N.pl3 1 <1>   0.3140 
  9 C        1.2480     2.8570    -0.1180 C.2   1 <1>  -0.1500 
 10 N        1.4570    -3.9610    -0.3080 N.pl3 1 <1>   0.0480 
 11 C       -0.7330    -2.8820     0.3220 C.3   1 <1>  -0.0600 
 12 C        2.7050    -3.5750    -0.6710 C.2   1 <1>  -0.3020 
 13 N        2.9960     4.0220     0.6350 N.2   1 <1>  -0.7070 
 14 C        4.5490     2.1920     1.1800 C.3   1 <1>   0.0960 
 15 C        1.7930     4.1030     0.1630 C.2   1 <1>   0.1080 
 16 C        1.0030    -5.3560    -0.1780 C.3   1 <1>   0.0160 
 17 C        5.4710     1.7680     0.0260 C.3   1 <1>  -0.1600 
 18 C        1.0930     5.4250    -0.0450 C.3   1 <1>  -0.0590 
 19 C        6.7900     1.1900     0.5530 C.3   1 <1>  -0.1600 
 20 C        7.7000     0.7620    -0.6010 C.3   1 <1>  -0.2400 
 21 H        3.0370     0.0560     0.3780 H     1 <1>   0.3700 
 22 H        3.6200    -1.6260    -0.9720 H     1 <1>   0.1500 
 23 H        0.2690     2.6620    -0.5160 H     1 <1>   0.1500 
 24 H       -1.1140    -1.8950     0.5110 H     1 <1>   0.0800 
 25 H       -0.8390    -3.4570     1.2240 H     1 <1>   0.0800 
 26 H       -1.3290    -3.3280    -0.4530 H     1 <1>   0.0800 
 27 H        3.4830    -4.2840    -0.8950 H     1 <1>   0.1500 
 28 H        4.3550     1.3640     1.8360 H     1 <1>   0.0800 
 29 H        5.0130     2.9760     1.7510 H     1 <1>   0.0800 
 30 H        0.1540    -5.5130    -0.8170 H     1 <1>   0.0800 
 31 H        0.7270    -5.5450     0.8430 H     1 <1>   0.0800 
 32 H        1.7950    -6.0220    -0.4650 H     1 <1>   0.0800 
 33 H        5.6770     2.6300    -0.5860 H     1 <1>   0.0800 
 34 H        4.9770     1.0310    -0.5830 H     1 <1>   0.0800 
 35 H        0.1080     5.2690    -0.4440 H     1 <1>   0.0800 
 36 H        1.6620     6.0270    -0.7290 H     1 <1>   0.0800 
 37 H        1.0170     5.9410     0.8940 H     1 <1>   0.0800 
 38 H        6.5920     0.3370     1.1800 H     1 <1>   0.0800 
 39 H        7.2990     1.9310     1.1470 H     1 <1>   0.0800 
 40 H        7.2240     0.0050    -1.1990 H     1 <1>   0.0800 
 41 H        8.6210     0.3630    -0.2150 H     1 <1>   0.0800 
 42 H        7.9310     1.6050    -1.2300 H     1 <1>   0.0800 
@<TRIPOS>BOND
  1   1   2  2   
  2   2   3  am  
  3   2   4  1   
  4   3   5  1   
  5   3  21  1   
  6   4   6  2   
  7   4   7  1   
  8   5   8  1   
  9   5   9  2   
 10   6  10  1   
 11   6  11  1   
 12   7  12  2   
 13   7  22  1   
 14   8  13  1   
 15   8  14  1   
 16   9  15  1   
 17   9  23  1   
 18  10  12  1   
 19  10  16  1   
 20  11  24  1   
 21  11  25  1   
 22  11  26  1   
 23  12  27  1   
 24  13  15  2   
 25  14  17  1   
 26  14  28  1   
 27  14  29  1   
 28  15  18  1   
 29  16  30  1   
 30  16  31  1   
 31  16  32  1   
 32  17  19  1   
 33  17  33  1   
 34  17  34  1   
 35  18  35  1   
 36  18  36  1   
 37  18  37  1   
 38  19  20  1   
 39  19  38  1   
 40  19  39  1   
 41  20  40  1   
 42  20  41  1   
 43  20  42  1   
@<TRIPOS>SUBSTRUCTURE
  1 ****   3 GROUP 4 **** **** 0

# MOE 2024.06 (io_trps.svl 2023.06)
