@<TRIPOS>MOLECULE
NONAME
49 51 1 0 0 
SMALL
USER_CHARGES


@<TRIPOS>ATOM
  1 S        1.1650    -0.2150     1.6210 S.3   1 <1>  -0.3320 
  2 C        0.5780    -1.7330     0.8480 C.ar  1 <1>   0.1020 
  3 C        2.6030     0.3650     0.6270 C.3   1 <1>   0.1500 
  4 C        1.4230    -2.5650     0.1290 C.ar  1 <1>  -0.1500 
  5 C       -0.7610    -2.0420     1.0020 C.ar  1 <1>  -0.1500 
  6 C        3.1950     1.5680     1.3620 C.3   1 <1>  -0.1600 
  7 C        2.0890     0.7490    -0.7640 C.3   1 <1>  -0.1600 
  8 C        0.9160    -3.7100    -0.4640 C.ar  1 <1>  -0.1430 
  9 C       -1.2660    -3.1870     0.4120 C.ar  1 <1>  -0.1500 
 10 C        4.2530     2.2650     0.5130 C.3   1 <1>   0.3430 
 11 C        3.1670     1.4660    -1.5710 C.3   1 <1>   0.3430 
 12 C       -0.4300    -4.0140    -0.3190 C.ar  1 <1>  -0.1500 
 13 C        1.8200    -4.6380    -1.2550 C.3   1 <1>  -0.0960 
 14 N        3.6630     2.6450    -0.8070 N.4   1 <1>  -0.9590 
 15 C        4.6100     3.4700    -1.6120 C.3   1 <1>   0.4810 
 16 C        4.8070     4.8060    -0.9040 C.2   1 <1>  -0.0380 
 17 N        3.7580     5.7010    -0.8600 N.pl3 1 <1>  -0.6000 
 18 C        5.9820     5.1250    -0.2950 C.2   1 <1>  -0.1360 
 19 C        3.8900     6.9020    -0.1860 C.2   1 <1>  -0.0500 
 20 C        6.1650     6.3420     0.4110 C.2   1 <1>   0.5410 
 21 C        5.0470     7.2470     0.4420 C.2   1 <1>   0.0910 
 22 O        7.2470     6.5330     0.9640 O.2   1 <1>  -0.5700 
 23 O        5.0600     8.4580     1.0890 O.3   1 <1>  -0.3570 
 24 C        6.2540     9.2130     1.1340 C.3   1 <1>   0.0400 
 25 H        3.3180    -0.4380     0.5840 H     1 <1>   0.0800 
 26 H        2.4660    -2.3420     0.0370 H     1 <1>   0.1500 
 27 H       -1.4000    -1.3930     1.5740 H     1 <1>   0.1500 
 28 H        3.6380     1.2380     2.2850 H     1 <1>   0.0800 
 29 H        2.4170     2.2710     1.6080 H     1 <1>   0.0800 
 30 H        1.2280     1.3880    -0.6730 H     1 <1>   0.0800 
 31 H        1.7820    -0.1350    -1.2940 H     1 <1>   0.0800 
 32 H       -2.3070    -3.4350     0.5230 H     1 <1>   0.1500 
 33 H        5.0920     1.6040     0.3660 H     1 <1>   0.0800 
 34 H        4.6000     3.1440     1.0340 H     1 <1>   0.0800 
 35 H        2.7530     1.7810    -2.5160 H     1 <1>   0.0800 
 36 H        3.9820     0.7860    -1.7670 H     1 <1>   0.0800 
 37 H       -0.8330    -4.9030    -0.7730 H     1 <1>   0.1500 
 38 H        2.6850    -4.1130    -1.6170 H     1 <1>   0.0800 
 39 H        1.2920    -5.0440    -2.0990 H     1 <1>   0.0800 
 40 H        2.1450    -5.4490    -0.6280 H     1 <1>   0.0800 
 41 H        2.8640     3.2560    -0.5930 H     1 <1>   0.4500 
 42 H        4.2110     3.6480    -2.5970 H     1 <1>   0.0800 
 43 H        5.5550     2.9610    -1.7110 H     1 <1>   0.0800 
 44 H        2.8790     5.5550    -1.3780 H     1 <1>   0.4000 
 45 H        6.8350     4.4720    -0.3040 H     1 <1>   0.1500 
 46 H        3.0440     7.5710    -0.1750 H     1 <1>   0.1500 
 47 H        6.0010    10.2240     1.3990 H     1 <1>   0.0800 
 48 H        6.7270     9.1940     0.1680 H     1 <1>   0.0800 
 49 H        6.9040     8.7980     1.8840 H     1 <1>   0.0800 
@<TRIPOS>BOND
  1   1   2  1   
  2   1   3  1   
  3   2   4  ar  
  4   2   5  ar  
  5   3   6  1   
  6   3   7  1   
  7   3  25  1   
  8   4   8  ar  
  9   4  26  1   
 10   5   9  ar  
 11   5  27  1   
 12   6  10  1   
 13   6  28  1   
 14   6  29  1   
 15   7  11  1   
 16   7  30  1   
 17   7  31  1   
 18   8  12  ar  
 19   8  13  1   
 20   9  12  ar  
 21   9  32  1   
 22  10  14  1   
 23  10  33  1   
 24  10  34  1   
 25  11  14  1   
 26  11  35  1   
 27  11  36  1   
 28  12  37  1   
 29  13  38  1   
 30  13  39  1   
 31  13  40  1   
 32  14  15  1   
 33  14  41  1   
 34  15  16  1   
 35  15  42  1   
 36  15  43  1   
 37  16  17  1   
 38  16  18  2   
 39  17  19  1   
 40  17  44  1   
 41  18  20  1   
 42  18  45  1   
 43  19  21  2   
 44  19  46  1   
 45  20  21  1   
 46  20  22  2   
 47  21  23  1   
 48  23  24  1   
 49  24  47  1   
 50  24  48  1   
 51  24  49  1   
@<TRIPOS>SUBSTRUCTURE
  1 ****  14 GROUP 4 **** **** 0

# MOE 2024.06 (io_trps.svl 2023.06)
