@<TRIPOS>MOLECULE
NONAME
59 61 1 0 0 
SMALL
USER_CHARGES


@<TRIPOS>ATOM
  1 O       -1.8550     1.3200    -2.1110 O.2   1 <1>  -0.5700 
  2 C       -2.8380     1.4720    -1.4230 C.2   1 <1>   0.5690 
  3 N       -3.9830     0.7500    -1.6550 N.am  1 <1>  -0.6600 
  4 C       -2.7620     2.4860    -0.2710 C.3   1 <1>  -0.0190 
  5 C       -3.9900    -0.3710    -2.6600 C.3   1 <1>   0.1400 
  6 C       -5.2450     0.8690    -0.8510 C.3   1 <1>   0.1400 
  7 C       -1.7890     3.6490    -0.5610 C.3   1 <1>  -0.1600 
  8 C       -2.3790     1.7850     1.0550 C.3   1 <1>  -0.1600 
  9 C       -4.5950    -1.6870    -2.0970 C.3   1 <1>   0.3690 
 10 C       -6.3880    -0.0230    -1.3710 C.3   1 <1>   0.2090 
 11 C       -1.8310     4.7350     0.5360 C.3   1 <1>   0.2000 
 12 C       -1.8090     2.7380     2.1250 C.3   1 <1>  -0.1600 
 13 N       -5.9700    -1.4500    -1.5320 N.pl3 1 <1>  -0.8380 
 14 C       -4.7340    -2.6970    -3.2370 C.3   1 <1>  -0.2400 
 15 C       -3.6650    -2.2620    -1.0190 C.3   1 <1>  -0.2400 
 16 O       -0.5450     5.2900     0.6680 O.3   1 <1>  -0.5600 
 17 C       -2.2840     4.1770     1.9120 C.3   1 <1>   0.2000 
 18 C       -6.5690    -2.3730    -0.6720 C.ar  1 <1>   0.1000 
 19 C       -0.1810     6.1930    -0.3300 C.3   1 <1>   0.0400 
 20 O       -1.7550     4.9580     2.9170 O.3   1 <1>  -0.6800 
 21 C       -6.4080    -2.2920     0.7050 C.ar  1 <1>  -0.1500 
 22 C       -7.3660    -3.3870    -1.1870 C.ar  1 <1>  -0.1500 
 23 C       -7.0170    -3.1980     1.5540 C.ar  1 <1>   0.0820 
 24 C       -7.9800    -4.3020    -0.3500 C.ar  1 <1>  -0.1500 
 25 O       -6.7960    -3.0320     2.8840 O.3   1 <1>  -0.3630 
 26 C       -7.8090    -4.2120     1.0210 C.ar  1 <1>  -0.1500 
 27 C       -7.3580    -3.9130     3.8310 C.3   1 <1>   0.0400 
 28 H       -3.7320     2.9290    -0.1550 H     1 <1>   0.0800 
 29 H       -4.5610    -0.0600    -3.5160 H     1 <1>   0.0800 
 30 H       -2.9900    -0.5720    -3.0020 H     1 <1>   0.0800 
 31 H       -5.0400     0.5920     0.1670 H     1 <1>   0.0800 
 32 H       -5.5810     1.8900    -0.8630 H     1 <1>   0.0800 
 33 H       -2.0330     4.0920    -1.5100 H     1 <1>   0.0800 
 34 H       -0.7920     3.2460    -0.6260 H     1 <1>   0.0800 
 35 H       -3.2470     1.2870     1.4500 H     1 <1>   0.0800 
 36 H       -1.6410     1.0250     0.8560 H     1 <1>   0.0800 
 37 H       -6.7240     0.3490    -2.3230 H     1 <1>   0.0800 
 38 H       -7.2210     0.0340    -0.6910 H     1 <1>   0.0800 
 39 H       -2.5160     5.5170     0.2580 H     1 <1>   0.0800 
 40 H       -0.7340     2.7240     2.0650 H     1 <1>   0.0800 
 41 H       -2.0960     2.3970     3.1050 H     1 <1>   0.0800 
 42 H       -3.7840    -2.8570    -3.7120 H     1 <1>   0.0800 
 43 H       -5.4300    -2.3330    -3.9710 H     1 <1>   0.0800 
 44 H       -5.0830    -3.6400    -2.8600 H     1 <1>   0.0800 
 45 H       -2.6750    -2.3900    -1.4160 H     1 <1>   0.0800 
 46 H       -4.0160    -3.2200    -0.6820 H     1 <1>   0.0800 
 47 H       -3.6060    -1.5930    -0.1810 H     1 <1>   0.0800 
 48 H       -3.3570     4.2150     1.9960 H     1 <1>   0.0800 
 49 H        0.8010     6.5660    -0.0990 H     1 <1>   0.0800 
 50 H       -0.8830     7.0090    -0.3470 H     1 <1>   0.0800 
 51 H       -0.1580     5.6910    -1.2820 H     1 <1>   0.0800 
 52 H       -0.8950     5.2920     2.5700 H     1 <1>   0.4000 
 53 H       -5.7950    -1.5180     1.1220 H     1 <1>   0.1500 
 54 H       -7.5020    -3.4460    -2.2500 H     1 <1>   0.1500 
 55 H       -8.5930    -5.0820    -0.7670 H     1 <1>   0.1500 
 56 H       -8.2960    -4.9320     1.6500 H     1 <1>   0.1500 
 57 H       -7.0450    -3.5950     4.8090 H     1 <1>   0.0800 
 58 H       -6.9990    -4.9080     3.6380 H     1 <1>   0.0800 
 59 H       -8.4300    -3.8670     3.7570 H     1 <1>   0.0800 
@<TRIPOS>BOND
  1   1   2  2   
  2   2   3  am  
  3   2   4  1   
  4   3   5  1   
  5   3   6  1   
  6   4   7  1   
  7   4   8  1   
  8   4  28  1   
  9   5   9  1   
 10   5  29  1   
 11   5  30  1   
 12   6  10  1   
 13   6  31  1   
 14   6  32  1   
 15   7  11  1   
 16   7  33  1   
 17   7  34  1   
 18   8  12  1   
 19   8  35  1   
 20   8  36  1   
 21   9  13  1   
 22   9  14  1   
 23   9  15  1   
 24  10  13  1   
 25  10  37  1   
 26  10  38  1   
 27  11  16  1   
 28  11  17  1   
 29  11  39  1   
 30  12  17  1   
 31  12  40  1   
 32  12  41  1   
 33  13  18  1   
 34  14  42  1   
 35  14  43  1   
 36  14  44  1   
 37  15  45  1   
 38  15  46  1   
 39  15  47  1   
 40  16  19  1   
 41  17  20  1   
 42  17  48  1   
 43  18  21  ar  
 44  18  22  ar  
 45  19  49  1   
 46  19  50  1   
 47  19  51  1   
 48  20  52  1   
 49  21  23  ar  
 50  21  53  1   
 51  22  24  ar  
 52  22  54  1   
 53  23  25  1   
 54  23  26  ar  
 55  24  26  ar  
 56  24  55  1   
 57  25  27  1   
 58  26  56  1   
 59  27  57  1   
 60  27  58  1   
 61  27  59  1   
@<TRIPOS>SUBSTRUCTURE
  1 ****   6 GROUP 4 **** **** 0

# MOE 2024.06 (io_trps.svl 2023.06)
