@<TRIPOS>MOLECULE
NONAME
64 67 1 0 0 
SMALL
USER_CHARGES


@<TRIPOS>ATOM
  1 O        0.7800    -1.7820    -1.6350 O.3   1 <1>  -0.6800 
  2 C        0.4330    -1.9120    -0.2970 C.3   1 <1>   0.1200 
  3 C        1.6250    -1.5670     0.6440 C.3   1 <1>   0.0000 
  4 C        2.9580    -2.2720     0.2540 C.3   1 <1>   0.4230 
  5 C        1.8500    -0.0310     0.6450 C.3   1 <1>  -0.1600 
  6 C        1.2440    -2.0020     2.0880 C.3   1 <1>  -0.1600 
  7 N        2.8600    -3.7990     0.2590 N.4   1 <1>  -0.9590 
  8 C        3.6160    -1.6420    -1.0180 C.3   1 <1>   0.3430 
  9 C        2.4180     0.5200    -0.6660 C.3   1 <1>   0.3430 
 10 C        1.8020    -3.3830     2.4910 C.3   1 <1>  -0.1600 
 11 C        1.9280    -4.3430     1.3080 C.3   1 <1>   0.3430 
 12 C        2.5100    -4.4220    -1.0630 C.3   1 <1>   0.2630 
 13 N        3.7290    -0.1360    -0.9680 N.4   1 <1>  -0.9590 
 14 C        4.2930     0.4090    -2.2370 C.3   1 <1>   0.5240 
 15 C        4.6190     1.8660    -2.0060 C.2   1 <1>  -0.1810 
 16 C        3.9440     2.9410    -2.5720 C.2   1 <1>   0.1390 
 17 C        5.5790     2.4350    -1.2430 C.2   1 <1>  -0.3020 
 18 N        4.4260     4.0730    -2.1820 N.2   1 <1>  -0.7070 
 19 N        5.4620     3.7860    -1.3520 N.pl3 1 <1>   0.5930 
 20 C        6.2720     4.7760    -0.7230 C.ar  1 <1>  -0.0230 
 21 C        6.5070     5.9980    -1.3470 C.ar  1 <1>  -0.1500 
 22 C        6.8510     4.5550     0.5240 C.ar  1 <1>  -0.1500 
 23 C        7.2990     6.9610    -0.7510 C.ar  1 <1>  -0.1500 
 24 C        7.6440     5.5190     1.1190 C.ar  1 <1>  -0.1500 
 25 C        7.8780     6.7320     0.4880 C.ar  1 <1>  -0.1440 
 26 C        8.7510     7.8090     1.1310 C.3   1 <1>   0.0630 
 27 C       10.1830     7.3030     1.3350 C.3   1 <1>  -0.2400 
 28 C        8.1470     8.2830     2.4570 C.3   1 <1>  -0.2400 
 29 H       -0.0250    -1.8480    -2.2000 H     1 <1>   0.4000 
 30 H       -0.3990    -1.2530    -0.1040 H     1 <1>   0.0800 
 31 H        0.0910    -2.9210    -0.1480 H     1 <1>   0.0800 
 32 H        3.6340    -2.0270     1.0560 H     1 <1>   0.0800 
 33 H        2.5210     0.2530     1.4380 H     1 <1>   0.0800 
 34 H        0.9160     0.4690     0.8430 H     1 <1>   0.0800 
 35 H        1.6040    -1.2920     2.8150 H     1 <1>   0.0800 
 36 H        0.1710    -2.0100     2.1950 H     1 <1>   0.0800 
 37 H        3.7910    -4.1590     0.5220 H     1 <1>   0.4500 
 38 H        3.0280    -1.9120    -1.8780 H     1 <1>   0.0800 
 39 H        4.5990    -2.0640    -1.1420 H     1 <1>   0.0800 
 40 H        2.5510     1.5880    -0.5740 H     1 <1>   0.0800 
 41 H        1.7200     0.3430    -1.4690 H     1 <1>   0.0800 
 42 H        1.1530    -3.8210     3.2310 H     1 <1>   0.0800 
 43 H        2.7680    -3.2730     2.9560 H     1 <1>   0.0800 
 44 H        0.9470    -4.4910     0.8840 H     1 <1>   0.0800 
 45 H        2.2820    -5.3020     1.6530 H     1 <1>   0.0800 
 46 H        1.5430    -4.0850    -1.3980 H     1 <1>   0.0800 
 47 H        2.4810    -5.4970    -0.9730 H     1 <1>   0.0800 
 48 H        3.2420    -4.1700    -1.8130 H     1 <1>   0.0800 
 49 H        4.3910     0.1620    -0.2390 H     1 <1>   0.4500 
 50 H        5.1970    -0.1150    -2.5020 H     1 <1>   0.0800 
 51 H        3.5850     0.3070    -3.0440 H     1 <1>   0.0800 
 52 H        3.1120     2.8710    -3.2570 H     1 <1>   0.1500 
 53 H        6.3480     1.9920    -0.6380 H     1 <1>   0.1500 
 54 H        6.0640     6.1990    -2.3080 H     1 <1>   0.1500 
 55 H        6.6850     3.6310     1.0460 H     1 <1>   0.1500 
 56 H        7.4610     7.8950    -1.2600 H     1 <1>   0.1500 
 57 H        8.0800     5.3240     2.0830 H     1 <1>   0.1500 
 58 H        8.7950     8.6570     0.4700 H     1 <1>   0.0800 
 59 H       10.2060     6.4840     2.0310 H     1 <1>   0.0800 
 60 H       10.8060     8.0930     1.7140 H     1 <1>   0.0800 
 61 H       10.5880     6.9680     0.3970 H     1 <1>   0.0800 
 62 H        8.1260     7.4850     3.1770 H     1 <1>   0.0800 
 63 H        7.1400     8.6260     2.2960 H     1 <1>   0.0800 
 64 H        8.7250     9.0950     2.8600 H     1 <1>   0.0800 
@<TRIPOS>BOND
  1   1   2  1   
  2   1  29  1   
  3   2   3  1   
  4   2  30  1   
  5   2  31  1   
  6   3   4  1   
  7   3   5  1   
  8   3   6  1   
  9   4   7  1   
 10   4   8  1   
 11   4  32  1   
 12   5   9  1   
 13   5  33  1   
 14   5  34  1   
 15   6  10  1   
 16   6  35  1   
 17   6  36  1   
 18   7  11  1   
 19   7  12  1   
 20   7  37  1   
 21   8  13  1   
 22   8  38  1   
 23   8  39  1   
 24   9  13  1   
 25   9  40  1   
 26   9  41  1   
 27  10  11  1   
 28  10  42  1   
 29  10  43  1   
 30  11  44  1   
 31  11  45  1   
 32  12  46  1   
 33  12  47  1   
 34  12  48  1   
 35  13  14  1   
 36  13  49  1   
 37  14  15  1   
 38  14  50  1   
 39  14  51  1   
 40  15  16  1   
 41  15  17  2   
 42  16  18  2   
 43  16  52  1   
 44  17  19  1   
 45  17  53  1   
 46  18  19  1   
 47  19  20  1   
 48  20  21  ar  
 49  20  22  ar  
 50  21  23  ar  
 51  21  54  1   
 52  22  24  ar  
 53  22  55  1   
 54  23  25  ar  
 55  23  56  1   
 56  24  25  ar  
 57  24  57  1   
 58  25  26  1   
 59  26  27  1   
 60  26  28  1   
 61  26  58  1   
 62  27  59  1   
 63  27  60  1   
 64  27  61  1   
 65  28  62  1   
 66  28  63  1   
 67  28  64  1   
@<TRIPOS>SUBSTRUCTURE
  1 ****  17 GROUP 4 **** **** 0

# MOE 2024.06 (io_trps.svl 2023.06)
