@<TRIPOS>MOLECULE
NONAME
59 63 1 0 0 
SMALL
USER_CHARGES


@<TRIPOS>ATOM
  1 O        0.5200     3.6130     3.6810 O.2   1 <1>  -0.5700 
  2 C        0.1950     3.8390     2.5370 C.2   1 <1>   0.5690 
  3 N       -0.7610     3.0790     1.9060 N.am  1 <1>  -0.6600 
  4 C        0.8810     5.0060     1.8300 C.3   1 <1>   0.0820 
  5 C       -1.2800     3.3960     0.5350 C.3   1 <1>   0.1400 
  6 C       -1.2370     1.8050     2.5260 C.3   1 <1>   0.1400 
  7 C        1.6840     4.5730     0.6040 C.2   1 <1>  -0.1810 
  8 C       -2.6820     2.8110     0.2930 C.3   1 <1>   0.1440 
  9 C       -1.5990     0.7720     1.4500 C.3   1 <1>  -0.1600 
 10 C        1.5150     4.9680    -0.7240 C.2   1 <1>   0.1080 
 11 C        2.7210     3.7080     0.5690 C.2   1 <1>  -0.3320 
 12 C       -3.1910     3.2170    -1.0790 C.ar  1 <1>   0.1670 
 13 C       -2.6490     1.2710     0.4330 C.3   1 <1>  -0.1600 
 14 C       -3.7520     3.4410     1.2280 C.3   1 <1>  -0.1600 
 15 N        2.3630     4.3970    -1.5120 N.2   1 <1>  -0.7070 
 16 C        0.4890     5.9360    -1.2750 C.3   1 <1>  -0.0590 
 17 N        3.1220     3.5970    -0.7280 N.pl3 1 <1>   0.5930 
 18 C        3.3840     2.9570     1.7180 C.3   1 <1>  -0.0600 
 19 N       -2.5000     3.1560    -2.1920 N.ar  1 <1>  -0.6200 
 20 C       -4.4730     3.6790    -1.0270 C.ar  1 <1>  -0.1440 
 21 C       -5.0170     3.6600     0.3790 C.3   1 <1>  -0.0160 
 22 C        4.1730     2.7890    -1.2420 C.ar  1 <1>  -0.0230 
 23 C       -3.1550     3.5860    -3.2590 C.ar  1 <1>   0.7200 
 24 C       -5.0570     4.0820    -2.2040 C.ar  1 <1>   0.1600 
 25 C        5.2900     3.3750    -1.8300 C.ar  1 <1>  -0.1500 
 26 C        4.1090     1.4010    -1.1670 C.ar  1 <1>  -0.1500 
 27 N       -4.4000     4.0340    -3.3410 N.ar  1 <1>  -0.6200 
 28 N       -2.4750     3.5490    -4.4060 N.pl3 1 <1>  -0.9000 
 29 C        6.3230     2.5950    -2.3180 C.ar  1 <1>  -0.1500 
 30 C        5.1410     0.6190    -1.6540 C.ar  1 <1>  -0.1500 
 31 C        6.2500     1.2150    -2.2280 C.ar  1 <1>  -0.1500 
 32 H        1.5540     5.4750     2.5240 H     1 <1>   0.0800 
 33 H        0.1400     5.7350     1.5710 H     1 <1>   0.0800 
 34 H       -0.5990     2.9900    -0.1950 H     1 <1>   0.0800 
 35 H       -1.3240     4.4590     0.3930 H     1 <1>   0.0800 
 36 H       -2.0900     2.0130     3.1470 H     1 <1>   0.0800 
 37 H       -0.4630     1.4010     3.1580 H     1 <1>   0.0800 
 38 H       -1.9530    -0.1280     1.9220 H     1 <1>   0.0800 
 39 H       -0.6940     0.5190     0.9250 H     1 <1>   0.0800 
 40 H       -2.4120     0.8350    -0.5230 H     1 <1>   0.0800 
 41 H       -3.6250     0.9110     0.7060 H     1 <1>   0.0800 
 42 H       -3.4050     4.4010     1.5690 H     1 <1>   0.0800 
 43 H       -3.9600     2.8360     2.0920 H     1 <1>   0.0800 
 44 H        0.1880     6.6490    -0.5320 H     1 <1>   0.0800 
 45 H       -0.3700     5.3930    -1.6250 H     1 <1>   0.0800 
 46 H        0.9140     6.4690    -2.1060 H     1 <1>   0.0800 
 47 H        3.0340     3.3180     2.6680 H     1 <1>   0.0800 
 48 H        4.4510     3.0890     1.6810 H     1 <1>   0.0800 
 49 H        3.1610     1.9080     1.6520 H     1 <1>   0.0800 
 50 H       -5.5090     4.5830     0.6310 H     1 <1>   0.0800 
 51 H       -5.7000     2.8360     0.4910 H     1 <1>   0.0800 
 52 H       -6.0700     4.4480    -2.2130 H     1 <1>   0.1500 
 53 H        5.3410     4.4480    -1.9070 H     1 <1>   0.1500 
 54 H        3.2440     0.9340    -0.7280 H     1 <1>   0.1500 
 55 H       -3.0390     3.5510    -5.2510 H     1 <1>   0.4000 
 56 H       -1.6430     2.9650    -4.4000 H     1 <1>   0.4000 
 57 H        7.1820     3.0600    -2.7700 H     1 <1>   0.1500 
 58 H        5.0800    -0.4540    -1.5900 H     1 <1>   0.1500 
 59 H        7.0530     0.6080    -2.6080 H     1 <1>   0.1500 
@<TRIPOS>BOND
  1   1   2  2   
  2   2   3  am  
  3   2   4  1   
  4   3   5  1   
  5   3   6  1   
  6   4   7  1   
  7   4  32  1   
  8   4  33  1   
  9   5   8  1   
 10   5  34  1   
 11   5  35  1   
 12   6   9  1   
 13   6  36  1   
 14   6  37  1   
 15   7  10  1   
 16   7  11  2   
 17   8  12  1   
 18   8  13  1   
 19   8  14  1   
 20   9  13  1   
 21   9  38  1   
 22   9  39  1   
 23  10  15  2   
 24  10  16  1   
 25  11  17  1   
 26  11  18  1   
 27  12  19  ar  
 28  12  20  ar  
 29  13  40  1   
 30  13  41  1   
 31  14  21  1   
 32  14  42  1   
 33  14  43  1   
 34  15  17  1   
 35  16  44  1   
 36  16  45  1   
 37  16  46  1   
 38  17  22  1   
 39  18  47  1   
 40  18  48  1   
 41  18  49  1   
 42  19  23  ar  
 43  20  21  1   
 44  20  24  ar  
 45  21  50  1   
 46  21  51  1   
 47  22  25  ar  
 48  22  26  ar  
 49  23  27  ar  
 50  23  28  1   
 51  24  27  ar  
 52  24  52  1   
 53  25  29  ar  
 54  25  53  1   
 55  26  30  ar  
 56  26  54  1   
 57  28  55  1   
 58  28  56  1   
 59  29  31  ar  
 60  29  57  1   
 61  30  31  ar  
 62  30  58  1   
 63  31  59  1   
@<TRIPOS>SUBSTRUCTURE
  1 ****   5 GROUP 4 **** **** 0

# MOE 2024.06 (io_trps.svl 2023.06)
