@<TRIPOS>MOLECULE
NONAME
44 46 1 0 0 
SMALL
USER_CHARGES


@<TRIPOS>ATOM
  1 CL       0.3850    -0.2930    -0.3340 Cl    1 <1>  -0.1770 
  2 C        0.0840    -1.9770     0.0020 C.ar  1 <1>   0.1770 
  3 C        0.9360    -2.9340    -0.5120 C.ar  1 <1>  -0.1500 
  4 C       -1.0010    -2.3300     0.7770 C.ar  1 <1>  -0.1500 
  5 C        0.7080    -4.2790    -0.2550 C.ar  1 <1>  -0.1440 
  6 C       -1.2370    -3.6680     1.0350 C.ar  1 <1>  -0.1500 
  7 C       -0.3960    -4.6460     0.5160 C.ar  1 <1>  -0.1430 
  8 C        1.6910    -5.2950    -0.8240 C.3   1 <1>  -0.0960 
  9 C       -0.7170    -6.1010     0.8150 C.3   1 <1>   0.4870 
 10 N       -1.3270    -6.7160    -0.3960 N.4   1 <1>  -0.9590 
 11 C       -2.6940    -6.1550    -0.6480 C.3   1 <1>   0.3430 
 12 C       -1.4950    -8.1920    -0.2140 C.3   1 <1>   0.3430 
 13 C       -3.6710    -7.1570    -0.0270 C.3   1 <1>   0.2000 
 14 C       -2.9940    -8.4920    -0.3360 C.3   1 <1>  -0.0800 
 15 O       -3.6990    -6.9450     1.3490 O.3   1 <1>  -0.6800 
 16 C       -3.4370    -9.6980     0.5140 C.3   1 <1>  -0.0170 
 17 C       -2.5800   -10.9100     0.1850 C.ar  1 <1>  -0.1430 
 18 C       -2.7100   -11.5930    -1.0070 C.ar  1 <1>  -0.1500 
 19 C       -1.6220   -11.3850     1.0600 C.ar  1 <1>  -0.1500 
 20 C       -1.8850   -12.6740    -1.2710 C.ar  1 <1>   0.1600 
 21 C       -0.8480   -12.4770     0.7000 C.ar  1 <1>   0.1600 
 22 N       -0.9510   -13.1220    -0.4490 N.ar  1 <1>  -0.6200 
 23 H        1.7740    -2.6120    -1.1060 H     1 <1>   0.1500 
 24 H       -1.6450    -1.5630     1.1720 H     1 <1>   0.1500 
 25 H       -2.0840    -3.9350     1.6470 H     1 <1>   0.1500 
 26 H        2.5960    -4.8060    -1.1430 H     1 <1>   0.0800 
 27 H        1.2690    -5.7940    -1.6770 H     1 <1>   0.0800 
 28 H        1.9670    -6.0220    -0.0820 H     1 <1>   0.0800 
 29 H       -1.3990    -6.1650     1.6480 H     1 <1>   0.0800 
 30 H        0.1900    -6.6180     1.0790 H     1 <1>   0.0800 
 31 H       -0.7130    -6.4910    -1.1880 H     1 <1>   0.4500 
 32 H       -2.8240    -5.1710    -0.2280 H     1 <1>   0.0800 
 33 H       -2.8710    -6.1070    -1.7100 H     1 <1>   0.0800 
 34 H       -0.9380    -8.7470    -0.9520 H     1 <1>   0.0800 
 35 H       -1.1540    -8.4830     0.7670 H     1 <1>   0.0800 
 36 H       -4.6690    -7.0640    -0.4220 H     1 <1>   0.0800 
 37 H       -3.1840    -8.7270    -1.3690 H     1 <1>   0.0800 
 38 H       -4.4880    -7.3650     1.7550 H     1 <1>   0.4000 
 39 H       -4.4700    -9.9290     0.3150 H     1 <1>   0.0800 
 40 H       -3.3470    -9.4820     1.5640 H     1 <1>   0.0800 
 41 H       -3.4440   -11.3050    -1.7370 H     1 <1>   0.1500 
 42 H       -1.4660   -10.9280     2.0200 H     1 <1>   0.1500 
 43 H       -1.9980   -13.1990    -2.2050 H     1 <1>   0.1500 
 44 H       -0.1070   -12.8390     1.3930 H     1 <1>   0.1500 
@<TRIPOS>BOND
  1   1   2  1   
  2   2   3  ar  
  3   2   4  ar  
  4   3   5  ar  
  5   3  23  1   
  6   4   6  ar  
  7   4  24  1   
  8   5   7  ar  
  9   5   8  1   
 10   6   7  ar  
 11   6  25  1   
 12   7   9  1   
 13   8  26  1   
 14   8  27  1   
 15   8  28  1   
 16   9  10  1   
 17   9  29  1   
 18   9  30  1   
 19  10  11  1   
 20  10  12  1   
 21  10  31  1   
 22  11  13  1   
 23  11  32  1   
 24  11  33  1   
 25  12  14  1   
 26  12  34  1   
 27  12  35  1   
 28  13  14  1   
 29  13  15  1   
 30  13  36  1   
 31  14  16  1   
 32  14  37  1   
 33  15  38  1   
 34  16  17  1   
 35  16  39  1   
 36  16  40  1   
 37  17  18  ar  
 38  17  19  ar  
 39  18  20  ar  
 40  18  41  1   
 41  19  21  ar  
 42  19  42  1   
 43  20  22  ar  
 44  20  43  1   
 45  21  22  ar  
 46  21  44  1   
@<TRIPOS>SUBSTRUCTURE
  1 ****  10 GROUP 4 **** **** 0

# MOE 2024.06 (io_trps.svl 2023.06)
