@<TRIPOS>MOLECULE
NONAME
51 54 1 0 0 
SMALL
USER_CHARGES


@<TRIPOS>ATOM
  1 O       -1.9270    -0.3420     1.5810 O.2   1 <1>  -0.5700 
  2 C       -2.0950     0.3160     0.5860 C.2   1 <1>   0.5690 
  3 N       -2.3940    -0.2240    -0.6260 N.am  1 <1>  -0.7300 
  4 C       -1.9810     1.8210     0.6830 C.3   1 <1>  -0.0990 
  5 C       -2.5070    -1.6570    -1.0310 C.3   1 <1>   0.2200 
  6 C       -0.5700     2.2950     0.2940 C.3   1 <1>  -0.0650 
  7 C       -3.8760    -2.2830    -0.8040 C.3   1 <1>  -0.0800 
  8 C       -1.5680    -2.6580    -0.3550 C.3   1 <1>   0.1200 
  9 C       -0.3340     3.8210     0.2990 C.3   1 <1>  -0.1900 
 10 C       -3.5160    -3.7680    -0.9100 C.3   1 <1>   0.1200 
 11 C       -4.5130    -1.9560     0.5670 C.3   1 <1>  -0.0160 
 12 O       -2.1980    -3.9020    -0.4670 O.3   1 <1>  -0.5600 
 13 C       -1.3850     4.7770    -0.1650 C.3   1 <1>  -0.2000 
 14 C       -1.0070     4.7100     1.2940 C.3   1 <1>  -0.2000 
 15 C        1.1190     4.1490    -0.0620 C.3   1 <1>  -0.1450 
 16 C       -5.8580    -2.6540     0.7560 C.ar  1 <1>  -0.1440 
 17 C       -7.0400    -2.2200     0.1100 C.ar  1 <1>   0.0000 
 18 C       -5.9500    -3.7410     1.5740 C.ar  1 <1>  -0.1500 
 19 C       -8.2240    -2.9640     0.3370 C.ar  1 <1>   0.3100 
 20 C       -7.1190    -1.0930    -0.7400 C.ar  1 <1>  -0.1500 
 21 C       -7.1740    -4.3990     1.7390 C.ar  1 <1>   0.1600 
 22 N       -8.2750    -4.0480     1.1510 N.ar  1 <1>  -0.6200 
 23 C       -9.4080    -2.5680    -0.3050 C.ar  1 <1>  -0.1500 
 24 C       -8.2910    -0.7310    -1.3480 C.ar  1 <1>  -0.1500 
 25 C       -9.4510    -1.4780    -1.1310 C.ar  1 <1>  -0.1500 
 26 H       -2.5390     0.4280    -1.3980 H     1 <1>   0.3700 
 27 H       -2.7210     2.2640     0.0460 H     1 <1>   0.0800 
 28 H       -2.1960     2.1060     1.6970 H     1 <1>   0.0800 
 29 H       -2.2890    -1.7080    -2.0850 H     1 <1>   0.0800 
 30 H       -0.3430     1.9230    -0.6900 H     1 <1>   0.0800 
 31 H        0.1300     1.8410     0.9760 H     1 <1>   0.0800 
 32 H       -4.5500    -2.0190    -1.5960 H     1 <1>   0.0800 
 33 H       -1.4420    -2.4670     0.6940 H     1 <1>   0.0800 
 34 H       -0.6110    -2.7080    -0.8410 H     1 <1>   0.0800 
 35 H       -3.5440    -4.0910    -1.9370 H     1 <1>   0.0800 
 36 H       -4.1500    -4.4090    -0.3240 H     1 <1>   0.0800 
 37 H       -4.6560    -0.8960     0.6740 H     1 <1>   0.0800 
 38 H       -3.8410    -2.2560     1.3530 H     1 <1>   0.0800 
 39 H       -1.0900     5.6480    -0.7250 H     1 <1>   0.1000 
 40 H       -2.3630     4.4330    -0.4490 H     1 <1>   0.1000 
 41 H       -1.7270     4.3130     1.9880 H     1 <1>   0.1000 
 42 H       -0.4560     5.5310     1.7180 H     1 <1>   0.1000 
 43 H        1.2860     5.2120    -0.0580 H     1 <1>   0.0800 
 44 H        1.3540     3.7750    -1.0430 H     1 <1>   0.0800 
 45 H        1.7890     3.7000     0.6490 H     1 <1>   0.0800 
 46 H       -5.0950    -4.1190     2.1040 H     1 <1>   0.1500 
 47 H       -6.2410    -0.5010    -0.9120 H     1 <1>   0.1500 
 48 H       -7.2000    -5.2540     2.3930 H     1 <1>   0.1500 
 49 H      -10.2890    -3.1550    -0.1200 H     1 <1>   0.1500 
 50 H       -8.3370     0.1280    -1.9940 H     1 <1>   0.1500 
 51 H      -10.3670    -1.1870    -1.6160 H     1 <1>   0.1500 
@<TRIPOS>BOND
  1   1   2  2   
  2   2   3  am  
  3   2   4  1   
  4   3   5  1   
  5   3  26  1   
  6   4   6  1   
  7   4  27  1   
  8   4  28  1   
  9   5   7  1   
 10   5   8  1   
 11   5  29  1   
 12   6   9  1   
 13   6  30  1   
 14   6  31  1   
 15   7  10  1   
 16   7  11  1   
 17   7  32  1   
 18   8  12  1   
 19   8  33  1   
 20   8  34  1   
 21   9  13  1   
 22   9  14  1   
 23   9  15  1   
 24  10  12  1   
 25  10  35  1   
 26  10  36  1   
 27  11  16  1   
 28  11  37  1   
 29  11  38  1   
 30  13  14  1   
 31  13  39  1   
 32  13  40  1   
 33  14  41  1   
 34  14  42  1   
 35  15  43  1   
 36  15  44  1   
 37  15  45  1   
 38  16  17  ar  
 39  16  18  ar  
 40  17  19  ar  
 41  17  20  ar  
 42  18  21  ar  
 43  18  46  1   
 44  19  22  ar  
 45  19  23  ar  
 46  20  24  ar  
 47  20  47  1   
 48  21  22  ar  
 49  21  48  1   
 50  23  25  ar  
 51  23  49  1   
 52  24  25  ar  
 53  24  50  1   
 54  25  51  1   
@<TRIPOS>SUBSTRUCTURE
  1 ****  11 GROUP 4 **** **** 0

# MOE 2024.06 (io_trps.svl 2023.06)
