@<TRIPOS>MOLECULE
NONAME
60 62 1 0 0 
SMALL
USER_CHARGES


@<TRIPOS>ATOM
  1 O       -1.0130     1.4490    -1.1830 O.2   1 <1>  -0.5700 
  2 C       -1.7300     1.7250    -0.2380 C.2   1 <1>   0.5440 
  3 N       -2.7320     0.8480     0.0950 N.am  1 <1>  -0.6600 
  4 C       -1.5020     2.9480     0.5140 C.ar  1 <1>   0.0860 
  5 C       -4.0800     0.9920    -0.5200 C.3   1 <1>   0.2200 
  6 C       -2.3360    -0.5670     0.3400 C.3   1 <1>   0.0600 
  7 C       -0.7670     3.9940    -0.0450 C.ar  1 <1>  -0.1500 
  8 C       -1.9810     3.1280     1.8110 C.ar  1 <1>  -0.1500 
  9 C       -4.4960     2.4400    -0.7910 C.3   1 <1>  -0.1600 
 10 C       -5.1830     0.4770     0.4030 C.3   1 <1>  -0.1600 
 11 C       -0.4960     5.1580     0.6550 C.ar  1 <1>  -0.1430 
 12 C       -1.7350     4.2930     2.5150 C.ar  1 <1>  -0.1500 
 13 C       -6.0260     2.3910    -0.8860 C.3   1 <1>  -0.0800 
 14 C       -6.4650     1.1490    -0.1060 C.3   1 <1>  -0.0800 
 15 C       -0.9920     5.3080     1.9410 C.ar  1 <1>  -0.1500 
 16 C        0.3460     6.2460     0.0160 C.3   1 <1>   0.4860 
 17 C       -6.7630     3.5760    -0.2410 C.3   1 <1>  -0.1600 
 18 C       -7.4220     1.6550     0.9840 C.3   1 <1>  -0.1600 
 19 N        1.7590     6.0760     0.4630 N.4   1 <1>  -0.9590 
 20 C       -7.9940     2.9710     0.4440 C.3   1 <1>   0.4230 
 21 C        2.5900     7.2640     0.1060 C.3   1 <1>   0.2630 
 22 C        2.3660     4.8140    -0.0720 C.3   1 <1>   0.2630 
 23 N       -9.0840     2.7100    -0.5520 N.4   1 <1>  -0.9590 
 24 C       -9.5820     3.9640    -1.2050 C.3   1 <1>   0.2630 
 25 C      -10.2570     1.9920     0.0460 C.3   1 <1>   0.2630 
 26 H       -4.1040     0.4440    -1.4480 H     1 <1>   0.0800 
 27 H       -2.8910    -0.9700     1.1680 H     1 <1>   0.0800 
 28 H       -1.2850    -0.6220     0.5720 H     1 <1>   0.0800 
 29 H       -2.5210    -1.1590    -0.5400 H     1 <1>   0.0800 
 30 H       -0.4020     3.8670    -1.0510 H     1 <1>   0.1500 
 31 H       -2.5510     2.3410     2.2740 H     1 <1>   0.1500 
 32 H       -4.2010     3.0570     0.0380 H     1 <1>   0.0800 
 33 H       -4.0530     2.8130    -1.6980 H     1 <1>   0.0800 
 34 H       -5.2630    -0.5950     0.3620 H     1 <1>   0.0800 
 35 H       -4.9640     0.7820     1.4110 H     1 <1>   0.0800 
 36 H       -2.1210     4.4060     3.5150 H     1 <1>   0.1500 
 37 H       -6.3190     2.2800    -1.9170 H     1 <1>   0.0800 
 38 H       -6.9800     0.4810    -0.7760 H     1 <1>   0.0800 
 39 H       -0.8110     6.2060     2.5080 H     1 <1>   0.1500 
 40 H       -0.0280     7.2090     0.3230 H     1 <1>   0.0800 
 41 H        0.2830     6.1810    -1.0580 H     1 <1>   0.0800 
 42 H       -6.9720     4.3590    -0.9450 H     1 <1>   0.0800 
 43 H       -6.1490     4.0020     0.5330 H     1 <1>   0.0800 
 44 H       -6.8600     1.8940     1.8700 H     1 <1>   0.0800 
 45 H       -8.1540     0.9200     1.2600 H     1 <1>   0.0800 
 46 H        1.7200     5.9860     1.4900 H     1 <1>   0.4500 
 47 H       -8.3530     3.6020     1.2410 H     1 <1>   0.0800 
 48 H        2.6370     7.3810    -0.9650 H     1 <1>   0.0800 
 49 H        3.5940     7.1450     0.4820 H     1 <1>   0.0800 
 50 H        2.1700     8.1600     0.5340 H     1 <1>   0.0800 
 51 H        2.3730     4.8260    -1.1490 H     1 <1>   0.0800 
 52 H        1.8010     3.9560     0.2580 H     1 <1>   0.0800 
 53 H        3.3790     4.7070     0.2800 H     1 <1>   0.0800 
 54 H       -8.6680     2.1090    -1.2770 H     1 <1>   0.4500 
 55 H       -9.9400     4.6580    -0.4610 H     1 <1>   0.0800 
 56 H      -10.3900     3.7370    -1.8810 H     1 <1>   0.0800 
 57 H       -8.7970     4.4390    -1.7710 H     1 <1>   0.0800 
 58 H      -10.6600     2.5550     0.8720 H     1 <1>   0.0800 
 59 H       -9.9680     1.0160     0.4000 H     1 <1>   0.0800 
 60 H      -11.0310     1.8640    -0.6930 H     1 <1>   0.0800 
@<TRIPOS>BOND
  1   1   2  2   
  2   2   3  am  
  3   2   4  1   
  4   3   5  1   
  5   3   6  1   
  6   4   7  ar  
  7   4   8  ar  
  8   5   9  1   
  9   5  10  1   
 10   5  26  1   
 11   6  27  1   
 12   6  28  1   
 13   6  29  1   
 14   7  11  ar  
 15   7  30  1   
 16   8  12  ar  
 17   8  31  1   
 18   9  13  1   
 19   9  32  1   
 20   9  33  1   
 21  10  14  1   
 22  10  34  1   
 23  10  35  1   
 24  11  15  ar  
 25  11  16  1   
 26  12  15  ar  
 27  12  36  1   
 28  13  14  1   
 29  13  17  1   
 30  13  37  1   
 31  14  18  1   
 32  14  38  1   
 33  15  39  1   
 34  16  19  1   
 35  16  40  1   
 36  16  41  1   
 37  17  20  1   
 38  17  42  1   
 39  17  43  1   
 40  18  20  1   
 41  18  44  1   
 42  18  45  1   
 43  19  21  1   
 44  19  22  1   
 45  19  46  1   
 46  20  23  1   
 47  20  47  1   
 48  21  48  1   
 49  21  49  1   
 50  21  50  1   
 51  22  51  1   
 52  22  52  1   
 53  22  53  1   
 54  23  24  1   
 55  23  25  1   
 56  23  54  1   
 57  24  55  1   
 58  24  56  1   
 59  24  57  1   
 60  25  58  1   
 61  25  59  1   
 62  25  60  1   
@<TRIPOS>SUBSTRUCTURE
  1 ****   9 GROUP 4 **** **** 0

# MOE 2024.06 (io_trps.svl 2023.06)
