@<TRIPOS>MOLECULE
NONAME
46 49 1 0 0 
SMALL
USER_CHARGES


@<TRIPOS>ATOM
  1 O        2.6710     1.2290     2.2280 O.2   1 <1>  -0.5700 
  2 C        2.8110     0.3900     1.3590 C.2   1 <1>   0.5440 
  3 N        2.3630     0.7150     0.0830 N.am  1 <1>  -0.6600 
  4 C        3.4690    -0.8710     1.7060 C.ar  1 <1>   0.3960 
  5 C        2.3550    -0.2290    -1.0840 C.3   1 <1>   0.1400 
  6 C        1.9090     2.0980    -0.2480 C.3   1 <1>   0.1400 
  7 N        4.3040    -1.4780     0.8370 N.ar  1 <1>  -0.6200 
  8 C        3.2220    -1.4120     2.9740 C.ar  1 <1>   0.1600 
  9 C        3.6690    -0.1600    -1.8940 C.3   1 <1>   0.3430 
 10 C        3.0900     2.9400    -0.7500 C.3   1 <1>  -0.1600 
 11 C        4.8310    -2.5910     1.3220 C.ar  1 <1>   0.1600 
 12 N        3.7400    -2.5330     3.4470 N.ar  1 <1>  -0.6200 
 13 N        4.4670     1.0530    -1.5410 N.4   1 <1>  -0.9590 
 14 C        3.8510     2.3460    -1.9400 C.3   1 <1>   0.3430 
 15 C        4.5570    -3.1040     2.5840 C.ar  1 <1>   0.1600 
 16 C        5.9150     0.9460    -1.8370 C.3   1 <1>   0.5230 
 17 C        6.6300     1.8810    -0.8840 C.2   1 <1>  -0.0400 
 18 O        6.3060     1.7900     0.4040 O.3   1 <1>  -0.2800 
 19 C        7.5510     2.8430    -1.0880 C.2   1 <1>  -0.1500 
 20 C        7.0160     2.7090     1.0580 C.ar  1 <1>   0.1400 
 21 C        7.8250     3.4050     0.1770 C.ar  1 <1>   0.0000 
 22 C        6.9950     2.9880     2.4170 C.ar  1 <1>  -0.1500 
 23 C        8.6540     4.4170     0.6620 C.ar  1 <1>  -0.1500 
 24 C        7.8170     3.9910     2.8900 C.ar  1 <1>  -0.1500 
 25 C        8.6430     4.7010     2.0130 C.ar  1 <1>  -0.1500 
 26 H        1.5280     0.0070    -1.7310 H     1 <1>   0.0800 
 27 H        2.1970    -1.2380    -0.7440 H     1 <1>   0.0800 
 28 H        1.4830     2.5660     0.6250 H     1 <1>   0.0800 
 29 H        1.1340     2.0600    -0.9950 H     1 <1>   0.0800 
 30 H        2.5550    -0.8740     3.6270 H     1 <1>   0.1500 
 31 H        3.4550    -0.1840    -2.9490 H     1 <1>   0.0800 
 32 H        4.2440    -1.0410    -1.6560 H     1 <1>   0.0800 
 33 H        3.7710     3.1170     0.0650 H     1 <1>   0.0800 
 34 H        2.7080     3.9020    -1.0430 H     1 <1>   0.0800 
 35 H        5.5170    -3.1350     0.6960 H     1 <1>   0.1500 
 36 H        4.4390     1.0780    -0.5040 H     1 <1>   0.4500 
 37 H        4.6210     3.0420    -2.2340 H     1 <1>   0.0800 
 38 H        3.1860     2.2030    -2.7760 H     1 <1>   0.0800 
 39 H        5.0330    -4.0200     2.8890 H     1 <1>   0.1500 
 40 H        6.1230     1.2060    -2.8620 H     1 <1>   0.0800 
 41 H        6.2530    -0.0600    -1.6500 H     1 <1>   0.0800 
 42 H        8.0220     3.1720    -1.9970 H     1 <1>   0.1500 
 43 H        6.3500     2.4290     3.0710 H     1 <1>   0.1500 
 44 H        9.2880     4.9610    -0.0150 H     1 <1>   0.1500 
 45 H        7.8260     4.2340     3.9390 H     1 <1>   0.1500 
 46 H        9.2760     5.4790     2.4050 H     1 <1>   0.1500 
@<TRIPOS>BOND
  1   1   2  2   
  2   2   3  am  
  3   2   4  1   
  4   3   5  1   
  5   3   6  1   
  6   4   7  ar  
  7   4   8  ar  
  8   5   9  1   
  9   5  26  1   
 10   5  27  1   
 11   6  10  1   
 12   6  28  1   
 13   6  29  1   
 14   7  11  ar  
 15   8  12  ar  
 16   8  30  1   
 17   9  13  1   
 18   9  31  1   
 19   9  32  1   
 20  10  14  1   
 21  10  33  1   
 22  10  34  1   
 23  11  15  ar  
 24  11  35  1   
 25  12  15  ar  
 26  13  14  1   
 27  13  16  1   
 28  13  36  1   
 29  14  37  1   
 30  14  38  1   
 31  15  39  1   
 32  16  17  1   
 33  16  40  1   
 34  16  41  1   
 35  17  18  1   
 36  17  19  2   
 37  18  20  1   
 38  19  21  1   
 39  19  42  1   
 40  20  21  ar  
 41  20  22  ar  
 42  21  23  ar  
 43  22  24  ar  
 44  22  43  1   
 45  23  25  ar  
 46  23  44  1   
 47  24  25  ar  
 48  24  45  1   
 49  25  46  1   
@<TRIPOS>SUBSTRUCTURE
  1 ****  18 GROUP 4 **** **** 0

# MOE 2024.06 (io_trps.svl 2023.06)
