@<TRIPOS>MOLECULE
NONAME
46 49 1 0 0 
SMALL
USER_CHARGES


@<TRIPOS>ATOM
  1 CL       0.1800    -0.1970     0.4550 Cl    1 <1>  -0.1400 
  2 C       -0.0250    -1.9210     0.2890 C.2   1 <1>   0.1400 
  3 C       -1.0970    -2.5540     0.8530 C.2   1 <1>   0.1910 
  4 C        0.9300    -2.6420    -0.4330 C.2   1 <1>  -0.1500 
  5 N       -1.2650    -3.9190     0.7250 N.pl3 1 <1>  -0.5760 
  6 C        0.7530    -3.9970    -0.5540 C.2   1 <1>  -0.1800 
  7 C       -2.3620    -4.5700     1.3060 C.2   1 <1>   0.9370 
  8 C       -0.3510    -4.6450     0.0280 C.cat 1 <1>   0.7390 
  9 O       -3.1710    -3.9210     1.9290 O.2   1 <1>  -0.5700 
 10 C       -2.4960    -5.9680     1.1510 C.2   1 <1>  -0.1360 
 11 N       -0.5210    -5.9830    -0.0960 N.pl3 1 <1>  -0.6450 
 12 C       -1.5860    -6.6750     0.4510 C.2   1 <1>   0.2030 
 13 C       -1.6540    -8.1940     0.2380 C.3   1 <1>   0.2480 
 14 N       -2.9860    -8.7340     0.5470 N.3   1 <1>  -0.8100 
 15 C       -3.9910    -8.5170    -0.5050 C.3   1 <1>   0.1100 
 16 C       -2.9860   -10.1880     0.7800 C.3   1 <1>   0.1100 
 17 C       -5.1250    -9.4650    -0.1320 C.3   1 <1>   0.2000 
 18 C       -4.3970   -10.6930     0.4200 C.3   1 <1>  -0.0800 
 19 O       -5.8330    -8.8850     0.9030 O.3   1 <1>  -0.6800 
 20 C       -4.3670   -11.8370    -0.6090 C.3   1 <1>   0.0200 
 21 C       -3.5160   -13.0000    -0.1330 C.2   1 <1>  -0.0400 
 22 O       -3.7550   -13.5580     1.0240 O.3   1 <1>  -0.0190 
 23 C       -2.4740   -13.6350    -0.6900 C.2   1 <1>  -0.1500 
 24 N       -2.9230   -14.5280     1.2740 N.2   1 <1>  -0.4100 
 25 C       -2.1420   -14.6000     0.2570 C.2   1 <1>   0.1080 
 26 C       -1.0180   -15.6030     0.1200 C.3   1 <1>  -0.0590 
 27 H       -1.8260    -1.9810     1.4090 H     1 <1>   0.1500 
 28 H        1.7680    -2.1220    -0.8700 H     1 <1>   0.1500 
 29 H        1.4700    -4.5800    -1.1030 H     1 <1>   0.1500 
 30 H       -3.3520    -6.4160     1.6210 H     1 <1>   0.1500 
 31 H        0.1910    -6.4990    -0.6230 H     1 <1>   0.4500 
 32 H       -0.9290    -8.6560     0.8880 H     1 <1>   0.0800 
 33 H       -1.3960    -8.4410    -0.7790 H     1 <1>   0.0800 
 34 H       -4.3310    -7.4960    -0.5450 H     1 <1>   0.0800 
 35 H       -3.5940    -8.8030    -1.4650 H     1 <1>   0.0800 
 36 H       -2.2480   -10.6630     0.1550 H     1 <1>   0.0800 
 37 H       -2.7560   -10.4020     1.8110 H     1 <1>   0.0800 
 38 H       -5.8050    -9.6700    -0.9410 H     1 <1>   0.0800 
 39 H       -4.8900   -11.0570     1.3060 H     1 <1>   0.0800 
 40 H       -5.2010    -8.6940     1.6240 H     1 <1>   0.4000 
 41 H       -3.9810   -11.4840    -1.5480 H     1 <1>   0.0800 
 42 H       -5.3700   -12.1920    -0.7730 H     1 <1>   0.0800 
 43 H       -1.9850   -13.4730    -1.6320 H     1 <1>   0.1500 
 44 H       -1.1620   -16.1930    -0.7660 H     1 <1>   0.0800 
 45 H       -1.0030   -16.2560     0.9740 H     1 <1>   0.0800 
 46 H       -0.0760   -15.0910     0.0570 H     1 <1>   0.0800 
@<TRIPOS>BOND
  1   1   2  1   
  2   2   3  2   
  3   2   4  1   
  4   3   5  1   
  5   3  27  1   
  6   4   6  2   
  7   4  28  1   
  8   5   7  1   
  9   5   8  ar  
 10   6   8  1   
 11   6  29  1   
 12   7   9  2   
 13   7  10  1   
 14   8  11  ar  
 15  10  12  2   
 16  10  30  1   
 17  11  12  1   
 18  11  31  1   
 19  12  13  1   
 20  13  14  1   
 21  13  32  1   
 22  13  33  1   
 23  14  15  1   
 24  14  16  1   
 25  15  17  1   
 26  15  34  1   
 27  15  35  1   
 28  16  18  1   
 29  16  36  1   
 30  16  37  1   
 31  17  18  1   
 32  17  19  1   
 33  17  38  1   
 34  18  20  1   
 35  18  39  1   
 36  19  40  1   
 37  20  21  1   
 38  20  41  1   
 39  20  42  1   
 40  21  22  1   
 41  21  23  2   
 42  22  24  1   
 43  23  25  1   
 44  23  43  1   
 45  24  25  2   
 46  25  26  1   
 47  26  44  1   
 48  26  45  1   
 49  26  46  1   
@<TRIPOS>SUBSTRUCTURE
  1 ****  13 GROUP 4 **** **** 0

# MOE 2024.06 (io_trps.svl 2023.06)
