@<TRIPOS>MOLECULE
NONAME
53 55 1 0 0 
SMALL
USER_CHARGES


@<TRIPOS>ATOM
  1 O       -2.1210    -3.1810     0.1840 O.2   1 <1>  -0.5700 
  2 C       -0.9510    -3.4340     0.3310 C.2   1 <1>   0.5690 
  3 N       -0.4920    -4.5320     1.0060 N.am  1 <1>  -0.6600 
  4 C        0.0810    -2.4930    -0.2540 C.3   1 <1>  -0.0990 
  5 C        0.9620    -4.7690     1.1680 C.3   1 <1>   0.1400 
  6 C       -1.4080    -5.5060     1.6590 C.3   1 <1>   0.0600 
  7 C        1.1870    -3.2900    -0.9710 C.3   1 <1>  -0.0800 
  8 C        1.6920    -4.5130    -0.1680 C.3   1 <1>  -0.0800 
  9 C        2.4220    -2.4450    -1.3120 C.3   1 <1>  -0.1600 
 10 C        3.2050    -4.3130    -0.0030 C.3   1 <1>  -0.1600 
 11 C        3.5910    -3.4140    -1.1770 C.3   1 <1>   0.4230 
 12 N        4.9040    -2.7260    -1.0270 N.4   1 <1>  -0.9590 
 13 C        5.0810    -1.9240     0.2220 C.3   1 <1>   0.4860 
 14 C        6.0390    -3.6850    -1.2090 C.3   1 <1>   0.2630 
 15 C        6.2650    -1.0000     0.0260 C.ar  1 <1>  -0.1440 
 16 C        6.1470     0.1180    -0.7890 C.ar  1 <1>  -0.1500 
 17 C        7.4750    -1.2630     0.6520 C.ar  1 <1>  -0.1500 
 18 C        7.2340     0.9500    -0.9850 C.ar  1 <1>  -0.1500 
 19 C        8.5620    -0.4290     0.4570 C.ar  1 <1>  -0.1500 
 20 C        8.4450     0.6850    -0.3690 C.ar  1 <1>   0.0820 
 21 O        9.4560     1.5510    -0.6190 O.3   1 <1>  -0.3620 
 22 C       10.7120     1.4220     0.0130 C.3   1 <1>   0.1200 
 23 C       11.6150     2.5550    -0.4710 C.3   1 <1>   0.1200 
 24 O       12.8280     2.4930     0.2010 O.3   1 <1>  -0.6800 
 25 H       -0.4000    -1.8220    -0.9430 H     1 <1>   0.0800 
 26 H        0.4840    -1.9120     0.5550 H     1 <1>   0.0800 
 27 H        1.3250    -4.1030     1.9320 H     1 <1>   0.0800 
 28 H        1.1380    -5.7810     1.4910 H     1 <1>   0.0800 
 29 H       -1.2570    -6.4860     1.2420 H     1 <1>   0.0800 
 30 H       -2.4360    -5.2230     1.5030 H     1 <1>   0.0800 
 31 H       -1.2180    -5.5340     2.7170 H     1 <1>   0.0800 
 32 H        0.7640    -3.6660    -1.8890 H     1 <1>   0.0800 
 33 H        1.5350    -5.3850    -0.7820 H     1 <1>   0.0800 
 34 H        2.5030    -1.6350    -0.6110 H     1 <1>   0.0800 
 35 H        2.3510    -2.0490    -2.3100 H     1 <1>   0.0800 
 36 H        3.7220    -5.2560    -0.0340 H     1 <1>   0.0800 
 37 H        3.3940    -3.8260     0.9360 H     1 <1>   0.0800 
 38 H        3.6100    -4.0220    -2.0680 H     1 <1>   0.0800 
 39 H        4.9750    -2.0410    -1.7910 H     1 <1>   0.4500 
 40 H        4.2050    -1.3300     0.4210 H     1 <1>   0.0800 
 41 H        5.2510    -2.5730     1.0650 H     1 <1>   0.0800 
 42 H        6.0530    -4.4090    -0.4110 H     1 <1>   0.0800 
 43 H        6.9800    -3.1570    -1.2120 H     1 <1>   0.0800 
 44 H        5.9410    -4.2070    -2.1470 H     1 <1>   0.0800 
 45 H        5.2180     0.3600    -1.2760 H     1 <1>   0.1500 
 46 H        7.5900    -2.1160     1.3000 H     1 <1>   0.1500 
 47 H        7.1520     1.8180    -1.6160 H     1 <1>   0.1500 
 48 H        9.4870    -0.6570     0.9530 H     1 <1>   0.1500 
 49 H       10.5600     1.4860     1.0750 H     1 <1>   0.0800 
 50 H       11.1340     0.4710    -0.2600 H     1 <1>   0.0800 
 51 H       11.1690     3.5160    -0.2770 H     1 <1>   0.0800 
 52 H       11.8150     2.4490    -1.5230 H     1 <1>   0.0800 
 53 H       12.7280     2.7760     1.1310 H     1 <1>   0.4000 
@<TRIPOS>BOND
  1   1   2  2   
  2   2   3  am  
  3   2   4  1   
  4   3   5  1   
  5   3   6  1   
  6   4   7  1   
  7   4  25  1   
  8   4  26  1   
  9   5   8  1   
 10   5  27  1   
 11   5  28  1   
 12   6  29  1   
 13   6  30  1   
 14   6  31  1   
 15   7   8  1   
 16   7   9  1   
 17   7  32  1   
 18   8  10  1   
 19   8  33  1   
 20   9  11  1   
 21   9  34  1   
 22   9  35  1   
 23  10  11  1   
 24  10  36  1   
 25  10  37  1   
 26  11  12  1   
 27  11  38  1   
 28  12  13  1   
 29  12  14  1   
 30  12  39  1   
 31  13  15  1   
 32  13  40  1   
 33  13  41  1   
 34  14  42  1   
 35  14  43  1   
 36  14  44  1   
 37  15  16  ar  
 38  15  17  ar  
 39  16  18  ar  
 40  16  45  1   
 41  17  19  ar  
 42  17  46  1   
 43  18  20  ar  
 44  18  47  1   
 45  19  20  ar  
 46  19  48  1   
 47  20  21  1   
 48  21  22  1   
 49  22  23  1   
 50  22  49  1   
 51  22  50  1   
 52  23  24  1   
 53  23  51  1   
 54  23  52  1   
 55  24  53  1   
@<TRIPOS>SUBSTRUCTURE
  1 ****  13 GROUP 4 **** **** 0

# MOE 2024.06 (io_trps.svl 2023.06)
