@<TRIPOS>MOLECULE
NONAME
49 51 1 0 0 
SMALL
USER_CHARGES


@<TRIPOS>ATOM
  1 S       -2.3600    -0.6950    -1.6520 S.o2  1 <1>   1.3330 
  2 O       -1.6320    -0.3340    -2.8420 O.2   1 <1>  -0.6500 
  3 O       -3.5550    -1.4940    -1.7590 O.2   1 <1>  -0.6500 
  4 N       -1.2140    -1.4800    -0.7090 N.am  1 <1>  -0.9140 
  5 C       -2.7040     0.7840    -0.7260 C.3   1 <1>  -0.1350 
  6 C       -1.5690    -2.5690     0.1900 C.3   1 <1>   0.2760 
  7 C       -1.9450    -3.8560    -0.5570 C.3   1 <1>  -0.1600 
  8 C       -2.6220    -2.1650     1.2280 C.3   1 <1>  -0.1600 
  9 C       -2.2290    -4.9800     0.4420 C.3   1 <1>   0.1400 
 10 C       -2.8830    -3.3220     2.1950 C.3   1 <1>   0.1400 
 11 N       -3.2660    -4.5280     1.4100 N.am  1 <1>  -0.6600 
 12 C       -4.4900    -5.1340     1.5900 C.2   1 <1>   0.5690 
 13 O       -5.1830    -4.8520     2.5450 O.2   1 <1>  -0.5700 
 14 C       -5.0170    -6.1640     0.5740 C.3   1 <1>   0.2610 
 15 O       -4.4200    -7.4370     0.7830 O.3   1 <1>  -0.5600 
 16 C       -6.5640    -6.2520     0.6030 C.3   1 <1>   0.3640 
 17 C       -4.7640    -8.4170    -0.1740 C.3   1 <1>   0.1810 
 18 N       -7.0580    -7.4590    -0.1030 N.am  1 <1>  -0.7300 
 19 C       -7.1880    -5.0180    -0.0430 C.ar  1 <1>  -0.1440 
 20 C       -6.2690    -8.5000    -0.4440 C.2   1 <1>   0.5690 
 21 C       -7.7280    -4.0210     0.7580 C.ar  1 <1>  -0.1500 
 22 C       -7.2150    -4.8590    -1.4230 C.ar  1 <1>  -0.1500 
 23 O       -6.7330    -9.4750    -0.9810 O.2   1 <1>  -0.5700 
 24 C       -8.2850    -2.8880     0.1920 C.ar  1 <1>  -0.1500 
 25 C       -7.7700    -3.7260    -1.9900 C.ar  1 <1>  -0.1500 
 26 C       -8.3060    -2.7390    -1.1830 C.ar  1 <1>  -0.1500 
 27 H       -0.5450    -1.8280    -1.3940 H     1 <1>   0.4200 
 28 H       -1.7970     1.3250    -0.5440 H     1 <1>   0.0800 
 29 H       -3.1590     0.5400     0.2130 H     1 <1>   0.0800 
 30 H       -3.3740     1.4130    -1.2780 H     1 <1>   0.0800 
 31 H       -0.6730    -2.7950     0.7450 H     1 <1>   0.0800 
 32 H       -2.8240    -3.7210    -1.1570 H     1 <1>   0.0800 
 33 H       -1.1370    -4.1540    -1.2000 H     1 <1>   0.0800 
 34 H       -2.2750    -1.3140     1.7850 H     1 <1>   0.0800 
 35 H       -3.5550    -1.9160     0.7570 H     1 <1>   0.0800 
 36 H       -1.3310    -5.2210     0.9860 H     1 <1>   0.0800 
 37 H       -2.5360    -5.8670    -0.0810 H     1 <1>   0.0800 
 38 H       -3.6660    -3.0450     2.8810 H     1 <1>   0.0800 
 39 H       -1.9990    -3.5400     2.7700 H     1 <1>   0.0800 
 40 H       -4.7260    -5.8290    -0.4040 H     1 <1>   0.0800 
 41 H       -6.8930    -6.3200     1.6270 H     1 <1>   0.0800 
 42 H       -4.2510    -8.1900    -1.0910 H     1 <1>   0.0800 
 43 H       -4.4160    -9.3660     0.1920 H     1 <1>   0.0800 
 44 H       -8.0610    -7.5110    -0.2870 H     1 <1>   0.3700 
 45 H       -7.7100    -4.1170     1.8310 H     1 <1>   0.1500 
 46 H       -6.8040    -5.6170    -2.0680 H     1 <1>   0.1500 
 47 H       -8.6990    -2.1210     0.8230 H     1 <1>   0.1500 
 48 H       -7.7830    -3.6100    -3.0600 H     1 <1>   0.1500 
 49 H       -8.7360    -1.8570    -1.6240 H     1 <1>   0.1500 
@<TRIPOS>BOND
  1   1   2  2   
  2   1   3  2   
  3   1   4  am  
  4   1   5  1   
  5   4   6  1   
  6   4  27  1   
  7   5  28  1   
  8   5  29  1   
  9   5  30  1   
 10   6   7  1   
 11   6   8  1   
 12   6  31  1   
 13   7   9  1   
 14   7  32  1   
 15   7  33  1   
 16   8  10  1   
 17   8  34  1   
 18   8  35  1   
 19   9  11  1   
 20   9  36  1   
 21   9  37  1   
 22  10  11  1   
 23  10  38  1   
 24  10  39  1   
 25  11  12  am  
 26  12  13  2   
 27  12  14  1   
 28  14  15  1   
 29  14  16  1   
 30  14  40  1   
 31  15  17  1   
 32  16  18  1   
 33  16  19  1   
 34  16  41  1   
 35  17  20  1   
 36  17  42  1   
 37  17  43  1   
 38  18  20  am  
 39  18  44  1   
 40  19  21  ar  
 41  19  22  ar  
 42  20  23  2   
 43  21  24  ar  
 44  21  45  1   
 45  22  25  ar  
 46  22  46  1   
 47  24  26  ar  
 48  24  47  1   
 49  25  26  ar  
 50  25  48  1   
 51  26  49  1   
@<TRIPOS>SUBSTRUCTURE
  1 ****  12 GROUP 4 **** **** 0

# MOE 2024.06 (io_trps.svl 2023.06)
