@<TRIPOS>MOLECULE
NONAME
51 53 1 0 0 
SMALL
USER_CHARGES


@<TRIPOS>ATOM
  1 O        0.5240     0.7780     2.1410 O.co2 1 <1>  -0.9000 
  2 C        0.8700     0.1010     1.1670 C.2   1 <1>   0.9060 
  3 O        0.4220    -1.0430     0.9860 O.co2 1 <1>  -0.9000 
  4 C        1.8890     0.6470     0.1550 C.3   1 <1>  -0.1060 
  5 C        3.0330    -0.3940     0.0860 C.3   1 <1>   0.2000 
  6 C        2.5170     1.9820     0.6480 C.3   1 <1>  -0.1600 
  7 C        1.1900     0.8150    -1.2310 C.3   1 <1>  -0.0160 
  8 O        2.5540    -1.5700    -0.4700 O.3   1 <1>  -0.6800 
  9 C        4.2650     0.0660    -0.7150 C.3   1 <1>   0.1400 
 10 C        3.6740     2.4540    -0.2330 C.3   1 <1>   0.1400 
 11 C        0.3550     2.0830    -1.4080 C.ar  1 <1>  -0.1440 
 12 N        4.7430     1.4130    -0.2580 N.am  1 <1>  -0.6600 
 13 C        0.7130     3.0320    -2.3550 C.ar  1 <1>  -0.1500 
 14 C       -0.7740     2.3010    -0.6330 C.ar  1 <1>  -0.1500 
 15 C        6.0500     1.6040     0.1210 C.2   1 <1>   0.5690 
 16 C       -0.0400     4.1820    -2.5210 C.ar  1 <1>  -0.1500 
 17 C       -1.5290     3.4500    -0.7950 C.ar  1 <1>  -0.1500 
 18 O        6.8880     0.7420    -0.0090 O.2   1 <1>  -0.5700 
 19 C        6.5170     2.9190     0.7200 C.3   1 <1>  -0.0990 
 20 C       -1.1630     4.3920    -1.7390 C.ar  1 <1>  -0.1500 
 21 C        6.8260     3.9590    -0.3680 C.3   1 <1>  -0.0650 
 22 C        7.1130     5.3520     0.2170 C.3   1 <1>  -0.1900 
 23 C        6.7720     6.5420    -0.6180 C.3   1 <1>  -0.2000 
 24 C        5.9620     6.2170     0.6110 C.3   1 <1>  -0.2000 
 25 C        8.3980     5.4160     1.0520 C.3   1 <1>  -0.1450 
 26 H        3.3510    -0.6310     1.0880 H     1 <1>   0.0800 
 27 H        2.8830     1.8530     1.6520 H     1 <1>   0.0800 
 28 H        1.7640     2.7480     0.6970 H     1 <1>   0.0800 
 29 H        1.9280     0.7910    -2.0100 H     1 <1>   0.0800 
 30 H        0.5490    -0.0310    -1.4080 H     1 <1>   0.0800 
 31 H        1.6740    -1.7320    -0.0150 H     1 <1>   0.4000 
 32 H        4.0210     0.1230    -1.7600 H     1 <1>   0.0800 
 33 H        5.0410    -0.6680    -0.5930 H     1 <1>   0.0800 
 34 H        4.0390     3.3900     0.1440 H     1 <1>   0.0800 
 35 H        3.3260     2.6230    -1.2360 H     1 <1>   0.0800 
 36 H        1.5800     2.8770    -2.9720 H     1 <1>   0.1500 
 37 H       -1.0700     1.5760     0.1090 H     1 <1>   0.1500 
 38 H        0.2470     4.9110    -3.2570 H     1 <1>   0.1500 
 39 H       -2.3980     3.6030    -0.1800 H     1 <1>   0.1500 
 40 H        5.7780     3.2880     1.4050 H     1 <1>   0.0800 
 41 H        7.4060     2.7250     1.2900 H     1 <1>   0.0800 
 42 H       -1.7500     5.2840    -1.8640 H     1 <1>   0.1500 
 43 H        5.9890     4.0220    -1.0410 H     1 <1>   0.0800 
 44 H        7.6710     3.6270    -0.9450 H     1 <1>   0.0800 
 45 H        7.4160     7.4050    -0.5950 H     1 <1>   0.1000 
 46 H        6.3190     6.3990    -1.5840 H     1 <1>   0.1000 
 47 H        4.9580     5.8520     0.4820 H     1 <1>   0.1000 
 48 H        6.0570     6.8560     1.4720 H     1 <1>   0.1000 
 49 H        8.5980     6.4250     1.3660 H     1 <1>   0.0800 
 50 H        9.2350     5.0700     0.4730 H     1 <1>   0.0800 
 51 H        8.3090     4.8060     1.9330 H     1 <1>   0.0800 
@<TRIPOS>BOND
  1   1   2  ar  
  2   2   3  ar  
  3   2   4  1   
  4   4   5  1   
  5   4   6  1   
  6   4   7  1   
  7   5   8  1   
  8   5   9  1   
  9   5  26  1   
 10   6  10  1   
 11   6  27  1   
 12   6  28  1   
 13   7  11  1   
 14   7  29  1   
 15   7  30  1   
 16   8  31  1   
 17   9  12  1   
 18   9  32  1   
 19   9  33  1   
 20  10  12  1   
 21  10  34  1   
 22  10  35  1   
 23  11  13  ar  
 24  11  14  ar  
 25  12  15  am  
 26  13  16  ar  
 27  13  36  1   
 28  14  17  ar  
 29  14  37  1   
 30  15  18  2   
 31  15  19  1   
 32  16  20  ar  
 33  16  38  1   
 34  17  20  ar  
 35  17  39  1   
 36  19  21  1   
 37  19  40  1   
 38  19  41  1   
 39  20  42  1   
 40  21  22  1   
 41  21  43  1   
 42  21  44  1   
 43  22  23  1   
 44  22  24  1   
 45  22  25  1   
 46  23  24  1   
 47  23  45  1   
 48  23  46  1   
 49  24  47  1   
 50  24  48  1   
 51  25  49  1   
 52  25  50  1   
 53  25  51  1   
@<TRIPOS>SUBSTRUCTURE
  1 ****  10 GROUP 4 **** **** 0

# MOE 2024.06 (io_trps.svl 2023.06)
