@<TRIPOS>MOLECULE
NONAME
50 53 1 0 0 
SMALL
USER_CHARGES


@<TRIPOS>ATOM
  1 O       -1.2760     0.3500    -2.9380 O.2   1 <1>  -0.5700 
  2 C       -1.5670     1.0890    -2.0270 C.2   1 <1>   0.5690 
  3 N       -2.0860     0.6030    -0.8570 N.am  1 <1>  -0.6600 
  4 C       -1.3460     2.5830    -2.2260 C.3   1 <1>   0.0440 
  5 C       -2.4250     1.3920     0.3540 C.3   1 <1>   0.1400 
  6 C       -2.2520    -0.8480    -0.6030 C.3   1 <1>   0.1400 
  7 C       -0.3030     3.1660    -1.2750 C.ar  1 <1>  -0.1440 
  8 C       -3.0160     0.3730     1.3270 C.3   1 <1>   0.2000 
  9 C       -2.4240    -0.9710     0.9120 C.3   1 <1>  -0.0800 
 10 C        0.9240     2.5400    -1.1210 C.ar  1 <1>  -0.1500 
 11 C       -0.5720     4.3180    -0.5520 C.ar  1 <1>  -0.1500 
 12 O       -2.6810     0.6620     2.6390 O.3   1 <1>  -0.6800 
 13 C       -3.2870    -2.1670     1.3400 C.3   1 <1>   0.0200 
 14 C        1.8670     3.0530    -0.2500 C.ar  1 <1>  -0.1500 
 15 C        0.3720     4.8330     0.3190 C.ar  1 <1>  -0.1500 
 16 C       -2.6990    -3.4710     0.8370 C.2   1 <1>  -0.0400 
 17 C        1.6040     4.2070     0.4780 C.ar  1 <1>  -0.0230 
 18 O       -1.5190    -3.8560     1.2460 O.3   1 <1>  -0.0190 
 19 C       -3.1620    -4.3960    -0.0170 C.2   1 <1>  -0.1500 
 20 N        2.5800     4.7370     1.3640 N.pl3 1 <1>   0.5930 
 21 N       -1.1660    -4.9870     0.7090 N.2   1 <1>  -0.4100 
 22 C       -2.1370    -5.3370    -0.0570 C.2   1 <1>   0.1080 
 23 N        2.9500     4.1660     2.4980 N.2   1 <1>  -0.4180 
 24 C        3.3040     5.8490     1.2480 C.2   1 <1>   0.0060 
 25 C       -2.1520    -6.6020    -0.8860 C.3   1 <1>  -0.0590 
 26 N        3.8460     4.9210     3.0220 N.2   1 <1>   0.0000 
 27 N        4.0800     5.9780     2.2530 N.2   1 <1>  -0.3380 
 28 C        3.2260     6.8220     0.0840 C.3   1 <1>  -0.0600 
 29 H       -1.0200     2.7490    -3.2370 H     1 <1>   0.0800 
 30 H       -2.2890     3.0820    -2.1060 H     1 <1>   0.0800 
 31 H       -1.5260     1.8230     0.7600 H     1 <1>   0.0800 
 32 H       -3.1400     2.1600     0.1210 H     1 <1>   0.0800 
 33 H       -3.1300    -1.1930    -1.1240 H     1 <1>   0.0800 
 34 H       -1.3940    -1.4010    -0.9490 H     1 <1>   0.0800 
 35 H       -4.0900     0.3720     1.2430 H     1 <1>   0.0800 
 36 H       -1.4390    -1.0740     1.3330 H     1 <1>   0.0800 
 37 H        1.1480     1.6440    -1.6780 H     1 <1>   0.1500 
 38 H       -1.5180     4.8210    -0.6610 H     1 <1>   0.1500 
 39 H       -1.7120     0.6220     2.7620 H     1 <1>   0.4000 
 40 H       -4.2850    -2.0580     0.9530 H     1 <1>   0.0800 
 41 H       -3.3480    -2.2010     2.4140 H     1 <1>   0.0800 
 42 H        2.8130     2.5490    -0.1350 H     1 <1>   0.1500 
 43 H        0.1450     5.7240     0.8810 H     1 <1>   0.1500 
 44 H       -4.0880    -4.4360    -0.5590 H     1 <1>   0.1500 
 45 H       -2.9900    -7.2120    -0.6050 H     1 <1>   0.0800 
 46 H       -1.2470    -7.1580    -0.7240 H     1 <1>   0.0800 
 47 H       -2.2260    -6.3530    -1.9290 H     1 <1>   0.0800 
 48 H        3.9630     7.5960     0.2050 H     1 <1>   0.0800 
 49 H        2.2530     7.2760     0.0440 H     1 <1>   0.0800 
 50 H        3.4150     6.3090    -0.8420 H     1 <1>   0.0800 
@<TRIPOS>BOND
  1   1   2  2   
  2   2   3  am  
  3   2   4  1   
  4   3   5  1   
  5   3   6  1   
  6   4   7  1   
  7   4  29  1   
  8   4  30  1   
  9   5   8  1   
 10   5  31  1   
 11   5  32  1   
 12   6   9  1   
 13   6  33  1   
 14   6  34  1   
 15   7  10  ar  
 16   7  11  ar  
 17   8   9  1   
 18   8  12  1   
 19   8  35  1   
 20   9  13  1   
 21   9  36  1   
 22  10  14  ar  
 23  10  37  1   
 24  11  15  ar  
 25  11  38  1   
 26  12  39  1   
 27  13  16  1   
 28  13  40  1   
 29  13  41  1   
 30  14  17  ar  
 31  14  42  1   
 32  15  17  ar  
 33  15  43  1   
 34  16  18  1   
 35  16  19  2   
 36  17  20  1   
 37  18  21  1   
 38  19  22  1   
 39  19  44  1   
 40  20  23  1   
 41  20  24  1   
 42  21  22  2   
 43  22  25  1   
 44  23  26  2   
 45  24  27  2   
 46  24  28  1   
 47  25  45  1   
 48  25  46  1   
 49  25  47  1   
 50  26  27  1   
 51  28  48  1   
 52  28  49  1   
 53  28  50  1   
@<TRIPOS>SUBSTRUCTURE
  1 ****   5 GROUP 4 **** **** 0

# MOE 2024.06 (io_trps.svl 2023.06)
