@<TRIPOS>MOLECULE
NONAME
53 57 1 0 0 
SMALL
USER_CHARGES


@<TRIPOS>ATOM
  1 O        2.0910    -2.3980     2.0900 O.2   1 <1>  -0.5700 
  2 C        2.6630    -2.7370     1.0780 C.2   1 <1>   0.6900 
  3 N        2.0930    -3.3260    -0.0290 N.am  1 <1>  -0.4770 
  4 N        3.9920    -2.5680     0.9160 N.am  1 <1>  -0.4900 
  5 C        0.7420    -3.5620    -0.3260 C.ar  1 <1>   0.1170 
  6 C        3.1850    -3.5680    -1.0190 C.3   1 <1>   0.2010 
  7 C        4.3920    -3.0190    -0.2860 C.2   1 <1>   0.5690 
  8 C        0.3640    -4.6180    -1.1520 C.ar  1 <1>  -0.1500 
  9 C       -0.2660    -2.7450     0.1780 C.ar  1 <1>  -0.1500 
 10 O        5.5190    -2.9940    -0.7060 O.2   1 <1>  -0.5700 
 11 C       -0.9640    -4.8440    -1.4580 C.ar  1 <1>  -0.1500 
 12 C       -1.5930    -2.9730    -0.1310 C.ar  1 <1>  -0.1500 
 13 C       -1.9780    -4.0340    -0.9510 C.ar  1 <1>   0.0860 
 14 C       -3.3660    -4.2920    -1.2780 C.2   1 <1>   0.5440 
 15 O       -3.6840    -4.4050    -2.4480 O.2   1 <1>  -0.5700 
 16 N       -4.3370    -4.4260    -0.3070 N.am  1 <1>  -0.6600 
 17 C       -5.7840    -4.5540    -0.6950 C.3   1 <1>   0.1400 
 18 C       -4.0070    -4.6230     1.1390 C.3   1 <1>   0.1400 
 19 C       -6.7120    -4.0170     0.4100 C.3   1 <1>   0.1440 
 20 C       -5.0970    -5.4320     1.8510 C.3   1 <1>  -0.1600 
 21 C       -8.1680    -4.0950    -0.0130 C.ar  1 <1>   0.1670 
 22 C       -6.4990    -4.8020     1.7300 C.3   1 <1>  -0.1600 
 23 C       -6.5160    -2.4880     0.6170 C.3   1 <1>  -0.1600 
 24 N       -8.7570    -5.1550    -0.5210 N.ar  1 <1>  -0.6200 
 25 C       -8.8210    -2.9180     0.2000 C.ar  1 <1>  -0.1430 
 26 C       -7.9150    -1.8720     0.7960 C.3   1 <1>  -0.0170 
 27 C      -10.0380    -4.9840    -0.8130 C.ar  1 <1>   0.4770 
 28 C      -10.1500    -2.8520    -0.1390 C.ar  1 <1>   0.1600 
 29 N      -10.7740    -3.8920    -0.6530 N.ar  1 <1>  -0.6200 
 30 C      -10.7400    -6.1810    -1.4050 C.3   1 <1>  -0.0970 
 31 H        4.5920    -2.1510     1.6190 H     1 <1>   0.3700 
 32 H        3.0060    -3.0220    -1.9270 H     1 <1>   0.0800 
 33 H        3.3090    -4.6170    -1.2120 H     1 <1>   0.0800 
 34 H        1.1070    -5.2780    -1.5590 H     1 <1>   0.1500 
 35 H       -0.0100    -1.9160     0.8140 H     1 <1>   0.1500 
 36 H       -1.2370    -5.6610    -2.1040 H     1 <1>   0.1500 
 37 H       -2.3510    -2.3180     0.2620 H     1 <1>   0.1500 
 38 H       -6.0050    -5.5910    -0.8770 H     1 <1>   0.0800 
 39 H       -5.9680    -4.0170    -1.6100 H     1 <1>   0.0800 
 40 H       -3.9090    -3.6610     1.6110 H     1 <1>   0.0800 
 41 H       -3.0670    -5.1410     1.2290 H     1 <1>   0.0800 
 42 H       -4.8410    -5.5460     2.8900 H     1 <1>   0.0800 
 43 H       -5.1130    -6.4180     1.4180 H     1 <1>   0.0800 
 44 H       -7.2200    -5.6000     1.7890 H     1 <1>   0.0800 
 45 H       -6.6850    -4.1560     2.5700 H     1 <1>   0.0800 
 46 H       -6.0770    -2.0650    -0.2700 H     1 <1>   0.0800 
 47 H       -5.8720    -2.2600     1.4470 H     1 <1>   0.0800 
 48 H       -8.0010    -0.9300     0.2830 H     1 <1>   0.0800 
 49 H       -8.1460    -1.7460     1.8390 H     1 <1>   0.0800 
 50 H      -10.7080    -1.9440     0.0100 H     1 <1>   0.1500 
 51 H      -10.4770    -7.0640    -0.8540 H     1 <1>   0.0800 
 52 H      -10.4370    -6.2990    -2.4280 H     1 <1>   0.0800 
 53 H      -11.8060    -6.0490    -1.3660 H     1 <1>   0.0800 
@<TRIPOS>BOND
  1   1   2  2   
  2   2   3  am  
  3   2   4  am  
  4   3   5  1   
  5   3   6  1   
  6   4   7  am  
  7   4  31  1   
  8   5   8  ar  
  9   5   9  ar  
 10   6   7  1   
 11   6  32  1   
 12   6  33  1   
 13   7  10  2   
 14   8  11  ar  
 15   8  34  1   
 16   9  12  ar  
 17   9  35  1   
 18  11  13  ar  
 19  11  36  1   
 20  12  13  ar  
 21  12  37  1   
 22  13  14  1   
 23  14  15  2   
 24  14  16  am  
 25  16  17  1   
 26  16  18  1   
 27  17  19  1   
 28  17  38  1   
 29  17  39  1   
 30  18  20  1   
 31  18  40  1   
 32  18  41  1   
 33  19  21  1   
 34  19  22  1   
 35  19  23  1   
 36  20  22  1   
 37  20  42  1   
 38  20  43  1   
 39  21  24  ar  
 40  21  25  ar  
 41  22  44  1   
 42  22  45  1   
 43  23  26  1   
 44  23  46  1   
 45  23  47  1   
 46  24  27  ar  
 47  25  26  1   
 48  25  28  ar  
 49  26  48  1   
 50  26  49  1   
 51  27  29  ar  
 52  27  30  1   
 53  28  29  ar  
 54  28  50  1   
 55  30  51  1   
 56  30  52  1   
 57  30  53  1   
@<TRIPOS>SUBSTRUCTURE
  1 ****  16 GROUP 4 **** **** 0

# MOE 2024.06 (io_trps.svl 2023.06)
