@<TRIPOS>MOLECULE
NONAME
43 45 1 0 0 
SMALL
USER_CHARGES


@<TRIPOS>ATOM
  1 N        0.0760    -1.0200    -1.0810 N.2   1 <1>  -0.3380 
  2 N        0.5110     0.1830    -1.4400 N.2   1 <1>  -0.3380 
  3 C        0.9120    -1.4910    -0.2190 C.2   1 <1>   0.0070 
  4 C        1.6000     0.4040    -0.7900 C.2   1 <1>   0.0060 
  5 N        1.9070    -0.6240     0.0000 N.pl3 1 <1>   0.0330 
  6 C        0.8080    -2.8530     0.4680 C.3   1 <1>   0.5230 
  7 C        2.4340     1.6690    -0.9060 C.3   1 <1>   0.0200 
  8 N       -0.5600    -3.4700     0.4000 N.4   1 <1>  -0.9590 
  9 C        2.4830     2.4370     0.4190 C.3   1 <1>  -0.2400 
 10 C       -0.9450    -3.8120    -1.0010 C.3   1 <1>   0.4860 
 11 C       -1.6080    -2.5990     1.0240 C.3   1 <1>   0.2630 
 12 C       -2.0530    -4.8410    -0.9230 C.ar  1 <1>  -0.1430 
 13 C       -1.7790    -6.1080    -0.4350 C.ar  1 <1>  -0.1500 
 14 C       -3.3450    -4.5260    -1.3140 C.ar  1 <1>  -0.1500 
 15 C       -2.7810    -7.0640    -0.2990 C.ar  1 <1>  -0.0230 
 16 C       -4.3510    -5.4690    -1.1990 C.ar  1 <1>  -0.1500 
 17 N       -2.4710    -8.3440     0.2480 N.pl3 1 <1>   0.5930 
 18 C       -4.0740    -6.7260    -0.6910 C.ar  1 <1>  -0.1500 
 19 N       -1.4530    -8.5310     1.1290 N.2   1 <1>  -0.7070 
 20 C       -3.0860    -9.5280     0.0040 C.2   1 <1>  -0.3020 
 21 C       -1.4630    -9.7960     1.4120 C.2   1 <1>   0.1390 
 22 C       -2.4670   -10.4760     0.7350 C.2   1 <1>  -0.1500 
 23 H        2.7230    -0.6890     0.6140 H     1 <1>   0.2700 
 24 H        1.0830    -2.7330     1.5030 H     1 <1>   0.0800 
 25 H        1.5220    -3.5210     0.0150 H     1 <1>   0.0800 
 26 H        2.0030     2.3010    -1.6640 H     1 <1>   0.0800 
 27 H        3.4310     1.4160    -1.2220 H     1 <1>   0.0800 
 28 H       -0.5540    -4.3650     0.9070 H     1 <1>   0.4500 
 29 H        1.4850     2.6880     0.7350 H     1 <1>   0.0800 
 30 H        3.0380     3.3500     0.2910 H     1 <1>   0.0800 
 31 H        2.9570     1.8540     1.1870 H     1 <1>   0.0800 
 32 H       -0.1060    -4.2310    -1.5320 H     1 <1>   0.0800 
 33 H       -1.2820    -2.9350    -1.5300 H     1 <1>   0.0800 
 34 H       -1.6960    -1.6690     0.4860 H     1 <1>   0.0800 
 35 H       -1.3580    -2.3820     2.0500 H     1 <1>   0.0800 
 36 H       -2.5660    -3.0960     1.0040 H     1 <1>   0.0800 
 37 H       -0.7770    -6.3780    -0.1470 H     1 <1>   0.1500 
 38 H       -3.5830    -3.5520    -1.7090 H     1 <1>   0.1500 
 39 H       -5.3550    -5.2240    -1.5030 H     1 <1>   0.1500 
 40 H       -4.8730    -7.4410    -0.5960 H     1 <1>   0.1500 
 41 H       -3.9160    -9.6220    -0.6710 H     1 <1>   0.1500 
 42 H       -0.7700   -10.2620     2.0940 H     1 <1>   0.1500 
 43 H       -2.6750   -11.5300     0.8010 H     1 <1>   0.1500 
@<TRIPOS>BOND
  1   1   2  1   
  2   1   3  2   
  3   2   4  2   
  4   3   5  1   
  5   3   6  1   
  6   4   5  1   
  7   4   7  1   
  8   5  23  1   
  9   6   8  1   
 10   6  24  1   
 11   6  25  1   
 12   7   9  1   
 13   7  26  1   
 14   7  27  1   
 15   8  10  1   
 16   8  11  1   
 17   8  28  1   
 18   9  29  1   
 19   9  30  1   
 20   9  31  1   
 21  10  12  1   
 22  10  32  1   
 23  10  33  1   
 24  11  34  1   
 25  11  35  1   
 26  11  36  1   
 27  12  13  ar  
 28  12  14  ar  
 29  13  15  ar  
 30  13  37  1   
 31  14  16  ar  
 32  14  38  1   
 33  15  17  1   
 34  15  18  ar  
 35  16  18  ar  
 36  16  39  1   
 37  17  19  1   
 38  17  20  1   
 39  18  40  1   
 40  19  21  2   
 41  20  22  2   
 42  20  41  1   
 43  21  22  1   
 44  21  42  1   
 45  22  43  1   
@<TRIPOS>SUBSTRUCTURE
  1 ****  10 GROUP 4 **** **** 0

# MOE 2024.06 (io_trps.svl 2023.06)
