@<TRIPOS>MOLECULE
NONAME
46 47 1 0 0 
SMALL
USER_CHARGES


@<TRIPOS>ATOM
  1 S        0.0440     0.0460    -0.6140 S.o2  1 <1>   1.3330 
  2 O       -0.8680     0.1160    -1.7330 O.2   1 <1>  -0.6500 
  3 O        1.4690     0.0380    -0.8530 O.2   1 <1>  -0.6500 
  4 N       -0.3400    -1.3310     0.3020 N.am  1 <1>  -0.8490 
  5 C       -0.3590     1.3960     0.4920 C.3   1 <1>  -0.0550 
  6 C       -0.6900    -2.4760    -0.5430 C.3   1 <1>   0.1160 
  7 C        0.7160    -1.7130     1.2460 C.3   1 <1>   0.1160 
  8 C       -0.1780     2.7840    -0.1560 C.3   1 <1>  -0.0800 
  9 C       -0.6830     3.9480     0.7010 C.3   1 <1>   0.2000 
 10 C        1.2800     3.1470    -0.4760 C.3   1 <1>   0.1400 
 11 O       -0.2490     3.7720     2.0070 O.3   1 <1>  -0.6800 
 12 C        0.0440     5.1590     0.1240 C.3   1 <1>   0.1400 
 13 N        1.3670     4.6180    -0.2800 N.am  1 <1>  -0.6600 
 14 C        2.5490     5.3000    -0.3400 C.2   1 <1>   0.5690 
 15 O        3.5920     4.7270    -0.5450 O.2   1 <1>  -0.5700 
 16 C        2.5560     6.8060    -0.1300 C.3   1 <1>  -0.0990 
 17 C        3.8900     7.4750    -0.4930 C.3   1 <1>  -0.0170 
 18 C        3.8000     8.9760    -0.2720 C.ar  1 <1>  -0.1440 
 19 C        3.4310     9.8420    -1.2810 C.ar  1 <1>  -0.1500 
 20 C        4.0770     9.5490     0.9520 C.ar  1 <1>  -0.1500 
 21 C        3.3550    11.2010    -1.0230 C.ar  1 <1>   0.1600 
 22 C        3.9710    10.9210     1.1060 C.ar  1 <1>   0.1600 
 23 N        3.6140    11.7610     0.1480 N.ar  1 <1>  -0.6200 
 24 H       -1.3820     1.2930     0.7960 H     1 <1>   0.0800 
 25 H        0.2490     1.3280     1.3720 H     1 <1>   0.0800 
 26 H       -0.9440    -3.3260     0.0660 H     1 <1>   0.0800 
 27 H        0.1350    -2.7330    -1.1870 H     1 <1>   0.0800 
 28 H       -1.5430    -2.2350    -1.1560 H     1 <1>   0.0800 
 29 H        0.3860    -2.5370     1.8550 H     1 <1>   0.0800 
 30 H        0.9530    -0.8870     1.8940 H     1 <1>   0.0800 
 31 H        1.6090    -2.0040     0.7160 H     1 <1>   0.0800 
 32 H       -0.7260     2.8000    -1.0830 H     1 <1>   0.0800 
 33 H       -1.7550     4.0510     0.7030 H     1 <1>   0.0800 
 34 H        1.5410     2.8840    -1.4880 H     1 <1>   0.0800 
 35 H        1.9640     2.6610     0.1990 H     1 <1>   0.0800 
 36 H        0.7270     3.8470     2.0230 H     1 <1>   0.4000 
 37 H        0.1240     5.9520     0.8460 H     1 <1>   0.0800 
 38 H       -0.4720     5.5130    -0.7520 H     1 <1>   0.0800 
 39 H        1.7800     7.2400    -0.7310 H     1 <1>   0.0800 
 40 H        2.3360     7.0040     0.9020 H     1 <1>   0.0800 
 41 H        4.1310     7.2700    -1.5220 H     1 <1>   0.0800 
 42 H        4.6810     7.0680     0.1130 H     1 <1>   0.0800 
 43 H        3.2010     9.4740    -2.2640 H     1 <1>   0.1500 
 44 H        4.3750     8.9410     1.7870 H     1 <1>   0.1500 
 45 H        3.0660    11.8620    -1.8220 H     1 <1>   0.1500 
 46 H        4.1910    11.3500     2.0680 H     1 <1>   0.1500 
@<TRIPOS>BOND
  1   1   2  2   
  2   1   3  2   
  3   1   4  am  
  4   1   5  1   
  5   4   6  1   
  6   4   7  1   
  7   5   8  1   
  8   5  24  1   
  9   5  25  1   
 10   6  26  1   
 11   6  27  1   
 12   6  28  1   
 13   7  29  1   
 14   7  30  1   
 15   7  31  1   
 16   8   9  1   
 17   8  10  1   
 18   8  32  1   
 19   9  11  1   
 20   9  12  1   
 21   9  33  1   
 22  10  13  1   
 23  10  34  1   
 24  10  35  1   
 25  11  36  1   
 26  12  13  1   
 27  12  37  1   
 28  12  38  1   
 29  13  14  am  
 30  14  15  2   
 31  14  16  1   
 32  16  17  1   
 33  16  39  1   
 34  16  40  1   
 35  17  18  1   
 36  17  41  1   
 37  17  42  1   
 38  18  19  ar  
 39  18  20  ar  
 40  19  21  ar  
 41  19  43  1   
 42  20  22  ar  
 43  20  44  1   
 44  21  23  ar  
 45  21  45  1   
 46  22  23  ar  
 47  22  46  1   
@<TRIPOS>SUBSTRUCTURE
  1 ****  13 GROUP 4 **** **** 0

# MOE 2024.06 (io_trps.svl 2023.06)
