@<TRIPOS>MOLECULE
NONAME
50 53 1 0 0 
SMALL
USER_CHARGES


@<TRIPOS>ATOM
  1 S       -1.5780    -0.2480     1.8080 S.3   1 <1>  -0.0800 
  2 C       -1.4350    -1.0410     0.2450 C.2   1 <1>  -0.1400 
  3 C       -1.4020     1.3360     1.0750 C.2   1 <1>  -0.1100 
  4 C       -1.2670    -0.1230    -0.7290 C.2   1 <1>  -0.1500 
  5 C       -1.5230    -2.5580     0.2410 C.3   1 <1>   0.3800 
  6 C       -1.2490     1.2270    -0.2570 C.2   1 <1>  -0.1500 
  7 O       -1.1210    -3.0090    -1.0020 O.3   1 <1>  -0.6800 
  8 C       -2.9560    -3.0670     0.5240 C.3   1 <1>  -0.0800 
  9 C       -3.0210    -4.6080     0.5650 C.3   1 <1>  -0.1600 
 10 C       -3.9900    -2.5240    -0.4870 C.3   1 <1>  -0.1600 
 11 C       -4.4400    -5.1180     0.8040 C.3   1 <1>   0.3430 
 12 C       -5.3910    -3.0730    -0.2320 C.3   1 <1>   0.3430 
 13 N       -5.3510    -4.5600    -0.2360 N.4   1 <1>  -0.9590 
 14 C       -6.7260    -5.1880    -0.1780 C.3   1 <1>   0.4040 
 15 C       -6.7410    -6.6780    -0.5640 C.2   1 <1>   0.5690 
 16 O       -5.7960    -7.0650    -1.2130 O.2   1 <1>  -0.5700 
 17 N       -7.7810    -7.4920    -0.1630 N.am  1 <1>  -0.4770 
 18 C       -7.9370    -8.8690    -0.3860 C.ar  1 <1>   0.1170 
 19 C       -8.9800    -6.9990     0.5810 C.3   1 <1>   0.1400 
 20 C       -9.1240    -9.3350     0.1370 C.ar  1 <1>  -0.1430 
 21 C       -7.0870    -9.7630    -1.0290 C.ar  1 <1>  -0.1500 
 22 C       -9.8950    -8.2170     0.7840 C.3   1 <1>  -0.0170 
 23 C       -9.4930   -10.6630     0.0410 C.ar  1 <1>  -0.1500 
 24 C       -7.4430   -11.0980    -1.1330 C.ar  1 <1>  -0.1500 
 25 C       -8.6420   -11.5480    -0.5990 C.ar  1 <1>  -0.1500 
 26 H       -1.4320     2.1910     1.7280 H     1 <1>   0.1500 
 27 H       -1.1570    -0.3340    -1.7790 H     1 <1>   0.1500 
 28 H       -0.8350    -2.9560     0.9670 H     1 <1>   0.0800 
 29 H       -1.1200     2.0500    -0.9390 H     1 <1>   0.1500 
 30 H       -0.2670    -2.5890    -1.2230 H     1 <1>   0.4000 
 31 H       -3.2300    -2.7040     1.5000 H     1 <1>   0.0800 
 32 H       -2.3830    -4.9740     1.3510 H     1 <1>   0.0800 
 33 H       -2.6570    -5.0230    -0.3600 H     1 <1>   0.0800 
 34 H       -3.6940    -2.7730    -1.4910 H     1 <1>   0.0800 
 35 H       -4.0300    -1.4500    -0.4240 H     1 <1>   0.0800 
 36 H       -4.7730    -4.8200     1.7850 H     1 <1>   0.0800 
 37 H       -4.4400    -6.1970     0.7550 H     1 <1>   0.0800 
 38 H       -6.0570    -2.7170    -1.0010 H     1 <1>   0.0800 
 39 H       -5.7470    -2.7190     0.7220 H     1 <1>   0.0800 
 40 H       -4.9470    -4.8740    -1.1370 H     1 <1>   0.4500 
 41 H       -7.3790    -4.6740    -0.8620 H     1 <1>   0.0800 
 42 H       -7.1270    -5.0810     0.8140 H     1 <1>   0.0800 
 43 H       -9.4920    -6.2480     0.0050 H     1 <1>   0.0800 
 44 H       -8.6860    -6.6010     1.5370 H     1 <1>   0.0800 
 45 H       -6.1560    -9.4350    -1.4500 H     1 <1>   0.1500 
 46 H      -10.8430    -8.0740     0.2970 H     1 <1>   0.0800 
 47 H      -10.0520    -8.4140     1.8300 H     1 <1>   0.0800 
 48 H      -10.4240   -11.0080     0.4560 H     1 <1>   0.1500 
 49 H       -6.7860   -11.7900    -1.6300 H     1 <1>   0.1500 
 50 H       -8.9110   -12.5870    -0.6840 H     1 <1>   0.1500 
@<TRIPOS>BOND
  1   1   2  1   
  2   1   3  1   
  3   2   4  2   
  4   2   5  1   
  5   3   6  2   
  6   3  26  1   
  7   4   6  1   
  8   4  27  1   
  9   5   7  1   
 10   5   8  1   
 11   5  28  1   
 12   6  29  1   
 13   7  30  1   
 14   8   9  1   
 15   8  10  1   
 16   8  31  1   
 17   9  11  1   
 18   9  32  1   
 19   9  33  1   
 20  10  12  1   
 21  10  34  1   
 22  10  35  1   
 23  11  13  1   
 24  11  36  1   
 25  11  37  1   
 26  12  13  1   
 27  12  38  1   
 28  12  39  1   
 29  13  14  1   
 30  13  40  1   
 31  14  15  1   
 32  14  41  1   
 33  14  42  1   
 34  15  16  2   
 35  15  17  am  
 36  17  18  1   
 37  17  19  1   
 38  18  20  ar  
 39  18  21  ar  
 40  19  22  1   
 41  19  43  1   
 42  19  44  1   
 43  20  22  1   
 44  20  23  ar  
 45  21  24  ar  
 46  21  45  1   
 47  22  46  1   
 48  22  47  1   
 49  23  25  ar  
 50  23  48  1   
 51  24  25  ar  
 52  24  49  1   
 53  25  50  1   
@<TRIPOS>SUBSTRUCTURE
  1 ****  13 GROUP 4 **** **** 0

# MOE 2024.06 (io_trps.svl 2023.06)
