@<TRIPOS>MOLECULE
NONAME
53 56 1 0 0 
SMALL
USER_CHARGES


@<TRIPOS>ATOM
  1 S        1.3700    -1.4750     2.2080 S.3   1 <1>  -0.0800 
  2 C        0.9990    -1.5160     0.5020 C.2   1 <1>   0.1980 
  3 C        0.2380    -2.7630     2.4550 C.2   1 <1>  -0.1100 
  4 N        0.1260    -2.3840     0.1800 N.2   1 <1>  -0.5650 
  5 C        1.7300    -0.5350    -0.3970 C.3   1 <1>   0.1640 
  6 C       -0.3380    -3.1250     1.2870 C.2   1 <1>   0.1410 
  7 C        3.2310    -0.7980    -0.4270 C.ar  1 <1>  -0.1440 
  8 C       -1.3260    -4.2000     1.1680 C.2   1 <1>   0.7160 
  9 C        4.1310     0.1730    -0.0130 C.ar  1 <1>  -0.1500 
 10 C        3.7100    -2.0190    -0.8770 C.ar  1 <1>  -0.1500 
 11 O       -1.3580    -5.0520     2.0410 O.2   1 <1>  -0.5700 
 12 N       -2.2420    -4.3120     0.1330 N.am  1 <1>  -0.6600 
 13 C        5.4930    -0.0730    -0.0510 C.ar  1 <1>  -0.1500 
 14 C        5.0710    -2.2670    -0.9150 C.ar  1 <1>  -0.1500 
 15 C       -2.9200    -5.6210    -0.1200 C.3   1 <1>   0.1400 
 16 C       -2.6120    -3.1640    -0.7440 C.3   1 <1>   0.1400 
 17 C        5.9640    -1.2930    -0.5020 C.ar  1 <1>  -0.1500 
 18 C       -4.2360    -5.7400     0.6620 C.3   1 <1>   0.1400 
 19 C       -4.1000    -3.1060    -1.1140 C.3   1 <1>  -0.1600 
 20 N       -5.3230    -4.8960     0.0710 N.am  1 <1>  -0.6600 
 21 C       -5.0440    -3.4330     0.0470 C.3   1 <1>   0.1400 
 22 C       -6.5280    -5.3880    -0.3940 C.2   1 <1>   0.5690 
 23 O       -7.3210    -4.6480    -0.9380 O.2   1 <1>  -0.5700 
 24 C       -6.8910    -6.8920    -0.2960 C.3   1 <1>   0.2610 
 25 O       -6.8230    -7.3990     1.0180 O.3   1 <1>  -0.5600 
 26 C       -8.2870    -7.2770    -0.7940 C.3   1 <1>  -0.1600 
 27 C       -7.8480    -8.3060     1.2880 C.3   1 <1>   0.1200 
 28 C       -8.5700    -8.5510    -0.0280 C.3   1 <1>  -0.1600 
 29 H        0.1040    -3.1420     3.4520 H     1 <1>   0.1500 
 30 H        1.3410    -0.6220    -1.3940 H     1 <1>   0.0800 
 31 H        1.5310     0.4630    -0.0520 H     1 <1>   0.0800 
 32 H        3.7810     1.1270     0.3430 H     1 <1>   0.1500 
 33 H        3.0230    -2.7850    -1.1970 H     1 <1>   0.1500 
 34 H        6.1860     0.6840     0.2710 H     1 <1>   0.1500 
 35 H        5.4350    -3.2170    -1.2640 H     1 <1>   0.1500 
 36 H       -3.1010    -5.7510    -1.1720 H     1 <1>   0.0800 
 37 H       -2.2660    -6.4170     0.1930 H     1 <1>   0.0800 
 38 H       -2.3750    -2.2480    -0.2310 H     1 <1>   0.0800 
 39 H       -2.0160    -3.2000    -1.6400 H     1 <1>   0.0800 
 40 H        7.0220    -1.4850    -0.5320 H     1 <1>   0.1500 
 41 H       -4.0750    -5.4560     1.6870 H     1 <1>   0.0800 
 42 H       -4.5190    -6.7750     0.6610 H     1 <1>   0.0800 
 43 H       -4.3070    -3.7520    -1.9490 H     1 <1>   0.0800 
 44 H       -4.3080    -2.1040    -1.4440 H     1 <1>   0.0800 
 45 H       -5.9650    -2.8900    -0.0830 H     1 <1>   0.0800 
 46 H       -4.6180    -3.1240     0.9860 H     1 <1>   0.0800 
 47 H       -6.1670    -7.4410    -0.8690 H     1 <1>   0.0800 
 48 H       -8.9960    -6.5160    -0.5160 H     1 <1>   0.0800 
 49 H       -8.3110    -7.4090    -1.8610 H     1 <1>   0.0800 
 50 H       -7.4250    -9.2070     1.6990 H     1 <1>   0.0800 
 51 H       -8.5050    -7.8470     2.0070 H     1 <1>   0.0800 
 52 H       -8.1320    -9.3980    -0.5260 H     1 <1>   0.0800 
 53 H       -9.6220    -8.7240     0.1140 H     1 <1>   0.0800 
@<TRIPOS>BOND
  1   1   2  1   
  2   1   3  1   
  3   2   4  2   
  4   2   5  1   
  5   3   6  2   
  6   3  29  1   
  7   4   6  1   
  8   5   7  1   
  9   5  30  1   
 10   5  31  1   
 11   6   8  1   
 12   7   9  ar  
 13   7  10  ar  
 14   8  11  2   
 15   8  12  am  
 16   9  13  ar  
 17   9  32  1   
 18  10  14  ar  
 19  10  33  1   
 20  12  15  1   
 21  12  16  1   
 22  13  17  ar  
 23  13  34  1   
 24  14  17  ar  
 25  14  35  1   
 26  15  18  1   
 27  15  36  1   
 28  15  37  1   
 29  16  19  1   
 30  16  38  1   
 31  16  39  1   
 32  17  40  1   
 33  18  20  1   
 34  18  41  1   
 35  18  42  1   
 36  19  21  1   
 37  19  43  1   
 38  19  44  1   
 39  20  21  1   
 40  20  22  am  
 41  21  45  1   
 42  21  46  1   
 43  22  23  2   
 44  22  24  1   
 45  24  25  1   
 46  24  26  1   
 47  24  47  1   
 48  25  27  1   
 49  26  28  1   
 50  26  48  1   
 51  26  49  1   
 52  27  28  1   
 53  27  50  1   
 54  27  51  1   
 55  28  52  1   
 56  28  53  1   
@<TRIPOS>SUBSTRUCTURE
  1 ****  12 GROUP 4 **** **** 0

# MOE 2024.06 (io_trps.svl 2023.06)
