@<TRIPOS>MOLECULE
NONAME
55 57 1 0 0 
SMALL
USER_CHARGES


@<TRIPOS>ATOM
  1 O        3.9750     1.6070     1.9870 O.2   1 <1>  -0.5700 
  2 C        3.9040     0.6510     1.2420 C.2   1 <1>   0.7030 
  3 N        3.0060     0.7000     0.1830 N.am  1 <1>  -0.6600 
  4 C        4.7710    -0.4890     1.4890 C.2   1 <1>   0.2770 
  5 C        3.0370    -0.2370    -0.9940 C.3   1 <1>   0.1400 
  6 C        1.9750     1.7840     0.1110 C.3   1 <1>   0.1400 
  7 N        4.3970    -1.7690     1.9090 N.pl3 1 <1>  -0.7640 
  8 C        6.1230    -0.5200     1.3750 C.2   1 <1>   0.2000 
  9 C        3.3870     0.4710    -2.3250 C.3   1 <1>   0.3430 
 10 C        2.5430     3.0570    -0.5360 C.3   1 <1>  -0.1600 
 11 C        5.5010    -2.4960     2.0390 C.cat 1 <1>   0.6500 
 12 C        3.0080    -2.1700     2.2720 C.3   1 <1>   0.2740 
 13 N        6.5580    -1.7720     1.7070 N.pl3 1 <1>  -0.7000 
 14 N        3.9950     1.8070    -2.0720 N.4   1 <1>  -0.9590 
 15 C        3.0150     2.9140    -1.9850 C.3   1 <1>   0.3430 
 16 C        5.2240     2.1250    -2.8380 C.3   1 <1>   0.5240 
 17 C        6.1600     2.7670    -1.8230 C.2   1 <1>   0.0460 
 18 N        6.2170     2.2960    -0.5520 N.2   1 <1>  -0.5650 
 19 C        6.9670     3.8390    -1.9750 C.2   1 <1>  -0.3020 
 20 C        7.0350     3.1090     0.0400 C.2   1 <1>   0.0060 
 21 N        7.5380     4.0600    -0.7770 N.pl3 1 <1>   0.0330 
 22 C        7.4030     3.0450     1.5130 C.3   1 <1>   0.0200 
 23 C        8.7870     2.4120     1.7120 C.3   1 <1>  -0.1600 
 24 C        9.1110     2.2290     3.2000 C.3   1 <1>  -0.1600 
 25 C       10.4880     1.5870     3.3880 C.3   1 <1>  -0.2400 
 26 H        2.0790    -0.7200    -1.0940 H     1 <1>   0.0800 
 27 H        3.7620    -1.0150    -0.8300 H     1 <1>   0.0800 
 28 H        1.6420     2.0210     1.1100 H     1 <1>   0.0800 
 29 H        1.1150     1.4380    -0.4380 H     1 <1>   0.0800 
 30 H        6.7820     0.2800     1.0780 H     1 <1>   0.1500 
 31 H        2.4940     0.5840    -2.9190 H     1 <1>   0.0800 
 32 H        4.0680    -0.1520    -2.8810 H     1 <1>   0.0800 
 33 H        3.3540     3.4310     0.0670 H     1 <1>   0.0800 
 34 H        1.7780     3.8120    -0.5120 H     1 <1>   0.0800 
 35 H        5.5370    -3.5250     2.3760 H     1 <1>   0.1500 
 36 H        2.3600    -2.0870     1.4160 H     1 <1>   0.0800 
 37 H        2.6350    -1.5290     3.0540 H     1 <1>   0.0800 
 38 H        2.9880    -3.1880     2.6250 H     1 <1>   0.0800 
 39 H        7.5370    -2.0830     1.7280 H     1 <1>   0.4500 
 40 H        4.3870     1.7700    -1.1090 H     1 <1>   0.4500 
 41 H        3.4770     3.8400    -2.2880 H     1 <1>   0.0800 
 42 H        2.1770     2.7240    -2.6370 H     1 <1>   0.0800 
 43 H        5.0200     2.7940    -3.6580 H     1 <1>   0.0800 
 44 H        5.6810     1.2240    -3.2110 H     1 <1>   0.0800 
 45 H        7.1610     4.4570    -2.8350 H     1 <1>   0.1500 
 46 H        8.2010     4.8020    -0.5240 H     1 <1>   0.2700 
 47 H        6.6570     2.4750     2.0380 H     1 <1>   0.0800 
 48 H        7.3930     4.0380     1.9280 H     1 <1>   0.0800 
 49 H        9.5340     3.0410     1.2590 H     1 <1>   0.0800 
 50 H        8.8200     1.4570     1.2180 H     1 <1>   0.0800 
 51 H        8.3650     1.6080     3.6670 H     1 <1>   0.0800 
 52 H        9.1000     3.1870     3.6950 H     1 <1>   0.0800 
 53 H       10.5230     0.6180     2.9230 H     1 <1>   0.0800 
 54 H       10.6990     1.4700     4.4360 H     1 <1>   0.0800 
 55 H       11.2550     2.2060     2.9550 H     1 <1>   0.0800 
@<TRIPOS>BOND
  1   1   2  2   
  2   2   3  am  
  3   2   4  1   
  4   3   5  1   
  5   3   6  1   
  6   4   7  1   
  7   4   8  2   
  8   5   9  1   
  9   5  26  1   
 10   5  27  1   
 11   6  10  1   
 12   6  28  1   
 13   6  29  1   
 14   7  11  ar  
 15   7  12  1   
 16   8  13  1   
 17   8  30  1   
 18   9  14  1   
 19   9  31  1   
 20   9  32  1   
 21  10  15  1   
 22  10  33  1   
 23  10  34  1   
 24  11  13  ar  
 25  11  35  1   
 26  12  36  1   
 27  12  37  1   
 28  12  38  1   
 29  13  39  1   
 30  14  15  1   
 31  14  16  1   
 32  14  40  1   
 33  15  41  1   
 34  15  42  1   
 35  16  17  1   
 36  16  43  1   
 37  16  44  1   
 38  17  18  1   
 39  17  19  2   
 40  18  20  2   
 41  19  21  1   
 42  19  45  1   
 43  20  21  1   
 44  20  22  1   
 45  21  46  1   
 46  22  23  1   
 47  22  47  1   
 48  22  48  1   
 49  23  24  1   
 50  23  49  1   
 51  23  50  1   
 52  24  25  1   
 53  24  51  1   
 54  24  52  1   
 55  25  53  1   
 56  25  54  1   
 57  25  55  1   
@<TRIPOS>SUBSTRUCTURE
  1 ****  18 GROUP 4 **** **** 0

# MOE 2024.06 (io_trps.svl 2023.06)
