@<TRIPOS>MOLECULE
NONAME
41 43 1 0 0 
SMALL
USER_CHARGES


@<TRIPOS>ATOM
  1 O        0.0540     1.4530    -0.5320 O.co2 1 <1>  -0.9000 
  2 C       -0.7210     0.5510    -0.1730 C.2   1 <1>   0.9060 
  3 O       -0.4240    -0.6420    -0.1310 O.co2 1 <1>  -0.9000 
  4 C       -2.1250     1.0230     0.2550 C.3   1 <1>   0.3170 
  5 N       -2.1820     2.5300     0.2670 N.4   1 <1>  -0.9590 
  6 C       -3.2410     0.5840    -0.6980 C.3   1 <1>  -0.1600 
  7 C       -3.3500     2.9670    -0.5410 C.3   1 <1>   0.3430 
  8 C       -2.1180     3.0820     1.6260 C.3   1 <1>   0.5240 
  9 C       -4.2410     1.7270    -0.6610 C.3   1 <1>   0.2000 
 10 C       -1.7690     4.5470     1.4990 C.2   1 <1>  -0.1810 
 11 O       -4.9930     1.6030     0.5030 O.3   1 <1>  -0.6800 
 12 C       -2.4640     5.6150     2.0490 C.2   1 <1>   0.1390 
 13 C       -0.7410     5.1180     0.8350 C.2   1 <1>  -0.3020 
 14 N       -1.9220     6.7510     1.7490 N.2   1 <1>  -0.7070 
 15 N       -0.8270     6.4640     0.9920 N.pl3 1 <1>   0.5930 
 16 C        0.0450     7.4530     0.4430 C.ar  1 <1>  -0.0230 
 17 C        1.3590     7.1430     0.0960 C.ar  1 <1>  -0.1500 
 18 C       -0.4010     8.7560     0.2370 C.ar  1 <1>  -0.1500 
 19 C        2.2000     8.0960    -0.4520 C.ar  1 <1>  -0.1440 
 20 C        0.4360     9.7140    -0.3050 C.ar  1 <1>  -0.1500 
 21 C        1.7340     9.3850    -0.6510 C.ar  1 <1>  -0.1500 
 22 C        3.6270     7.7380    -0.8280 C.3   1 <1>  -0.0970 
 23 H       -2.3270     0.6380     1.2380 H     1 <1>   0.0800 
 24 H       -1.2750     2.7640    -0.2010 H     1 <1>   0.4500 
 25 H       -3.6590    -0.3650    -0.4140 H     1 <1>   0.0800 
 26 H       -2.8340     0.4890    -1.6910 H     1 <1>   0.0800 
 27 H       -3.8780     3.7880    -0.0860 H     1 <1>   0.0800 
 28 H       -3.0110     3.2570    -1.5210 H     1 <1>   0.0800 
 29 H       -3.0650     2.9530     2.1230 H     1 <1>   0.0800 
 30 H       -1.3490     2.5800     2.1900 H     1 <1>   0.0800 
 31 H       -4.9030     1.7630    -1.5090 H     1 <1>   0.0800 
 32 H       -5.5770     0.8180     0.4520 H     1 <1>   0.4000 
 33 H       -3.3530     5.5320     2.6540 H     1 <1>   0.1500 
 34 H        0.0420     4.6540     0.2620 H     1 <1>   0.1500 
 35 H        1.7370     6.1490     0.2570 H     1 <1>   0.1500 
 36 H       -1.4090     9.0240     0.5050 H     1 <1>   0.1500 
 37 H        0.0770    10.7170    -0.4580 H     1 <1>   0.1500 
 38 H        2.3790    10.1360    -1.0730 H     1 <1>   0.1500 
 39 H        3.9200     8.2590    -1.7210 H     1 <1>   0.0800 
 40 H        3.7190     6.6820    -1.0080 H     1 <1>   0.0800 
 41 H        4.2930     8.0130    -0.0300 H     1 <1>   0.0800 
@<TRIPOS>BOND
  1   1   2  ar  
  2   2   3  ar  
  3   2   4  1   
  4   4   5  1   
  5   4   6  1   
  6   4  23  1   
  7   5   7  1   
  8   5   8  1   
  9   5  24  1   
 10   6   9  1   
 11   6  25  1   
 12   6  26  1   
 13   7   9  1   
 14   7  27  1   
 15   7  28  1   
 16   8  10  1   
 17   8  29  1   
 18   8  30  1   
 19   9  11  1   
 20   9  31  1   
 21  10  12  1   
 22  10  13  2   
 23  11  32  1   
 24  12  14  2   
 25  12  33  1   
 26  13  15  1   
 27  13  34  1   
 28  14  15  1   
 29  15  16  1   
 30  16  17  ar  
 31  16  18  ar  
 32  17  19  ar  
 33  17  35  1   
 34  18  20  ar  
 35  18  36  1   
 36  19  21  ar  
 37  19  22  1   
 38  20  21  ar  
 39  20  37  1   
 40  21  38  1   
 41  22  39  1   
 42  22  40  1   
 43  22  41  1   
@<TRIPOS>SUBSTRUCTURE
  1 ****  13 GROUP 4 **** **** 0

# MOE 2024.06 (io_trps.svl 2023.06)
