@<TRIPOS>MOLECULE
NONAME
57 59 1 0 0 
SMALL
USER_CHARGES


@<TRIPOS>ATOM
  1 S        1.1680    -0.2930    -1.2350 S.o2  1 <1>   1.2040 
  2 O        2.5210     0.0040    -0.8230 O.2   1 <1>  -0.6500 
  3 O        0.9110    -0.7650    -2.5790 O.2   1 <1>  -0.6500 
  4 C        0.1130     1.1370    -0.8900 C.ar  1 <1>  -0.0090 
  5 C        0.5150    -1.5160    -0.1010 C.3   1 <1>  -0.0550 
  6 C       -0.8780     1.5330    -1.7820 C.ar  1 <1>  -0.1500 
  7 C        0.2450     1.8540     0.2930 C.ar  1 <1>  -0.1500 
  8 C       -0.9650    -1.8630    -0.3590 C.3   1 <1>  -0.0990 
  9 C       -1.7150     2.5990    -1.5010 C.ar  1 <1>  -0.1500 
 10 C       -0.5880     2.9210     0.5840 C.ar  1 <1>  -0.1500 
 11 C       -1.5440    -2.8170     0.6750 C.2   1 <1>   0.5690 
 12 C       -1.5710     3.2930    -0.3140 C.ar  1 <1>  -0.1500 
 13 O       -0.7640    -3.4010     1.3900 O.2   1 <1>  -0.5700 
 14 N       -2.9040    -2.9880     0.7910 N.am  1 <1>  -0.6600 
 15 C       -3.8850    -2.3810    -0.1620 C.3   1 <1>   0.2200 
 16 C       -3.4380    -3.8290     1.9090 C.3   1 <1>   0.0600 
 17 C       -4.5430    -1.1310     0.4100 C.3   1 <1>  -0.1600 
 18 C       -5.0690    -3.2690    -0.5430 C.3   1 <1>  -0.1600 
 19 C       -5.7880    -0.9180    -0.4650 C.3   1 <1>  -0.0800 
 20 C       -6.1160    -2.2860    -1.0890 C.3   1 <1>  -0.0800 
 21 C       -7.0320    -0.4820     0.3200 C.3   1 <1>  -0.1600 
 22 C       -7.5550    -2.6200    -0.6780 C.3   1 <1>  -0.1600 
 23 C       -7.8030    -1.7780     0.5710 C.3   1 <1>   0.4230 
 24 N       -9.2570    -1.5940     0.8740 N.4   1 <1>  -0.9590 
 25 C      -10.0440    -0.8470    -0.1640 C.3   1 <1>   0.2630 
 26 C       -9.4380    -0.9500     2.2120 C.3   1 <1>   0.2630 
 27 H        1.0970    -2.4150    -0.1810 H     1 <1>   0.0800 
 28 H        0.6190    -1.1590     0.9060 H     1 <1>   0.0800 
 29 H       -0.9960     1.0020    -2.7130 H     1 <1>   0.1500 
 30 H        1.0140     1.5800     0.9970 H     1 <1>   0.1500 
 31 H       -1.5400    -0.9580    -0.3410 H     1 <1>   0.0800 
 32 H       -1.0570    -2.3140    -1.3310 H     1 <1>   0.0800 
 33 H       -2.4740     2.8910    -2.2070 H     1 <1>   0.1500 
 34 H       -0.4670     3.4640     1.5060 H     1 <1>   0.1500 
 35 H       -2.2180     4.1250    -0.0920 H     1 <1>   0.1500 
 36 H       -3.3910    -2.1130    -1.0800 H     1 <1>   0.0800 
 37 H       -4.3060    -3.3690     2.3450 H     1 <1>   0.0800 
 38 H       -2.7010    -3.9480     2.6840 H     1 <1>   0.0800 
 39 H       -3.6950    -4.8050     1.5360 H     1 <1>   0.0800 
 40 H       -4.8220    -1.3080     1.4330 H     1 <1>   0.0800 
 41 H       -3.8820    -0.2840     0.3630 H     1 <1>   0.0800 
 42 H       -4.7850    -3.9960    -1.2830 H     1 <1>   0.0800 
 43 H       -5.4650    -3.7740     0.3180 H     1 <1>   0.0800 
 44 H       -5.5600    -0.2040    -1.2410 H     1 <1>   0.0800 
 45 H       -6.0290    -2.2330    -2.1630 H     1 <1>   0.0800 
 46 H       -7.5940     0.1890    -0.3020 H     1 <1>   0.0800 
 47 H       -6.7720     0.0180     1.2360 H     1 <1>   0.0800 
 48 H       -7.6860    -3.6710    -0.4880 H     1 <1>   0.0800 
 49 H       -8.2040    -2.3230    -1.4810 H     1 <1>   0.0800 
 50 H       -7.3300    -2.2840     1.3980 H     1 <1>   0.0800 
 51 H       -9.6550    -2.5430     0.9320 H     1 <1>   0.4500 
 52 H       -9.6850     0.1650    -0.2550 H     1 <1>   0.0800 
 53 H      -11.0850    -0.8150     0.1120 H     1 <1>   0.0800 
 54 H       -9.9650    -1.3310    -1.1230 H     1 <1>   0.0800 
 55 H       -9.0400     0.0520     2.2030 H     1 <1>   0.0800 
 56 H       -8.9270    -1.5170     2.9740 H     1 <1>   0.0800 
 57 H      -10.4850    -0.9010     2.4670 H     1 <1>   0.0800 
@<TRIPOS>BOND
  1   1   2  2   
  2   1   3  2   
  3   1   4  1   
  4   1   5  1   
  5   4   6  ar  
  6   4   7  ar  
  7   5   8  1   
  8   5  27  1   
  9   5  28  1   
 10   6   9  ar  
 11   6  29  1   
 12   7  10  ar  
 13   7  30  1   
 14   8  11  1   
 15   8  31  1   
 16   8  32  1   
 17   9  12  ar  
 18   9  33  1   
 19  10  12  ar  
 20  10  34  1   
 21  11  13  2   
 22  11  14  am  
 23  12  35  1   
 24  14  15  1   
 25  14  16  1   
 26  15  17  1   
 27  15  18  1   
 28  15  36  1   
 29  16  37  1   
 30  16  38  1   
 31  16  39  1   
 32  17  19  1   
 33  17  40  1   
 34  17  41  1   
 35  18  20  1   
 36  18  42  1   
 37  18  43  1   
 38  19  20  1   
 39  19  21  1   
 40  19  44  1   
 41  20  22  1   
 42  20  45  1   
 43  21  23  1   
 44  21  46  1   
 45  21  47  1   
 46  22  23  1   
 47  22  48  1   
 48  22  49  1   
 49  23  24  1   
 50  23  50  1   
 51  24  25  1   
 52  24  26  1   
 53  24  51  1   
 54  25  52  1   
 55  25  53  1   
 56  25  54  1   
 57  26  55  1   
 58  26  56  1   
 59  26  57  1   
@<TRIPOS>SUBSTRUCTURE
  1 ****  17 GROUP 4 **** **** 0

# MOE 2024.06 (io_trps.svl 2023.06)
