@<TRIPOS>MOLECULE
NONAME
46 48 1 0 0 
SMALL
USER_CHARGES


@<TRIPOS>ATOM
  1 O       -0.7280    -0.2840     0.5010 O.2   1 <1>  -0.5700 
  2 C       -1.7370     0.3970     0.5290 C.2   1 <1>   0.5440 
  3 N       -1.6190     1.7520     0.7790 N.am  1 <1>  -0.6600 
  4 C       -3.0130    -0.2350     0.2880 C.ar  1 <1>   0.0860 
  5 C       -0.3450     2.3360     1.2840 C.3   1 <1>   0.0600 
  6 C       -2.6390     2.7580     0.3730 C.3   1 <1>   0.0600 
  7 C       -3.1570    -1.1560    -0.7460 C.ar  1 <1>   0.1600 
  8 C       -4.1430     0.0210     1.0590 C.ar  1 <1>  -0.1500 
  9 N       -4.2700    -1.7880    -1.0780 N.ar  1 <1>  -0.6200 
 10 C       -5.3090    -0.6280     0.7320 C.ar  1 <1>  -0.1500 
 11 C       -5.3380    -1.5190    -0.3370 C.ar  1 <1>   0.4100 
 12 N       -6.5040    -2.1540    -0.6560 N.pl3 1 <1>  -0.8690 
 13 C       -6.5590    -3.3450    -1.5220 C.3   1 <1>   0.3530 
 14 C       -7.7890    -4.1420    -1.1260 C.ar  1 <1>  -0.1430 
 15 C       -7.7080    -5.1000    -0.1280 C.ar  1 <1>  -0.1500 
 16 C       -9.0050    -3.9140    -1.7470 C.ar  1 <1>  -0.1500 
 17 C       -8.8220    -5.8330     0.2500 C.ar  1 <1>  -0.1430 
 18 C      -10.1210    -4.6410    -1.3760 C.ar  1 <1>  -0.1500 
 19 C      -10.0410    -5.6020    -0.3800 C.ar  1 <1>  -0.1430 
 20 C       -8.6670    -6.8870     1.3400 C.3   1 <1>  -0.0170 
 21 C      -11.3040    -6.3630     0.0040 C.3   1 <1>  -0.0170 
 22 C      -10.0100    -7.3330     1.9310 C.3   1 <1>  -0.1600 
 23 C      -11.0110    -7.6330     0.8120 C.3   1 <1>  -0.1600 
 24 H        0.2670     1.5740     1.7370 H     1 <1>   0.0800 
 25 H       -0.5530     3.0890     2.0230 H     1 <1>   0.0800 
 26 H        0.2010     2.7760     0.4680 H     1 <1>   0.0800 
 27 H       -3.3760     2.3190    -0.2750 H     1 <1>   0.0800 
 28 H       -2.1630     3.5650    -0.1580 H     1 <1>   0.0800 
 29 H       -3.1260     3.1540     1.2470 H     1 <1>   0.0800 
 30 H       -2.2820    -1.3770    -1.3350 H     1 <1>   0.1500 
 31 H       -4.0940     0.7070     1.8860 H     1 <1>   0.1500 
 32 H       -6.2080    -0.4600     1.2940 H     1 <1>   0.1500 
 33 H       -7.2640    -2.1460     0.0250 H     1 <1>   0.4000 
 34 H       -5.6720    -3.9420    -1.3930 H     1 <1>   0.0800 
 35 H       -6.6190    -3.0370    -2.5510 H     1 <1>   0.0800 
 36 H       -6.7640    -5.2770     0.3590 H     1 <1>   0.1500 
 37 H       -9.0870    -3.1690    -2.5190 H     1 <1>   0.1500 
 38 H      -11.0600    -4.4510    -1.8660 H     1 <1>   0.1500 
 39 H       -8.0440    -6.5050     2.1290 H     1 <1>   0.0800 
 40 H       -8.1720    -7.7400     0.9110 H     1 <1>   0.0800 
 41 H      -11.8530    -6.6280    -0.8820 H     1 <1>   0.0800 
 42 H      -11.9220    -5.7080     0.5930 H     1 <1>   0.0800 
 43 H      -10.3990    -6.5500     2.5590 H     1 <1>   0.0800 
 44 H       -9.8630    -8.2080     2.5390 H     1 <1>   0.0800 
 45 H      -10.6020    -8.3840     0.1580 H     1 <1>   0.0800 
 46 H      -11.9270    -8.0140     1.2280 H     1 <1>   0.0800 
@<TRIPOS>BOND
  1   1   2  2   
  2   2   3  am  
  3   2   4  1   
  4   3   5  1   
  5   3   6  1   
  6   4   7  ar  
  7   4   8  ar  
  8   5  24  1   
  9   5  25  1   
 10   5  26  1   
 11   6  27  1   
 12   6  28  1   
 13   6  29  1   
 14   7   9  ar  
 15   7  30  1   
 16   8  10  ar  
 17   8  31  1   
 18   9  11  ar  
 19  10  11  ar  
 20  10  32  1   
 21  11  12  1   
 22  12  13  1   
 23  12  33  1   
 24  13  14  1   
 25  13  34  1   
 26  13  35  1   
 27  14  15  ar  
 28  14  16  ar  
 29  15  17  ar  
 30  15  36  1   
 31  16  18  ar  
 32  16  37  1   
 33  17  19  ar  
 34  17  20  1   
 35  18  19  ar  
 36  18  38  1   
 37  19  21  1   
 38  20  22  1   
 39  20  39  1   
 40  20  40  1   
 41  21  23  1   
 42  21  41  1   
 43  21  42  1   
 44  22  23  1   
 45  22  43  1   
 46  22  44  1   
 47  23  45  1   
 48  23  46  1   
@<TRIPOS>SUBSTRUCTURE
  1 ****  12 GROUP 4 **** **** 0

# MOE 2024.06 (io_trps.svl 2023.06)
