@<TRIPOS>MOLECULE
NONAME
51 54 1 0 0 
SMALL
USER_CHARGES


@<TRIPOS>ATOM
  1 O       -2.0880     1.1300     1.3610 O.2   1 <1>  -0.5700 
  2 C       -2.8400     0.2730     0.9120 C.2   1 <1>   0.4690 
  3 C       -2.9040    -0.0340    -0.4890 C.ar  1 <1>   0.0860 
  4 C       -3.6720    -0.4590     1.7870 C.2   1 <1>  -0.1360 
  5 C       -3.8260    -1.0010    -0.9400 C.ar  1 <1>   0.1000 
  6 C       -2.0580     0.5940    -1.4100 C.ar  1 <1>  -0.1500 
  7 C       -4.5750    -1.3640     1.3390 C.2   1 <1>  -0.0380 
  8 N       -4.7230    -1.5950    -0.0210 N.pl3 1 <1>  -0.5690 
  9 C       -3.8010    -1.3350    -2.3030 C.ar  1 <1>  -0.1500 
 10 C       -2.0800     0.2670    -2.7460 C.ar  1 <1>  -0.1500 
 11 C       -5.4200    -2.1290     2.3460 C.3   1 <1>  -0.1020 
 12 C       -5.9100    -2.3790    -0.5450 C.3   1 <1>   0.2700 
 13 C       -2.9540    -0.7120    -3.1910 C.ar  1 <1>  -0.1500 
 14 C       -5.6810    -3.8950    -0.6870 C.2   1 <1>   0.5690 
 15 O       -4.8270    -4.2830    -1.4500 O.2   1 <1>  -0.5700 
 16 N       -6.4530    -4.8090    -0.0090 N.am  1 <1>  -0.6600 
 17 C       -7.6640    -4.5680     0.8200 C.3   1 <1>   0.1400 
 18 C       -6.1790    -6.2670    -0.0890 C.3   1 <1>   0.1400 
 19 C       -7.8130    -5.8450     1.6450 C.3   1 <1>   0.2000 
 20 C       -7.3070    -6.9420     0.7030 C.3   1 <1>  -0.0800 
 21 O       -6.9700    -5.7440     2.7410 O.3   1 <1>  -0.6800 
 22 C       -6.8860    -8.2510     1.3990 C.3   1 <1>   0.0200 
 23 C       -6.5190    -9.3560     0.4220 C.2   1 <1>  -0.0400 
 24 O       -6.0130   -10.4640     0.8950 O.3   1 <1>  -0.0190 
 25 C       -6.5980    -9.4830    -0.9130 C.2   1 <1>  -0.1500 
 26 N       -5.7460   -11.3200    -0.0470 N.2   1 <1>  -0.4100 
 27 C       -6.0880   -10.7560    -1.1480 C.2   1 <1>   0.1080 
 28 C       -5.9500   -11.3980    -2.5110 C.3   1 <1>  -0.0590 
 29 H       -3.5390    -0.2510     2.8310 H     1 <1>   0.1500 
 30 H       -1.3720     1.3450    -1.0560 H     1 <1>   0.1500 
 31 H       -4.4390    -2.1040    -2.6910 H     1 <1>   0.1500 
 32 H       -1.4210     0.7570    -3.4410 H     1 <1>   0.1500 
 33 H       -5.3230    -3.1860     2.1810 H     1 <1>   0.0800 
 34 H       -6.4510    -1.8370     2.2730 H     1 <1>   0.0800 
 35 H       -5.0920    -1.9240     3.3490 H     1 <1>   0.0800 
 36 H       -6.7520    -2.1970     0.0880 H     1 <1>   0.0800 
 37 H       -6.1920    -1.9950    -1.5060 H     1 <1>   0.0800 
 38 H       -2.9610    -0.9860    -4.2320 H     1 <1>   0.1500 
 39 H       -7.5750    -3.7060     1.4550 H     1 <1>   0.0800 
 40 H       -8.5150    -4.4540     0.1710 H     1 <1>   0.0800 
 41 H       -6.1630    -6.5920    -1.1160 H     1 <1>   0.0800 
 42 H       -5.2180    -6.4680     0.3550 H     1 <1>   0.0800 
 43 H       -8.8180    -6.0080     1.9970 H     1 <1>   0.0800 
 44 H       -8.1010    -7.1660     0.0130 H     1 <1>   0.0800 
 45 H       -6.0640    -5.5460     2.4290 H     1 <1>   0.4000 
 46 H       -7.6920    -8.6010     2.0190 H     1 <1>   0.0800 
 47 H       -6.0390    -8.0730     2.0380 H     1 <1>   0.0800 
 48 H       -6.9590    -8.8030    -1.6610 H     1 <1>   0.1500 
 49 H       -6.9000   -11.4000    -3.0120 H     1 <1>   0.0800 
 50 H       -5.6100   -12.4130    -2.4050 H     1 <1>   0.0800 
 51 H       -5.2370   -10.8520    -3.1000 H     1 <1>   0.0800 
@<TRIPOS>BOND
  1   1   2  2   
  2   2   3  1   
  3   2   4  1   
  4   3   5  ar  
  5   3   6  ar  
  6   4   7  2   
  7   4  29  1   
  8   5   8  1   
  9   5   9  ar  
 10   6  10  ar  
 11   6  30  1   
 12   7   8  1   
 13   7  11  1   
 14   8  12  1   
 15   9  13  ar  
 16   9  31  1   
 17  10  13  ar  
 18  10  32  1   
 19  11  33  1   
 20  11  34  1   
 21  11  35  1   
 22  12  14  1   
 23  12  36  1   
 24  12  37  1   
 25  13  38  1   
 26  14  15  2   
 27  14  16  am  
 28  16  17  1   
 29  16  18  1   
 30  17  19  1   
 31  17  39  1   
 32  17  40  1   
 33  18  20  1   
 34  18  41  1   
 35  18  42  1   
 36  19  20  1   
 37  19  21  1   
 38  19  43  1   
 39  20  22  1   
 40  20  44  1   
 41  21  45  1   
 42  22  23  1   
 43  22  46  1   
 44  22  47  1   
 45  23  24  1   
 46  23  25  2   
 47  24  26  1   
 48  25  27  1   
 49  25  48  1   
 50  26  27  2   
 51  27  28  1   
 52  28  49  1   
 53  28  50  1   
 54  28  51  1   
@<TRIPOS>SUBSTRUCTURE
  1 ****  14 GROUP 4 **** **** 0

# MOE 2024.06 (io_trps.svl 2023.06)
