@<TRIPOS>MOLECULE
NONAME
52 55 1 0 0 
SMALL
USER_CHARGES


@<TRIPOS>ATOM
  1 O        0.1160    -0.6770    -1.7060 O.2   1 <1>  -0.5700 
  2 C       -0.5280    -0.9890    -0.7290 C.2   1 <1>   0.5440 
  3 N       -0.8160     0.0160     0.1300 N.am  1 <1>  -0.8000 
  4 C       -0.9530    -2.3610    -0.5020 C.ar  1 <1>   0.0860 
  5 C       -1.8270    -2.7150     0.5200 C.ar  1 <1>  -0.1500 
  6 C       -0.4890    -3.3970    -1.3240 C.ar  1 <1>  -0.1500 
  7 C       -2.2360    -4.0310     0.7420 C.ar  1 <1>   0.0860 
  8 C       -0.8760    -4.7030    -1.1330 C.ar  1 <1>  -0.1500 
  9 C       -3.1350    -4.4000     1.8030 C.2   1 <1>   0.4690 
 10 C       -1.7530    -5.0410    -0.1060 C.ar  1 <1>   0.1000 
 11 O       -3.5970    -3.5750     2.5770 O.2   1 <1>  -0.5700 
 12 C       -3.5030    -5.7640     1.9300 C.2   1 <1>  -0.1360 
 13 N       -2.1500    -6.3570     0.0850 N.pl3 1 <1>  -0.6000 
 14 C       -3.0330    -6.7170     1.0870 C.2   1 <1>  -0.0380 
 15 C       -3.4690    -8.1740     1.1950 C.3   1 <1>   0.4810 
 16 N       -4.1550    -8.5380    -0.0800 N.4   1 <1>  -0.9590 
 17 C       -5.6440    -8.5220     0.0380 C.3   1 <1>   0.4230 
 18 C       -3.6450    -9.8490    -0.5940 C.3   1 <1>   0.2630 
 19 C       -6.3210    -8.8300    -1.2970 C.3   1 <1>  -0.1600 
 20 C       -6.1880    -7.1430     0.4080 C.3   1 <1>  -0.1600 
 21 C       -7.7160    -8.2040    -1.1980 C.3   1 <1>  -0.0800 
 22 C       -7.6310    -7.1250    -0.1080 C.3   1 <1>  -0.0800 
 23 C       -8.8090    -9.1860    -0.7500 C.3   1 <1>  -0.1600 
 24 C       -8.6750    -7.4980     0.9560 C.3   1 <1>  -0.1600 
 25 C       -9.6650    -8.3850     0.2180 C.3   1 <1>   0.2000 
 26 O      -10.3090    -9.2240     1.0990 O.3   1 <1>  -0.6800 
 27 H       -0.4770     0.9540    -0.0900 H     1 <1>   0.3700 
 28 H       -1.3060    -0.0950     1.0160 H     1 <1>   0.3700 
 29 H       -2.2170    -1.9560     1.1750 H     1 <1>   0.1500 
 30 H        0.1900    -3.1520    -2.1240 H     1 <1>   0.1500 
 31 H       -0.4950    -5.4670    -1.7870 H     1 <1>   0.1500 
 32 H       -4.1810    -5.9790     2.7360 H     1 <1>   0.1500 
 33 H       -1.6580    -7.0570    -0.4860 H     1 <1>   0.4000 
 34 H       -4.1310    -8.3080     2.0350 H     1 <1>   0.0800 
 35 H       -2.5970    -8.7880     1.3450 H     1 <1>   0.0800 
 36 H       -3.9080    -7.7850    -0.7390 H     1 <1>   0.4500 
 37 H       -5.9770    -9.2400     0.7710 H     1 <1>   0.0800 
 38 H       -3.9230   -10.6490     0.0730 H     1 <1>   0.0800 
 39 H       -2.5700    -9.8290    -0.6790 H     1 <1>   0.0800 
 40 H       -4.0560   -10.0570    -1.5690 H     1 <1>   0.0800 
 41 H       -5.7930    -8.3430    -2.0980 H     1 <1>   0.0800 
 42 H       -6.3760    -9.8860    -1.4960 H     1 <1>   0.0800 
 43 H       -6.1480    -6.9560     1.4650 H     1 <1>   0.0800 
 44 H       -5.6390    -6.3780    -0.1140 H     1 <1>   0.0800 
 45 H       -8.0020    -7.7570    -2.1370 H     1 <1>   0.0800 
 46 H       -7.8750    -6.1600    -0.5230 H     1 <1>   0.0800 
 47 H       -8.3770   -10.0300    -0.2400 H     1 <1>   0.0800 
 48 H       -9.3940    -9.5320    -1.5850 H     1 <1>   0.0800 
 49 H       -9.1620    -6.6240     1.3510 H     1 <1>   0.0800 
 50 H       -8.2200    -8.0510     1.7590 H     1 <1>   0.0800 
 51 H      -10.4000    -7.7960    -0.3070 H     1 <1>   0.0800 
 52 H       -9.6720    -9.7710     1.5910 H     1 <1>   0.4000 
@<TRIPOS>BOND
  1   1   2  2   
  2   2   3  am  
  3   2   4  1   
  4   3  27  1   
  5   3  28  1   
  6   4   5  ar  
  7   4   6  ar  
  8   5   7  ar  
  9   5  29  1   
 10   6   8  ar  
 11   6  30  1   
 12   7   9  1   
 13   7  10  ar  
 14   8  10  ar  
 15   8  31  1   
 16   9  11  2   
 17   9  12  1   
 18  10  13  1   
 19  12  14  2   
 20  12  32  1   
 21  13  14  1   
 22  13  33  1   
 23  14  15  1   
 24  15  16  1   
 25  15  34  1   
 26  15  35  1   
 27  16  17  1   
 28  16  18  1   
 29  16  36  1   
 30  17  19  1   
 31  17  20  1   
 32  17  37  1   
 33  18  38  1   
 34  18  39  1   
 35  18  40  1   
 36  19  21  1   
 37  19  41  1   
 38  19  42  1   
 39  20  22  1   
 40  20  43  1   
 41  20  44  1   
 42  21  22  1   
 43  21  23  1   
 44  21  45  1   
 45  22  24  1   
 46  22  46  1   
 47  23  25  1   
 48  23  47  1   
 49  23  48  1   
 50  24  25  1   
 51  24  49  1   
 52  24  50  1   
 53  25  26  1   
 54  25  51  1   
 55  26  52  1   
@<TRIPOS>SUBSTRUCTURE
  1 ****  14 GROUP 4 **** **** 0

# MOE 2024.06 (io_trps.svl 2023.06)
