@<TRIPOS>MOLECULE
NONAME
40 43 1 0 0 
SMALL
USER_CHARGES


@<TRIPOS>ATOM
  1 S       -0.3130     0.4350    -1.5870 S.3   1 <1>  -0.0800 
  2 C       -0.2150     1.8130    -0.5120 C.2   1 <1>  -0.1400 
  3 C        1.3480     0.6930    -2.1010 C.2   1 <1>  -0.1100 
  4 C        0.9910     2.3930    -0.5510 C.2   1 <1>  -0.1810 
  5 C       -1.3720     2.2660     0.3360 C.3   1 <1>   0.0200 
  6 C        1.8900     1.7530    -1.4700 C.2   1 <1>  -0.1500 
  7 C        1.3100     3.6100     0.3220 C.3   1 <1>   0.4610 
  8 C       -1.0760     3.7090     0.7740 C.3   1 <1>   0.1200 
  9 O        0.2490     3.8430     1.2320 O.3   1 <1>  -0.5600 
 10 C        2.5520     3.3410     1.1780 C.3   1 <1>  -0.1600 
 11 C        1.5170     4.8670    -0.5360 C.3   1 <1>  -0.1600 
 12 C        2.9380     4.5630     2.0120 C.3   1 <1>   0.1400 
 13 C        1.9080     6.0750     0.3160 C.3   1 <1>   0.1400 
 14 N        3.1200     5.7360     1.1110 N.am  1 <1>  -0.6600 
 15 C        4.3610     6.3010     0.9000 C.2   1 <1>   0.5440 
 16 O        5.3540     5.6860     1.2370 O.2   1 <1>  -0.5700 
 17 C        4.5180     7.5990     0.2740 C.ar  1 <1>   0.0860 
 18 C        5.4190     7.8140    -0.7570 C.ar  1 <1>  -0.1500 
 19 C        3.7940     8.7180     0.6620 C.ar  1 <1>  -0.1500 
 20 C        5.5330     9.0630    -1.3360 C.ar  1 <1>   0.1600 
 21 C        3.9820     9.9270     0.0190 C.ar  1 <1>   0.1600 
 22 N        4.8290    10.1230    -0.9770 N.ar  1 <1>  -0.6200 
 23 H        1.7480     0.0130    -2.8310 H     1 <1>   0.1500 
 24 H       -1.4700     1.6270     1.1940 H     1 <1>   0.0800 
 25 H       -2.2870     2.2350    -0.2280 H     1 <1>   0.0800 
 26 H        2.8930     2.1130    -1.6130 H     1 <1>   0.1500 
 27 H       -1.7320     3.9940     1.5770 H     1 <1>   0.0800 
 28 H       -1.2240     4.3870    -0.0480 H     1 <1>   0.0800 
 29 H        3.3840     3.0870     0.5490 H     1 <1>   0.0800 
 30 H        2.3630     2.5020     1.8220 H     1 <1>   0.0800 
 31 H        0.6290     5.0800    -1.0990 H     1 <1>   0.0800 
 32 H        2.3030     4.6820    -1.2440 H     1 <1>   0.0800 
 33 H        3.8420     4.3600     2.5610 H     1 <1>   0.0800 
 34 H        2.1610     4.7830     2.7240 H     1 <1>   0.0800 
 35 H        1.1050     6.3290     0.9880 H     1 <1>   0.0800 
 36 H        2.0900     6.9160    -0.3290 H     1 <1>   0.0800 
 37 H        6.0310     6.9990    -1.1000 H     1 <1>   0.1500 
 38 H        3.0900     8.6420     1.4690 H     1 <1>   0.1500 
 39 H        6.2400     9.1990    -2.1370 H     1 <1>   0.1500 
 40 H        3.4060    10.7800     0.3390 H     1 <1>   0.1500 
@<TRIPOS>BOND
  1   1   2  1   
  2   1   3  1   
  3   2   4  2   
  4   2   5  1   
  5   3   6  2   
  6   3  23  1   
  7   4   6  1   
  8   4   7  1   
  9   5   8  1   
 10   5  24  1   
 11   5  25  1   
 12   6  26  1   
 13   7   9  1   
 14   7  10  1   
 15   7  11  1   
 16   8   9  1   
 17   8  27  1   
 18   8  28  1   
 19  10  12  1   
 20  10  29  1   
 21  10  30  1   
 22  11  13  1   
 23  11  31  1   
 24  11  32  1   
 25  12  14  1   
 26  12  33  1   
 27  12  34  1   
 28  13  14  1   
 29  13  35  1   
 30  13  36  1   
 31  14  15  am  
 32  15  16  2   
 33  15  17  1   
 34  17  18  ar  
 35  17  19  ar  
 36  18  20  ar  
 37  18  37  1   
 38  19  21  ar  
 39  19  38  1   
 40  20  22  ar  
 41  20  39  1   
 42  21  22  ar  
 43  21  40  1   
@<TRIPOS>SUBSTRUCTURE
  1 ****  11 GROUP 4 **** **** 0

# MOE 2024.06 (io_trps.svl 2023.06)
