@<TRIPOS>MOLECULE
NONAME
50 52 1 0 0 
SMALL
USER_CHARGES


@<TRIPOS>ATOM
  1 O       -0.2670    -1.1540     1.6900 O.2   1 <1>  -0.5700 
  2 C        0.2720    -1.1000     0.6030 C.2   1 <1>   0.5440 
  3 N        0.3380     0.1220     0.0250 N.am  1 <1>  -0.8000 
  4 C        0.8560    -2.2580    -0.0240 C.ar  1 <1>   0.0860 
  5 C        0.0820    -3.3620    -0.4200 C.ar  1 <1>   0.4100 
  6 C        2.2210    -2.3160    -0.2560 C.ar  1 <1>  -0.1500 
  7 N        0.5860    -4.4630    -0.9750 N.ar  1 <1>  -0.6200 
  8 N       -1.2880    -3.3950    -0.2480 N.pl3 1 <1>  -0.8380 
  9 C        2.7500    -3.4440    -0.8450 C.ar  1 <1>  -0.1430 
 10 C        1.8890    -4.4860    -1.1790 C.ar  1 <1>   0.1670 
 11 C       -2.1380    -3.9020    -1.3670 C.3   1 <1>   0.2090 
 12 C       -1.7690    -3.7800     1.1100 C.3   1 <1>   0.2090 
 13 C        4.2500    -3.5120    -1.1020 C.3   1 <1>  -0.0970 
 14 C        2.4240    -5.7520    -1.8240 C.3   1 <1>  -0.0970 
 15 C       -2.3530    -5.4260    -1.2470 C.3   1 <1>   0.3430 
 16 C       -1.9720    -5.3060     1.1980 C.3   1 <1>   0.3430 
 17 N       -2.8790    -5.8420     0.1130 N.4   1 <1>  -0.9590 
 18 C       -3.0960    -7.3110     0.2620 C.3   1 <1>   0.4230 
 19 C       -1.8350    -8.1350    -0.0370 C.3   1 <1>  -0.1600 
 20 C       -4.2690    -7.7630    -0.6110 C.3   1 <1>  -0.1600 
 21 C       -2.1690    -9.6250     0.0340 C.3   1 <1>   0.1200 
 22 C       -4.4380    -9.2800    -0.5000 C.3   1 <1>   0.1200 
 23 O       -3.2280    -9.8800    -0.8310 O.3   1 <1>  -0.5600 
 24 H       -0.0940     0.9160     0.4990 H     1 <1>   0.3700 
 25 H        0.7070     0.2890    -0.9110 H     1 <1>   0.3700 
 26 H        2.8460    -1.4880     0.0310 H     1 <1>   0.1500 
 27 H       -1.6580    -3.6850    -2.3060 H     1 <1>   0.0800 
 28 H       -3.0850    -3.3910    -1.3570 H     1 <1>   0.0800 
 29 H       -2.6840    -3.2600     1.3310 H     1 <1>   0.0800 
 30 H       -1.0440    -3.4890     1.8520 H     1 <1>   0.0800 
 31 H        4.7350    -2.6010    -0.8020 H     1 <1>   0.0800 
 32 H        4.4420    -3.6640    -2.1490 H     1 <1>   0.0800 
 33 H        4.6870    -4.3220    -0.5450 H     1 <1>   0.0800 
 34 H        1.6350    -6.4670    -1.9710 H     1 <1>   0.0800 
 35 H        3.1730    -6.1990    -1.1970 H     1 <1>   0.0800 
 36 H        2.8540    -5.5220    -2.7820 H     1 <1>   0.0800 
 37 H       -1.4020    -5.8990    -1.4260 H     1 <1>   0.0800 
 38 H       -3.0300    -5.7440    -2.0220 H     1 <1>   0.0800 
 39 H       -2.3730    -5.5490     2.1680 H     1 <1>   0.0800 
 40 H       -1.0020    -5.7660     1.1130 H     1 <1>   0.0800 
 41 H       -3.7870    -5.3790     0.2320 H     1 <1>   0.4500 
 42 H       -3.3720    -7.5100     1.2850 H     1 <1>   0.0800 
 43 H       -1.0610    -7.9210     0.6760 H     1 <1>   0.0800 
 44 H       -1.4590    -7.9380    -1.0240 H     1 <1>   0.0800 
 45 H       -4.1000    -7.5310    -1.6460 H     1 <1>   0.0800 
 46 H       -5.1790    -7.2890    -0.2910 H     1 <1>   0.0800 
 47 H       -2.4500    -9.9320     1.0280 H     1 <1>   0.0800 
 48 H       -1.3310   -10.2190    -0.2900 H     1 <1>   0.0800 
 49 H       -5.1800    -9.6330    -1.1960 H     1 <1>   0.0800 
 50 H       -4.7180    -9.5870     0.4940 H     1 <1>   0.0800 
@<TRIPOS>BOND
  1   1   2  2   
  2   2   3  am  
  3   2   4  1   
  4   3  24  1   
  5   3  25  1   
  6   4   5  ar  
  7   4   6  ar  
  8   5   7  ar  
  9   5   8  1   
 10   6   9  ar  
 11   6  26  1   
 12   7  10  ar  
 13   8  11  1   
 14   8  12  1   
 15   9  10  ar  
 16   9  13  1   
 17  10  14  1   
 18  11  15  1   
 19  11  27  1   
 20  11  28  1   
 21  12  16  1   
 22  12  29  1   
 23  12  30  1   
 24  13  31  1   
 25  13  32  1   
 26  13  33  1   
 27  14  34  1   
 28  14  35  1   
 29  14  36  1   
 30  15  17  1   
 31  15  37  1   
 32  15  38  1   
 33  16  17  1   
 34  16  39  1   
 35  16  40  1   
 36  17  18  1   
 37  17  41  1   
 38  18  19  1   
 39  18  20  1   
 40  18  42  1   
 41  19  21  1   
 42  19  43  1   
 43  19  44  1   
 44  20  22  1   
 45  20  45  1   
 46  20  46  1   
 47  21  23  1   
 48  21  47  1   
 49  21  48  1   
 50  22  23  1   
 51  22  49  1   
 52  22  50  1   
@<TRIPOS>SUBSTRUCTURE
  1 ****   7 GROUP 4 **** **** 0

# MOE 2024.06 (io_trps.svl 2023.06)
