@<TRIPOS>MOLECULE
NONAME
50 52 1 0 0 
SMALL
USER_CHARGES


@<TRIPOS>ATOM
  1 O       -0.0630     0.8440     0.9350 O.2   1 <1>  -0.5700 
  2 C        0.0730     2.0420     0.8310 C.2   1 <1>   0.5690 
  3 N       -0.9770     2.9050     1.0160 N.am  1 <1>  -0.6600 
  4 C        1.4530     2.5820     0.4810 C.3   1 <1>  -0.0990 
  5 C       -2.3650     2.3940     1.2370 C.3   1 <1>   0.1400 
  6 C       -0.9010     4.3910     0.9520 C.3   1 <1>   0.1400 
  7 C        2.4930     1.4940     0.1810 C.3   1 <1>  -0.0160 
  8 C       -3.3210     2.8550     0.1110 C.3   1 <1>   0.0000 
  9 C       -1.8050     4.9000    -0.1740 C.3   1 <1>  -0.1600 
 10 C        3.8310     2.1280    -0.1650 C.ar  1 <1>  -0.1440 
 11 C       -4.7390     2.3290     0.4190 C.3   1 <1>   0.2000 
 12 C       -3.2500     4.3970    -0.0140 C.3   1 <1>  -0.1600 
 13 C       -2.9810     2.1470    -1.2130 C.3   1 <1>  -0.1600 
 14 C        4.7710     2.3640     0.8250 C.ar  1 <1>  -0.1500 
 15 C        4.1180     2.4800    -1.4760 C.ar  1 <1>  -0.1500 
 16 O       -5.6810     3.0500    -0.3230 O.3   1 <1>  -0.5600 
 17 C       -4.7410     0.8750    -0.0710 C.3   1 <1>  -0.1600 
 18 C       -3.6390     0.7670    -1.1350 C.3   1 <1>  -0.1600 
 19 C        5.9850     2.9500     0.5000 C.ar  1 <1>   0.0820 
 20 C        5.3320     3.0660    -1.7980 C.ar  1 <1>  -0.1500 
 21 C       -6.9720     3.0480     0.1970 C.3   1 <1>   0.0400 
 22 O        6.8990     3.1820     1.4540 O.3   1 <1>  -0.5330 
 23 C        6.2680     3.3030    -0.8070 C.ar  1 <1>  -0.1500 
 24 H        1.3610     3.2120    -0.3840 H     1 <1>   0.0800 
 25 H        1.8020     3.1790     1.3030 H     1 <1>   0.0800 
 26 H       -2.3610     1.3200     1.3000 H     1 <1>   0.0800 
 27 H       -2.7160     2.7690     2.1820 H     1 <1>   0.0800 
 28 H       -1.2350     4.7950     1.8920 H     1 <1>   0.0800 
 29 H        0.1050     4.7300     0.7880 H     1 <1>   0.0800 
 30 H        2.1550     0.8850    -0.6400 H     1 <1>   0.0800 
 31 H        2.6040     0.8500     1.0370 H     1 <1>   0.0800 
 32 H       -1.8000     5.9750    -0.1750 H     1 <1>   0.0800 
 33 H       -1.4070     4.5730    -1.1190 H     1 <1>   0.0800 
 34 H       -4.9750     2.4160     1.4670 H     1 <1>   0.0800 
 35 H       -3.8350     4.7280    -0.8550 H     1 <1>   0.0800 
 36 H       -3.6790     4.8380     0.8680 H     1 <1>   0.0800 
 37 H       -3.4270     2.6900    -2.0280 H     1 <1>   0.0800 
 38 H       -1.9220     2.0730    -1.3900 H     1 <1>   0.0800 
 39 H        4.5590     2.0940     1.8430 H     1 <1>   0.1500 
 40 H        3.3960     2.2990    -2.2540 H     1 <1>   0.1500 
 41 H       -4.4970     0.2250     0.7500 H     1 <1>   0.0800 
 42 H       -5.6980     0.5840    -0.4660 H     1 <1>   0.0800 
 43 H       -2.9130     0.0300    -0.8360 H     1 <1>   0.0800 
 44 H       -4.0470     0.4890    -2.0910 H     1 <1>   0.0800 
 45 H        5.5470     3.3360    -2.8160 H     1 <1>   0.1500 
 46 H       -7.6030     3.6030    -0.4750 H     1 <1>   0.0800 
 47 H       -6.9650     3.5230     1.1620 H     1 <1>   0.0800 
 48 H       -7.3290     2.0360     0.2750 H     1 <1>   0.0800 
 49 H        6.6130     2.8820     2.3330 H     1 <1>   0.4500 
 50 H        7.2140     3.7560    -1.0400 H     1 <1>   0.1500 
@<TRIPOS>BOND
  1   1   2  2   
  2   2   3  am  
  3   2   4  1   
  4   3   5  1   
  5   3   6  1   
  6   4   7  1   
  7   4  24  1   
  8   4  25  1   
  9   5   8  1   
 10   5  26  1   
 11   5  27  1   
 12   6   9  1   
 13   6  28  1   
 14   6  29  1   
 15   7  10  1   
 16   7  30  1   
 17   7  31  1   
 18   8  11  1   
 19   8  12  1   
 20   8  13  1   
 21   9  12  1   
 22   9  32  1   
 23   9  33  1   
 24  10  14  ar  
 25  10  15  ar  
 26  11  16  1   
 27  11  17  1   
 28  11  34  1   
 29  12  35  1   
 30  12  36  1   
 31  13  18  1   
 32  13  37  1   
 33  13  38  1   
 34  14  19  ar  
 35  14  39  1   
 36  15  20  ar  
 37  15  40  1   
 38  16  21  1   
 39  17  18  1   
 40  17  41  1   
 41  17  42  1   
 42  18  43  1   
 43  18  44  1   
 44  19  22  1   
 45  19  23  ar  
 46  20  23  ar  
 47  20  45  1   
 48  21  46  1   
 49  21  47  1   
 50  21  48  1   
 51  22  49  1   
 52  23  50  1   
@<TRIPOS>SUBSTRUCTURE
  1 ****   2 GROUP 4 **** **** 0

# MOE 2024.06 (io_trps.svl 2023.06)
