@<TRIPOS>MOLECULE
NONAME
37 39 1 0 0 
SMALL
USER_CHARGES


@<TRIPOS>ATOM
  1 S       -0.1920     0.2760    -1.6460 S.o2  1 <1>   1.5010 
  2 O        0.6530    -0.5150    -2.5140 O.2   1 <1>  -0.6500 
  3 O       -0.7620     1.5120    -2.1320 O.2   1 <1>  -0.6500 
  4 N        0.7560     0.6740    -0.3020 N.am  1 <1>  -0.8490 
  5 C       -1.4880    -0.7540    -0.9290 C.2   1 <1>  -0.0630 
  6 C        1.6430     1.8290    -0.6160 C.3   1 <1>   0.2570 
  7 C        1.5570    -0.4600     0.1910 C.3   1 <1>   0.1960 
  8 C       -2.4160    -0.4390     0.0050 C.2   1 <1>  -0.0400 
  9 C       -1.7360    -2.1020    -1.2280 C.2   1 <1>  -0.1500 
 10 C        2.6900     2.1440     0.4650 C.2   1 <1>   0.5690 
 11 C        2.3050    -0.1070     1.4940 C.3   1 <1>   0.1400 
 12 O       -3.1770    -1.4770     0.2790 O.3   1 <1>  -0.2800 
 13 C       -2.6850     0.8610     0.7370 C.3   1 <1>  -0.0600 
 14 C       -2.7830    -2.5030    -0.4600 C.2   1 <1>   0.1410 
 15 O        3.2370     3.2180     0.4830 O.2   1 <1>  -0.5700 
 16 N        3.0030     1.2010     1.3880 N.am  1 <1>  -0.7300 
 17 C       -3.4490    -3.7800    -0.3600 C.2   1 <1>   0.2880 
 18 N       -3.1090    -4.8540    -1.0040 N.2   1 <1>  -0.4100 
 19 C       -4.5590    -4.0580     0.4460 C.2   1 <1>  -0.1500 
 20 O       -3.9430    -5.7860    -0.6460 O.3   1 <1>  -0.0190 
 21 C       -4.8240    -5.3550     0.2170 C.2   1 <1>  -0.0400 
 22 C       -5.8850    -6.3110     0.7500 C.3   1 <1>   1.2000 
 23 F       -5.3610    -7.3510     1.3870 F     1 <1>  -0.3400 
 24 F       -6.6990    -5.7170     1.6140 F     1 <1>  -0.3400 
 25 F       -6.6570    -6.8050    -0.2100 F     1 <1>  -0.3400 
 26 H        1.0420     2.7090    -0.7610 H     1 <1>   0.0800 
 27 H        2.1730     1.6390    -1.5330 H     1 <1>   0.0800 
 28 H        2.2760    -0.7550    -0.5570 H     1 <1>   0.0800 
 29 H        0.9170    -1.3050     0.3800 H     1 <1>   0.0800 
 30 H       -1.1860    -2.6920    -1.9410 H     1 <1>   0.1500 
 31 H        3.0210    -0.8790     1.7150 H     1 <1>   0.0800 
 32 H        1.5980    -0.0610     2.3050 H     1 <1>   0.0800 
 33 H       -1.9990     1.6260     0.4250 H     1 <1>   0.0800 
 34 H       -2.5800     0.7110     1.7960 H     1 <1>   0.0800 
 35 H       -3.6870     1.1920     0.5310 H     1 <1>   0.0800 
 36 H        3.6680     1.4660     2.1190 H     1 <1>   0.3700 
 37 H       -5.0520    -3.3500     1.0880 H     1 <1>   0.1500 
@<TRIPOS>BOND
  1   1   2  2   
  2   1   3  2   
  3   1   4  am  
  4   1   5  1   
  5   4   6  1   
  6   4   7  1   
  7   5   8  2   
  8   5   9  1   
  9   6  10  1   
 10   6  26  1   
 11   6  27  1   
 12   7  11  1   
 13   7  28  1   
 14   7  29  1   
 15   8  12  1   
 16   8  13  1   
 17   9  14  2   
 18   9  30  1   
 19  10  15  2   
 20  10  16  am  
 21  11  16  1   
 22  11  31  1   
 23  11  32  1   
 24  12  14  1   
 25  13  33  1   
 26  13  34  1   
 27  13  35  1   
 28  14  17  1   
 29  16  36  1   
 30  17  18  2   
 31  17  19  1   
 32  18  20  1   
 33  19  21  2   
 34  19  37  1   
 35  20  21  1   
 36  21  22  1   
 37  22  23  1   
 38  22  24  1   
 39  22  25  1   
@<TRIPOS>SUBSTRUCTURE
  1 ****   9 GROUP 4 **** **** 0

# MOE 2024.06 (io_trps.svl 2023.06)
