@<TRIPOS>MOLECULE
NONAME
54 57 1 0 0 
SMALL
USER_CHARGES


@<TRIPOS>ATOM
  1 CL      -0.8020    -0.7540    -1.4090 Cl    1 <1>  -0.1230 
  2 C       -1.9020     0.0470    -0.3000 C.2   1 <1>   0.1230 
  3 C       -1.9970     1.4470    -0.1780 C.ar  1 <1>   0.0000 
  4 C       -2.7700    -0.5440     0.5510 C.2   1 <1>  -0.3320 
  5 C       -2.9670     1.6630     0.7990 C.ar  1 <1>  -0.1520 
  6 C       -1.3670     2.5380    -0.7860 C.ar  1 <1>  -0.1500 
  7 N       -3.4290     0.4430     1.2370 N.pl3 1 <1>   0.0330 
  8 C       -3.0100    -2.0230     0.7700 C.3   1 <1>   0.2900 
  9 C       -3.3190     2.9610     1.1800 C.ar  1 <1>  -0.1500 
 10 C       -1.7160     3.8140    -0.4090 C.ar  1 <1>  -0.1500 
 11 N       -3.9290    -2.5500    -0.2540 N.3   1 <1>  -0.8100 
 12 C       -2.6910     4.0250     0.5740 C.ar  1 <1>  -0.1500 
 13 C       -4.0270    -4.0360    -0.1970 C.3   1 <1>   0.3330 
 14 C       -5.2570    -1.9160    -0.2200 C.3   1 <1>   0.1100 
 15 C       -2.6470    -4.6190    -0.5160 C.ar  1 <1>  -0.1430 
 16 C       -5.1040    -4.6030    -1.1770 C.3   1 <1>   0.2000 
 17 C       -6.1650    -2.5080    -1.3010 C.3   1 <1>   0.1200 
 18 C       -2.0500    -5.5240     0.3510 C.ar  1 <1>  -0.1500 
 19 C       -1.9700    -4.2460    -1.6700 C.ar  1 <1>  -0.1500 
 20 O       -6.3060    -3.8790    -1.0950 O.3   1 <1>  -0.5600 
 21 C       -5.5030    -6.0700    -0.9260 C.3   1 <1>   0.1200 
 22 C       -0.8050    -6.0590     0.0690 C.ar  1 <1>   0.0830 
 23 C       -0.7190    -4.7670    -1.9550 C.ar  1 <1>  -0.1500 
 24 O       -4.4200    -6.9430    -0.9070 O.3   1 <1>  -0.6800 
 25 O       -0.3010    -6.9660     0.9400 O.3   1 <1>  -0.3630 
 26 C       -0.1240    -5.6650    -1.0870 C.ar  1 <1>   0.0830 
 27 C       -0.2630    -8.2970     0.4790 C.3   1 <1>   0.0400 
 28 O        1.1110    -6.1230    -1.4050 O.3   1 <1>  -0.3630 
 29 C        2.1590    -5.7430    -0.5410 C.3   1 <1>   0.0400 
 30 H       -0.6210     2.3570    -1.5380 H     1 <1>   0.1500 
 31 H       -4.1440     0.3110     1.9590 H     1 <1>   0.2700 
 32 H       -3.4030    -2.2040     1.7560 H     1 <1>   0.0800 
 33 H       -2.0570    -2.5190     0.6950 H     1 <1>   0.0800 
 34 H       -4.0680     3.1170     1.9350 H     1 <1>   0.1500 
 35 H       -1.2410     4.6640    -0.8660 H     1 <1>   0.1500 
 36 H       -2.9440     5.0340     0.8500 H     1 <1>   0.1500 
 37 H       -4.3110    -4.3270     0.8000 H     1 <1>   0.0800 
 38 H       -5.7140    -2.0530     0.7450 H     1 <1>   0.0800 
 39 H       -5.1600    -0.8610    -0.4090 H     1 <1>   0.0800 
 40 H       -4.7460    -4.5080    -2.1870 H     1 <1>   0.0800 
 41 H       -5.7520    -2.3390    -2.2810 H     1 <1>   0.0800 
 42 H       -7.1440    -2.0650    -1.2510 H     1 <1>   0.0800 
 43 H       -2.5520    -5.8360     1.2490 H     1 <1>   0.1500 
 44 H       -2.4130    -3.5300    -2.3430 H     1 <1>   0.1500 
 45 H       -6.1690    -6.3970    -1.7060 H     1 <1>   0.0800 
 46 H       -6.0030    -6.1600     0.0220 H     1 <1>   0.0800 
 47 H       -0.1970    -4.4690    -2.8460 H     1 <1>   0.1500 
 48 H       -3.7540    -6.7000    -1.5820 H     1 <1>   0.4000 
 49 H        0.0960    -8.9200     1.2780 H     1 <1>   0.0800 
 50 H        0.4010    -8.3610    -0.3640 H     1 <1>   0.0800 
 51 H       -1.2570    -8.5950     0.1960 H     1 <1>   0.0800 
 52 H        3.0880    -6.0610    -0.9790 H     1 <1>   0.0800 
 53 H        2.0240    -6.2160     0.4140 H     1 <1>   0.0800 
 54 H        2.1490    -4.6720    -0.4330 H     1 <1>   0.0800 
@<TRIPOS>BOND
  1   1   2  1   
  2   2   3  1   
  3   2   4  2   
  4   3   5  ar  
  5   3   6  ar  
  6   4   7  1   
  7   4   8  1   
  8   5   7  1   
  9   5   9  ar  
 10   6  10  ar  
 11   6  30  1   
 12   7  31  1   
 13   8  11  1   
 14   8  32  1   
 15   8  33  1   
 16   9  12  ar  
 17   9  34  1   
 18  10  12  ar  
 19  10  35  1   
 20  11  13  1   
 21  11  14  1   
 22  12  36  1   
 23  13  15  1   
 24  13  16  1   
 25  13  37  1   
 26  14  17  1   
 27  14  38  1   
 28  14  39  1   
 29  15  18  ar  
 30  15  19  ar  
 31  16  20  1   
 32  16  21  1   
 33  16  40  1   
 34  17  20  1   
 35  17  41  1   
 36  17  42  1   
 37  18  22  ar  
 38  18  43  1   
 39  19  23  ar  
 40  19  44  1   
 41  21  24  1   
 42  21  45  1   
 43  21  46  1   
 44  22  25  1   
 45  22  26  ar  
 46  23  26  ar  
 47  23  47  1   
 48  24  48  1   
 49  25  27  1   
 50  26  28  1   
 51  27  49  1   
 52  27  50  1   
 53  27  51  1   
 54  28  29  1   
 55  29  52  1   
 56  29  53  1   
 57  29  54  1   
@<TRIPOS>SUBSTRUCTURE
  1 ****   8 GROUP 4 **** **** 0

# MOE 2024.06 (io_trps.svl 2023.06)
