@<TRIPOS>MOLECULE
NONAME
52 54 1 0 0 
SMALL
USER_CHARGES


@<TRIPOS>ATOM
  1 O       -1.0090     0.3500    -1.0110 O.2   1 <1>  -0.5700 
  2 C       -1.7220     0.9450    -0.2270 C.2   1 <1>   0.5440 
  3 N       -2.7530     0.2590     0.3750 N.am  1 <1>  -0.6600 
  4 C       -1.4850     2.3410     0.0280 C.ar  1 <1>   0.0860 
  5 C       -2.7820    -1.2380     0.3880 C.3   1 <1>   0.1400 
  6 C       -4.1140     0.8520     0.5660 C.3   1 <1>   0.1400 
  7 C       -1.7110     2.9300     1.2600 C.ar  1 <1>   0.1600 
  8 C       -1.0070     3.1960    -0.9480 C.ar  1 <1>   0.1600 
  9 C       -3.8530    -1.7730    -0.5760 C.3   1 <1>   0.3440 
 10 C       -5.1330     0.2110    -0.4090 C.3   1 <1>   0.2000 
 11 N       -1.5280     4.2060     1.4950 N.ar  1 <1>  -0.6200 
 12 N       -0.8100     4.4770    -0.7490 N.ar  1 <1>  -0.6200 
 13 O       -5.0940    -1.1880    -0.2780 O.3   1 <1>  -0.5600 
 14 C       -3.9620    -3.2910    -0.4660 C.ar  1 <1>  -0.1430 
 15 C       -6.6020     0.7010    -0.2290 C.3   1 <1>   0.0000 
 16 C       -1.0840     4.9230     0.4720 C.ar  1 <1>   0.7200 
 17 C       -4.8210    -3.8950     0.4430 C.ar  1 <1>  -0.1500 
 18 C       -3.1750    -4.0920    -1.2820 C.ar  1 <1>  -0.1500 
 19 C       -6.6970     2.2290    -0.3980 C.3   1 <1>  -0.2400 
 20 C       -7.1750     0.3270     1.1510 C.3   1 <1>  -0.2400 
 21 C       -7.4910     0.0590    -1.3100 C.3   1 <1>  -0.2400 
 22 N       -0.9040     6.2310     0.7420 N.pl3 1 <1>  -0.8690 
 23 C       -4.8910    -5.2740     0.5360 C.ar  1 <1>  -0.1500 
 24 C       -3.2440    -5.4720    -1.1900 C.ar  1 <1>  -0.1500 
 25 C       -0.3500     7.2760    -0.1550 C.3   1 <1>   0.1290 
 26 C       -4.1020    -6.0640    -0.2800 C.ar  1 <1>  -0.1500 
 27 H       -1.8230    -1.6390     0.1100 H     1 <1>   0.0800 
 28 H       -3.0020    -1.5830     1.3830 H     1 <1>   0.0800 
 29 H       -4.4280     0.6860     1.5800 H     1 <1>   0.0800 
 30 H       -4.0830     1.9120     0.3930 H     1 <1>   0.0800 
 31 H       -2.0560     2.3150     2.0740 H     1 <1>   0.1500 
 32 H       -0.7870     2.7960    -1.9240 H     1 <1>   0.1500 
 33 H       -3.5940    -1.5080    -1.5870 H     1 <1>   0.0800 
 34 H       -4.8290     0.4470    -1.4150 H     1 <1>   0.0800 
 35 H       -5.4410    -3.2890     1.0810 H     1 <1>   0.1500 
 36 H       -2.5020    -3.6460    -1.9930 H     1 <1>   0.1500 
 37 H       -7.7260     2.5450    -0.3760 H     1 <1>   0.0800 
 38 H       -6.2740     2.5330    -1.3390 H     1 <1>   0.0800 
 39 H       -6.1840     2.7450     0.3930 H     1 <1>   0.0800 
 40 H       -8.2080     0.6210     1.2220 H     1 <1>   0.0800 
 41 H       -6.6380     0.8130     1.9440 H     1 <1>   0.0800 
 42 H       -7.1210    -0.7370     1.3040 H     1 <1>   0.0800 
 43 H       -8.5070     0.4030    -1.2270 H     1 <1>   0.0800 
 44 H       -7.4940    -1.0130    -1.2080 H     1 <1>   0.0800 
 45 H       -7.1290     0.3010    -2.2930 H     1 <1>   0.0800 
 46 H       -1.1000     6.4900     1.7080 H     1 <1>   0.4000 
 47 H       -5.5610    -5.7300     1.2430 H     1 <1>   0.1500 
 48 H       -2.6300    -6.0840    -1.8270 H     1 <1>   0.1500 
 49 H       -0.2080     6.8920    -1.1510 H     1 <1>   0.0800 
 50 H        0.5990     7.6130     0.2250 H     1 <1>   0.0800 
 51 H       -1.0290     8.1100    -0.2010 H     1 <1>   0.0800 
 52 H       -4.1560    -7.1360    -0.2090 H     1 <1>   0.1500 
@<TRIPOS>BOND
  1   1   2  2   
  2   2   3  am  
  3   2   4  1   
  4   3   5  1   
  5   3   6  1   
  6   4   7  ar  
  7   4   8  ar  
  8   5   9  1   
  9   5  27  1   
 10   5  28  1   
 11   6  10  1   
 12   6  29  1   
 13   6  30  1   
 14   7  11  ar  
 15   7  31  1   
 16   8  12  ar  
 17   8  32  1   
 18   9  13  1   
 19   9  14  1   
 20   9  33  1   
 21  10  13  1   
 22  10  15  1   
 23  10  34  1   
 24  11  16  ar  
 25  12  16  ar  
 26  14  17  ar  
 27  14  18  ar  
 28  15  19  1   
 29  15  20  1   
 30  15  21  1   
 31  16  22  1   
 32  17  23  ar  
 33  17  35  1   
 34  18  24  ar  
 35  18  36  1   
 36  19  37  1   
 37  19  38  1   
 38  19  39  1   
 39  20  40  1   
 40  20  41  1   
 41  20  42  1   
 42  21  43  1   
 43  21  44  1   
 44  21  45  1   
 45  22  25  1   
 46  22  46  1   
 47  23  26  ar  
 48  23  47  1   
 49  24  26  ar  
 50  24  48  1   
 51  25  49  1   
 52  25  50  1   
 53  25  51  1   
 54  26  52  1   
@<TRIPOS>SUBSTRUCTURE
  1 ****   3 GROUP 4 **** **** 0

# MOE 2024.06 (io_trps.svl 2023.06)
