@<TRIPOS>MOLECULE
NONAME
46 48 1 0 0 
SMALL
USER_CHARGES


@<TRIPOS>ATOM
  1 O       -4.2470     2.5430    -1.7150 O.2   1 <1>  -0.5700 
  2 C       -3.0910     2.3630    -1.4180 C.2   1 <1>   0.5690 
  3 N       -2.4140     1.2630    -1.8300 N.am  1 <1>  -0.7300 
  4 C       -2.3830     3.3870    -0.5470 C.3   1 <1>   0.0440 
  5 C       -2.9730     0.1480    -2.6250 C.3   1 <1>   0.2200 
  6 C       -1.1700     2.8000     0.1710 C.ar  1 <1>  -0.1440 
  7 C       -3.2350    -1.0700    -1.7510 C.3   1 <1>  -0.0800 
  8 C       -1.8880    -0.3950    -3.5450 C.3   1 <1>   0.1200 
  9 C        0.1040     2.9700    -0.3480 C.ar  1 <1>  -0.1500 
 10 C       -1.3350     2.0740     1.3400 C.ar  1 <1>  -0.1500 
 11 C       -1.8660    -1.7580    -1.6990 C.3   1 <1>   0.1200 
 12 C       -3.8500    -0.7860    -0.3670 C.3   1 <1>  -0.0160 
 13 O       -1.1020    -1.2210    -2.7400 O.3   1 <1>  -0.5600 
 14 C        1.1980     2.4170     0.2930 C.ar  1 <1>  -0.1500 
 15 C       -0.2400     1.5200     1.9800 C.ar  1 <1>  -0.1500 
 16 C       -4.1530    -2.0810     0.3700 C.ar  1 <1>  -0.1440 
 17 C        1.0340     1.6880     1.4600 C.ar  1 <1>  -0.1440 
 18 C       -5.3120    -2.7930     0.1390 C.ar  1 <1>  -0.1500 
 19 C       -3.2880    -2.6110     1.3070 C.ar  1 <1>  -0.1500 
 20 C        2.2410     1.0870     2.1610 C.3   1 <1>   0.2630 
 21 C       -5.5420    -3.9700     0.8310 C.ar  1 <1>   0.1600 
 22 C       -3.6130    -3.7970     1.9440 C.ar  1 <1>   0.1600 
 23 O        2.8040     0.1550     1.3120 O.3   1 <1>  -0.6800 
 24 N       -4.7190    -4.4910     1.7270 N.ar  1 <1>  -0.6200 
 25 H       -1.4540     1.1150    -1.5020 H     1 <1>   0.3700 
 26 H       -2.0850     4.2110    -1.1670 H     1 <1>   0.0800 
 27 H       -3.0830     3.7610     0.1780 H     1 <1>   0.0800 
 28 H       -3.8480     0.4700    -3.1670 H     1 <1>   0.0800 
 29 H       -3.9020    -1.7220    -2.2870 H     1 <1>   0.0800 
 30 H       -1.2800     0.3800    -3.9770 H     1 <1>   0.0800 
 31 H       -2.3170    -1.0030    -4.3230 H     1 <1>   0.0800 
 32 H        0.2540     3.5310    -1.2550 H     1 <1>   0.1500 
 33 H       -2.3180     1.9350     1.7560 H     1 <1>   0.1500 
 34 H       -1.9480    -2.8220    -1.8360 H     1 <1>   0.0800 
 35 H       -1.3500    -1.5470    -0.7790 H     1 <1>   0.0800 
 36 H       -4.7590    -0.2230    -0.4910 H     1 <1>   0.0800 
 37 H       -3.1800    -0.1900     0.2270 H     1 <1>   0.0800 
 38 H        2.1840     2.5530    -0.1200 H     1 <1>   0.1500 
 39 H       -0.3870     0.9600     2.8870 H     1 <1>   0.1500 
 40 H       -6.0380    -2.4440    -0.5720 H     1 <1>   0.1500 
 41 H       -2.3660    -2.1150     1.5480 H     1 <1>   0.1500 
 42 H        1.9570     0.5850     3.0690 H     1 <1>   0.0800 
 43 H        2.9810     1.8370     2.3810 H     1 <1>   0.0800 
 44 H       -6.4520    -4.5130     0.6370 H     1 <1>   0.1500 
 45 H       -2.9270    -4.1970     2.6700 H     1 <1>   0.1500 
 46 H        2.0970    -0.2350     0.7640 H     1 <1>   0.4000 
@<TRIPOS>BOND
  1   1   2  2   
  2   2   3  am  
  3   2   4  1   
  4   3   5  1   
  5   3  25  1   
  6   4   6  1   
  7   4  26  1   
  8   4  27  1   
  9   5   7  1   
 10   5   8  1   
 11   5  28  1   
 12   6   9  ar  
 13   6  10  ar  
 14   7  11  1   
 15   7  12  1   
 16   7  29  1   
 17   8  13  1   
 18   8  30  1   
 19   8  31  1   
 20   9  14  ar  
 21   9  32  1   
 22  10  15  ar  
 23  10  33  1   
 24  11  13  1   
 25  11  34  1   
 26  11  35  1   
 27  12  16  1   
 28  12  36  1   
 29  12  37  1   
 30  14  17  ar  
 31  14  38  1   
 32  15  17  ar  
 33  15  39  1   
 34  16  18  ar  
 35  16  19  ar  
 36  17  20  1   
 37  18  21  ar  
 38  18  40  1   
 39  19  22  ar  
 40  19  41  1   
 41  20  23  1   
 42  20  42  1   
 43  20  43  1   
 44  21  24  ar  
 45  21  44  1   
 46  22  24  ar  
 47  22  45  1   
 48  23  46  1   
@<TRIPOS>SUBSTRUCTURE
  1 ****  12 GROUP 4 **** **** 0

# MOE 2024.06 (io_trps.svl 2023.06)
