@<TRIPOS>MOLECULE
NONAME
55 57 1 0 0 
SMALL
USER_CHARGES


@<TRIPOS>ATOM
  1 O        0.4730     0.4540    -3.3750 O.2   1 <1>  -0.5700 
  2 C        0.2060    -0.3150    -2.4810 C.2   1 <1>   0.5690 
  3 N        0.7140    -0.2090    -1.2220 N.am  1 <1>  -0.4930 
  4 C       -0.7610    -1.4700    -2.7740 C.3   1 <1>   0.1710 
  5 C        1.6210     0.7270    -0.6680 C.2   1 <1>   0.0630 
  6 N       -1.1110    -2.3880    -1.6430 N.3   1 <1>  -0.8100 
  7 C        2.0840     0.7710     0.6490 C.2   1 <1>   0.1080 
  8 C        2.2320     1.7660    -1.2710 C.2   1 <1>  -0.3020 
  9 C       -0.0330    -3.2790    -1.1720 C.3   1 <1>   0.1100 
 10 C       -1.9980    -1.8300    -0.6050 C.3   1 <1>   0.1100 
 11 N        2.9120     1.7500     0.8480 N.2   1 <1>  -0.7070 
 12 C        1.6970    -0.1880     1.7530 C.3   1 <1>  -0.0590 
 13 N        3.0030     2.3670    -0.3430 N.pl3 1 <1>   0.3140 
 14 C       -0.5990    -4.5630    -0.5030 C.3   1 <1>   0.0000 
 15 C       -2.1460    -2.8020     0.5740 C.3   1 <1>  -0.1600 
 16 C        3.8470     3.5490    -0.5450 C.3   1 <1>   0.0160 
 17 C       -2.0150    -4.2450     0.0790 C.3   1 <1>   0.2000 
 18 C       -0.8100    -5.6710    -1.5660 C.3   1 <1>   0.1200 
 19 C        0.3780    -5.0360     0.6210 C.3   1 <1>  -0.0170 
 20 O       -2.3760    -5.0990     1.1100 O.3   1 <1>  -0.6800 
 21 O        0.3430    -5.9390    -2.2940 O.3   1 <1>  -0.6800 
 22 C        1.7990    -5.3830     0.1800 C.ar  1 <1>  -0.1430 
 23 C        2.7680    -4.4020     0.0310 C.ar  1 <1>  -0.1500 
 24 C        2.1390    -6.7070    -0.0610 C.ar  1 <1>  -0.1500 
 25 C        4.0480    -4.7350    -0.3780 C.ar  1 <1>  -0.1500 
 26 C        3.4180    -7.0430    -0.4690 C.ar  1 <1>  -0.1500 
 27 C        4.3730    -6.0560    -0.6310 C.ar  1 <1>  -0.1500 
 28 H        0.3680    -0.9290    -0.5920 H     1 <1>   0.3700 
 29 H       -0.3330    -2.0560    -3.5680 H     1 <1>   0.0800 
 30 H       -1.6690    -1.0420    -3.1600 H     1 <1>   0.0800 
 31 H        2.1560     2.0970    -2.2900 H     1 <1>   0.1500 
 32 H        0.6150    -3.5350    -1.9940 H     1 <1>   0.0800 
 33 H        0.5580    -2.7410    -0.4560 H     1 <1>   0.0800 
 34 H       -1.6370    -0.8800    -0.2500 H     1 <1>   0.0800 
 35 H       -2.9660    -1.6670    -1.0500 H     1 <1>   0.0800 
 36 H        0.6310    -0.3150     1.7740 H     1 <1>   0.0800 
 37 H        2.0180     0.2050     2.7010 H     1 <1>   0.0800 
 38 H        2.1740    -1.1360     1.5910 H     1 <1>   0.0800 
 39 H       -3.1110    -2.6500     1.0250 H     1 <1>   0.0800 
 40 H       -1.3910    -2.5890     1.3070 H     1 <1>   0.0800 
 41 H        4.4220     3.4230    -1.4420 H     1 <1>   0.0800 
 42 H        4.5060     3.6570     0.2960 H     1 <1>   0.0800 
 43 H        3.2200     4.4160    -0.6280 H     1 <1>   0.0800 
 44 H       -2.7510    -4.3830    -0.6970 H     1 <1>   0.0800 
 45 H       -1.5620    -5.3710    -2.2750 H     1 <1>   0.0800 
 46 H       -1.1280    -6.5870    -1.0960 H     1 <1>   0.0800 
 47 H        0.4390    -4.2770     1.3790 H     1 <1>   0.0800 
 48 H       -0.0270    -5.9120     1.0960 H     1 <1>   0.0800 
 49 H       -1.9090    -4.8600     1.9320 H     1 <1>   0.4000 
 50 H        1.1140    -6.0350    -1.6890 H     1 <1>   0.4000 
 51 H        2.5470    -3.3710     0.2320 H     1 <1>   0.1500 
 52 H        1.4090    -7.4910     0.0640 H     1 <1>   0.1500 
 53 H        4.7920    -3.9670    -0.4980 H     1 <1>   0.1500 
 54 H        3.6700    -8.0720    -0.6600 H     1 <1>   0.1500 
 55 H        5.3670    -6.3140    -0.9510 H     1 <1>   0.1500 
@<TRIPOS>BOND
  1   1   2  2   
  2   2   3  am  
  3   2   4  1   
  4   3   5  1   
  5   3  28  1   
  6   4   6  1   
  7   4  29  1   
  8   4  30  1   
  9   5   7  1   
 10   5   8  2   
 11   6   9  1   
 12   6  10  1   
 13   7  11  2   
 14   7  12  1   
 15   8  13  1   
 16   8  31  1   
 17   9  14  1   
 18   9  32  1   
 19   9  33  1   
 20  10  15  1   
 21  10  34  1   
 22  10  35  1   
 23  11  13  1   
 24  12  36  1   
 25  12  37  1   
 26  12  38  1   
 27  13  16  1   
 28  14  17  1   
 29  14  18  1   
 30  14  19  1   
 31  15  17  1   
 32  15  39  1   
 33  15  40  1   
 34  16  41  1   
 35  16  42  1   
 36  16  43  1   
 37  17  20  1   
 38  17  44  1   
 39  18  21  1   
 40  18  45  1   
 41  18  46  1   
 42  19  22  1   
 43  19  47  1   
 44  19  48  1   
 45  20  49  1   
 46  21  50  1   
 47  22  23  ar  
 48  22  24  ar  
 49  23  25  ar  
 50  23  51  1   
 51  24  26  ar  
 52  24  52  1   
 53  25  27  ar  
 54  25  53  1   
 55  26  27  ar  
 56  26  54  1   
 57  27  55  1   
@<TRIPOS>SUBSTRUCTURE
  1 ****   9 GROUP 4 **** **** 0

# MOE 2024.06 (io_trps.svl 2023.06)
