@<TRIPOS>MOLECULE
NONAME
46 49 1 0 0 
SMALL
USER_CHARGES


@<TRIPOS>ATOM
  1 S        0.4120    -0.3270    -2.4340 S.3   1 <1>  -0.0800 
  2 C        1.5540    -0.3350    -1.0900 C.ar  1 <1>   0.0400 
  3 C        0.0440    -2.0250    -2.1890 C.2   1 <1>  -0.1100 
  4 C        1.6150    -1.5980    -0.5170 C.ar  1 <1>   0.0000 
  5 C        2.2940     0.7450    -0.6470 C.ar  1 <1>  -0.1500 
  6 C        0.7360    -2.5600    -1.1540 C.2   1 <1>  -0.0860 
  7 C        2.4800    -1.7650     0.5640 C.ar  1 <1>  -0.1500 
  8 C        3.1430     0.5530     0.4270 C.ar  1 <1>  -0.1500 
  9 C        0.6390    -3.9310    -0.7000 C.2   1 <1>   0.7160 
 10 C        3.2330    -0.7000     1.0280 C.ar  1 <1>  -0.1500 
 11 O        1.6440    -4.5790    -0.4750 O.2   1 <1>  -0.5700 
 12 N       -0.5840    -4.5320    -0.5170 N.am  1 <1>  -0.6600 
 13 C       -1.8810    -3.8230    -0.4400 C.3   1 <1>   0.1400 
 14 C       -0.7270    -5.9370    -0.0800 C.3   1 <1>   0.1400 
 15 C       -2.7680    -4.7050     0.4480 C.3   1 <1>  -0.0800 
 16 C       -2.2110    -6.1290     0.2480 C.3   1 <1>  -0.0800 
 17 C       -4.3080    -4.5640     0.2390 C.3   1 <1>   0.2800 
 18 C       -2.9700    -6.8650    -0.8670 C.3   1 <1>  -0.1600 
 19 O       -4.5830    -4.1590    -1.0540 O.3   1 <1>  -0.6800 
 20 C       -4.9960    -5.9290     0.4230 C.3   1 <1>  -0.1600 
 21 C       -4.9460    -3.5200     1.1820 C.3   1 <1>  -0.1600 
 22 C       -4.4630    -7.0230    -0.5280 C.3   1 <1>  -0.1600 
 23 C       -4.4120    -2.0830     1.0460 C.3   1 <1>  -0.2400 
 24 H       -0.6700    -2.4700    -2.8590 H     1 <1>   0.1500 
 25 H        2.2060     1.7020    -1.1300 H     1 <1>   0.1500 
 26 H        2.5640    -2.7280     1.0370 H     1 <1>   0.1500 
 27 H        3.7370     1.3690     0.8010 H     1 <1>   0.1500 
 28 H        3.8980    -0.8410     1.8620 H     1 <1>   0.1500 
 29 H       -1.7620    -2.8380    -0.0240 H     1 <1>   0.0800 
 30 H       -2.2740    -3.7440    -1.4380 H     1 <1>   0.0800 
 31 H       -0.3960    -6.6050    -0.8560 H     1 <1>   0.0800 
 32 H       -0.1260    -6.0930     0.8000 H     1 <1>   0.0800 
 33 H       -2.5490    -4.4440     1.4670 H     1 <1>   0.0800 
 34 H       -2.3010    -6.7010     1.1550 H     1 <1>   0.0800 
 35 H       -2.8770    -6.2990    -1.7790 H     1 <1>   0.0800 
 36 H       -2.5350    -7.8340    -1.0410 H     1 <1>   0.0800 
 37 H       -5.5470    -4.1500    -1.1900 H     1 <1>   0.4000 
 38 H       -4.8220    -6.2510     1.4350 H     1 <1>   0.0800 
 39 H       -6.0610    -5.8360     0.3070 H     1 <1>   0.0800 
 40 H       -6.0090    -3.5060     1.0170 H     1 <1>   0.0800 
 41 H       -4.7970    -3.8390     2.1990 H     1 <1>   0.0800 
 42 H       -4.6300    -7.9850    -0.0730 H     1 <1>   0.0800 
 43 H       -5.0230    -7.0010    -1.4480 H     1 <1>   0.0800 
 44 H       -4.4890    -1.7410     0.0290 H     1 <1>   0.0800 
 45 H       -3.3850    -2.0240     1.3570 H     1 <1>   0.0800 
 46 H       -4.9860    -1.4210     1.6700 H     1 <1>   0.0800 
@<TRIPOS>BOND
  1   1   2  1   
  2   1   3  1   
  3   2   4  ar  
  4   2   5  ar  
  5   3   6  2   
  6   3  24  1   
  7   4   6  1   
  8   4   7  ar  
  9   5   8  ar  
 10   5  25  1   
 11   6   9  1   
 12   7  10  ar  
 13   7  26  1   
 14   8  10  ar  
 15   8  27  1   
 16   9  11  2   
 17   9  12  am  
 18  10  28  1   
 19  12  13  1   
 20  12  14  1   
 21  13  15  1   
 22  13  29  1   
 23  13  30  1   
 24  14  16  1   
 25  14  31  1   
 26  14  32  1   
 27  15  16  1   
 28  15  17  1   
 29  15  33  1   
 30  16  18  1   
 31  16  34  1   
 32  17  19  1   
 33  17  20  1   
 34  17  21  1   
 35  18  22  1   
 36  18  35  1   
 37  18  36  1   
 38  19  37  1   
 39  20  22  1   
 40  20  38  1   
 41  20  39  1   
 42  21  23  1   
 43  21  40  1   
 44  21  41  1   
 45  22  42  1   
 46  22  43  1   
 47  23  44  1   
 48  23  45  1   
 49  23  46  1   
@<TRIPOS>SUBSTRUCTURE
  1 ****  13 GROUP 4 **** **** 0

# MOE 2024.06 (io_trps.svl 2023.06)
