@<TRIPOS>MOLECULE
NONAME
41 43 1 0 0 
SMALL
USER_CHARGES


@<TRIPOS>ATOM
  1 O        1.4000    -0.0170     1.3720 O.3   1 <1>  -0.6800 
  2 C        1.6580    -0.0800     0.0030 C.3   1 <1>   0.2000 
  3 C        2.4020    -1.3770    -0.3440 C.3   1 <1>  -0.0800 
  4 C        2.6340     1.0400    -0.3860 C.3   1 <1>   0.2090 
  5 C        3.8780    -1.0310    -0.1450 C.3   1 <1>   0.2090 
  6 C        1.9610    -2.6380     0.4230 C.3   1 <1>  -0.0170 
  7 N        3.9770     0.4080    -0.4590 N.pl3 1 <1>  -0.8380 
  8 C        2.7070    -3.8690    -0.0670 C.ar  1 <1>  -0.1440 
  9 C        5.1390     1.1230    -0.2980 C.ar  1 <1>   0.7200 
 10 C        3.8480    -4.3300     0.5590 C.ar  1 <1>  -0.1500 
 11 C        2.2810    -4.5900    -1.1640 C.ar  1 <1>  -0.1500 
 12 N        6.2390     0.4290    -0.0130 N.ar  1 <1>  -0.6200 
 13 N        5.0570     2.4440    -0.4530 N.ar  1 <1>  -0.6200 
 14 C        4.4900    -5.4560     0.0710 C.ar  1 <1>   0.1600 
 15 C        2.9960    -5.7050    -1.5700 C.ar  1 <1>   0.1600 
 16 C        7.3400     1.1210     0.1300 C.ar  1 <1>   0.1670 
 17 C        6.1700     3.1140    -0.3040 C.ar  1 <1>   0.1670 
 18 N        4.0900    -6.1560    -0.9780 N.ar  1 <1>  -0.6200 
 19 C        7.3580     2.4890    -0.0080 C.ar  1 <1>  -0.1500 
 20 C        8.5990     0.3460     0.4530 C.3   1 <1>  -0.0970 
 21 C        6.0930     4.6160    -0.4750 C.3   1 <1>  -0.0970 
 22 H        0.7530    -0.6970     1.6330 H     1 <1>   0.4000 
 23 H        0.7220     0.0160    -0.5180 H     1 <1>   0.0800 
 24 H        2.2670    -1.5540    -1.3960 H     1 <1>   0.0800 
 25 H        2.6160     1.8410     0.3340 H     1 <1>   0.0800 
 26 H        2.3880     1.4260    -1.3590 H     1 <1>   0.0800 
 27 H        4.5140    -1.6080    -0.7950 H     1 <1>   0.0800 
 28 H        4.1710    -1.1840     0.8800 H     1 <1>   0.0800 
 29 H        0.9050    -2.7890     0.2890 H     1 <1>   0.0800 
 30 H        2.1440    -2.5130     1.4770 H     1 <1>   0.0800 
 31 H        4.2460    -3.8240     1.4200 H     1 <1>   0.1500 
 32 H        1.4030    -4.2970    -1.7080 H     1 <1>   0.1500 
 33 H        5.3800    -5.7980     0.5710 H     1 <1>   0.1500 
 34 H        2.6500    -6.2550    -2.4280 H     1 <1>   0.1500 
 35 H        8.2660     3.0470     0.1110 H     1 <1>   0.1500 
 36 H        9.4440     1.0020     0.5500 H     1 <1>   0.0800 
 37 H        8.7940    -0.3620    -0.3310 H     1 <1>   0.0800 
 38 H        8.4630    -0.1870     1.3760 H     1 <1>   0.0800 
 39 H        7.0550     5.0720    -0.3360 H     1 <1>   0.0800 
 40 H        5.4060     5.0230     0.2440 H     1 <1>   0.0800 
 41 H        5.7360     4.8460    -1.4620 H     1 <1>   0.0800 
@<TRIPOS>BOND
  1   1   2  1   
  2   1  22  1   
  3   2   3  1   
  4   2   4  1   
  5   2  23  1   
  6   3   5  1   
  7   3   6  1   
  8   3  24  1   
  9   4   7  1   
 10   4  25  1   
 11   4  26  1   
 12   5   7  1   
 13   5  27  1   
 14   5  28  1   
 15   6   8  1   
 16   6  29  1   
 17   6  30  1   
 18   7   9  1   
 19   8  10  ar  
 20   8  11  ar  
 21   9  12  ar  
 22   9  13  ar  
 23  10  14  ar  
 24  10  31  1   
 25  11  15  ar  
 26  11  32  1   
 27  12  16  ar  
 28  13  17  ar  
 29  14  18  ar  
 30  14  33  1   
 31  15  18  ar  
 32  15  34  1   
 33  16  19  ar  
 34  16  20  1   
 35  17  19  ar  
 36  17  21  1   
 37  19  35  1   
 38  20  36  1   
 39  20  37  1   
 40  20  38  1   
 41  21  39  1   
 42  21  40  1   
 43  21  41  1   
@<TRIPOS>SUBSTRUCTURE
  1 ****   5 GROUP 4 **** **** 0

# MOE 2024.06 (io_trps.svl 2023.06)
