@<TRIPOS>MOLECULE
NONAME
61 64 1 0 0 
SMALL
USER_CHARGES


@<TRIPOS>ATOM
  1 S        0.6620     0.5610     0.1310 S.3   1 <1>  -0.0800 
  2 C       -0.1740    -0.9870     0.1750 C.2   1 <1>  -0.1400 
  3 C        1.8930    -0.0760    -0.9510 C.2   1 <1>  -0.1400 
  4 C        0.4770    -1.8880    -0.5860 C.2   1 <1>  -0.1500 
  5 C       -1.4280    -1.1010     1.0240 C.3   1 <1>   0.5230 
  6 C        1.6460    -1.3700    -1.2290 C.2   1 <1>  -0.1500 
  7 C        2.9970     0.8670    -1.3950 C.3   1 <1>   0.5230 
  8 N       -2.6210    -0.8430     0.1790 N.4   1 <1>  -0.9590 
  9 N        3.8030     1.2620    -0.2110 N.4   1 <1>  -0.9590 
 10 C       -3.8630    -1.3260     0.8640 C.3   1 <1>   0.3430 
 11 C       -2.7460     0.5910    -0.2110 C.3   1 <1>   0.3430 
 12 C        4.7180     2.3960    -0.5280 C.3   1 <1>   0.3430 
 13 C        4.5380     0.0980     0.3690 C.3   1 <1>   0.3430 
 14 C       -5.1050    -1.1980    -0.0440 C.3   1 <1>   0.0000 
 15 C       -3.9400     0.7760    -1.1510 C.3   1 <1>  -0.1600 
 16 C        5.4140     2.8660     0.7510 C.3   1 <1>  -0.1600 
 17 C        5.2310     0.5220     1.6650 C.3   1 <1>  -0.1600 
 18 C       -6.3480    -1.6630     0.7310 C.3   1 <1>   0.2000 
 19 C       -5.2460     0.2600    -0.5260 C.3   1 <1>  -0.1600 
 20 C       -5.0410    -2.2020    -1.2080 C.3   1 <1>  -0.1600 
 21 C        6.1630     1.7210     1.4450 C.3   1 <1>  -0.1600 
 22 O       -6.2260    -1.3150     2.0770 O.3   1 <1>  -0.5600 
 23 C       -6.4100    -3.1870     0.5620 C.3   1 <1>  -0.1600 
 24 C       -5.4760    -3.5380    -0.6040 C.3   1 <1>  -0.1600 
 25 C       -7.4170    -1.3650     2.8020 C.3   1 <1>   0.0400 
 26 H        0.1930    -2.9180    -0.7340 H     1 <1>   0.1500 
 27 H       -1.3880    -0.4110     1.8510 H     1 <1>   0.0800 
 28 H       -1.4820    -2.1020     1.4210 H     1 <1>   0.0800 
 29 H        2.2370    -2.0070    -1.8680 H     1 <1>   0.1500 
 30 H        2.5540     1.7380    -1.8510 H     1 <1>   0.0800 
 31 H        3.6240     0.3810    -2.1250 H     1 <1>   0.0800 
 32 H       -2.5110    -1.3880    -0.6830 H     1 <1>   0.4500 
 33 H        3.1420     1.5830     0.5050 H     1 <1>   0.4500 
 34 H       -3.7520    -2.3570     1.1580 H     1 <1>   0.0800 
 35 H       -4.0280    -0.7450     1.7580 H     1 <1>   0.0800 
 36 H       -2.8880     1.1980     0.6690 H     1 <1>   0.0800 
 37 H       -1.8500     0.9200    -0.7110 H     1 <1>   0.0800 
 38 H        5.4610     2.0800    -1.2430 H     1 <1>   0.0800 
 39 H        4.1620     3.2170    -0.9530 H     1 <1>   0.0800 
 40 H        3.8530    -0.7090     0.5800 H     1 <1>   0.0800 
 41 H        5.2750    -0.2580    -0.3320 H     1 <1>   0.0800 
 42 H       -4.0470     1.8230    -1.3760 H     1 <1>   0.0800 
 43 H       -3.7470     0.2700    -2.0810 H     1 <1>   0.0800 
 44 H        6.1110     3.6480     0.5050 H     1 <1>   0.0800 
 45 H        4.6850     3.2870     1.4220 H     1 <1>   0.0800 
 46 H        4.4880     0.7660     2.4050 H     1 <1>   0.0800 
 47 H        5.8020    -0.3070     2.0460 H     1 <1>   0.0800 
 48 H       -7.2320    -1.2040     0.3180 H     1 <1>   0.0800 
 49 H       -6.0490     0.3440    -1.2390 H     1 <1>   0.0800 
 50 H       -5.5000     0.8830     0.3160 H     1 <1>   0.0800 
 51 H       -5.7590    -1.9230    -1.9620 H     1 <1>   0.0800 
 52 H       -4.0760    -2.2710    -1.6750 H     1 <1>   0.0800 
 53 H        6.5540     2.0590     2.3910 H     1 <1>   0.0800 
 54 H        7.0000     1.4180     0.8370 H     1 <1>   0.0800 
 55 H       -6.0890    -3.6920     1.4560 H     1 <1>   0.0800 
 56 H       -7.4190    -3.4840     0.3320 H     1 <1>   0.0800 
 57 H       -4.6200    -4.0740    -0.2310 H     1 <1>   0.0800 
 58 H       -5.9720    -4.1540    -1.3350 H     1 <1>   0.0800 
 59 H       -7.2050    -1.0780     3.8170 H     1 <1>   0.0800 
 60 H       -7.8090    -2.3670     2.7870 H     1 <1>   0.0800 
 61 H       -8.1250    -0.6760     2.3750 H     1 <1>   0.0800 
@<TRIPOS>BOND
  1   1   2  1   
  2   1   3  1   
  3   2   4  2   
  4   2   5  1   
  5   3   6  2   
  6   3   7  1   
  7   4   6  1   
  8   4  26  1   
  9   5   8  1   
 10   5  27  1   
 11   5  28  1   
 12   6  29  1   
 13   7   9  1   
 14   7  30  1   
 15   7  31  1   
 16   8  10  1   
 17   8  11  1   
 18   8  32  1   
 19   9  12  1   
 20   9  13  1   
 21   9  33  1   
 22  10  14  1   
 23  10  34  1   
 24  10  35  1   
 25  11  15  1   
 26  11  36  1   
 27  11  37  1   
 28  12  16  1   
 29  12  38  1   
 30  12  39  1   
 31  13  17  1   
 32  13  40  1   
 33  13  41  1   
 34  14  18  1   
 35  14  19  1   
 36  14  20  1   
 37  15  19  1   
 38  15  42  1   
 39  15  43  1   
 40  16  21  1   
 41  16  44  1   
 42  16  45  1   
 43  17  21  1   
 44  17  46  1   
 45  17  47  1   
 46  18  22  1   
 47  18  23  1   
 48  18  48  1   
 49  19  49  1   
 50  19  50  1   
 51  20  24  1   
 52  20  51  1   
 53  20  52  1   
 54  21  53  1   
 55  21  54  1   
 56  22  25  1   
 57  23  24  1   
 58  23  55  1   
 59  23  56  1   
 60  24  57  1   
 61  24  58  1   
 62  25  59  1   
 63  25  60  1   
 64  25  61  1   
@<TRIPOS>SUBSTRUCTURE
  1 ****   2 GROUP 4 **** **** 0

# MOE 2024.06 (io_trps.svl 2023.06)
