@<TRIPOS>MOLECULE
NONAME
50 52 1 0 0 
SMALL
USER_CHARGES


@<TRIPOS>ATOM
  1 O       -0.4220     0.2300     0.8830 O.2   1 <1>  -0.5700 
  2 C       -1.4180     0.8130     0.4950 C.2   1 <1>   0.7150 
  3 N       -2.5070     0.0650     0.1140 N.am  1 <1>  -0.6600 
  4 C       -1.4370     2.2460     0.4250 C.2   1 <1>  -0.2370 
  5 C       -3.6200     0.5650    -0.7300 C.3   1 <1>   0.1400 
  6 C       -2.5030    -1.4180     0.1490 C.3   1 <1>   0.1400 
  7 N       -0.3720     3.0120     0.0620 N.pl3 1 <1>   0.3140 
  8 C       -2.4380     3.1300     0.6940 C.2   1 <1>  -0.1500 
  9 C       -4.2300    -0.6870    -1.3600 C.3   1 <1>   0.2000 
 10 C       -3.8570    -1.8370    -0.4280 C.3   1 <1>  -0.0800 
 11 N       -0.6720     4.3250     0.0820 N.2   1 <1>  -0.7070 
 12 C        0.9850     2.5140    -0.3030 C.3   1 <1>   0.0960 
 13 C       -1.9110     4.3870     0.4620 C.2   1 <1>   0.1080 
 14 O       -5.6090    -0.5890    -1.4630 O.3   1 <1>  -0.6800 
 15 C       -3.8460    -3.1990    -1.1450 C.3   1 <1>  -0.0170 
 16 C        1.8050     3.5130    -1.1370 C.3   1 <1>  -0.2400 
 17 C       -2.6540     5.7070     0.6240 C.3   1 <1>   0.1010 
 18 C       -3.5420    -4.3410    -0.1890 C.ar  1 <1>   0.1670 
 19 C       -3.1200     5.8990     2.0720 C.3   1 <1>  -0.2400 
 20 C       -3.8420     5.7870    -0.3420 C.3   1 <1>  -0.2400 
 21 N       -2.2670    -4.5470     0.1000 N.ar  1 <1>  -0.6200 
 22 C       -4.5830    -5.1070     0.3340 C.ar  1 <1>   0.1600 
 23 C       -2.1050    -5.5580     0.9380 C.ar  1 <1>   0.1600 
 24 N       -4.4230    -6.1160     1.1740 N.ar  1 <1>  -0.6200 
 25 C       -3.1470    -6.3160     1.4580 C.ar  1 <1>   0.1600 
 26 H       -4.3390     1.0640    -0.1060 H     1 <1>   0.0800 
 27 H       -3.2530     1.2360    -1.4880 H     1 <1>   0.0800 
 28 H       -1.6940    -1.7830    -0.4620 H     1 <1>   0.0800 
 29 H       -2.3710    -1.7780     1.1560 H     1 <1>   0.0800 
 30 H       -3.4370     2.9220     1.0290 H     1 <1>   0.1500 
 31 H       -3.8230    -0.8330    -2.3470 H     1 <1>   0.0800 
 32 H       -4.5530    -1.8720     0.3930 H     1 <1>   0.0800 
 33 H        1.5080     2.2830     0.6070 H     1 <1>   0.0800 
 34 H        0.8720     1.6050    -0.8650 H     1 <1>   0.0800 
 35 H       -6.0100    -0.4580    -0.5830 H     1 <1>   0.4000 
 36 H       -3.1100    -3.1950    -1.9310 H     1 <1>   0.0800 
 37 H       -4.8050    -3.3630    -1.6040 H     1 <1>   0.0800 
 38 H        1.9830     4.4100    -0.5700 H     1 <1>   0.0800 
 39 H        1.2770     3.7640    -2.0400 H     1 <1>   0.0800 
 40 H        2.7530     3.0800    -1.3980 H     1 <1>   0.0800 
 41 H       -1.9670     6.5010     0.3820 H     1 <1>   0.0800 
 42 H       -3.8250     5.1370     2.3490 H     1 <1>   0.0800 
 43 H       -3.5820     6.8630     2.1900 H     1 <1>   0.0800 
 44 H       -2.2730     5.8420     2.7330 H     1 <1>   0.0800 
 45 H       -4.5630     5.0210    -0.1220 H     1 <1>   0.0800 
 46 H       -3.4950     5.6550    -1.3520 H     1 <1>   0.0800 
 47 H       -4.3190     6.7470    -0.2670 H     1 <1>   0.0800 
 48 H       -5.5930    -4.8740     0.0470 H     1 <1>   0.1500 
 49 H       -1.0970    -5.7980     1.2290 H     1 <1>   0.1500 
 50 H       -2.9140    -7.1190     2.1340 H     1 <1>   0.1500 
@<TRIPOS>BOND
  1   1   2  2   
  2   2   3  am  
  3   2   4  1   
  4   3   5  1   
  5   3   6  1   
  6   4   7  1   
  7   4   8  2   
  8   5   9  1   
  9   5  26  1   
 10   5  27  1   
 11   6  10  1   
 12   6  28  1   
 13   6  29  1   
 14   7  11  1   
 15   7  12  1   
 16   8  13  1   
 17   8  30  1   
 18   9  10  1   
 19   9  14  1   
 20   9  31  1   
 21  10  15  1   
 22  10  32  1   
 23  11  13  2   
 24  12  16  1   
 25  12  33  1   
 26  12  34  1   
 27  13  17  1   
 28  14  35  1   
 29  15  18  1   
 30  15  36  1   
 31  15  37  1   
 32  16  38  1   
 33  16  39  1   
 34  16  40  1   
 35  17  19  1   
 36  17  20  1   
 37  17  41  1   
 38  18  21  ar  
 39  18  22  ar  
 40  19  42  1   
 41  19  43  1   
 42  19  44  1   
 43  20  45  1   
 44  20  46  1   
 45  20  47  1   
 46  21  23  ar  
 47  22  24  ar  
 48  22  48  1   
 49  23  25  ar  
 50  23  49  1   
 51  24  25  ar  
 52  25  50  1   
@<TRIPOS>SUBSTRUCTURE
  1 ****   3 GROUP 4 **** **** 0

# MOE 2024.06 (io_trps.svl 2023.06)
