@<TRIPOS>MOLECULE
NONAME
45 48 1 0 0 
SMALL
USER_CHARGES


@<TRIPOS>ATOM
  1 O        0.5860    -0.0300    -0.9990 O.2   1 <1>  -0.5700 
  2 C        1.3420    -0.6500    -0.2800 C.2   1 <1>   0.7160 
  3 N        2.2530     0.0120     0.5070 N.am  1 <1>  -0.4940 
  4 C        1.3060    -2.0810    -0.2420 C.2   1 <1>  -0.0860 
  5 C        2.4580     1.4060     0.6490 C.2   1 <1>  -0.0880 
  6 C        0.2680    -2.9640    -0.2870 C.2   1 <1>   0.0870 
  7 C        2.4220    -2.9150    -0.1650 C.2   1 <1>   0.1390 
  8 N        3.6700     2.0270     0.5860 N.pl3 1 <1>   0.3140 
  9 C        1.5430     2.3800     0.8790 C.2   1 <1>  -0.1810 
 10 O        0.7950    -4.1620    -0.2280 O.3   1 <1>  -0.0190 
 11 C       -1.1670    -2.8150    -0.3640 C.ar  1 <1>   0.0530 
 12 N        2.0910    -4.1500    -0.1510 N.2   1 <1>  -0.4100 
 13 N        3.5470     3.3630     0.7860 N.2   1 <1>  -0.7070 
 14 C        4.9810     1.3800     0.2910 C.3   1 <1>   0.1760 
 15 C        2.2770     3.5570     0.9510 C.2   1 <1>   0.1390 
 16 C        0.0370     2.2740     1.0370 C.3   1 <1>  -0.0590 
 17 C       -1.8270    -1.6920     0.1370 C.ar  1 <1>  -0.1500 
 18 C       -1.9540    -3.8120    -0.9430 C.ar  1 <1>  -0.1500 
 19 C        5.9930     1.5200     1.4300 C.3   1 <1>  -0.1600 
 20 C        5.7020     1.9850    -0.9140 C.3   1 <1>  -0.1600 
 21 C       -3.2020    -1.5670     0.0600 C.ar  1 <1>  -0.1500 
 22 C       -3.3300    -3.6950    -1.0210 C.ar  1 <1>  -0.1500 
 23 C        7.3660     1.3460     0.7720 C.3   1 <1>  -0.1600 
 24 C        7.1660     1.5800    -0.7320 C.3   1 <1>  -0.1600 
 25 C       -3.9580    -2.5690    -0.5200 C.ar  1 <1>  -0.1500 
 26 H        2.7880    -0.5780     1.1410 H     1 <1>   0.3700 
 27 H        3.4440    -2.5780    -0.1310 H     1 <1>   0.1500 
 28 H        4.8220     0.3360     0.0970 H     1 <1>   0.0800 
 29 H        1.8490     4.5300     1.1240 H     1 <1>   0.1500 
 30 H       -0.2330     1.2960     1.3900 H     1 <1>   0.0800 
 31 H       -0.4370     2.4410     0.0860 H     1 <1>   0.0800 
 32 H       -0.3160     3.0040     1.7410 H     1 <1>   0.0800 
 33 H       -1.2640    -0.9010     0.5950 H     1 <1>   0.1500 
 34 H       -1.4820    -4.6930    -1.3400 H     1 <1>   0.1500 
 35 H        5.8260     0.7950     2.2070 H     1 <1>   0.0800 
 36 H        5.9300     2.5120     1.8460 H     1 <1>   0.0800 
 37 H        5.6300     3.0590    -0.8800 H     1 <1>   0.0800 
 38 H        5.2970     1.6280    -1.8450 H     1 <1>   0.0800 
 39 H       -3.6860    -0.6880     0.4500 H     1 <1>   0.1500 
 40 H       -3.9120    -4.4780    -1.4740 H     1 <1>   0.1500 
 41 H        7.7390     0.3500     0.9400 H     1 <1>   0.0800 
 42 H        8.0700     2.0510     1.1820 H     1 <1>   0.0800 
 43 H        7.8260     2.3450    -1.1030 H     1 <1>   0.0800 
 44 H        7.3610     0.6660    -1.2670 H     1 <1>   0.0800 
 45 H       -5.0280    -2.4740    -0.5820 H     1 <1>   0.1500 
@<TRIPOS>BOND
  1   1   2  2   
  2   2   3  am  
  3   2   4  1   
  4   3   5  1   
  5   3  26  1   
  6   4   6  2   
  7   4   7  1   
  8   5   8  1   
  9   5   9  2   
 10   6  10  1   
 11   6  11  1   
 12   7  12  2   
 13   7  27  1   
 14   8  13  1   
 15   8  14  1   
 16   9  15  1   
 17   9  16  1   
 18  10  12  1   
 19  11  17  ar  
 20  11  18  ar  
 21  13  15  2   
 22  14  19  1   
 23  14  20  1   
 24  14  28  1   
 25  15  29  1   
 26  16  30  1   
 27  16  31  1   
 28  16  32  1   
 29  17  21  ar  
 30  17  33  1   
 31  18  22  ar  
 32  18  34  1   
 33  19  23  1   
 34  19  35  1   
 35  19  36  1   
 36  20  24  1   
 37  20  37  1   
 38  20  38  1   
 39  21  25  ar  
 40  21  39  1   
 41  22  25  ar  
 42  22  40  1   
 43  23  24  1   
 44  23  41  1   
 45  23  42  1   
 46  24  43  1   
 47  24  44  1   
 48  25  45  1   
@<TRIPOS>SUBSTRUCTURE
  1 ****   2 GROUP 4 **** **** 0

# MOE 2024.06 (io_trps.svl 2023.06)
