@<TRIPOS>MOLECULE
NONAME
35 36 1 0 0 
SMALL
USER_CHARGES


@<TRIPOS>ATOM
  1 F        0.7150     0.8880    -1.5090 F     1 <1>  -0.1900 
  2 C        1.8220     1.4200    -1.0380 C.ar  1 <1>   0.1900 
  3 C        1.8600     2.7200    -0.5750 C.ar  1 <1>   0.3920 
  4 C        2.9710     0.6790    -1.0000 C.ar  1 <1>   0.1600 
  5 O        0.7420     3.4790    -0.6030 O.3   1 <1>  -0.3630 
  6 N        2.9770     3.2390    -0.1050 N.ar  1 <1>  -0.6200 
  7 N        4.0950     1.1840    -0.5340 N.ar  1 <1>  -0.6200 
  8 C        0.7530     4.8120    -0.1250 C.3   1 <1>   0.0400 
  9 C        4.0470     2.4470    -0.1010 C.ar  1 <1>   0.7200 
 10 N        5.2210     2.9980     0.3800 N.pl3 1 <1>  -0.8380 
 11 C        5.2980     4.4380     0.7880 C.3   1 <1>   0.2090 
 12 C        6.3990     2.1620     0.7420 C.3   1 <1>   0.2090 
 13 C        5.3390     5.3360    -0.4470 C.3   1 <1>   0.0960 
 14 C        7.4750     2.3290    -0.3250 C.3   1 <1>  -0.2400 
 15 N        5.6210     6.7220    -0.0450 N.pl3 1 <1>   0.3140 
 16 N        4.8070     7.4120     0.7760 N.2   1 <1>  -0.7070 
 17 C        6.6860     7.4640    -0.4100 C.2   1 <1>  -0.3020 
 18 C        5.3720     8.5730     0.9090 C.2   1 <1>   0.1390 
 19 C        6.5560     8.6670     0.1880 C.2   1 <1>  -0.1500 
 20 H        2.9690    -0.3360    -1.3560 H     1 <1>   0.1500 
 21 H       -0.2340     5.2210    -0.2380 H     1 <1>   0.0800 
 22 H        1.4590     5.3840    -0.7020 H     1 <1>   0.0800 
 23 H        1.0360     4.8080     0.9130 H     1 <1>   0.0800 
 24 H        6.1850     4.6020     1.3760 H     1 <1>   0.0800 
 25 H        4.4460     4.6930     1.3950 H     1 <1>   0.0800 
 26 H        6.1250     1.1240     0.8210 H     1 <1>   0.0800 
 27 H        6.7790     2.4650     1.7030 H     1 <1>   0.0800 
 28 H        4.3910     5.3180    -0.9500 H     1 <1>   0.0800 
 29 H        6.1070     5.0050    -1.1180 H     1 <1>   0.0800 
 30 H        7.0840     2.0400    -1.2840 H     1 <1>   0.0800 
 31 H        8.3120     1.6960    -0.0930 H     1 <1>   0.0800 
 32 H        7.8160     3.3460    -0.3640 H     1 <1>   0.0800 
 33 H        7.4610     7.1050    -1.0630 H     1 <1>   0.1500 
 34 H        4.9610     9.3660     1.5120 H     1 <1>   0.1500 
 35 H        7.2030     9.5240     0.1390 H     1 <1>   0.1500 
@<TRIPOS>BOND
  1   1   2  1   
  2   2   3  ar  
  3   2   4  ar  
  4   3   5  1   
  5   3   6  ar  
  6   4   7  ar  
  7   4  20  1   
  8   5   8  1   
  9   6   9  ar  
 10   7   9  ar  
 11   8  21  1   
 12   8  22  1   
 13   8  23  1   
 14   9  10  1   
 15  10  11  1   
 16  10  12  1   
 17  11  13  1   
 18  11  24  1   
 19  11  25  1   
 20  12  14  1   
 21  12  26  1   
 22  12  27  1   
 23  13  15  1   
 24  13  28  1   
 25  13  29  1   
 26  14  30  1   
 27  14  31  1   
 28  14  32  1   
 29  15  16  1   
 30  15  17  1   
 31  16  18  2   
 32  17  19  2   
 33  17  33  1   
 34  18  19  1   
 35  18  34  1   
 36  19  35  1   
@<TRIPOS>SUBSTRUCTURE
  1 ****   6 GROUP 4 **** **** 0

# MOE 2024.06 (io_trps.svl 2023.06)
