@<TRIPOS>MOLECULE
NONAME
48 51 1 0 0 
SMALL
USER_CHARGES


@<TRIPOS>ATOM
  1 S       -0.4220    -0.3870     1.1220 S.3   1 <1>  -0.4600 
  2 C       -1.4250    -0.7480    -0.3590 C.3   1 <1>   0.2510 
  3 C        0.9040     0.6730     0.4870 C.3   1 <1>  -0.0100 
  4 C       -2.5660    -1.6950    -0.0170 C.2   1 <1>   0.3350 
  5 N       -3.7770    -1.3400     0.1630 N.2   1 <1>  -0.4100 
  6 N       -2.3760    -3.0030     0.1020 N.2   1 <1>  -0.5650 
  7 O       -4.4550    -2.4160     0.4220 O.3   1 <1>  -0.0190 
  8 C       -3.5660    -3.3770     0.3670 C.2   1 <1>   0.2980 
  9 C       -4.0030    -4.8110     0.6560 C.3   1 <1>   0.2900 
 10 N       -4.8180    -5.4340    -0.4230 N.3   1 <1>  -0.8100 
 11 C       -6.2030    -4.9400    -0.4980 C.3   1 <1>   0.1100 
 12 C       -4.9500    -6.8810    -0.2400 C.3   1 <1>   0.1100 
 13 C       -7.0630    -5.8760     0.3600 C.3   1 <1>   0.2000 
 14 C       -6.1760    -7.0900     0.6570 C.3   1 <1>  -0.0800 
 15 O       -7.4110    -5.2600     1.5520 O.3   1 <1>  -0.6800 
 16 C       -6.9010    -8.4210     0.3830 C.3   1 <1>  -0.0170 
 17 C       -6.0620    -9.6920     0.5830 C.ar  1 <1>  -0.1440 
 18 C       -6.4130   -10.9010    -0.0700 C.ar  1 <1>   0.0000 
 19 C       -4.9620    -9.7250     1.3940 C.ar  1 <1>  -0.1500 
 20 C       -5.5710   -12.0260     0.1200 C.ar  1 <1>   0.3100 
 21 C       -7.5530   -11.0710    -0.8910 C.ar  1 <1>  -0.1500 
 22 C       -4.2080   -10.8970     1.5250 C.ar  1 <1>   0.1600 
 23 N       -4.4750   -12.0060     0.9170 N.ar  1 <1>  -0.6200 
 24 C       -5.8770   -13.2290    -0.5360 C.ar  1 <1>  -0.1500 
 25 C       -7.8270   -12.2590    -1.5120 C.ar  1 <1>  -0.1500 
 26 C       -6.9770   -13.3530    -1.3390 C.ar  1 <1>  -0.1500 
 27 H       -1.8080     0.1880    -0.7200 H     1 <1>   0.0800 
 28 H       -0.7760    -1.1930    -1.0900 H     1 <1>   0.0800 
 29 H        1.5400     0.9300     1.3160 H     1 <1>   0.0800 
 30 H        0.4540     1.5530     0.0630 H     1 <1>   0.0800 
 31 H        1.4490     0.1170    -0.2540 H     1 <1>   0.0800 
 32 H       -4.5370    -4.8340     1.5880 H     1 <1>   0.0800 
 33 H       -3.1040    -5.3870     0.7800 H     1 <1>   0.0800 
 34 H       -6.3040    -3.9110    -0.2050 H     1 <1>   0.0800 
 35 H       -6.5260    -5.0280    -1.5210 H     1 <1>   0.0800 
 36 H       -5.1260    -7.3270    -1.2060 H     1 <1>   0.0800 
 37 H       -4.0570    -7.3200     0.1720 H     1 <1>   0.0800 
 38 H       -7.9720    -6.1350    -0.1550 H     1 <1>   0.0800 
 39 H       -5.8610    -7.0580     1.6840 H     1 <1>   0.0800 
 40 H       -6.6250    -4.8620     1.9680 H     1 <1>   0.4000 
 41 H       -7.2390    -8.3840    -0.6360 H     1 <1>   0.0800 
 42 H       -7.7700    -8.4840     1.0150 H     1 <1>   0.0800 
 43 H       -4.6310    -8.8750     1.9580 H     1 <1>   0.1500 
 44 H       -8.2350   -10.2550    -1.0340 H     1 <1>   0.1500 
 45 H       -3.3470   -10.8710     2.1720 H     1 <1>   0.1500 
 46 H       -5.2100   -14.0580    -0.3820 H     1 <1>   0.1500 
 47 H       -8.6960   -12.3690    -2.1370 H     1 <1>   0.1500 
 48 H       -7.1990   -14.2830    -1.8350 H     1 <1>   0.1500 
@<TRIPOS>BOND
  1   1   2  1   
  2   1   3  1   
  3   2   4  1   
  4   2  27  1   
  5   2  28  1   
  6   3  29  1   
  7   3  30  1   
  8   3  31  1   
  9   4   5  2   
 10   4   6  1   
 11   5   7  1   
 12   6   8  2   
 13   7   8  1   
 14   8   9  1   
 15   9  10  1   
 16   9  32  1   
 17   9  33  1   
 18  10  11  1   
 19  10  12  1   
 20  11  13  1   
 21  11  34  1   
 22  11  35  1   
 23  12  14  1   
 24  12  36  1   
 25  12  37  1   
 26  13  14  1   
 27  13  15  1   
 28  13  38  1   
 29  14  16  1   
 30  14  39  1   
 31  15  40  1   
 32  16  17  1   
 33  16  41  1   
 34  16  42  1   
 35  17  18  ar  
 36  17  19  ar  
 37  18  20  ar  
 38  18  21  ar  
 39  19  22  ar  
 40  19  43  1   
 41  20  23  ar  
 42  20  24  ar  
 43  21  25  ar  
 44  21  44  1   
 45  22  23  ar  
 46  22  45  1   
 47  24  26  ar  
 48  24  46  1   
 49  25  26  ar  
 50  25  47  1   
 51  26  48  1   
@<TRIPOS>SUBSTRUCTURE
  1 ****  12 GROUP 4 **** **** 0

# MOE 2024.06 (io_trps.svl 2023.06)
