@<TRIPOS>MOLECULE
NONAME
53 56 1 0 0 
SMALL
USER_CHARGES


@<TRIPOS>ATOM
  1 O        0.5370     0.2980     1.0300 O.3   1 <1>  -0.6800 
  2 C        1.0340    -0.1830    -0.1760 C.3   1 <1>   0.2000 
  3 C        1.6530    -1.5580     0.0850 C.3   1 <1>  -0.0800 
  4 C        2.2390     0.6780    -0.5530 C.3   1 <1>   0.3430 
  5 C        3.1070    -1.2640     0.4970 C.3   1 <1>   0.3430 
  6 C        1.5740    -2.4680    -1.1620 C.3   1 <1>  -0.0170 
  7 N        3.2980     0.2120     0.3850 N.4   1 <1>  -0.9590 
  8 C        2.4920    -3.6790    -1.0310 C.ar  1 <1>  -0.1440 
  9 C        4.6930     0.6210     0.0720 C.3   1 <1>   0.3430 
 10 C        2.2370    -4.7360    -0.1230 C.ar  1 <1>   0.0000 
 11 C        3.6200    -3.7650    -1.7960 C.ar  1 <1>  -0.1500 
 12 C        4.8360     2.1400     0.1730 C.3   1 <1>  -0.1600 
 13 C        3.2120    -5.7570    -0.0140 C.ar  1 <1>   0.3100 
 14 C        1.0740    -4.8470     0.6750 C.ar  1 <1>  -0.1500 
 15 C        4.5040    -4.8380    -1.6330 C.ar  1 <1>   0.1600 
 16 C        6.2950     2.5730    -0.0290 C.3   1 <1>   0.0960 
 17 N        4.3370    -5.7870    -0.7700 N.ar  1 <1>  -0.6200 
 18 C        3.0130    -6.7940     0.9120 C.ar  1 <1>  -0.1500 
 19 C        0.9080    -5.8740     1.5630 C.ar  1 <1>  -0.1500 
 20 N        6.3870     4.0450     0.0000 N.pl3 1 <1>   0.0480 
 21 C        1.8910    -6.8570     1.6910 C.ar  1 <1>  -0.1500 
 22 C        6.6510     4.8690     1.0450 C.2   1 <1>   0.0060 
 23 C        6.1860     4.8690    -1.0440 C.2   1 <1>  -0.3020 
 24 N        6.6250     6.1220     0.7330 N.2   1 <1>  -0.5650 
 25 C        6.9490     4.3910     2.4510 C.3   1 <1>  -0.0600 
 26 C        6.3350     6.1270    -0.5800 C.2   1 <1>   0.0770 
 27 H       -0.3380    -0.0940     1.2400 H     1 <1>   0.4000 
 28 H        0.2490    -0.1680    -0.9150 H     1 <1>   0.0800 
 29 H        1.1520    -2.0490     0.9000 H     1 <1>   0.0800 
 30 H        2.0200     1.7270    -0.4320 H     1 <1>   0.0800 
 31 H        2.5280     0.4790    -1.5710 H     1 <1>   0.0800 
 32 H        3.7900    -1.7790    -0.1590 H     1 <1>   0.0800 
 33 H        3.2860    -1.5940     1.5080 H     1 <1>   0.0800 
 34 H        1.8560    -1.9100    -2.0380 H     1 <1>   0.0800 
 35 H        0.5610    -2.7980    -1.3180 H     1 <1>   0.0800 
 36 H        3.0130     0.6020     1.3000 H     1 <1>   0.4500 
 37 H        5.3660     0.1560     0.7750 H     1 <1>   0.0800 
 38 H        4.9600     0.2920    -0.9190 H     1 <1>   0.0800 
 39 H        3.8690    -3.0260    -2.5360 H     1 <1>   0.1500 
 40 H        4.5100     2.4700     1.1440 H     1 <1>   0.0800 
 41 H        4.2330     2.6130    -0.5820 H     1 <1>   0.0800 
 42 H        0.2910    -4.1200     0.5820 H     1 <1>   0.1500 
 43 H        5.3820    -4.8740    -2.2570 H     1 <1>   0.1500 
 44 H        6.6640     2.2340    -0.9820 H     1 <1>   0.0800 
 45 H        6.9260     2.1700     0.7430 H     1 <1>   0.0800 
 46 H        3.7780    -7.5460     0.9850 H     1 <1>   0.1500 
 47 H        0.0200    -5.9460     2.1700 H     1 <1>   0.1500 
 48 H        1.7510    -7.6590     2.3960 H     1 <1>   0.1500 
 49 H        5.9550     4.5360    -2.0390 H     1 <1>   0.1500 
 50 H        7.1080     5.2390     3.0940 H     1 <1>   0.0800 
 51 H        7.8390     3.7890     2.4570 H     1 <1>   0.0800 
 52 H        6.1230     3.8230     2.8360 H     1 <1>   0.0800 
 53 H        6.2500     7.0510    -1.1270 H     1 <1>   0.1500 
@<TRIPOS>BOND
  1   1   2  1   
  2   1  27  1   
  3   2   3  1   
  4   2   4  1   
  5   2  28  1   
  6   3   5  1   
  7   3   6  1   
  8   3  29  1   
  9   4   7  1   
 10   4  30  1   
 11   4  31  1   
 12   5   7  1   
 13   5  32  1   
 14   5  33  1   
 15   6   8  1   
 16   6  34  1   
 17   6  35  1   
 18   7   9  1   
 19   7  36  1   
 20   8  10  ar  
 21   8  11  ar  
 22   9  12  1   
 23   9  37  1   
 24   9  38  1   
 25  10  13  ar  
 26  10  14  ar  
 27  11  15  ar  
 28  11  39  1   
 29  12  16  1   
 30  12  40  1   
 31  12  41  1   
 32  13  17  ar  
 33  13  18  ar  
 34  14  19  ar  
 35  14  42  1   
 36  15  17  ar  
 37  15  43  1   
 38  16  20  1   
 39  16  44  1   
 40  16  45  1   
 41  18  21  ar  
 42  18  46  1   
 43  19  21  ar  
 44  19  47  1   
 45  20  22  1   
 46  20  23  1   
 47  21  48  1   
 48  22  24  2   
 49  22  25  1   
 50  23  26  2   
 51  23  49  1   
 52  24  26  1   
 53  25  50  1   
 54  25  51  1   
 55  25  52  1   
 56  26  53  1   
@<TRIPOS>SUBSTRUCTURE
  1 ****   5 GROUP 4 **** **** 0

# MOE 2024.06 (io_trps.svl 2023.06)
