@<TRIPOS>MOLECULE
NONAME
48 50 1 0 0 
SMALL
USER_CHARGES


@<TRIPOS>ATOM
  1 F        1.0690    -2.4930     2.0250 F     1 <1>  -0.1900 
  2 C        0.2300    -3.0160     1.1720 C.ar  1 <1>   0.1900 
  3 C       -0.7660    -2.2210     0.6480 C.ar  1 <1>  -0.1500 
  4 C        0.3710    -4.3440     0.8300 C.ar  1 <1>  -0.1500 
  5 C       -1.6790    -2.7560    -0.2590 C.ar  1 <1>   0.0860 
  6 C       -0.5270    -4.8860    -0.0730 C.ar  1 <1>  -0.1500 
  7 C       -1.5400    -4.1070    -0.6180 C.ar  1 <1>  -0.1440 
  8 C       -2.7260    -1.8950    -0.7790 C.2   1 <1>   0.5440 
  9 C       -2.4940    -4.7670    -1.6070 C.3   1 <1>  -0.0960 
 10 O       -2.6620    -1.4840    -1.9200 O.2   1 <1>  -0.5700 
 11 N       -3.7960    -1.5180     0.0090 N.am  1 <1>  -0.6600 
 12 C       -4.0580    -2.1320     1.3430 C.3   1 <1>   0.1400 
 13 C       -4.6930    -0.3900    -0.3700 C.3   1 <1>   0.1400 
 14 C       -5.5030    -1.8830     1.7960 C.3   1 <1>  -0.1600 
 15 C       -6.1440    -0.8760    -0.4500 C.3   1 <1>  -0.1600 
 16 C       -6.5290    -1.9090     0.6430 C.3   1 <1>   0.2800 
 17 O       -7.7120    -1.4200     1.2320 O.3   1 <1>  -0.5600 
 18 C       -6.6850    -3.3580     0.0620 C.3   1 <1>   0.2000 
 19 C       -8.9100    -2.1250     1.0950 C.3   1 <1>   0.1200 
 20 O       -5.5710    -3.7000    -0.7200 O.3   1 <1>  -0.6800 
 21 C       -8.0260    -3.6110    -0.7070 C.3   1 <1>   0.2800 
 22 C       -9.0810    -2.5560    -0.3580 C.3   1 <1>  -0.1600 
 23 O       -8.5330    -4.8200    -0.2650 O.3   1 <1>  -0.6800 
 24 C       -7.9090    -3.7540    -2.2310 C.3   1 <1>  -0.2400 
 25 H       -0.8360    -1.1890     0.9370 H     1 <1>   0.1500 
 26 H        1.1600    -4.9350     1.2590 H     1 <1>   0.1500 
 27 H       -0.4310    -5.9220    -0.3510 H     1 <1>   0.1500 
 28 H       -2.0210    -5.6010    -2.0920 H     1 <1>   0.0800 
 29 H       -2.8040    -4.0790    -2.3730 H     1 <1>   0.0800 
 30 H       -3.3660    -5.1260    -1.0910 H     1 <1>   0.0800 
 31 H       -3.8830    -3.1940     1.2830 H     1 <1>   0.0800 
 32 H       -3.3760    -1.7230     2.0690 H     1 <1>   0.0800 
 33 H       -4.6100     0.3790     0.3790 H     1 <1>   0.0800 
 34 H       -4.4000     0.0410    -1.3130 H     1 <1>   0.0800 
 35 H       -5.5420    -0.9180     2.2700 H     1 <1>   0.0800 
 36 H       -5.7680    -2.6130     2.5390 H     1 <1>   0.0800 
 37 H       -6.2990    -1.2880    -1.4280 H     1 <1>   0.0800 
 38 H       -6.7790    -0.0100    -0.3780 H     1 <1>   0.0800 
 39 H       -6.6670    -4.0300     0.9020 H     1 <1>   0.0800 
 40 H       -8.8890    -2.9750     1.7570 H     1 <1>   0.0800 
 41 H       -9.7090    -1.4690     1.3950 H     1 <1>   0.0800 
 42 H       -4.9280    -2.9510    -0.7020 H     1 <1>   0.4000 
 43 H       -8.9690    -1.6880    -0.9820 H     1 <1>   0.0800 
 44 H      -10.0710    -2.9450    -0.5160 H     1 <1>   0.0800 
 45 H       -9.1310    -5.1840    -0.9430 H     1 <1>   0.4000 
 46 H       -7.4800    -2.8650    -2.6550 H     1 <1>   0.0800 
 47 H       -8.8740    -3.9040    -2.6800 H     1 <1>   0.0800 
 48 H       -7.2690    -4.5820    -2.4830 H     1 <1>   0.0800 
@<TRIPOS>BOND
  1   1   2  1   
  2   2   3  ar  
  3   2   4  ar  
  4   3   5  ar  
  5   3  25  1   
  6   4   6  ar  
  7   4  26  1   
  8   5   7  ar  
  9   5   8  1   
 10   6   7  ar  
 11   6  27  1   
 12   7   9  1   
 13   8  10  2   
 14   8  11  am  
 15   9  28  1   
 16   9  29  1   
 17   9  30  1   
 18  11  12  1   
 19  11  13  1   
 20  12  14  1   
 21  12  31  1   
 22  12  32  1   
 23  13  15  1   
 24  13  33  1   
 25  13  34  1   
 26  14  16  1   
 27  14  35  1   
 28  14  36  1   
 29  15  16  1   
 30  15  37  1   
 31  15  38  1   
 32  16  17  1   
 33  16  18  1   
 34  17  19  1   
 35  18  20  1   
 36  18  21  1   
 37  18  39  1   
 38  19  22  1   
 39  19  40  1   
 40  19  41  1   
 41  20  42  1   
 42  21  22  1   
 43  21  23  1   
 44  21  24  1   
 45  22  43  1   
 46  22  44  1   
 47  23  45  1   
 48  24  46  1   
 49  24  47  1   
 50  24  48  1   
@<TRIPOS>SUBSTRUCTURE
  1 ****  11 GROUP 4 **** **** 0

# MOE 2024.06 (io_trps.svl 2023.06)
