@<TRIPOS>MOLECULE
NONAME
52 54 1 0 0 
SMALL
USER_CHARGES


@<TRIPOS>ATOM
  1 O        0.0100    -1.5750    -1.8210 O.2   1 <1>  -0.5700 
  2 C        0.2460    -1.7500    -0.6490 C.2   1 <1>   0.5690 
  3 N        1.5170    -1.7990    -0.1780 N.am  1 <1>  -0.7300 
  4 C       -0.9510    -1.9080     0.3070 C.3   1 <1>   0.4040 
  5 C        2.7200    -1.7810    -1.0310 C.3   1 <1>   0.2840 
  6 N       -2.2380    -1.3600    -0.2570 N.4   1 <1>  -0.9590 
  7 C        3.8100    -2.5100    -0.2650 C.ar  1 <1>  -0.1430 
  8 C       -3.4380    -1.8660     0.4790 C.3   1 <1>   0.3430 
  9 C       -2.2140     0.1280    -0.3470 C.3   1 <1>   0.3430 
 10 C        4.6780    -1.8530     0.6040 C.ar  1 <1>  -0.1430 
 11 C        3.9220    -3.8830    -0.4340 C.ar  1 <1>  -0.1500 
 12 C       -4.7530    -1.4130    -0.1940 C.3   1 <1>   0.0000 
 13 C       -3.4830     0.6250    -1.0440 C.3   1 <1>  -0.1600 
 14 C        5.6390    -2.5830     1.2860 C.ar  1 <1>  -0.1500 
 15 C        4.6110    -0.3480     0.8280 C.3   1 <1>  -0.0970 
 16 C        4.8830    -4.6030     0.2510 C.ar  1 <1>  -0.1500 
 17 C       -5.9560    -1.9070     0.6290 C.3   1 <1>   0.2000 
 18 C       -4.7570     0.1220    -0.3470 C.3   1 <1>  -0.1600 
 19 C       -4.9540    -2.1390    -1.5360 C.3   1 <1>  -0.1600 
 20 C        5.7430    -3.9510     1.1130 C.ar  1 <1>  -0.1500 
 21 O       -5.6620    -1.9200     1.9820 O.3   1 <1>  -0.6800 
 22 C       -6.2680    -3.3270     0.1480 C.3   1 <1>  -0.1600 
 23 C       -5.4930    -3.5210    -1.1620 C.3   1 <1>  -0.1600 
 24 H        1.7520    -2.0130     0.7960 H     1 <1>   0.3700 
 25 H       -0.7230    -1.4180     1.2380 H     1 <1>   0.0800 
 26 H       -1.0690    -2.9600     0.5030 H     1 <1>   0.0800 
 27 H        2.5200    -2.2780    -1.9660 H     1 <1>   0.0800 
 28 H        3.0050    -0.7660    -1.2460 H     1 <1>   0.0800 
 29 H       -2.2790    -1.6980    -1.2320 H     1 <1>   0.4500 
 30 H       -3.4210    -2.9420     0.5240 H     1 <1>   0.0800 
 31 H       -3.4200    -1.4920     1.4890 H     1 <1>   0.0800 
 32 H       -2.1600     0.5530     0.6430 H     1 <1>   0.0800 
 33 H       -1.3500     0.4510    -0.9070 H     1 <1>   0.0800 
 34 H        3.2580    -4.4040    -1.1040 H     1 <1>   0.1500 
 35 H       -3.4810     1.7010    -1.0430 H     1 <1>   0.0800 
 36 H       -3.4710     0.3090    -2.0730 H     1 <1>   0.0800 
 37 H        6.3200    -2.0910     1.9590 H     1 <1>   0.1500 
 38 H        5.2690    -0.0480     1.6240 H     1 <1>   0.0800 
 39 H        3.6130    -0.0480     1.0900 H     1 <1>   0.0800 
 40 H        4.9120     0.1690    -0.0660 H     1 <1>   0.0800 
 41 H        4.9630    -5.6670     0.1120 H     1 <1>   0.1500 
 42 H       -6.8100    -1.2680     0.4690 H     1 <1>   0.0800 
 43 H       -5.6240     0.4410    -0.9010 H     1 <1>   0.0800 
 44 H       -4.8200     0.5700     0.6320 H     1 <1>   0.0800 
 45 H       -5.7060    -1.6270    -2.1130 H     1 <1>   0.0800 
 46 H       -4.0620    -2.2080    -2.1330 H     1 <1>   0.0800 
 47 H        6.4940    -4.5060     1.6470 H     1 <1>   0.1500 
 48 H       -6.4520    -2.1920     2.4940 H     1 <1>   0.4000 
 49 H       -5.9680    -4.0710     0.8660 H     1 <1>   0.0800 
 50 H       -7.3240    -3.4200    -0.0350 H     1 <1>   0.0800 
 51 H       -4.6770    -4.2040    -1.0020 H     1 <1>   0.0800 
 52 H       -6.1230    -3.9190    -1.9400 H     1 <1>   0.0800 
@<TRIPOS>BOND
  1   1   2  2   
  2   2   3  am  
  3   2   4  1   
  4   3   5  1   
  5   3  24  1   
  6   4   6  1   
  7   4  25  1   
  8   4  26  1   
  9   5   7  1   
 10   5  27  1   
 11   5  28  1   
 12   6   8  1   
 13   6   9  1   
 14   6  29  1   
 15   7  10  ar  
 16   7  11  ar  
 17   8  12  1   
 18   8  30  1   
 19   8  31  1   
 20   9  13  1   
 21   9  32  1   
 22   9  33  1   
 23  10  14  ar  
 24  10  15  1   
 25  11  16  ar  
 26  11  34  1   
 27  12  17  1   
 28  12  18  1   
 29  12  19  1   
 30  13  18  1   
 31  13  35  1   
 32  13  36  1   
 33  14  20  ar  
 34  14  37  1   
 35  15  38  1   
 36  15  39  1   
 37  15  40  1   
 38  16  20  ar  
 39  16  41  1   
 40  17  21  1   
 41  17  22  1   
 42  17  42  1   
 43  18  43  1   
 44  18  44  1   
 45  19  23  1   
 46  19  45  1   
 47  19  46  1   
 48  20  47  1   
 49  21  48  1   
 50  22  23  1   
 51  22  49  1   
 52  22  50  1   
 53  23  51  1   
 54  23  52  1   
@<TRIPOS>SUBSTRUCTURE
  1 ****   4 GROUP 4 **** **** 0

# MOE 2024.06 (io_trps.svl 2023.06)
