@<TRIPOS>MOLECULE
NONAME
17 17 1 0 0 
SMALL
USER_CHARGES


@<TRIPOS>ATOM
  1 C        0.3030     3.1300     0.0770 C.2   1 <1>  -0.2880 
  2 C       -0.8950     3.2600    -0.5010 C.2   1 <1>  -0.1500 
  3 C        0.8350     4.4790     0.5400 C.3   1 <1>   0.1160 
  4 C       -1.2810     4.6350    -0.4880 C.2   1 <1>  -0.1500 
  5 C       -0.3250     5.3660     0.0960 C.2   1 <1>  -0.2760 
  6 C       -0.2930     6.8640     0.3470 C.3   1 <1>  -0.0220 
  7 C        0.8170     7.5370    -0.4620 C.3   1 <1>  -0.2400 
  8 H        0.8900     2.2440     0.2390 H     1 <1>   0.1500 
  9 H       -1.5200     2.4930    -0.9260 H     1 <1>   0.1500 
 10 H        1.7490     4.7310     0.0330 H     1 <1>   0.0800 
 11 H        0.9660     4.5050     1.6070 H     1 <1>   0.0800 
 12 H       -2.2160     4.9700    -0.9020 H     1 <1>   0.1500 
 13 H       -0.1490     7.0510     1.3970 H     1 <1>   0.0800 
 14 H       -1.2410     7.2880     0.0630 H     1 <1>   0.0800 
 15 H        1.7820     7.1830    -0.1490 H     1 <1>   0.0800 
 16 H        0.7800     8.6030    -0.3200 H     1 <1>   0.0800 
 17 H        0.6900     7.3230    -1.5090 H     1 <1>   0.0800 
@<TRIPOS>BOND
  1   1   2  2   
  2   1   3  1   
  3   1   8  1   
  4   2   4  1   
  5   2   9  1   
  6   3   5  1   
  7   3  10  1   
  8   3  11  1   
  9   4   5  2   
 10   4  12  1   
 11   5   6  1   
 12   6   7  1   
 13   6  13  1   
 14   6  14  1   
 15   7  15  1   
 16   7  16  1   
 17   7  17  1   
@<TRIPOS>SUBSTRUCTURE
  1 ****   5 GROUP 4 **** **** 0

# MOE 2024.06 (io_trps.svl 2023.06)
