@<TRIPOS>MOLECULE
NONAME
43 45 1 0 0 
SMALL
USER_CHARGES


@<TRIPOS>ATOM
  1 N       -1.7570    -0.3950    -0.5020 N.ar  1 <1>  -0.6200 
  2 C       -1.5450    -1.7000    -0.5410 C.ar  1 <1>   0.1600 
  3 C       -2.3080     0.0540     0.6140 C.ar  1 <1>   0.1600 
  4 C       -1.8600    -2.5910     0.4770 C.ar  1 <1>  -0.1440 
  5 C       -2.6580    -0.7400     1.6920 C.ar  1 <1>  -0.1500 
  6 C       -2.4330    -2.0980     1.6330 C.ar  1 <1>  -0.1500 
  7 C       -1.5890    -4.0780     0.3250 C.3   1 <1>  -0.0160 
  8 C       -2.8520    -4.7860    -0.1810 C.3   1 <1>  -0.1600 
  9 C       -2.6140    -6.2850    -0.3670 C.3   1 <1>   0.3430 
 10 N       -3.8880    -6.9710    -0.6980 N.4   1 <1>  -0.9590 
 11 C       -3.8160    -8.4490    -0.5180 C.3   1 <1>   0.5240 
 12 C       -4.4830    -6.6090    -2.0200 C.3   1 <1>   0.2630 
 13 C       -5.1330    -8.8830     0.1160 C.2   1 <1>   0.1080 
 14 N       -5.9000    -8.0550     0.7700 N.2   1 <1>  -0.7070 
 15 C       -5.6610   -10.1690     0.0770 C.2   1 <1>  -0.1500 
 16 N       -6.9480    -8.8120     1.1720 N.pl3 1 <1>   0.3000 
 17 C       -6.8220   -10.0890     0.7610 C.2   1 <1>  -0.2370 
 18 C       -7.8460   -11.1630     1.0640 C.3   1 <1>  -0.0150 
 19 C       -8.0890   -12.2690     0.0890 C.3   1 <1>  -0.2000 
 20 C       -9.1230   -11.2010     0.2880 C.3   1 <1>  -0.2000 
 21 H       -1.0930    -2.0770    -1.4420 H     1 <1>   0.1500 
 22 H       -2.4890     1.1140     0.6720 H     1 <1>   0.1500 
 23 H       -3.1010    -0.2960     2.5650 H     1 <1>   0.1500 
 24 H       -2.6960    -2.7370     2.4580 H     1 <1>   0.1500 
 25 H       -1.2890    -4.4820     1.2770 H     1 <1>   0.0800 
 26 H       -0.7750    -4.2250    -0.3660 H     1 <1>   0.0800 
 27 H       -3.1410    -4.3380    -1.1150 H     1 <1>   0.0800 
 28 H       -3.6410    -4.6320     0.5350 H     1 <1>   0.0800 
 29 H       -2.2190    -6.6880     0.5530 H     1 <1>   0.0800 
 30 H       -1.8880    -6.4490    -1.1480 H     1 <1>   0.0800 
 31 H       -4.6010    -6.7350     0.0270 H     1 <1>   0.4500 
 32 H       -3.0140    -8.7060     0.1530 H     1 <1>   0.0800 
 33 H       -3.6640    -8.9470    -1.4600 H     1 <1>   0.0800 
 34 H       -3.8150    -6.8770    -2.8220 H     1 <1>   0.0800 
 35 H       -4.6760    -5.5490    -2.0670 H     1 <1>   0.0800 
 36 H       -5.4200    -7.1270    -2.1570 H     1 <1>   0.0800 
 37 H       -5.2340   -11.0380    -0.3950 H     1 <1>   0.1500 
 38 H       -7.7350    -8.4410     1.7210 H     1 <1>   0.2700 
 39 H       -7.8900   -11.4170     2.1100 H     1 <1>   0.1000 
 40 H       -8.2850   -13.2570     0.4690 H     1 <1>   0.1000 
 41 H       -7.5450   -12.2850    -0.8390 H     1 <1>   0.1000 
 42 H       -9.2770   -10.4890    -0.5040 H     1 <1>   0.1000 
 43 H      -10.0350   -11.4560     0.8000 H     1 <1>   0.1000 
@<TRIPOS>BOND
  1   1   2  ar  
  2   1   3  ar  
  3   2   4  ar  
  4   2  21  1   
  5   3   5  ar  
  6   3  22  1   
  7   4   6  ar  
  8   4   7  1   
  9   5   6  ar  
 10   5  23  1   
 11   6  24  1   
 12   7   8  1   
 13   7  25  1   
 14   7  26  1   
 15   8   9  1   
 16   8  27  1   
 17   8  28  1   
 18   9  10  1   
 19   9  29  1   
 20   9  30  1   
 21  10  11  1   
 22  10  12  1   
 23  10  31  1   
 24  11  13  1   
 25  11  32  1   
 26  11  33  1   
 27  12  34  1   
 28  12  35  1   
 29  12  36  1   
 30  13  14  2   
 31  13  15  1   
 32  14  16  1   
 33  15  17  2   
 34  15  37  1   
 35  16  17  1   
 36  16  38  1   
 37  17  18  1   
 38  18  19  1   
 39  18  20  1   
 40  18  39  1   
 41  19  20  1   
 42  19  40  1   
 43  19  41  1   
 44  20  42  1   
 45  20  43  1   
@<TRIPOS>SUBSTRUCTURE
  1 ****  10 GROUP 4 **** **** 0

# MOE 2024.06 (io_trps.svl 2023.06)
