@<TRIPOS>MOLECULE
NONAME
47 48 1 0 0 
SMALL
USER_CHARGES


@<TRIPOS>ATOM
  1 O        0.2220    -0.0450    -0.9730 O.2   1 <1>  -0.5700 
  2 C        1.0770    -0.5500    -0.2740 C.2   1 <1>   0.5440 
  3 N        1.9220     0.2310     0.4800 N.am  1 <1>  -0.4940 
  4 C        1.2300    -1.9760    -0.2270 C.ar  1 <1>   0.0860 
  5 C        2.1560     1.6280     0.4850 C.2   1 <1>  -0.0880 
  6 C        0.2210    -2.8600     0.1270 C.ar  1 <1>   0.1670 
  7 C        2.4450    -2.5600    -0.5340 C.ar  1 <1>   0.1600 
  8 N        1.2480     2.6330     0.3270 N.pl3 1 <1>   0.3140 
  9 C        3.3580     2.2270     0.6720 C.2   1 <1>  -0.1810 
 10 N        0.4150    -4.1530     0.1880 N.ar  1 <1>  -0.6200 
 11 C       -1.1780    -2.3770     0.4720 C.3   1 <1>  -0.0960 
 12 N        2.6660    -3.8460    -0.4730 N.ar  1 <1>  -0.6200 
 13 N        1.8400     3.8430     0.4040 N.2   1 <1>  -0.7070 
 14 C       -0.2120     2.5550     0.1950 C.3   1 <1>   0.0160 
 15 C        3.0960     3.5950     0.6000 C.2   1 <1>   0.1080 
 16 C        4.7030     1.5540     0.8990 C.3   1 <1>   0.0210 
 17 C        1.6330    -4.6070    -0.1110 C.ar  1 <1>   0.7200 
 18 C        4.1070     4.7240     0.7260 C.3   1 <1>   0.0210 
 19 C        5.4510     1.3860    -0.4240 C.3   1 <1>  -0.2400 
 20 N        1.8390    -5.9640    -0.0380 N.pl3 1 <1>  -0.8380 
 21 C        4.4240     5.3420    -0.6400 C.3   1 <1>  -0.2400 
 22 C        3.1960    -6.5740    -0.1260 C.3   1 <1>   0.1290 
 23 C        0.7160    -6.9350     0.0960 C.3   1 <1>   0.1290 
 24 H        2.5890    -0.2890     1.0500 H     1 <1>   0.3700 
 25 H        3.2620    -1.9310    -0.8450 H     1 <1>   0.1500 
 26 H       -1.1370    -1.5100     1.1050 H     1 <1>   0.0800 
 27 H       -1.7240    -3.1480     0.9870 H     1 <1>   0.0800 
 28 H       -1.7040    -2.1280    -0.4310 H     1 <1>   0.0800 
 29 H       -0.5790     1.7300     0.7740 H     1 <1>   0.0800 
 30 H       -0.4610     2.4180    -0.8400 H     1 <1>   0.0800 
 31 H       -0.6470     3.4700     0.5520 H     1 <1>   0.0800 
 32 H        4.5520     0.5880     1.3460 H     1 <1>   0.0800 
 33 H        5.2930     2.1330     1.5860 H     1 <1>   0.0800 
 34 H        5.0120     4.3660     1.1790 H     1 <1>   0.0800 
 35 H        3.6930     5.4790     1.3690 H     1 <1>   0.0800 
 36 H        4.8580     0.8130    -1.1140 H     1 <1>   0.0800 
 37 H        6.3860     0.8800    -0.2620 H     1 <1>   0.0800 
 38 H        5.6490     2.3480    -0.8620 H     1 <1>   0.0800 
 39 H        4.8270     4.5970    -1.3020 H     1 <1>   0.0800 
 40 H        5.1350     6.1400    -0.5330 H     1 <1>   0.0800 
 41 H        3.5230     5.7350    -1.0770 H     1 <1>   0.0800 
 42 H        3.9440    -5.8920     0.2380 H     1 <1>   0.0800 
 43 H        3.4150    -6.8180    -1.1510 H     1 <1>   0.0800 
 44 H        3.2380    -7.4690     0.4700 H     1 <1>   0.0800 
 45 H       -0.1880    -6.5330    -0.3280 H     1 <1>   0.0800 
 46 H        0.5480    -7.1470     1.1380 H     1 <1>   0.0800 
 47 H        0.9510    -7.8480    -0.4200 H     1 <1>   0.0800 
@<TRIPOS>BOND
  1   1   2  2   
  2   2   3  am  
  3   2   4  1   
  4   3   5  1   
  5   3  24  1   
  6   4   6  ar  
  7   4   7  ar  
  8   5   8  1   
  9   5   9  2   
 10   6  10  ar  
 11   6  11  1   
 12   7  12  ar  
 13   7  25  1   
 14   8  13  1   
 15   8  14  1   
 16   9  15  1   
 17   9  16  1   
 18  10  17  ar  
 19  11  26  1   
 20  11  27  1   
 21  11  28  1   
 22  12  17  ar  
 23  13  15  2   
 24  14  29  1   
 25  14  30  1   
 26  14  31  1   
 27  15  18  1   
 28  16  19  1   
 29  16  32  1   
 30  16  33  1   
 31  17  20  1   
 32  18  21  1   
 33  18  34  1   
 34  18  35  1   
 35  19  36  1   
 36  19  37  1   
 37  19  38  1   
 38  20  22  1   
 39  20  23  1   
 40  21  39  1   
 41  21  40  1   
 42  21  41  1   
 43  22  42  1   
 44  22  43  1   
 45  22  44  1   
 46  23  45  1   
 47  23  46  1   
 48  23  47  1   
@<TRIPOS>SUBSTRUCTURE
  1 ****   3 GROUP 4 **** **** 0

# MOE 2024.06 (io_trps.svl 2023.06)
