@<TRIPOS>MOLECULE
NONAME
38 39 1 0 0 
SMALL
USER_CHARGES


@<TRIPOS>ATOM
  1 O       -4.1060     0.6930     0.0480 O.2   1 <1>  -0.5700 
  2 C       -3.4060     1.6930     0.0840 C.2   1 <1>   0.7670 
  3 N       -3.4320     2.4750     1.2090 N.2   1 <1>  -0.6610 
  4 C       -2.5780     2.0370    -1.0170 C.2   1 <1>  -0.1360 
  5 C       -2.6880     3.5200     1.2290 C.2   1 <1>   0.4390 
  6 C       -1.8060     3.1440    -0.9560 C.2   1 <1>  -0.0380 
  7 N       -1.8780     3.8790     0.1910 N.pl3 1 <1>  -0.5500 
  8 C       -2.7130     4.4030     2.4630 C.3   1 <1>  -0.0990 
  9 C       -0.8730     3.6270    -2.0460 C.3   1 <1>  -0.1020 
 10 C       -1.4220     5.1860     2.7160 C.3   1 <1>   0.2090 
 11 N       -1.3410     6.3600     1.8100 N.pl3 1 <1>  -0.8690 
 12 C       -0.2910     6.7140     1.0520 C.ar  1 <1>   0.7200 
 13 N       -0.1680     8.0120     0.8360 N.ar  1 <1>  -0.6200 
 14 N        0.4920     5.7530     0.5850 N.ar  1 <1>  -0.6200 
 15 C        0.8410     8.3940     0.0930 C.ar  1 <1>   0.1670 
 16 C        1.4900     6.1570    -0.1610 C.ar  1 <1>   0.1600 
 17 C        1.7270     7.4850    -0.4860 C.ar  1 <1>   0.0860 
 18 C        0.9840     9.8990    -0.0600 C.3   1 <1>  -0.0970 
 19 C        2.8260     7.7920    -1.3620 C.2   1 <1>   0.4230 
 20 O        3.8790     7.2160    -1.2920 O.2   1 <1>  -0.5700 
 21 C        2.6850     8.8110    -2.4750 C.3   1 <1>  -0.1790 
 22 H       -2.6070     1.3830    -1.8640 H     1 <1>   0.1500 
 23 H       -1.2930     4.7220     0.3250 H     1 <1>   0.4000 
 24 H       -2.8880     3.7670     3.3110 H     1 <1>   0.0800 
 25 H       -3.5430     5.0810     2.3940 H     1 <1>   0.0800 
 26 H       -1.1510     4.6190    -2.3530 H     1 <1>   0.0800 
 27 H       -0.9200     2.9750    -2.9000 H     1 <1>   0.0800 
 28 H        0.1380     3.6440    -1.6800 H     1 <1>   0.0800 
 29 H       -0.5660     4.5420     2.5910 H     1 <1>   0.0800 
 30 H       -1.4170     5.5420     3.7330 H     1 <1>   0.0800 
 31 H       -1.9100     7.1620     2.0870 H     1 <1>   0.4000 
 32 H        2.1620     5.4080    -0.5470 H     1 <1>   0.1500 
 33 H        0.5160    10.3990     0.7700 H     1 <1>   0.0800 
 34 H        0.5020    10.2270    -0.9630 H     1 <1>   0.0800 
 35 H        2.0190    10.1890    -0.0730 H     1 <1>   0.0800 
 36 H        1.6540     8.9640    -2.7300 H     1 <1>   0.0800 
 37 H        3.2000     8.4540    -3.3490 H     1 <1>   0.0800 
 38 H        3.1310     9.7420    -2.1790 H     1 <1>   0.0800 
@<TRIPOS>BOND
  1   1   2  2   
  2   2   3  1   
  3   2   4  1   
  4   3   5  2   
  5   4   6  2   
  6   4  22  1   
  7   5   7  1   
  8   5   8  1   
  9   6   7  1   
 10   6   9  1   
 11   7  23  1   
 12   8  10  1   
 13   8  24  1   
 14   8  25  1   
 15   9  26  1   
 16   9  27  1   
 17   9  28  1   
 18  10  11  1   
 19  10  29  1   
 20  10  30  1   
 21  11  12  1   
 22  11  31  1   
 23  12  13  ar  
 24  12  14  ar  
 25  13  15  ar  
 26  14  16  ar  
 27  15  17  ar  
 28  15  18  1   
 29  16  17  ar  
 30  16  32  1   
 31  17  19  1   
 32  18  33  1   
 33  18  34  1   
 34  18  35  1   
 35  19  20  2   
 36  19  21  1   
 37  21  36  1   
 38  21  37  1   
 39  21  38  1   
@<TRIPOS>SUBSTRUCTURE
  1 ****  14 GROUP 4 **** **** 0

# MOE 2024.06 (io_trps.svl 2023.06)
