@<TRIPOS>MOLECULE
NONAME
42 44 1 0 0 
SMALL
USER_CHARGES


@<TRIPOS>ATOM
  1 O       -0.3250     0.2100     1.1370 O.2   1 <1>  -0.5700 
  2 C       -1.3580     0.8120     0.8990 C.2   1 <1>   0.5440 
  3 N       -2.4820     0.0830     0.5810 N.am  1 <1>  -0.6600 
  4 C       -1.3900     2.2530     0.9450 C.ar  1 <1>   0.0860 
  5 C       -3.6590     0.6390    -0.1330 C.3   1 <1>   0.1400 
  6 C       -2.4580    -1.3970     0.4720 C.3   1 <1>   0.1400 
  7 C       -0.5130     3.0170     0.1530 C.ar  1 <1>   0.4100 
  8 C       -2.2900     2.9280     1.7580 C.ar  1 <1>  -0.1500 
  9 C       -4.3240    -0.5650    -0.8010 C.3   1 <1>   0.2000 
 10 C       -3.8560    -1.7860    -0.0110 C.3   1 <1>  -0.0800 
 11 N       -0.5190     4.3490     0.1200 N.ar  1 <1>  -0.6200 
 12 N        0.4170     2.3940    -0.6480 N.pl3 1 <1>  -0.8690 
 13 C       -2.2860     4.3040     1.7300 C.ar  1 <1>  -0.1500 
 14 O       -5.7060    -0.4760    -0.7580 O.3   1 <1>  -0.6800 
 15 C       -3.9010    -3.0800    -0.8420 C.3   1 <1>  -0.0170 
 16 C       -1.3910     4.9560     0.9000 C.ar  1 <1>   0.1600 
 17 C        1.5200     3.1020    -1.3440 C.3   1 <1>   0.1290 
 18 C       -3.4790    -4.2900    -0.0240 C.ar  1 <1>   0.1670 
 19 N       -2.1780    -4.5080     0.0800 N.ar  1 <1>  -0.6200 
 20 C       -4.4450    -5.1000     0.5710 C.ar  1 <1>   0.1600 
 21 C       -1.9090    -5.5760     0.8140 C.ar  1 <1>   0.1600 
 22 N       -4.1780    -6.1670     1.3060 N.ar  1 <1>  -0.6200 
 23 C       -2.8770    -6.3770     1.4070 C.ar  1 <1>   0.1600 
 24 H       -4.3220     1.0970     0.5790 H     1 <1>   0.0800 
 25 H       -3.3490     1.3590    -0.8710 H     1 <1>   0.0800 
 26 H       -1.7070    -1.6840    -0.2460 H     1 <1>   0.0800 
 27 H       -2.2240    -1.8470     1.4220 H     1 <1>   0.0800 
 28 H       -2.9660     2.3830     2.3930 H     1 <1>   0.1500 
 29 H       -4.0170    -0.6240    -1.8320 H     1 <1>   0.0800 
 30 H       -4.4710    -1.9020     0.8650 H     1 <1>   0.0800 
 31 H        0.6360     1.4270    -0.3620 H     1 <1>   0.4000 
 32 H       -2.9640     4.8710     2.3420 H     1 <1>   0.1500 
 33 H       -6.0170    -0.4280     0.1660 H     1 <1>   0.4000 
 34 H       -3.2520    -2.9910    -1.6960 H     1 <1>   0.0800 
 35 H       -4.9000    -3.2280    -1.2110 H     1 <1>   0.0800 
 36 H       -1.3950     6.0320     0.8790 H     1 <1>   0.1500 
 37 H        1.1290     3.9430    -1.8910 H     1 <1>   0.0800 
 38 H        2.0060     2.4330    -2.0310 H     1 <1>   0.0800 
 39 H        2.2360     3.4560    -0.6220 H     1 <1>   0.0800 
 40 H       -5.4830    -4.8550     0.4360 H     1 <1>   0.1500 
 41 H       -0.8730    -5.8280     0.9520 H     1 <1>   0.1500 
 42 H       -2.5600    -7.2260     1.9870 H     1 <1>   0.1500 
@<TRIPOS>BOND
  1   1   2  2   
  2   2   3  am  
  3   2   4  1   
  4   3   5  1   
  5   3   6  1   
  6   4   7  ar  
  7   4   8  ar  
  8   5   9  1   
  9   5  24  1   
 10   5  25  1   
 11   6  10  1   
 12   6  26  1   
 13   6  27  1   
 14   7  11  ar  
 15   7  12  1   
 16   8  13  ar  
 17   8  28  1   
 18   9  10  1   
 19   9  14  1   
 20   9  29  1   
 21  10  15  1   
 22  10  30  1   
 23  11  16  ar  
 24  12  17  1   
 25  12  31  1   
 26  13  16  ar  
 27  13  32  1   
 28  14  33  1   
 29  15  18  1   
 30  15  34  1   
 31  15  35  1   
 32  16  36  1   
 33  17  37  1   
 34  17  38  1   
 35  17  39  1   
 36  18  19  ar  
 37  18  20  ar  
 38  19  21  ar  
 39  20  22  ar  
 40  20  40  1   
 41  21  23  ar  
 42  21  41  1   
 43  22  23  ar  
 44  23  42  1   
@<TRIPOS>SUBSTRUCTURE
  1 ****   3 GROUP 4 **** **** 0

# MOE 2024.06 (io_trps.svl 2023.06)
