@<TRIPOS>MOLECULE
NONAME
50 53 1 0 0 
SMALL
USER_CHARGES


@<TRIPOS>ATOM
  1 S        0.3340    -0.4680    -0.7930 S.3   1 <1>  -0.0800 
  2 C       -0.9360    -1.5920    -0.4750 C.2   1 <1>   0.4420 
  3 C       -0.5050     0.6920     0.2000 C.2   1 <1>   0.3250 
  4 N       -1.8410    -1.0960     0.2820 N.2   1 <1>  -0.3380 
  5 N       -0.8350    -2.8370    -1.0600 N.am  1 <1>  -0.4940 
  6 N       -1.5960     0.1880     0.6600 N.2   1 <1>  -0.3380 
  7 C        0.0460     2.0130     0.4070 C.ar  1 <1>   0.0530 
  8 C       -1.6540    -3.9170    -0.8920 C.2   1 <1>   0.5690 
  9 C       -0.6440     2.9400     1.1910 C.ar  1 <1>  -0.1500 
 10 C        1.2610     2.4360    -0.1420 C.ar  1 <1>  -0.1500 
 11 O       -2.5600    -3.9550    -0.0970 O.2   1 <1>  -0.5700 
 12 C       -1.4120    -5.1670    -1.7300 C.3   1 <1>  -0.0190 
 13 C       -0.1560     4.2140     1.4150 C.ar  1 <1>  -0.1500 
 14 C        1.7530     3.7090     0.0790 C.ar  1 <1>  -0.1500 
 15 C       -2.7760    -5.8020    -2.0660 C.3   1 <1>   0.3430 
 16 C       -0.4740    -6.1530    -0.9860 C.3   1 <1>  -0.1600 
 17 C        1.0470     4.6090     0.8590 C.ar  1 <1>  -0.1440 
 18 N       -3.2640    -6.5530    -0.8760 N.4   1 <1>  -0.9590 
 19 C       -0.9850    -7.6030    -1.0510 C.3   1 <1>  -0.1600 
 20 C        1.5860     6.0070     1.1030 C.3   1 <1>  -0.0970 
 21 C       -2.4290    -7.7510    -0.5410 C.3   1 <1>   0.3430 
 22 C       -4.7230    -6.8520    -0.9230 C.3   1 <1>   0.5230 
 23 C       -5.1950    -7.3400     0.4350 C.2   1 <1>  -0.0400 
 24 O       -4.9050    -8.5720     0.8130 O.3   1 <1>  -0.2800 
 25 C       -5.9050    -6.7070     1.3950 C.2   1 <1>  -0.1500 
 26 C       -5.4210    -8.7530     2.0130 C.2   1 <1>  -0.0100 
 27 C       -6.0520    -7.6360     2.4320 C.2   1 <1>  -0.1500 
 28 H       -0.0310    -2.9470    -1.6730 H     1 <1>   0.3700 
 29 H       -1.5830     2.6570     1.6350 H     1 <1>   0.1500 
 30 H        1.8430     1.7720    -0.7530 H     1 <1>   0.1500 
 31 H       -0.9580    -4.8740    -2.6600 H     1 <1>   0.0800 
 32 H       -0.7190     4.8980     2.0270 H     1 <1>   0.1500 
 33 H        2.6920     4.0010    -0.3580 H     1 <1>   0.1500 
 34 H       -2.6740    -6.4750    -2.9020 H     1 <1>   0.0800 
 35 H       -3.4760    -5.0250    -2.3310 H     1 <1>   0.0800 
 36 H       -0.4020    -5.8730     0.0540 H     1 <1>   0.0800 
 37 H        0.5200    -6.0980    -1.3980 H     1 <1>   0.0800 
 38 H       -3.1590    -5.8820    -0.0890 H     1 <1>   0.4500 
 39 H       -0.3450    -8.2430    -0.4670 H     1 <1>   0.0800 
 40 H       -0.9360    -7.9590    -2.0660 H     1 <1>   0.0800 
 41 H        0.7790     6.7030     1.2420 H     1 <1>   0.0800 
 42 H        2.1760     6.3350     0.2660 H     1 <1>   0.0800 
 43 H        2.2020     6.0100     1.9850 H     1 <1>   0.0800 
 44 H       -2.8660    -8.6390    -0.9700 H     1 <1>   0.0800 
 45 H       -2.4220    -7.8800     0.5300 H     1 <1>   0.0800 
 46 H       -4.9320    -7.6000    -1.6680 H     1 <1>   0.0800 
 47 H       -5.2650    -5.9550    -1.1730 H     1 <1>   0.0800 
 48 H       -6.2960    -5.7030     1.4110 H     1 <1>   0.1500 
 49 H       -5.2960    -9.7060     2.5000 H     1 <1>   0.1500 
 50 H       -6.5700    -7.4630     3.3600 H     1 <1>   0.1500 
@<TRIPOS>BOND
  1   1   2  1   
  2   1   3  1   
  3   2   4  2   
  4   2   5  1   
  5   3   6  2   
  6   3   7  1   
  7   4   6  1   
  8   5   8  am  
  9   5  28  1   
 10   7   9  ar  
 11   7  10  ar  
 12   8  11  2   
 13   8  12  1   
 14   9  13  ar  
 15   9  29  1   
 16  10  14  ar  
 17  10  30  1   
 18  12  15  1   
 19  12  16  1   
 20  12  31  1   
 21  13  17  ar  
 22  13  32  1   
 23  14  17  ar  
 24  14  33  1   
 25  15  18  1   
 26  15  34  1   
 27  15  35  1   
 28  16  19  1   
 29  16  36  1   
 30  16  37  1   
 31  17  20  1   
 32  18  21  1   
 33  18  22  1   
 34  18  38  1   
 35  19  21  1   
 36  19  39  1   
 37  19  40  1   
 38  20  41  1   
 39  20  42  1   
 40  20  43  1   
 41  21  44  1   
 42  21  45  1   
 43  22  23  1   
 44  22  46  1   
 45  22  47  1   
 46  23  24  1   
 47  23  25  2   
 48  24  26  1   
 49  25  27  1   
 50  25  48  1   
 51  26  27  2   
 52  26  49  1   
 53  27  50  1   
@<TRIPOS>SUBSTRUCTURE
  1 ****   2 GROUP 4 **** **** 0

# MOE 2024.06 (io_trps.svl 2023.06)
