@<TRIPOS>MOLECULE
NONAME
50 52 1 0 0 
SMALL
USER_CHARGES


@<TRIPOS>ATOM
  1 O        0.2920    -0.2660    -0.6560 O.2   1 <1>  -0.5700 
  2 C        1.3200    -0.8950    -0.5850 C.2   1 <1>   0.5690 
  3 N        2.5330    -0.3170    -0.7880 N.am  1 <1>  -0.5100 
  4 C        1.2240    -2.3700    -0.2650 C.3   1 <1>  -0.0990 
  5 C        3.8820    -0.6310    -0.2160 C.3   1 <1>   0.2250 
  6 C        2.8620     1.1450    -0.8030 C.3   1 <1>   0.2250 
  7 C        0.3380    -3.0730    -1.2960 C.3   1 <1>   0.0960 
  8 C        3.9740     0.8510     0.2420 C.3   1 <1>   0.2100 
  9 N        0.1610    -4.4920    -0.9300 N.pl3 1 <1>   0.3140 
 10 N        5.2730     1.5020    -0.0380 N.3   1 <1>  -0.7500 
 11 N        1.1290    -5.3760    -1.2000 N.2   1 <1>  -0.7070 
 12 C       -0.8810    -5.0780    -0.3070 C.2   1 <1>  -0.3320 
 13 C        6.3340     0.9630     0.8360 C.3   1 <1>   0.1100 
 14 C        5.1810     2.9640     0.1520 C.3   1 <1>   0.1100 
 15 C        0.6910    -6.5040    -0.7540 C.2   1 <1>   0.1080 
 16 C       -0.5750    -6.4060    -0.1550 C.2   1 <1>  -0.0860 
 17 C       -2.1370    -4.3070     0.0890 C.3   1 <1>  -0.0600 
 18 C        7.6680     1.6970     0.6070 C.3   1 <1>   0.1200 
 19 C        6.5490     3.6380    -0.0560 C.3   1 <1>   0.1200 
 20 C        1.5130    -7.7690    -0.8860 C.3   1 <1>  -0.0590 
 21 C       -1.2800    -7.5060     0.4550 C.2   1 <1>   0.5950 
 22 O        7.5050     3.0730     0.7940 O.3   1 <1>  -0.5600 
 23 O       -1.1610    -8.6550     0.1120 O.2   1 <1>  -0.5700 
 24 C       -2.2080    -7.2540     1.6230 C.3   1 <1>  -0.1790 
 25 H        0.7970    -2.4750     0.7150 H     1 <1>   0.0800 
 26 H        2.1980    -2.8230    -0.2730 H     1 <1>   0.0800 
 27 H        4.5760    -0.9000    -0.9930 H     1 <1>   0.0000 
 28 H        3.8250    -1.3310     0.5980 H     1 <1>   0.0000 
 29 H        2.0560     1.7460    -0.4220 H     1 <1>   0.0000 
 30 H        3.2300     1.4450    -1.7680 H     1 <1>   0.0000 
 31 H        0.7970    -3.0310    -2.2670 H     1 <1>   0.0800 
 32 H       -0.6230    -2.5970    -1.3540 H     1 <1>   0.0800 
 33 H        3.6470     0.9990     1.2560 H     1 <1>   0.0000 
 34 H        6.4750    -0.0840     0.6310 H     1 <1>   0.0800 
 35 H        6.0520     1.0700     1.8700 H     1 <1>   0.0800 
 36 H        4.8310     3.1870     1.1460 H     1 <1>   0.0800 
 37 H        4.4810     3.3770    -0.5530 H     1 <1>   0.0800 
 38 H       -2.5110    -3.7500    -0.7520 H     1 <1>   0.0800 
 39 H       -1.9160    -3.6220     0.8880 H     1 <1>   0.0800 
 40 H       -2.9220    -4.9660     0.4060 H     1 <1>   0.0800 
 41 H        8.0280     1.5240    -0.3920 H     1 <1>   0.0800 
 42 H        8.4080     1.3550     1.3080 H     1 <1>   0.0800 
 43 H        6.4870     4.6870     0.1710 H     1 <1>   0.0800 
 44 H        6.8780     3.5200    -1.0740 H     1 <1>   0.0800 
 45 H        2.4850    -7.5380    -1.2810 H     1 <1>   0.0800 
 46 H        1.0210    -8.4520    -1.5530 H     1 <1>   0.0800 
 47 H        1.6290    -8.2360     0.0740 H     1 <1>   0.0800 
 48 H       -1.9220    -6.3590     2.1430 H     1 <1>   0.0800 
 49 H       -2.1520    -8.0800     2.3080 H     1 <1>   0.0800 
 50 H       -3.2170    -7.1670     1.2680 H     1 <1>   0.0800 
@<TRIPOS>BOND
  1   1   2  2   
  2   2   3  am  
  3   2   4  1   
  4   3   5  1   
  5   3   6  1   
  6   4   7  1   
  7   4  25  1   
  8   4  26  1   
  9   5   8  1   
 10   5  27  1   
 11   5  28  1   
 12   6   8  1   
 13   6  29  1   
 14   6  30  1   
 15   7   9  1   
 16   7  31  1   
 17   7  32  1   
 18   8  10  1   
 19   8  33  1   
 20   9  11  1   
 21   9  12  1   
 22  10  13  1   
 23  10  14  1   
 24  11  15  2   
 25  12  16  2   
 26  12  17  1   
 27  13  18  1   
 28  13  34  1   
 29  13  35  1   
 30  14  19  1   
 31  14  36  1   
 32  14  37  1   
 33  15  16  1   
 34  15  20  1   
 35  16  21  1   
 36  17  38  1   
 37  17  39  1   
 38  17  40  1   
 39  18  22  1   
 40  18  41  1   
 41  18  42  1   
 42  19  22  1   
 43  19  43  1   
 44  19  44  1   
 45  20  45  1   
 46  20  46  1   
 47  20  47  1   
 48  21  23  2   
 49  21  24  1   
 50  24  48  1   
 51  24  49  1   
 52  24  50  1   
@<TRIPOS>SUBSTRUCTURE
  1 ****   4 GROUP 4 **** **** 0

# MOE 2024.06 (io_trps.svl 2023.06)
