@<TRIPOS>MOLECULE
NONAME
58 61 1 0 0 
SMALL
USER_CHARGES


@<TRIPOS>ATOM
  1 O       -0.4540    -0.1490    -0.2510 O.2   1 <1>  -0.5700 
  2 C       -1.5140     0.2710     0.1720 C.2   1 <1>   0.5440 
  3 N       -2.6150    -0.5740     0.1460 N.am  1 <1>  -0.6600 
  4 C       -1.5610     1.6250     0.6850 C.ar  1 <1>   0.0860 
  5 C       -4.0280    -0.1780    -0.1450 C.3   1 <1>   0.2200 
  6 C       -2.3930    -2.0470     0.0840 C.3   1 <1>   0.0600 
  7 C       -1.4980     2.7220    -0.1570 C.ar  1 <1>  -0.1500 
  8 C       -1.6420     1.8580     2.0740 C.ar  1 <1>  -0.1500 
  9 C       -4.1640     0.7340    -1.3670 C.3   1 <1>  -0.1600 
 10 C       -4.7190     0.5080     1.0340 C.3   1 <1>  -0.1600 
 11 C       -1.6000     4.0200     0.3460 C.ar  1 <1>   0.0000 
 12 C       -1.7140     3.1280     2.5940 C.ar  1 <1>  -0.1500 
 13 C       -5.2650     1.7530    -1.0430 C.3   1 <1>  -0.0800 
 14 C       -5.5350     1.6760     0.4610 C.3   1 <1>  -0.0800 
 15 C       -1.7110     4.2150     1.7170 C.ar  1 <1>  -0.1520 
 16 C       -1.6240     5.3040    -0.2450 C.2   1 <1>  -0.1810 
 17 C       -4.8840     3.2150    -1.3410 C.3   1 <1>  -0.1600 
 18 C       -5.1440     3.0480     1.0180 C.3   1 <1>  -0.1600 
 19 N       -1.7950     5.5590     1.9540 N.pl3 1 <1>   0.0330 
 20 C       -1.7530     6.2140     0.7530 C.2   1 <1>  -0.3320 
 21 C       -1.4830     5.5270    -1.7400 C.3   1 <1>  -0.0590 
 22 C       -5.3280     4.0420    -0.1300 C.3   1 <1>   0.4230 
 23 C       -1.8070     7.7310     0.6970 C.3   1 <1>  -0.0600 
 24 N       -6.7640     4.4460    -0.2730 N.4   1 <1>  -0.9590 
 25 C       -6.9750     5.3860    -1.4200 C.3   1 <1>   0.2630 
 26 C       -7.3130     5.0850     0.9660 C.3   1 <1>   0.2630 
 27 H       -4.5960    -1.0680    -0.3630 H     1 <1>   0.0800 
 28 H       -3.1130    -2.5550     0.7010 H     1 <1>   0.0800 
 29 H       -1.4070    -2.2950     0.4410 H     1 <1>   0.0800 
 30 H       -2.4860    -2.3850    -0.9330 H     1 <1>   0.0800 
 31 H       -1.3670     2.5780    -1.2140 H     1 <1>   0.1500 
 32 H       -1.6430     1.0030     2.7270 H     1 <1>   0.1500 
 33 H       -3.2340     1.2130    -1.5950 H     1 <1>   0.0800 
 34 H       -4.4420     0.1480    -2.2250 H     1 <1>   0.0800 
 35 H       -5.3760    -0.1950     1.5140 H     1 <1>   0.0800 
 36 H       -4.0110     0.8400     1.7660 H     1 <1>   0.0800 
 37 H       -1.7700     3.2920     3.6560 H     1 <1>   0.1500 
 38 H       -6.1660     1.4870    -1.5720 H     1 <1>   0.0800 
 39 H       -6.5850     1.5020     0.6270 H     1 <1>   0.0800 
 40 H       -5.2750     3.5450    -2.2840 H     1 <1>   0.0800 
 41 H       -3.8170     3.3060    -1.3990 H     1 <1>   0.0800 
 42 H       -4.0980     3.0390     1.2470 H     1 <1>   0.0800 
 43 H       -5.6590     3.2900     1.9270 H     1 <1>   0.0800 
 44 H       -1.8180     5.9960     2.8810 H     1 <1>   0.2700 
 45 H       -2.2850     5.0470    -2.2670 H     1 <1>   0.0800 
 46 H       -0.5500     5.1110    -2.0770 H     1 <1>   0.0800 
 47 H       -1.4900     6.5740    -1.9790 H     1 <1>   0.0800 
 48 H       -4.7000     4.9100     0.0030 H     1 <1>   0.0800 
 49 H       -1.7700     8.0850    -0.3160 H     1 <1>   0.0800 
 50 H       -0.9680     8.1470     1.2280 H     1 <1>   0.0800 
 51 H       -2.7140     8.0890     1.1500 H     1 <1>   0.0800 
 52 H       -7.2870     3.5780    -0.4540 H     1 <1>   0.4500 
 53 H       -6.3640     6.2660    -1.2980 H     1 <1>   0.0800 
 54 H       -8.0080     5.6890    -1.4690 H     1 <1>   0.0800 
 55 H       -6.7190     4.9160    -2.3540 H     1 <1>   0.0800 
 56 H       -6.7090     5.9320     1.2480 H     1 <1>   0.0800 
 57 H       -7.3290     4.3840     1.7830 H     1 <1>   0.0800 
 58 H       -8.3230     5.4230     0.7950 H     1 <1>   0.0800 
@<TRIPOS>BOND
  1   1   2  2   
  2   2   3  am  
  3   2   4  1   
  4   3   5  1   
  5   3   6  1   
  6   4   7  ar  
  7   4   8  ar  
  8   5   9  1   
  9   5  10  1   
 10   5  27  1   
 11   6  28  1   
 12   6  29  1   
 13   6  30  1   
 14   7  11  ar  
 15   7  31  1   
 16   8  12  ar  
 17   8  32  1   
 18   9  13  1   
 19   9  33  1   
 20   9  34  1   
 21  10  14  1   
 22  10  35  1   
 23  10  36  1   
 24  11  15  ar  
 25  11  16  1   
 26  12  15  ar  
 27  12  37  1   
 28  13  14  1   
 29  13  17  1   
 30  13  38  1   
 31  14  18  1   
 32  14  39  1   
 33  15  19  1   
 34  16  20  2   
 35  16  21  1   
 36  17  22  1   
 37  17  40  1   
 38  17  41  1   
 39  18  22  1   
 40  18  42  1   
 41  18  43  1   
 42  19  20  1   
 43  19  44  1   
 44  20  23  1   
 45  21  45  1   
 46  21  46  1   
 47  21  47  1   
 48  22  24  1   
 49  22  48  1   
 50  23  49  1   
 51  23  50  1   
 52  23  51  1   
 53  24  25  1   
 54  24  26  1   
 55  24  52  1   
 56  25  53  1   
 57  25  54  1   
 58  25  55  1   
 59  26  56  1   
 60  26  57  1   
 61  26  58  1   
@<TRIPOS>SUBSTRUCTURE
  1 ****   7 GROUP 4 **** **** 0

# MOE 2024.06 (io_trps.svl 2023.06)
