@<TRIPOS>MOLECULE
NONAME
53 55 1 0 0 
SMALL
USER_CHARGES


@<TRIPOS>ATOM
  1 O        2.2620    -1.3290    -0.3820 O.2   1 <1>  -0.5700 
  2 C        1.4990    -2.2810    -0.3340 C.2   1 <1>   0.5440 
  3 N        0.2030    -2.0220     0.0760 N.am  1 <1>  -0.6600 
  4 C        1.9910    -3.6020    -0.7370 C.ar  1 <1>   0.3960 
  5 C       -0.2450    -0.6780     0.5040 C.3   1 <1>   0.1400 
  6 C       -0.9260    -2.9810     0.0880 C.3   1 <1>   0.1400 
  7 N        1.4490    -4.7280    -0.2390 N.ar  1 <1>  -0.6200 
  8 C        3.0430    -3.6540    -1.6590 C.ar  1 <1>   0.1600 
  9 C       -1.6730    -0.8770     1.0000 C.3   1 <1>  -0.1600 
 10 C       -2.1690    -2.1170     0.2620 C.3   1 <1>  -0.1600 
 11 C        1.9880    -5.8290    -0.7100 C.ar  1 <1>   0.4100 
 12 N        3.5990    -4.7580    -2.1420 N.ar  1 <1>  -0.6200 
 13 N        1.4120    -6.9680    -0.2220 N.pl3 1 <1>  -0.8690 
 14 C        3.0440    -5.8380    -1.6330 C.ar  1 <1>   0.1600 
 15 C        0.6240    -7.8120    -1.1370 C.3   1 <1>   0.3530 
 16 C       -0.8450    -7.5300    -0.8760 C.ar  1 <1>  -0.1430 
 17 C       -1.5970    -8.3870    -0.0860 C.ar  1 <1>  -0.1500 
 18 C       -1.4460    -6.4050    -1.4210 C.ar  1 <1>  -0.1500 
 19 C       -2.9350    -8.1300     0.1580 C.ar  1 <1>   0.0830 
 20 C       -2.7790    -6.1300    -1.1670 C.ar  1 <1>  -0.1500 
 21 O       -3.6160    -9.0370     0.9010 O.3   1 <1>  -0.3630 
 22 C       -3.5260    -6.9740    -0.3640 C.ar  1 <1>   0.0830 
 23 C       -4.6480    -9.7390     0.2430 C.3   1 <1>   0.0400 
 24 O       -4.8150    -6.6220    -0.1230 O.3   1 <1>  -0.3630 
 25 C       -5.1920    -6.3520     1.2110 C.3   1 <1>   0.2000 
 26 C       -6.7180    -6.3830     1.2650 C.3   1 <1>  -0.2400 
 27 C       -4.6480    -4.9800     1.6120 C.3   1 <1>  -0.2400 
 28 H       -0.2260    -0.0170    -0.3460 H     1 <1>   0.0800 
 29 H        0.3960    -0.2900     1.2770 H     1 <1>   0.0800 
 30 H       -0.8120    -3.6500     0.9250 H     1 <1>   0.0800 
 31 H       -0.9660    -3.5480    -0.8260 H     1 <1>   0.0800 
 32 H        3.4440    -2.7210    -2.0180 H     1 <1>   0.1500 
 33 H       -2.2850    -0.0130     0.8120 H     1 <1>   0.0800 
 34 H       -1.6490    -1.0670     2.0590 H     1 <1>   0.0800 
 35 H       -2.9420    -2.6330     0.8010 H     1 <1>   0.0800 
 36 H       -2.5410    -1.8410    -0.7090 H     1 <1>   0.0800 
 37 H        0.8210    -6.7270     0.5790 H     1 <1>   0.4000 
 38 H        3.4250    -6.7930    -1.9430 H     1 <1>   0.1500 
 39 H        0.8480    -8.8480    -0.9490 H     1 <1>   0.0800 
 40 H        0.8660    -7.5910    -2.1630 H     1 <1>   0.0800 
 41 H       -1.1550    -9.2660     0.3480 H     1 <1>   0.1500 
 42 H       -0.8730    -5.7330    -2.0380 H     1 <1>   0.1500 
 43 H       -3.2450    -5.2550    -1.5840 H     1 <1>   0.1500 
 44 H       -5.0420   -10.4720     0.9230 H     1 <1>   0.0800 
 45 H       -4.2390   -10.2230    -0.6260 H     1 <1>   0.0800 
 46 H       -5.4230    -9.0520    -0.0440 H     1 <1>   0.0800 
 47 H       -4.7910    -7.1160     1.8550 H     1 <1>   0.0800 
 48 H       -7.1300    -5.6390     0.6070 H     1 <1>   0.0800 
 49 H       -7.0530    -6.1830     2.2660 H     1 <1>   0.0800 
 50 H       -7.0740    -7.3540     0.9750 H     1 <1>   0.0800 
 51 H       -5.0080    -4.2250     0.9380 H     1 <1>   0.0800 
 52 H       -3.5730    -4.9920     1.6020 H     1 <1>   0.0800 
 53 H       -4.9690    -4.7370     2.6080 H     1 <1>   0.0800 
@<TRIPOS>BOND
  1   1   2  2   
  2   2   3  am  
  3   2   4  1   
  4   3   5  1   
  5   3   6  1   
  6   4   7  ar  
  7   4   8  ar  
  8   5   9  1   
  9   5  28  1   
 10   5  29  1   
 11   6  10  1   
 12   6  30  1   
 13   6  31  1   
 14   7  11  ar  
 15   8  12  ar  
 16   8  32  1   
 17   9  10  1   
 18   9  33  1   
 19   9  34  1   
 20  10  35  1   
 21  10  36  1   
 22  11  13  1   
 23  11  14  ar  
 24  12  14  ar  
 25  13  15  1   
 26  13  37  1   
 27  14  38  1   
 28  15  16  1   
 29  15  39  1   
 30  15  40  1   
 31  16  17  ar  
 32  16  18  ar  
 33  17  19  ar  
 34  17  41  1   
 35  18  20  ar  
 36  18  42  1   
 37  19  21  1   
 38  19  22  ar  
 39  20  22  ar  
 40  20  43  1   
 41  21  23  1   
 42  22  24  1   
 43  23  44  1   
 44  23  45  1   
 45  23  46  1   
 46  24  25  1   
 47  25  26  1   
 48  25  27  1   
 49  25  47  1   
 50  26  48  1   
 51  26  49  1   
 52  26  50  1   
 53  27  51  1   
 54  27  52  1   
 55  27  53  1   
@<TRIPOS>SUBSTRUCTURE
  1 ****  18 GROUP 4 **** **** 0

# MOE 2024.06 (io_trps.svl 2023.06)
