@<TRIPOS>MOLECULE
NONAME
48 49 1 0 0 
SMALL
USER_CHARGES


@<TRIPOS>ATOM
  1 O       -0.2660    -1.1620     0.4820 O.2   1 <1>  -0.5700 
  2 C       -0.9000    -0.1370     0.3710 C.2   1 <1>   0.5690 
  3 N       -2.0160    -0.0860    -0.4300 N.am  1 <1>  -0.6600 
  4 C       -0.4140     1.0510     1.2040 C.3   1 <1>   0.0440 
  5 C       -2.4530    -1.2950    -1.1990 C.3   1 <1>   0.3210 
  6 C       -2.8510     1.1420    -0.6600 C.3   1 <1>   0.1400 
  7 C        0.0060     2.3160     0.4290 C.ar  1 <1>  -0.1440 
  8 C       -3.8130    -1.7880    -0.7190 C.2   1 <1>   0.0460 
  9 C       -4.0720     1.2480     0.2740 C.3   1 <1>   0.1200 
 10 C        0.9440     2.2380    -0.6040 C.ar  1 <1>  -0.1440 
 11 C       -0.5380     3.5620     0.7550 C.ar  1 <1>  -0.1440 
 12 N       -4.9280    -1.5520    -1.4440 N.2   1 <1>  -0.5650 
 13 C       -4.1110    -2.4700     0.4140 C.2   1 <1>  -0.3320 
 14 O       -3.8000     0.6820     1.5110 O.3   1 <1>  -0.6800 
 15 C        1.2880     3.3770    -1.3130 C.ar  1 <1>  -0.1500 
 16 C        1.6380     0.9400    -1.0020 C.3   1 <1>  -0.0970 
 17 C       -0.1740     4.6860     0.0310 C.ar  1 <1>  -0.1500 
 18 C       -1.5280     3.7630     1.8980 C.3   1 <1>  -0.0970 
 19 C       -5.8720    -2.0890    -0.7430 C.2   1 <1>   0.0360 
 20 N       -5.4430    -2.6620     0.3990 N.pl3 1 <1>   0.0330 
 21 C       -3.2180    -2.9650     1.5390 C.3   1 <1>  -0.0600 
 22 C        0.7320     4.6030    -1.0080 C.ar  1 <1>  -0.1430 
 23 C        1.1210     5.8420    -1.7930 C.3   1 <1>  -0.0970 
 24 H        0.4340     0.7300     1.7780 H     1 <1>   0.0800 
 25 H       -1.1870     1.2530     1.9150 H     1 <1>   0.0800 
 26 H       -1.7430    -2.0950    -1.0940 H     1 <1>   0.0800 
 27 H       -2.5120    -1.0520    -2.2450 H     1 <1>   0.0800 
 28 H       -3.1980     1.1510    -1.6790 H     1 <1>   0.0800 
 29 H       -2.2550     2.0240    -0.5460 H     1 <1>   0.0800 
 30 H       -4.9120     0.7260    -0.1500 H     1 <1>   0.0800 
 31 H       -4.3500     2.2760     0.4200 H     1 <1>   0.0800 
 32 H       -3.5160    -0.2440     1.3440 H     1 <1>   0.4000 
 33 H        2.0030     3.3120    -2.1140 H     1 <1>   0.1500 
 34 H        1.9340     0.3820    -0.1330 H     1 <1>   0.0800 
 35 H        2.5260     1.1400    -1.5750 H     1 <1>   0.0800 
 36 H        0.9800     0.3380    -1.6020 H     1 <1>   0.0800 
 37 H       -0.5960     5.6440     0.2780 H     1 <1>   0.1500 
 38 H       -1.0920     3.4330     2.8240 H     1 <1>   0.0800 
 39 H       -2.4300     3.2100     1.7180 H     1 <1>   0.0800 
 40 H       -1.7910     4.7990     2.0100 H     1 <1>   0.0800 
 41 H       -6.9100    -2.0900    -1.0270 H     1 <1>   0.1500 
 42 H       -6.0130    -3.1410     1.1010 H     1 <1>   0.2700 
 43 H       -2.1860    -2.7510     1.3270 H     1 <1>   0.0800 
 44 H       -3.3220    -4.0290     1.6550 H     1 <1>   0.0800 
 45 H       -3.4830    -2.4850     2.4640 H     1 <1>   0.0800 
 46 H        1.3640     5.5820    -2.8080 H     1 <1>   0.0800 
 47 H        1.9770     6.3050    -1.3370 H     1 <1>   0.0800 
 48 H        0.3110     6.5480    -1.8090 H     1 <1>   0.0800 
@<TRIPOS>BOND
  1   1   2  2   
  2   2   3  am  
  3   2   4  1   
  4   3   5  1   
  5   3   6  1   
  6   4   7  1   
  7   4  24  1   
  8   4  25  1   
  9   5   8  1   
 10   5  26  1   
 11   5  27  1   
 12   6   9  1   
 13   6  28  1   
 14   6  29  1   
 15   7  10  ar  
 16   7  11  ar  
 17   8  12  1   
 18   8  13  2   
 19   9  14  1   
 20   9  30  1   
 21   9  31  1   
 22  10  15  ar  
 23  10  16  1   
 24  11  17  ar  
 25  11  18  1   
 26  12  19  2   
 27  13  20  1   
 28  13  21  1   
 29  14  32  1   
 30  15  22  ar  
 31  15  33  1   
 32  16  34  1   
 33  16  35  1   
 34  16  36  1   
 35  17  22  ar  
 36  17  37  1   
 37  18  38  1   
 38  18  39  1   
 39  18  40  1   
 40  19  20  1   
 41  19  41  1   
 42  20  42  1   
 43  21  43  1   
 44  21  44  1   
 45  21  45  1   
 46  22  23  1   
 47  23  46  1   
 48  23  47  1   
 49  23  48  1   
@<TRIPOS>SUBSTRUCTURE
  1 ****   3 GROUP 4 **** **** 0

# MOE 2024.06 (io_trps.svl 2023.06)
