@<TRIPOS>MOLECULE
NONAME
54 56 1 0 0 
SMALL
USER_CHARGES


@<TRIPOS>ATOM
  1 O       -2.4260     1.9700     2.1290 O.2   1 <1>  -0.5700 
  2 C       -2.3960     1.5790     0.9820 C.2   1 <1>   0.5690 
  3 N       -3.5010     0.9180     0.4720 N.am  1 <1>  -0.6600 
  4 C       -1.0800     1.8590     0.1790 C.3   1 <1>   0.0610 
  5 C       -3.7240     0.4110    -0.9120 C.3   1 <1>   0.1400 
  6 C       -4.6790     0.6290     1.3460 C.3   1 <1>   0.1400 
  7 C       -0.0130     2.5200     1.0870 C.3   1 <1>  -0.2400 
  8 C       -1.3140     2.8550    -0.9780 C.3   1 <1>  -0.2400 
  9 C       -0.4230     0.5620    -0.3450 C.3   1 <1>  -0.2400 
 10 C       -3.8970    -1.1090    -0.8680 C.3   1 <1>  -0.1600 
 11 C       -4.8760    -0.8860     1.4380 C.3   1 <1>  -0.1600 
 12 C       -5.0560    -1.5230     0.0500 C.3   1 <1>   0.4240 
 13 O       -6.2070    -0.9670    -0.5430 O.3   1 <1>  -0.5600 
 14 C       -5.1480    -3.0610     0.1420 C.ar  1 <1>  -0.1440 
 15 C       -7.4380    -1.5280    -0.2070 C.3   1 <1>   0.1200 
 16 C       -6.2990    -3.7400    -0.2370 C.ar  1 <1>  -0.1440 
 17 C       -4.0750    -3.8040     0.6160 C.ar  1 <1>  -0.1500 
 18 C       -7.4920    -2.9540    -0.7450 C.3   1 <1>  -0.0170 
 19 C       -6.3650    -5.1210    -0.1490 C.ar  1 <1>  -0.1500 
 20 C       -4.1180    -5.1850     0.7050 C.ar  1 <1>   0.0820 
 21 C       -5.2880    -5.8640     0.3260 C.ar  1 <1>   0.0820 
 22 O       -2.9730    -5.7580     1.1750 O.3   1 <1>  -0.3620 
 23 O       -5.3610    -7.2230     0.4430 O.3   1 <1>  -0.3620 
 24 C       -2.5960    -7.0690     0.8170 C.3   1 <1>   0.0400 
 25 C       -6.5570    -7.9360     0.2160 C.3   1 <1>   0.0400 
 26 H       -2.9210     0.6580    -1.5700 H     1 <1>   0.0800 
 27 H       -4.6150     0.8670    -1.3100 H     1 <1>   0.0800 
 28 H       -5.5550     1.0910     0.9230 H     1 <1>   0.0800 
 29 H       -4.5440     1.0300     2.3350 H     1 <1>   0.0800 
 30 H       -0.3800     3.4530     1.4800 H     1 <1>   0.0800 
 31 H        0.8960     2.7170     0.5470 H     1 <1>   0.0800 
 32 H        0.2180     1.8790     1.9190 H     1 <1>   0.0800 
 33 H       -1.7280     3.7690    -0.5900 H     1 <1>   0.0800 
 34 H       -1.9910     2.4790    -1.7160 H     1 <1>   0.0800 
 35 H       -0.3870     3.0870    -1.4710 H     1 <1>   0.0800 
 36 H       -0.2820    -0.1270     0.4700 H     1 <1>   0.0800 
 37 H        0.5380     0.7740    -0.7780 H     1 <1>   0.0800 
 38 H       -1.0100     0.0730    -1.0940 H     1 <1>   0.0800 
 39 H       -2.9770    -1.5430    -0.5250 H     1 <1>   0.0800 
 40 H       -4.0830    -1.4850    -1.8570 H     1 <1>   0.0800 
 41 H       -5.7190    -1.1110     2.0620 H     1 <1>   0.0800 
 42 H       -4.0110    -1.3030     1.9180 H     1 <1>   0.0800 
 43 H       -8.2080    -0.9260    -0.6570 H     1 <1>   0.0800 
 44 H       -7.5570    -1.5110     0.8620 H     1 <1>   0.0800 
 45 H       -3.1700    -3.3160     0.9280 H     1 <1>   0.1500 
 46 H       -7.4800    -2.9320    -1.8200 H     1 <1>   0.0800 
 47 H       -8.4080    -3.4180    -0.4250 H     1 <1>   0.0800 
 48 H       -7.2720    -5.6020    -0.4570 H     1 <1>   0.1500 
 49 H       -1.5480    -7.1850     1.0220 H     1 <1>   0.0800 
 50 H       -2.7860    -7.2160    -0.2320 H     1 <1>   0.0800 
 51 H       -3.1610    -7.7650     1.4100 H     1 <1>   0.0800 
 52 H       -6.3730    -8.9730     0.4310 H     1 <1>   0.0800 
 53 H       -6.8420    -7.8230    -0.8150 H     1 <1>   0.0800 
 54 H       -7.3200    -7.5580     0.8740 H     1 <1>   0.0800 
@<TRIPOS>BOND
  1   1   2  2   
  2   2   3  am  
  3   2   4  1   
  4   3   5  1   
  5   3   6  1   
  6   4   7  1   
  7   4   8  1   
  8   4   9  1   
  9   5  10  1   
 10   5  26  1   
 11   5  27  1   
 12   6  11  1   
 13   6  28  1   
 14   6  29  1   
 15   7  30  1   
 16   7  31  1   
 17   7  32  1   
 18   8  33  1   
 19   8  34  1   
 20   8  35  1   
 21   9  36  1   
 22   9  37  1   
 23   9  38  1   
 24  10  12  1   
 25  10  39  1   
 26  10  40  1   
 27  11  12  1   
 28  11  41  1   
 29  11  42  1   
 30  12  13  1   
 31  12  14  1   
 32  13  15  1   
 33  14  16  ar  
 34  14  17  ar  
 35  15  18  1   
 36  15  43  1   
 37  15  44  1   
 38  16  18  1   
 39  16  19  ar  
 40  17  20  ar  
 41  17  45  1   
 42  18  46  1   
 43  18  47  1   
 44  19  21  ar  
 45  19  48  1   
 46  20  21  ar  
 47  20  22  1   
 48  21  23  1   
 49  22  24  1   
 50  23  25  1   
 51  24  49  1   
 52  24  50  1   
 53  24  51  1   
 54  25  52  1   
 55  25  53  1   
 56  25  54  1   
@<TRIPOS>SUBSTRUCTURE
  1 ****  12 GROUP 4 **** **** 0

# MOE 2024.06 (io_trps.svl 2023.06)
