@<TRIPOS>MOLECULE
NONAME
45 47 1 0 0 
SMALL
USER_CHARGES


@<TRIPOS>ATOM
  1 O       -2.2240     1.3300    -2.2950 O.2   1 <1>  -0.5700 
  2 C       -2.2730     1.6370    -1.1150 C.2   1 <1>   0.7160 
  3 N       -3.0150     0.8260    -0.2680 N.am  1 <1>  -0.6600 
  4 C       -1.5430     2.8230    -0.6870 C.2   1 <1>   0.1410 
  5 C       -4.0180    -0.1440    -0.8170 C.3   1 <1>   0.1400 
  6 C       -2.7820     0.7590     1.2040 C.3   1 <1>   0.1400 
  7 N       -1.8100     3.5520     0.4240 N.2   1 <1>  -0.2270 
  8 C       -0.5040     3.4260    -1.3150 C.2   1 <1>  -0.3020 
  9 C       -5.3970    -0.0050    -0.1550 C.3   1 <1>   0.1400 
 10 C       -3.9110     1.4840     1.9460 C.3   1 <1>  -0.1600 
 11 N       -0.9880     4.5360     0.4920 N.2   1 <1>  -0.4180 
 12 N       -0.1830     4.4750    -0.5680 N.pl3 1 <1>   0.3000 
 13 N       -5.3800    -0.4660     1.2710 N.am  1 <1>  -0.6600 
 14 C       -5.1230     0.6020     2.2830 C.3   1 <1>   0.1400 
 15 C       -5.6290    -1.7630     1.6700 C.2   1 <1>   0.5690 
 16 O       -5.6740    -2.0620     2.8420 O.2   1 <1>  -0.5700 
 17 C       -5.8070    -2.9030     0.6870 C.3   1 <1>   0.1570 
 18 N       -7.1060    -2.8380     0.0010 N.pl3 1 <1>   0.3140 
 19 N       -7.1560    -2.7680    -1.3450 N.2   1 <1>  -0.7070 
 20 C       -8.3520    -2.8810     0.5320 C.2   1 <1>  -0.3320 
 21 C       -8.4170    -2.7610    -1.6350 C.2   1 <1>   0.1080 
 22 C       -9.2170    -2.8300    -0.5020 C.2   1 <1>  -0.1500 
 23 C       -8.6770    -2.9740     2.0140 C.3   1 <1>  -0.0600 
 24 C       -8.9210    -2.6900    -3.0570 C.3   1 <1>  -0.0590 
 25 H       -3.6490    -1.1460    -0.6950 H     1 <1>   0.0800 
 26 H       -4.1480     0.0230    -1.8720 H     1 <1>   0.0800 
 27 H       -1.8390     1.2190     1.4440 H     1 <1>   0.0800 
 28 H       -2.7200    -0.2680     1.5210 H     1 <1>   0.0800 
 29 H       -0.0130     3.1540    -2.2310 H     1 <1>   0.1500 
 30 H       -6.1130    -0.5680    -0.7190 H     1 <1>   0.0800 
 31 H       -5.7120     1.0230    -0.2040 H     1 <1>   0.0800 
 32 H       -4.2280     2.3410     1.3790 H     1 <1>   0.0800 
 33 H       -3.5200     1.8620     2.8730 H     1 <1>   0.0800 
 34 H        0.5570     5.1650    -0.7400 H     1 <1>   0.2700 
 35 H       -6.0010     1.2180     2.3760 H     1 <1>   0.0800 
 36 H       -4.9470     0.1510     3.2440 H     1 <1>   0.0800 
 37 H       -5.7530    -3.8370     1.2100 H     1 <1>   0.0800 
 38 H       -5.0250    -2.8780    -0.0450 H     1 <1>   0.0800 
 39 H      -10.2910    -2.8410    -0.4840 H     1 <1>   0.1500 
 40 H       -8.1630    -3.8060     2.4620 H     1 <1>   0.0800 
 41 H       -9.7350    -3.1110     2.1530 H     1 <1>   0.0800 
 42 H       -8.3840    -2.0700     2.5190 H     1 <1>   0.0800 
 43 H       -8.5320    -1.8100    -3.5320 H     1 <1>   0.0800 
 44 H       -9.9940    -2.6560    -3.0740 H     1 <1>   0.0800 
 45 H       -8.5870    -3.5560    -3.5980 H     1 <1>   0.0800 
@<TRIPOS>BOND
  1   1   2  2   
  2   2   3  am  
  3   2   4  1   
  4   3   5  1   
  5   3   6  1   
  6   4   7  1   
  7   4   8  2   
  8   5   9  1   
  9   5  25  1   
 10   5  26  1   
 11   6  10  1   
 12   6  27  1   
 13   6  28  1   
 14   7  11  2   
 15   8  12  1   
 16   8  29  1   
 17   9  13  1   
 18   9  30  1   
 19   9  31  1   
 20  10  14  1   
 21  10  32  1   
 22  10  33  1   
 23  11  12  1   
 24  12  34  1   
 25  13  14  1   
 26  13  15  am  
 27  14  35  1   
 28  14  36  1   
 29  15  16  2   
 30  15  17  1   
 31  17  18  1   
 32  17  37  1   
 33  17  38  1   
 34  18  19  1   
 35  18  20  1   
 36  19  21  2   
 37  20  22  2   
 38  20  23  1   
 39  21  22  1   
 40  21  24  1   
 41  22  39  1   
 42  23  40  1   
 43  23  41  1   
 44  23  42  1   
 45  24  43  1   
 46  24  44  1   
 47  24  45  1   
@<TRIPOS>SUBSTRUCTURE
  1 ****   9 GROUP 4 **** **** 0

# MOE 2024.06 (io_trps.svl 2023.06)
