@<TRIPOS>MOLECULE
NONAME
44 47 1 0 0 
SMALL
USER_CHARGES


@<TRIPOS>ATOM
  1 F       -1.1900     2.8550    -1.9660 F     1 <1>  -0.1900 
  2 C       -1.7350     1.9860    -1.1520 C.ar  1 <1>   0.1900 
  3 C       -1.7100     2.2180     0.2190 C.ar  1 <1>  -0.0230 
  4 C       -2.3100     0.8600    -1.7090 C.ar  1 <1>  -0.1500 
  5 N       -1.1220     3.3880     0.7670 N.pl3 1 <1>   0.5930 
  6 C       -2.2830     1.2510     1.0410 C.ar  1 <1>  -0.1500 
  7 C       -2.8810    -0.0830    -0.8710 C.ar  1 <1>  -0.1500 
  8 N       -0.2870     3.3710     1.8360 N.2   1 <1>  -0.7070 
  9 C       -1.2710     4.6680     0.3400 C.2   1 <1>  -0.3020 
 10 C       -2.8640     0.1140     0.5010 C.ar  1 <1>  -0.1500 
 11 C        0.0630     4.5970     2.0440 C.2   1 <1>   0.1390 
 12 C       -0.5150     5.4650     1.1260 C.2   1 <1>  -0.1810 
 13 C       -0.2940     6.9590     1.0440 C.3   1 <1>   0.5240 
 14 N        1.0740     7.1980     0.5170 N.4   1 <1>  -0.9590 
 15 C        1.5150     8.6330     0.6670 C.3   1 <1>   0.3430 
 16 C        1.2920     6.5720    -0.8350 C.3   1 <1>   0.3430 
 17 C        3.0240     8.8940     0.3950 C.3   1 <1>   0.2200 
 18 C        2.7690     6.4330    -1.2300 C.3   1 <1>  -0.0190 
 19 N        3.3070     8.8340    -1.0570 N.am  1 <1>  -0.7300 
 20 C        3.9690     7.9390     1.1670 C.3   1 <1>   0.1200 
 21 C        3.2250     7.7360    -1.8280 C.2   1 <1>   0.5690 
 22 C        3.7400     5.9370    -0.1340 C.3   1 <1>   0.1200 
 23 O        3.5690     6.5940     1.0950 O.3   1 <1>  -0.5600 
 24 O        3.4810     7.7950    -2.9990 O.2   1 <1>  -0.5700 
 25 H       -2.3090     0.7210    -2.7760 H     1 <1>   0.1500 
 26 H       -2.2700     1.3870     2.1110 H     1 <1>   0.1500 
 27 H       -3.3340    -0.9690    -1.2830 H     1 <1>   0.1500 
 28 H       -1.9010     4.9090    -0.4970 H     1 <1>   0.1500 
 29 H       -3.3040    -0.6230     1.1520 H     1 <1>   0.1500 
 30 H        0.7310     4.8830     2.8430 H     1 <1>   0.1500 
 31 H       -0.4010     7.3910     2.0260 H     1 <1>   0.0800 
 32 H       -1.0270     7.4010     0.3890 H     1 <1>   0.0800 
 33 H        1.7310     6.6650     1.1220 H     1 <1>   0.4500 
 34 H        0.9350     9.2630     0.0130 H     1 <1>   0.0800 
 35 H        1.3130     8.9450     1.6790 H     1 <1>   0.0800 
 36 H        0.8730     5.5790    -0.8320 H     1 <1>   0.0800 
 37 H        0.7730     7.1380    -1.5920 H     1 <1>   0.0800 
 38 H        3.2470     9.8990     0.7130 H     1 <1>   0.0800 
 39 H        2.8110     5.7140    -2.0290 H     1 <1>   0.0800 
 40 H        3.6770     9.6750    -1.5150 H     1 <1>   0.3700 
 41 H        3.9640     8.2040     2.2110 H     1 <1>   0.0800 
 42 H        4.9830     8.0260     0.8110 H     1 <1>   0.0800 
 43 H        4.7650     6.0500    -0.4490 H     1 <1>   0.0800 
 44 H        3.5650     4.8900     0.0480 H     1 <1>   0.0800 
@<TRIPOS>BOND
  1   1   2  1   
  2   2   3  ar  
  3   2   4  ar  
  4   3   5  1   
  5   3   6  ar  
  6   4   7  ar  
  7   4  25  1   
  8   5   8  1   
  9   5   9  1   
 10   6  10  ar  
 11   6  26  1   
 12   7  10  ar  
 13   7  27  1   
 14   8  11  2   
 15   9  12  2   
 16   9  28  1   
 17  10  29  1   
 18  11  12  1   
 19  11  30  1   
 20  12  13  1   
 21  13  14  1   
 22  13  31  1   
 23  13  32  1   
 24  14  15  1   
 25  14  16  1   
 26  14  33  1   
 27  15  17  1   
 28  15  34  1   
 29  15  35  1   
 30  16  18  1   
 31  16  36  1   
 32  16  37  1   
 33  17  19  1   
 34  17  20  1   
 35  17  38  1   
 36  18  21  1   
 37  18  22  1   
 38  18  39  1   
 39  19  21  am  
 40  19  40  1   
 41  20  23  1   
 42  20  41  1   
 43  20  42  1   
 44  21  24  2   
 45  22  23  1   
 46  22  43  1   
 47  22  44  1   
@<TRIPOS>SUBSTRUCTURE
  1 ****  12 GROUP 4 **** **** 0

# MOE 2024.06 (io_trps.svl 2023.06)
