@<TRIPOS>MOLECULE
NONAME
46 48 1 0 0 
SMALL
USER_CHARGES


@<TRIPOS>ATOM
  1 S       -1.3950     0.5240    -0.8970 S.o2  1 <1>   1.2040 
  2 O       -1.8950     0.4130    -2.2480 O.2   1 <1>  -0.6500 
  3 O       -1.4000     1.8050    -0.2270 O.2   1 <1>  -0.6500 
  4 C       -2.2210    -0.7100     0.1390 C.ar  1 <1>  -0.0090 
  5 C        0.2900    -0.0580    -0.9060 C.3   1 <1>  -0.1350 
  6 C       -2.3760    -2.0160    -0.3030 C.ar  1 <1>  -0.1500 
  7 C       -2.7030    -0.3910     1.4020 C.ar  1 <1>  -0.1500 
  8 C       -2.9820    -3.0050     0.4700 C.ar  1 <1>   0.0860 
  9 C       -3.3080    -1.3480     2.1970 C.ar  1 <1>  -0.1500 
 10 C       -3.1090    -4.3600    -0.0340 C.2   1 <1>   0.5440 
 11 C       -3.4390    -2.6430     1.7340 C.ar  1 <1>  -0.1500 
 12 O       -2.1580    -4.8680    -0.5980 O.2   1 <1>  -0.5700 
 13 N       -4.2550    -5.1100     0.1290 N.am  1 <1>  -0.6600 
 14 C       -5.6140    -4.7090    -0.3380 C.3   1 <1>   0.2200 
 15 C       -4.1150    -6.5800     0.3310 C.3   1 <1>   0.0600 
 16 C       -6.5400    -4.3470     0.8150 C.3   1 <1>  -0.1600 
 17 C       -5.6960    -3.5010    -1.2700 C.3   1 <1>  -0.1600 
 18 C       -7.7100    -3.6070     0.1490 C.3   1 <1>  -0.0800 
 19 C       -7.1710    -3.0850    -1.2080 C.3   1 <1>  -0.0800 
 20 C       -8.3410    -2.5400     1.0650 C.3   1 <1>   0.1400 
 21 C       -7.3910    -1.5770    -1.4460 C.3   1 <1>  -0.0990 
 22 N       -9.1560    -1.6180     0.2490 N.am  1 <1>  -0.7300 
 23 C       -8.7570    -1.1490    -0.9510 C.2   1 <1>   0.5690 
 24 O       -9.4530    -0.4160    -1.6050 O.2   1 <1>  -0.5700 
 25 H        0.3460    -1.0430    -1.3270 H     1 <1>   0.0800 
 26 H        0.6820    -0.0840     0.0920 H     1 <1>   0.0800 
 27 H        0.9000     0.5990    -1.4950 H     1 <1>   0.0800 
 28 H       -2.0180    -2.2890    -1.2820 H     1 <1>   0.1500 
 29 H       -2.6040     0.6190     1.7700 H     1 <1>   0.1500 
 30 H       -3.6700    -1.0830     3.1760 H     1 <1>   0.1500 
 31 H       -3.8920    -3.3930     2.3590 H     1 <1>   0.1500 
 32 H       -6.0510    -5.5410    -0.8670 H     1 <1>   0.0800 
 33 H       -4.8720    -6.9340     1.0080 H     1 <1>   0.0800 
 34 H       -3.1480    -6.8070     0.7460 H     1 <1>   0.0800 
 35 H       -4.2110    -7.0880    -0.6130 H     1 <1>   0.0800 
 36 H       -6.8730    -5.2210     1.3450 H     1 <1>   0.0800 
 37 H       -6.0270    -3.6880     1.4900 H     1 <1>   0.0800 
 38 H       -5.0990    -2.6900    -0.9050 H     1 <1>   0.0800 
 39 H       -5.3930    -3.7510    -2.2720 H     1 <1>   0.0800 
 40 H       -8.4760    -4.3330    -0.0680 H     1 <1>   0.0800 
 41 H       -7.7020    -3.6160    -1.9820 H     1 <1>   0.0800 
 42 H       -7.5730    -1.9690     1.5590 H     1 <1>   0.0800 
 43 H       -8.9560    -3.0100     1.8130 H     1 <1>   0.0800 
 44 H       -7.2980    -1.3480    -2.4920 H     1 <1>   0.0800 
 45 H       -6.6610    -0.9980    -0.9110 H     1 <1>   0.0800 
 46 H      -10.0650    -1.3090     0.6010 H     1 <1>   0.3700 
@<TRIPOS>BOND
  1   1   2  2   
  2   1   3  2   
  3   1   4  1   
  4   1   5  1   
  5   4   6  ar  
  6   4   7  ar  
  7   5  25  1   
  8   5  26  1   
  9   5  27  1   
 10   6   8  ar  
 11   6  28  1   
 12   7   9  ar  
 13   7  29  1   
 14   8  10  1   
 15   8  11  ar  
 16   9  11  ar  
 17   9  30  1   
 18  10  12  2   
 19  10  13  am  
 20  11  31  1   
 21  13  14  1   
 22  13  15  1   
 23  14  16  1   
 24  14  17  1   
 25  14  32  1   
 26  15  33  1   
 27  15  34  1   
 28  15  35  1   
 29  16  18  1   
 30  16  36  1   
 31  16  37  1   
 32  17  19  1   
 33  17  38  1   
 34  17  39  1   
 35  18  19  1   
 36  18  20  1   
 37  18  40  1   
 38  19  21  1   
 39  19  41  1   
 40  20  22  1   
 41  20  42  1   
 42  20  43  1   
 43  21  23  1   
 44  21  44  1   
 45  21  45  1   
 46  22  23  am  
 47  22  46  1   
 48  23  24  2   
@<TRIPOS>SUBSTRUCTURE
  1 ****   8 GROUP 4 **** **** 0

# MOE 2024.06 (io_trps.svl 2023.06)
