@<TRIPOS>MOLECULE
NONAME
44 45 1 0 0 
SMALL
USER_CHARGES


@<TRIPOS>ATOM
  1 O        2.9020    -1.3920     1.9570 O.2   1 <1>  -0.5700 
  2 C        2.4180    -1.3710     0.8470 C.2   1 <1>   0.5690 
  3 N        2.2160    -0.2150     0.1490 N.am  1 <1>  -0.4930 
  4 C        2.0640    -2.7040     0.1800 C.3   1 <1>   0.2370 
  5 C        2.5360     1.1360     0.4400 C.2   1 <1>   0.0630 
  6 N        0.9420    -2.4970    -0.7740 N.pl3 1 <1>   0.3140 
  7 C        1.7660    -3.8500     1.1740 C.3   1 <1>  -0.2400 
  8 C        2.5200     1.8430     1.6480 C.2   1 <1>   0.1080 
  9 C        2.9140     2.0450    -0.4840 C.2   1 <1>  -0.3320 
 10 N        1.1590    -1.9150    -1.9770 N.2   1 <1>  -0.7070 
 11 C       -0.3700    -2.7710    -0.6070 C.2   1 <1>  -0.3020 
 12 N        2.8680     3.0830     1.4920 N.2   1 <1>  -0.7070 
 13 C        2.1370     1.3040     3.0080 C.3   1 <1>  -0.0590 
 14 N        3.1140     3.2130     0.1780 N.pl3 1 <1>   0.3140 
 15 C        3.1030     1.8630    -1.9850 C.3   1 <1>  -0.0600 
 16 C       -0.0110    -1.8550    -2.5380 C.2   1 <1>   0.1390 
 17 C       -1.0100    -2.3750    -1.7260 C.2   1 <1>  -0.1810 
 18 C        3.5460     4.5070    -0.3870 C.3   1 <1>   0.0960 
 19 C       -2.4880    -2.4610    -2.0490 C.3   1 <1>  -0.0590 
 20 C        2.3400     5.3380    -0.8490 C.3   1 <1>  -0.1600 
 21 C        2.7790     6.6790    -1.4460 C.3   1 <1>  -0.2400 
 22 H        1.8420    -0.3560    -0.7990 H     1 <1>   0.3700 
 23 H        2.9160    -2.9930    -0.4060 H     1 <1>   0.0800 
 24 H        0.9730    -3.5710     1.8450 H     1 <1>   0.0800 
 25 H        2.6430    -4.0520     1.7640 H     1 <1>   0.0800 
 26 H        1.4990    -4.7480     0.6460 H     1 <1>   0.0800 
 27 H       -0.7770    -3.2220     0.2790 H     1 <1>   0.1500 
 28 H        1.3360     0.5960     2.9120 H     1 <1>   0.0800 
 29 H        1.8170     2.1100     3.6420 H     1 <1>   0.0800 
 30 H        2.9860     0.8240     3.4550 H     1 <1>   0.0800 
 31 H        2.8850     0.8520    -2.2780 H     1 <1>   0.0800 
 32 H        4.1190     2.0810    -2.2590 H     1 <1>   0.0800 
 33 H        2.4450     2.5200    -2.5250 H     1 <1>   0.0800 
 34 H       -0.1780    -1.4460    -3.5210 H     1 <1>   0.1500 
 35 H        4.2130     4.3210    -1.2070 H     1 <1>   0.0800 
 36 H        4.0840     5.0380     0.3770 H     1 <1>   0.0800 
 37 H       -3.0210    -2.9090    -1.2300 H     1 <1>   0.0800 
 38 H       -2.6370    -3.0610    -2.9290 H     1 <1>   0.0800 
 39 H       -2.8840    -1.4770    -2.2240 H     1 <1>   0.0800 
 40 H        1.6960     5.5180    -0.0040 H     1 <1>   0.0800 
 41 H        1.7830     4.7860    -1.5860 H     1 <1>   0.0800 
 42 H        3.3180     7.2580    -0.7160 H     1 <1>   0.0800 
 43 H        1.9160     7.2430    -1.7550 H     1 <1>   0.0800 
 44 H        3.4100     6.5240    -2.3030 H     1 <1>   0.0800 
@<TRIPOS>BOND
  1   1   2  2   
  2   2   3  am  
  3   2   4  1   
  4   3   5  1   
  5   3  22  1   
  6   4   6  1   
  7   4   7  1   
  8   4  23  1   
  9   5   8  1   
 10   5   9  2   
 11   6  10  1   
 12   6  11  1   
 13   7  24  1   
 14   7  25  1   
 15   7  26  1   
 16   8  12  2   
 17   8  13  1   
 18   9  14  1   
 19   9  15  1   
 20  10  16  2   
 21  11  17  2   
 22  11  27  1   
 23  12  14  1   
 24  13  28  1   
 25  13  29  1   
 26  13  30  1   
 27  14  18  1   
 28  15  31  1   
 29  15  32  1   
 30  15  33  1   
 31  16  17  1   
 32  16  34  1   
 33  17  19  1   
 34  18  20  1   
 35  18  35  1   
 36  18  36  1   
 37  19  37  1   
 38  19  38  1   
 39  19  39  1   
 40  20  21  1   
 41  20  40  1   
 42  20  41  1   
 43  21  42  1   
 44  21  43  1   
 45  21  44  1   
@<TRIPOS>SUBSTRUCTURE
  1 ****   3 GROUP 4 **** **** 0

# MOE 2024.06 (io_trps.svl 2023.06)
