@<TRIPOS>MOLECULE
NONAME
40 42 1 0 0 
SMALL
USER_CHARGES


@<TRIPOS>ATOM
  1 CL      -0.2640    -5.2520    -2.5330 Cl    1 <1>  -0.1770 
  2 C       -1.3060    -4.2650    -1.5360 C.ar  1 <1>   0.1770 
  3 C       -1.5150    -2.9270    -1.8250 C.ar  1 <1>   0.1770 
  4 C       -1.9360    -4.8560    -0.4570 C.ar  1 <1>  -0.1500 
  5 CL      -0.7260    -2.1720    -3.1880 Cl    1 <1>  -0.1770 
  6 C       -2.3610    -2.1710    -1.0350 C.ar  1 <1>  -0.1500 
  7 C       -2.8010    -4.1080     0.3320 C.ar  1 <1>  -0.1440 
  8 C       -3.0050    -2.7630     0.0420 C.ar  1 <1>  -0.1500 
  9 C       -3.5250    -4.7720     1.4880 C.3   1 <1>   0.4870 
 10 N       -4.5840    -5.6280     0.9030 N.4   1 <1>  -0.9590 
 11 C       -5.7490    -4.8970     0.3240 C.3   1 <1>   0.3430 
 12 C       -5.1350    -6.6970     1.7640 C.3   1 <1>   0.3430 
 13 C       -6.9240    -5.8860     0.3660 C.3   1 <1>   0.2000 
 14 C       -6.3880    -7.1680     1.0220 C.3   1 <1>  -0.0800 
 15 O       -7.9380    -5.3600     1.1560 O.3   1 <1>  -0.6800 
 16 C       -6.0970    -8.2960    -0.0040 C.3   1 <1>  -0.0160 
 17 C       -4.8250    -8.1430    -0.8390 C.ar  1 <1>   0.1670 
 18 N       -4.7390    -7.0740    -1.6200 N.ar  1 <1>  -0.6200 
 19 C       -3.8220    -9.1070    -0.7560 C.ar  1 <1>   0.1600 
 20 C       -3.6290    -7.0660    -2.3470 C.ar  1 <1>   0.1600 
 21 N       -2.6890    -9.0630    -1.4320 N.ar  1 <1>  -0.6200 
 22 C       -2.6320    -8.0280    -2.2510 C.ar  1 <1>   0.1600 
 23 H       -1.7410    -5.8960    -0.2520 H     1 <1>   0.1500 
 24 H       -2.5120    -1.1300    -1.2660 H     1 <1>   0.1500 
 25 H       -3.6640    -2.1590     0.6460 H     1 <1>   0.1500 
 26 H       -3.9530    -4.0340     2.1470 H     1 <1>   0.0800 
 27 H       -2.8260    -5.3740     2.0460 H     1 <1>   0.0800 
 28 H       -4.1740    -6.1050     0.0760 H     1 <1>   0.4500 
 29 H       -5.9890    -4.0220     0.9050 H     1 <1>   0.0800 
 30 H       -5.5380    -4.6090    -0.6940 H     1 <1>   0.0800 
 31 H       -4.4290    -7.4990     1.9070 H     1 <1>   0.0800 
 32 H       -5.4130    -6.2880     2.7220 H     1 <1>   0.0800 
 33 H       -7.3290    -6.0530    -0.6190 H     1 <1>   0.0800 
 34 H       -7.1070    -7.5570     1.7240 H     1 <1>   0.0800 
 35 H       -7.7450    -5.3840     2.1130 H     1 <1>   0.4000 
 36 H       -6.9340    -8.3880    -0.6760 H     1 <1>   0.0800 
 37 H       -6.0420    -9.2270     0.5330 H     1 <1>   0.0800 
 38 H       -3.9540    -9.9540    -0.1050 H     1 <1>   0.1500 
 39 H       -3.4950    -6.2610    -3.0490 H     1 <1>   0.1500 
 40 H       -1.7570    -7.9370    -2.8730 H     1 <1>   0.1500 
@<TRIPOS>BOND
  1   1   2  1   
  2   2   3  ar  
  3   2   4  ar  
  4   3   5  1   
  5   3   6  ar  
  6   4   7  ar  
  7   4  23  1   
  8   6   8  ar  
  9   6  24  1   
 10   7   8  ar  
 11   7   9  1   
 12   8  25  1   
 13   9  10  1   
 14   9  26  1   
 15   9  27  1   
 16  10  11  1   
 17  10  12  1   
 18  10  28  1   
 19  11  13  1   
 20  11  29  1   
 21  11  30  1   
 22  12  14  1   
 23  12  31  1   
 24  12  32  1   
 25  13  14  1   
 26  13  15  1   
 27  13  33  1   
 28  14  16  1   
 29  14  34  1   
 30  15  35  1   
 31  16  17  1   
 32  16  36  1   
 33  16  37  1   
 34  17  18  ar  
 35  17  19  ar  
 36  18  20  ar  
 37  19  21  ar  
 38  19  38  1   
 39  20  22  ar  
 40  20  39  1   
 41  21  22  ar  
 42  22  40  1   
@<TRIPOS>SUBSTRUCTURE
  1 ****  10 GROUP 4 **** **** 0

# MOE 2024.06 (io_trps.svl 2023.06)
