@<TRIPOS>MOLECULE
NONAME
58 61 1 0 0 
SMALL
USER_CHARGES


@<TRIPOS>ATOM
  1 O       -2.5260     1.9630    -2.4060 O.2   1 <1>  -0.5700 
  2 C       -2.9050     1.8040    -1.2690 C.2   1 <1>   0.5690 
  3 N       -3.9980     1.0290    -0.9730 N.am  1 <1>  -0.6600 
  4 C       -2.1390     2.5020    -0.1590 C.3   1 <1>  -0.0990 
  5 C       -4.5650     0.8100     0.3880 C.3   1 <1>   0.1400 
  6 C       -4.7400     0.2980    -2.0380 C.3   1 <1>   0.1400 
  7 C       -0.8580     3.1800    -0.6620 C.3   1 <1>   0.0960 
  8 C       -4.5160    -0.6840     0.7160 C.3   1 <1>  -0.1600 
  9 C       -4.6950    -1.2020    -1.7410 C.3   1 <1>  -0.1600 
 10 N       -0.2110     3.9200     0.4380 N.pl3 1 <1>   0.3140 
 11 C       -5.2470    -1.5260    -0.3410 C.3   1 <1>   0.4240 
 12 N        0.5340     3.2840     1.3610 N.2   1 <1>  -0.7070 
 13 C       -0.2850     5.2470     0.6970 C.2   1 <1>  -0.3320 
 14 O       -6.5880    -1.0980    -0.2880 O.3   1 <1>  -0.5600 
 15 C       -5.1140    -3.0290    -0.0180 C.ar  1 <1>  -0.1440 
 16 C        0.9230     4.2150     2.1760 C.2   1 <1>   0.1390 
 17 C        0.4420     5.4660     1.8130 C.2   1 <1>  -0.1500 
 18 C       -1.0510     6.2600    -0.1370 C.3   1 <1>  -0.0600 
 19 C       -7.5600    -1.9630    -0.7910 C.3   1 <1>   0.1200 
 20 C       -6.2330    -3.8240     0.1940 C.ar  1 <1>  -0.1440 
 21 C       -3.8620    -3.6250     0.0600 C.ar  1 <1>  -0.1500 
 22 C       -7.6140    -3.2070     0.0910 C.3   1 <1>  -0.0170 
 23 C       -6.0960    -5.1690     0.4970 C.ar  1 <1>  -0.1500 
 24 C       -3.7050    -4.9700     0.3490 C.ar  1 <1>   0.0820 
 25 C       -4.8390    -5.7610     0.5890 C.ar  1 <1>   0.0820 
 26 O       -2.4090    -5.3960     0.3740 O.3   1 <1>  -0.3620 
 27 O       -4.7020    -7.0790     0.9220 O.3   1 <1>  -0.3620 
 28 C       -2.0610    -6.7270     0.0640 C.3   1 <1>   0.0400 
 29 C       -5.7730    -7.8340     1.4430 C.3   1 <1>   0.0400 
 30 H       -1.8680     1.7760     0.5850 H     1 <1>   0.0800 
 31 H       -2.7820     3.2400     0.2820 H     1 <1>   0.0800 
 32 H       -5.5870     1.1520     0.4010 H     1 <1>   0.0800 
 33 H       -4.0260     1.3600     1.1370 H     1 <1>   0.0800 
 34 H       -4.3080     0.4870    -3.0060 H     1 <1>   0.0800 
 35 H       -5.7600     0.6420    -2.0570 H     1 <1>   0.0800 
 36 H       -1.0810     3.8620    -1.4600 H     1 <1>   0.0800 
 37 H       -0.1690     2.4400    -1.0270 H     1 <1>   0.0800 
 38 H       -4.9640    -0.8630     1.6760 H     1 <1>   0.0800 
 39 H       -3.4860    -0.9810     0.7800 H     1 <1>   0.0800 
 40 H       -3.6730    -1.5230    -1.8090 H     1 <1>   0.0800 
 41 H       -5.2430    -1.7430    -2.4890 H     1 <1>   0.0800 
 42 H        1.5480     4.0280     3.0330 H     1 <1>   0.1500 
 43 H        0.6270     6.3880     2.3330 H     1 <1>   0.1500 
 44 H       -2.0930     5.9970    -0.1810 H     1 <1>   0.0800 
 45 H       -0.6540     6.2960    -1.1360 H     1 <1>   0.0800 
 46 H       -0.9650     7.2400     0.2990 H     1 <1>   0.0800 
 47 H       -7.3180    -2.2180    -1.8070 H     1 <1>   0.0800 
 48 H       -8.5030    -1.4460    -0.7710 H     1 <1>   0.0800 
 49 H       -2.9710    -3.0470    -0.1080 H     1 <1>   0.1500 
 50 H       -8.3060    -3.9110    -0.3340 H     1 <1>   0.0800 
 51 H       -7.9640    -2.9360     1.0710 H     1 <1>   0.0800 
 52 H       -6.9870    -5.7430     0.6580 H     1 <1>   0.1500 
 53 H       -1.0140    -6.7530    -0.1760 H     1 <1>   0.0800 
 54 H       -2.6420    -7.0550    -0.7800 H     1 <1>   0.0800 
 55 H       -2.2520    -7.3440     0.9230 H     1 <1>   0.0800 
 56 H       -5.3900    -8.7940     1.7410 H     1 <1>   0.0800 
 57 H       -6.5170    -7.9610     0.6780 H     1 <1>   0.0800 
 58 H       -6.1780    -7.3220     2.2980 H     1 <1>   0.0800 
@<TRIPOS>BOND
  1   1   2  2   
  2   2   3  am  
  3   2   4  1   
  4   3   5  1   
  5   3   6  1   
  6   4   7  1   
  7   4  30  1   
  8   4  31  1   
  9   5   8  1   
 10   5  32  1   
 11   5  33  1   
 12   6   9  1   
 13   6  34  1   
 14   6  35  1   
 15   7  10  1   
 16   7  36  1   
 17   7  37  1   
 18   8  11  1   
 19   8  38  1   
 20   8  39  1   
 21   9  11  1   
 22   9  40  1   
 23   9  41  1   
 24  10  12  1   
 25  10  13  1   
 26  11  14  1   
 27  11  15  1   
 28  12  16  2   
 29  13  17  2   
 30  13  18  1   
 31  14  19  1   
 32  15  20  ar  
 33  15  21  ar  
 34  16  17  1   
 35  16  42  1   
 36  17  43  1   
 37  18  44  1   
 38  18  45  1   
 39  18  46  1   
 40  19  22  1   
 41  19  47  1   
 42  19  48  1   
 43  20  22  1   
 44  20  23  ar  
 45  21  24  ar  
 46  21  49  1   
 47  22  50  1   
 48  22  51  1   
 49  23  25  ar  
 50  23  52  1   
 51  24  25  ar  
 52  24  26  1   
 53  25  27  1   
 54  26  28  1   
 55  27  29  1   
 56  28  53  1   
 57  28  54  1   
 58  28  55  1   
 59  29  56  1   
 60  29  57  1   
 61  29  58  1   
@<TRIPOS>SUBSTRUCTURE
  1 ****   8 GROUP 4 **** **** 0

# MOE 2024.06 (io_trps.svl 2023.06)
