@<TRIPOS>MOLECULE
NONAME
40 42 1 0 0 
SMALL
USER_CHARGES


@<TRIPOS>ATOM
  1 O        0.4720     0.4780    -0.4010 O.2   1 <1>  -0.5700 
  2 C        1.6430     0.2520    -0.2160 C.2   1 <1>   0.5690 
  3 N        2.6480     1.1730    -0.1130 N.am  1 <1>  -0.4770 
  4 C        2.1600    -1.1520    -0.0620 C.3   1 <1>  -0.0990 
  5 C        2.5300     2.5730    -0.1010 C.ar  1 <1>   0.1170 
  6 C        3.9430     0.5070     0.1420 C.3   1 <1>   0.1400 
  7 C        3.6840    -0.9860    -0.0950 C.3   1 <1>  -0.1600 
  8 C        3.4760     3.3840    -0.7210 C.ar  1 <1>  -0.1500 
  9 C        1.4620     3.2000     0.5330 C.ar  1 <1>  -0.1500 
 10 C        3.3670     4.7620    -0.6920 C.ar  1 <1>  -0.1500 
 11 C        1.3540     4.5760     0.5610 C.ar  1 <1>  -0.1500 
 12 C        2.3080     5.3990    -0.0390 C.ar  1 <1>   0.0860 
 13 C        2.1930     6.8430     0.0190 C.2   1 <1>   0.5440 
 14 O        1.0960     7.3710     0.0310 O.2   1 <1>  -0.5700 
 15 N        3.3300     7.6090     0.0840 N.am  1 <1>  -0.4930 
 16 C        3.4770     9.0210     0.0780 C.2   1 <1>   0.0630 
 17 C        4.6600     9.7410     0.2690 C.2   1 <1>   0.1080 
 18 C        2.5400     9.9700    -0.1150 C.2   1 <1>  -0.3020 
 19 N        4.4750    11.0230     0.1990 N.2   1 <1>  -0.7070 
 20 C        6.0240     9.1420     0.5310 C.3   1 <1>  -0.0590 
 21 N        3.1590    11.1640    -0.0360 N.pl3 1 <1>   0.3140 
 22 C        2.5310    12.4810    -0.1820 C.3   1 <1>   0.0160 
 23 H        1.8050    -1.7770    -0.8610 H     1 <1>   0.0800 
 24 H        1.8310    -1.5420     0.8830 H     1 <1>   0.0800 
 25 H        4.2340     0.6850     1.1640 H     1 <1>   0.0800 
 26 H        4.7070     0.8710    -0.5220 H     1 <1>   0.0800 
 27 H        4.0550    -1.2550    -1.0690 H     1 <1>   0.0800 
 28 H        4.1740    -1.5960     0.6420 H     1 <1>   0.0800 
 29 H        4.2980     2.9340    -1.2450 H     1 <1>   0.1500 
 30 H        0.7040     2.6000     1.0070 H     1 <1>   0.1500 
 31 H        4.1090     5.3520    -1.1990 H     1 <1>   0.1500 
 32 H        0.5120     5.0330     1.0550 H     1 <1>   0.1500 
 33 H        4.1990     7.0960     0.2040 H     1 <1>   0.3700 
 34 H        1.4880     9.8550    -0.2980 H     1 <1>   0.1500 
 35 H        5.9830     8.5020     1.3920 H     1 <1>   0.0800 
 36 H        6.7340     9.9270     0.7160 H     1 <1>   0.0800 
 37 H        6.3450     8.5790    -0.3260 H     1 <1>   0.0800 
 38 H        1.6630    12.5290     0.4480 H     1 <1>   0.0800 
 39 H        2.2500    12.6230    -1.2080 H     1 <1>   0.0800 
 40 H        3.2330    13.2390     0.1100 H     1 <1>   0.0800 
@<TRIPOS>BOND
  1   1   2  2   
  2   2   3  am  
  3   2   4  1   
  4   3   5  1   
  5   3   6  1   
  6   4   7  1   
  7   4  23  1   
  8   4  24  1   
  9   5   8  ar  
 10   5   9  ar  
 11   6   7  1   
 12   6  25  1   
 13   6  26  1   
 14   7  27  1   
 15   7  28  1   
 16   8  10  ar  
 17   8  29  1   
 18   9  11  ar  
 19   9  30  1   
 20  10  12  ar  
 21  10  31  1   
 22  11  12  ar  
 23  11  32  1   
 24  12  13  1   
 25  13  14  2   
 26  13  15  am  
 27  15  16  1   
 28  15  33  1   
 29  16  17  1   
 30  16  18  2   
 31  17  19  2   
 32  17  20  1   
 33  18  21  1   
 34  18  34  1   
 35  19  21  1   
 36  20  35  1   
 37  20  36  1   
 38  20  37  1   
 39  21  22  1   
 40  22  38  1   
 41  22  39  1   
 42  22  40  1   
@<TRIPOS>SUBSTRUCTURE
  1 ****  12 GROUP 4 **** **** 0

# MOE 2024.06 (io_trps.svl 2023.06)
