@<TRIPOS>MOLECULE
NONAME
64 66 1 0 0 
SMALL
USER_CHARGES


@<TRIPOS>ATOM
  1 O        1.3140    -1.3310     0.4900 O.3   1 <1>  -0.5600 
  2 C        0.5690    -2.4280     0.0050 C.3   1 <1>   0.2800 
  3 C        1.4200    -0.2060    -0.3410 C.3   1 <1>   0.1200 
  4 C       -0.7220    -1.9430    -0.7010 C.3   1 <1>  -0.1600 
  5 C        0.2420    -3.2970     1.2400 C.3   1 <1>  -0.1600 
  6 C        1.4690    -3.2640    -0.9250 C.3   1 <1>  -0.1600 
  7 C        0.0420     0.4370    -0.5670 C.3   1 <1>  -0.1600 
  8 C       -1.1220    -0.5220    -0.2970 C.3   1 <1>   0.2800 
  9 C        1.4440    -4.0540     1.8240 C.3   1 <1>   0.3430 
 10 C        2.7600    -3.7500    -0.2500 C.3   1 <1>   0.3430 
 11 O       -1.3450    -0.5150     1.0540 O.3   1 <1>  -0.6800 
 12 C       -2.4200    -0.0670    -0.9580 C.3   1 <1>  -0.2400 
 13 N        2.6970    -3.5390     1.2250 N.4   1 <1>  -0.9590 
 14 C        3.9380    -3.9240     1.9380 C.3   1 <1>   0.4860 
 15 C        5.0630    -3.0690     1.3890 C.ar  1 <1>  -0.1430 
 16 C        5.1120    -1.7140     1.6750 C.ar  1 <1>  -0.1500 
 17 C        6.0300    -3.6270     0.5680 C.ar  1 <1>  -0.1500 
 18 C        6.1060    -0.9170     1.1380 C.ar  1 <1>   0.0820 
 19 C        7.0440    -2.8500     0.0280 C.ar  1 <1>  -0.1430 
 20 O        6.0380     0.4060     1.4400 O.3   1 <1>  -0.3630 
 21 C        7.0960    -1.4920     0.3310 C.ar  1 <1>   0.0820 
 22 C        8.0730    -3.5240    -0.8770 C.3   1 <1>   0.1220 
 23 C        6.1110     1.3420     0.3840 C.3   1 <1>   0.0400 
 24 O        8.1220    -0.7520    -0.1570 O.3   1 <1>  -0.3630 
 25 C        7.3830    -4.1990    -2.0520 C.2   1 <1>  -0.2880 
 26 C        9.1170    -0.3960     0.7750 C.3   1 <1>   0.1200 
 27 C        7.3900    -5.5120    -2.3060 C.2   1 <1>  -0.3000 
 28 C       10.2030     0.3790     0.0350 C.3   1 <1>  -0.2400 
 29 H        1.8550    -0.5090    -1.2780 H     1 <1>   0.0800 
 30 H        2.0860     0.4960     0.1310 H     1 <1>   0.0800 
 31 H       -1.5400    -2.6170    -0.5190 H     1 <1>   0.0800 
 32 H       -0.5660    -1.9490    -1.7650 H     1 <1>   0.0800 
 33 H       -0.4980    -4.0310     0.9770 H     1 <1>   0.0800 
 34 H       -0.1990    -2.6880     2.0080 H     1 <1>   0.0800 
 35 H        1.7200    -2.7120    -1.8120 H     1 <1>   0.0800 
 36 H        0.9180    -4.1270    -1.2550 H     1 <1>   0.0800 
 37 H        0.0040     0.7640    -1.5910 H     1 <1>   0.0800 
 38 H       -0.0610     1.3210     0.0380 H     1 <1>   0.0800 
 39 H        1.3490    -5.1070     1.6130 H     1 <1>   0.0800 
 40 H        1.4610    -3.9210     2.8940 H     1 <1>   0.0800 
 41 H        3.5920    -3.1920    -0.6510 H     1 <1>   0.0800 
 42 H        2.9200    -4.7930    -0.4730 H     1 <1>   0.0800 
 43 H       -0.4730    -0.5820     1.4910 H     1 <1>   0.4000 
 44 H       -2.3150    -0.0600    -2.0270 H     1 <1>   0.0800 
 45 H       -2.6720     0.9270    -0.6350 H     1 <1>   0.0800 
 46 H       -3.2240    -0.7320    -0.7000 H     1 <1>   0.0800 
 47 H        2.6140    -2.5060     1.3040 H     1 <1>   0.4500 
 48 H        4.1520    -4.9680     1.7840 H     1 <1>   0.0800 
 49 H        3.8340    -3.7400     2.9950 H     1 <1>   0.0800 
 50 H        4.3780    -1.2480     2.3090 H     1 <1>   0.1500 
 51 H        6.0050    -4.6790     0.3340 H     1 <1>   0.1500 
 52 H        8.6190    -4.2520    -0.3040 H     1 <1>   0.0800 
 53 H        8.7870    -2.8180    -1.2620 H     1 <1>   0.0800 
 54 H        5.6640     2.2610     0.7190 H     1 <1>   0.0800 
 55 H        5.5760     0.9600    -0.4670 H     1 <1>   0.0800 
 56 H        7.1410     1.5150     0.1320 H     1 <1>   0.0800 
 57 H        6.8750    -3.4890    -2.6830 H     1 <1>   0.1500 
 58 H        9.5150    -1.2980     1.2080 H     1 <1>   0.0800 
 59 H        8.6700     0.2080     1.5460 H     1 <1>   0.0800 
 60 H        6.8970    -5.9620    -3.1500 H     1 <1>   0.1500 
 61 H        7.8920    -6.2470    -1.6990 H     1 <1>   0.1500 
 62 H       10.6350    -0.2340    -0.7360 H     1 <1>   0.0800 
 63 H       10.9790     0.6630     0.7220 H     1 <1>   0.0800 
 64 H        9.7890     1.2690    -0.4020 H     1 <1>   0.0800 
@<TRIPOS>BOND
  1   1   2  1   
  2   1   3  1   
  3   2   4  1   
  4   2   5  1   
  5   2   6  1   
  6   3   7  1   
  7   3  29  1   
  8   3  30  1   
  9   4   8  1   
 10   4  31  1   
 11   4  32  1   
 12   5   9  1   
 13   5  33  1   
 14   5  34  1   
 15   6  10  1   
 16   6  35  1   
 17   6  36  1   
 18   7   8  1   
 19   7  37  1   
 20   7  38  1   
 21   8  11  1   
 22   8  12  1   
 23   9  13  1   
 24   9  39  1   
 25   9  40  1   
 26  10  13  1   
 27  10  41  1   
 28  10  42  1   
 29  11  43  1   
 30  12  44  1   
 31  12  45  1   
 32  12  46  1   
 33  13  14  1   
 34  13  47  1   
 35  14  15  1   
 36  14  48  1   
 37  14  49  1   
 38  15  16  ar  
 39  15  17  ar  
 40  16  18  ar  
 41  16  50  1   
 42  17  19  ar  
 43  17  51  1   
 44  18  20  1   
 45  18  21  ar  
 46  19  21  ar  
 47  19  22  1   
 48  20  23  1   
 49  21  24  1   
 50  22  25  1   
 51  22  52  1   
 52  22  53  1   
 53  23  54  1   
 54  23  55  1   
 55  23  56  1   
 56  24  26  1   
 57  25  27  2   
 58  25  57  1   
 59  26  28  1   
 60  26  58  1   
 61  26  59  1   
 62  27  60  1   
 63  27  61  1   
 64  28  62  1   
 65  28  63  1   
 66  28  64  1   
@<TRIPOS>SUBSTRUCTURE
  1 ****  16 GROUP 4 **** **** 0

# MOE 2024.06 (io_trps.svl 2023.06)
