@<TRIPOS>MOLECULE
NONAME
61 64 1 0 0 
SMALL
USER_CHARGES


@<TRIPOS>ATOM
  1 O       -2.3100     0.5680    -1.8620 O.2   1 <1>  -0.5700 
  2 C       -2.0990     0.5000    -0.6770 C.2   1 <1>   0.5690 
  3 N       -2.0250    -0.6880    -0.0320 N.am  1 <1>  -0.7300 
  4 C       -1.8990     1.7940     0.1080 C.3   1 <1>  -0.0190 
  5 C       -2.0370    -2.0180    -0.6910 C.3   1 <1>   0.2200 
  6 C       -3.1070     2.7380    -0.0590 C.3   1 <1>  -0.1600 
  7 C       -0.6040     2.4960    -0.3440 C.3   1 <1>  -0.1600 
  8 C       -3.3340    -2.7700    -0.4140 C.3   1 <1>  -0.0800 
  9 C       -1.0490    -2.9140     0.0410 C.3   1 <1>   0.1200 
 10 C       -2.8650     4.1050     0.5810 C.3   1 <1>   0.3430 
 11 C       -0.4300     3.8690     0.3010 C.3   1 <1>   0.3430 
 12 C       -3.0860    -3.3610     0.9820 C.3   1 <1>   0.1200 
 13 C       -4.6230    -1.9310    -0.5460 C.3   1 <1>  -0.0170 
 14 O       -1.7090    -3.2740     1.2150 O.3   1 <1>  -0.5600 
 15 N       -1.6290     4.7100     0.0100 N.4   1 <1>  -0.9590 
 16 C       -5.9500    -2.6860    -0.3970 C.ar  1 <1>  -0.1440 
 17 C       -1.4690     6.1180     0.5060 C.3   1 <1>   0.3430 
 18 C       -7.1670    -1.9600    -0.3550 C.ar  1 <1>   0.0000 
 19 C       -6.0420    -4.0470    -0.3060 C.ar  1 <1>  -0.1500 
 20 C       -0.4020     6.9090    -0.2620 C.3   1 <1>   0.1200 
 21 C       -8.3720    -2.6870    -0.1850 C.ar  1 <1>   0.3100 
 22 C       -7.2610    -0.5530    -0.4810 C.ar  1 <1>  -0.1500 
 23 C       -7.2870    -4.6690    -0.1510 C.ar  1 <1>   0.1600 
 24 O       -0.3790     8.1860     0.2770 O.3   1 <1>  -0.5600 
 25 N       -8.4140    -4.0380    -0.0840 N.ar  1 <1>  -0.6200 
 26 C       -9.5880    -1.9880    -0.1230 C.ar  1 <1>  -0.1500 
 27 C       -8.4640     0.0970    -0.4210 C.ar  1 <1>  -0.1500 
 28 C        0.5300     9.0540    -0.3270 C.3   1 <1>   0.0400 
 29 C       -9.6430    -0.6260    -0.2360 C.ar  1 <1>  -0.1500 
 30 H       -1.8770    -0.7540     0.9790 H     1 <1>   0.3700 
 31 H       -1.8060     1.5460     1.1510 H     1 <1>   0.0800 
 32 H       -1.8180    -1.9320    -1.7420 H     1 <1>   0.0800 
 33 H       -3.9750     2.2870     0.3900 H     1 <1>   0.0800 
 34 H       -3.3260     2.8760    -1.1040 H     1 <1>   0.0800 
 35 H       -0.6040     2.6100    -1.4150 H     1 <1>   0.0800 
 36 H        0.2410     1.8790    -0.0910 H     1 <1>   0.0800 
 37 H       -3.3830    -3.5800    -1.1190 H     1 <1>   0.0800 
 38 H       -0.1250    -2.4170     0.2780 H     1 <1>   0.0800 
 39 H       -0.8520    -3.8110    -0.5200 H     1 <1>   0.0800 
 40 H       -2.7600     3.9940     1.6480 H     1 <1>   0.0800 
 41 H       -3.7120     4.7440     0.3880 H     1 <1>   0.0800 
 42 H        0.4590     4.3350    -0.0930 H     1 <1>   0.0800 
 43 H       -0.3110     3.7580     1.3670 H     1 <1>   0.0800 
 44 H       -3.3800    -4.3940     1.0430 H     1 <1>   0.0800 
 45 H       -3.5860    -2.7960     1.7500 H     1 <1>   0.0800 
 46 H       -4.6160    -1.4530    -1.5100 H     1 <1>   0.0800 
 47 H       -4.5990    -1.1570     0.2010 H     1 <1>   0.0800 
 48 H       -1.7530     4.7370    -1.0120 H     1 <1>   0.4500 
 49 H       -2.4040     6.6420     0.4000 H     1 <1>   0.0800 
 50 H       -1.2060     6.1080     1.5510 H     1 <1>   0.0800 
 51 H       -5.1890    -4.6940    -0.3500 H     1 <1>   0.1500 
 52 H       -0.6580     6.9850    -1.3050 H     1 <1>   0.0800 
 53 H        0.5740     6.4750    -0.1380 H     1 <1>   0.0800 
 54 H       -6.3700     0.0240    -0.6340 H     1 <1>   0.1500 
 55 H       -7.3060    -5.7430    -0.0810 H     1 <1>   0.1500 
 56 H      -10.4820    -2.5670     0.0160 H     1 <1>   0.1500 
 57 H       -8.5200     1.1680    -0.5180 H     1 <1>   0.1500 
 58 H        0.4620    10.0080     0.1670 H     1 <1>   0.0800 
 59 H        0.2780     9.1710    -1.3670 H     1 <1>   0.0800 
 60 H        1.5270     8.6630    -0.2190 H     1 <1>   0.0800 
 61 H      -10.5840    -0.1040    -0.1870 H     1 <1>   0.1500 
@<TRIPOS>BOND
  1   1   2  2   
  2   2   3  am  
  3   2   4  1   
  4   3   5  1   
  5   3  30  1   
  6   4   6  1   
  7   4   7  1   
  8   4  31  1   
  9   5   8  1   
 10   5   9  1   
 11   5  32  1   
 12   6  10  1   
 13   6  33  1   
 14   6  34  1   
 15   7  11  1   
 16   7  35  1   
 17   7  36  1   
 18   8  12  1   
 19   8  13  1   
 20   8  37  1   
 21   9  14  1   
 22   9  38  1   
 23   9  39  1   
 24  10  15  1   
 25  10  40  1   
 26  10  41  1   
 27  11  15  1   
 28  11  42  1   
 29  11  43  1   
 30  12  14  1   
 31  12  44  1   
 32  12  45  1   
 33  13  16  1   
 34  13  46  1   
 35  13  47  1   
 36  15  17  1   
 37  15  48  1   
 38  16  18  ar  
 39  16  19  ar  
 40  17  20  1   
 41  17  49  1   
 42  17  50  1   
 43  18  21  ar  
 44  18  22  ar  
 45  19  23  ar  
 46  19  51  1   
 47  20  24  1   
 48  20  52  1   
 49  20  53  1   
 50  21  25  ar  
 51  21  26  ar  
 52  22  27  ar  
 53  22  54  1   
 54  23  25  ar  
 55  23  55  1   
 56  24  28  1   
 57  26  29  ar  
 58  26  56  1   
 59  27  29  ar  
 60  27  57  1   
 61  28  58  1   
 62  28  59  1   
 63  28  60  1   
 64  29  61  1   
@<TRIPOS>SUBSTRUCTURE
  1 ****   2 GROUP 4 **** **** 0

# MOE 2024.06 (io_trps.svl 2023.06)
