@<TRIPOS>MOLECULE
NONAME
44 45 1 0 0 
SMALL
USER_CHARGES


@<TRIPOS>ATOM
  1 S        0.7650     0.0580     0.5940 S.o2  1 <1>   1.3330 
  2 O        0.7450     0.7130     1.8830 O.2   1 <1>  -0.6500 
  3 O        0.8850    -1.3820     0.5300 O.2   1 <1>  -0.6500 
  4 N       -0.6470     0.4920    -0.2430 N.am  1 <1>  -0.8490 
  5 C        2.0700     0.7980    -0.3840 C.3   1 <1>  -0.0550 
  6 C       -1.8190     0.5400     0.6360 C.3   1 <1>   0.1160 
  7 C       -0.9260    -0.3630    -1.4010 C.3   1 <1>   0.1160 
  8 C        3.4690     0.6240     0.2320 C.3   1 <1>  -0.0800 
  9 C        4.5590     1.2240    -0.6300 C.3   1 <1>   0.2200 
 10 C        3.9310    -0.8250     0.3630 C.3   1 <1>   0.1200 
 11 N        4.7010     2.6730    -0.3750 N.am  1 <1>  -0.7300 
 12 C        5.7890     0.4210    -0.2220 C.3   1 <1>   0.1200 
 13 O        5.3220    -0.8110     0.2440 O.3   1 <1>  -0.5600 
 14 C        4.1370     3.6770    -1.1060 C.2   1 <1>   0.6160 
 15 O        3.4390     3.3440    -2.0470 O.2   1 <1>  -0.5700 
 16 C        4.3240     5.0790    -0.8000 C.2   1 <1>   0.0290 
 17 C        5.1400     5.4970     0.3110 C.2   1 <1>   0.6160 
 18 C        3.7250     6.0550    -1.5630 C.2   1 <1>  -0.1500 
 19 O        5.7170     4.7070     1.0560 O.2   1 <1>  -0.5700 
 20 N        5.2920     6.8580     0.5660 N.am  1 <1>  -0.4690 
 21 C        3.9000     7.4200    -1.2730 C.2   1 <1>  -0.1500 
 22 C        4.6740     7.7970    -0.2220 C.2   1 <1>  -0.0410 
 23 C        6.1340     7.3020     1.7100 C.3   1 <1>   0.0600 
 24 H        2.0610     0.3760    -1.3690 H     1 <1>   0.0800 
 25 H        1.8690     1.8480    -0.4820 H     1 <1>   0.0800 
 26 H       -2.6920     0.8350     0.0800 H     1 <1>   0.0800 
 27 H       -1.6610     1.2620     1.4200 H     1 <1>   0.0800 
 28 H       -1.9900    -0.4250     1.0850 H     1 <1>   0.0800 
 29 H       -1.7810     0.0100    -1.9380 H     1 <1>   0.0800 
 30 H       -1.1250    -1.3750    -1.0850 H     1 <1>   0.0800 
 31 H       -0.0830    -0.3700    -2.0700 H     1 <1>   0.0800 
 32 H        3.4920     1.0680     1.2140 H     1 <1>   0.0800 
 33 H        4.3610     1.0450    -1.6740 H     1 <1>   0.0800 
 34 H        3.5440    -1.4370    -0.4340 H     1 <1>   0.0800 
 35 H        3.6630    -1.2570     1.3130 H     1 <1>   0.0800 
 36 H        5.2490     2.9510     0.4520 H     1 <1>   0.3700 
 37 H        6.3140     0.8950     0.5890 H     1 <1>   0.0800 
 38 H        6.4510     0.2510    -1.0520 H     1 <1>   0.0800 
 39 H        3.1050     5.7950    -2.4050 H     1 <1>   0.1500 
 40 H        3.4110     8.1500    -1.8960 H     1 <1>   0.1500 
 41 H        4.8210     8.8380     0.0180 H     1 <1>   0.1500 
 42 H        6.1800     8.3750     1.7560 H     1 <1>   0.0800 
 43 H        7.1310     6.9130     1.5950 H     1 <1>   0.0800 
 44 H        5.7180     6.9280     2.6290 H     1 <1>   0.0800 
@<TRIPOS>BOND
  1   1   2  2   
  2   1   3  2   
  3   1   4  am  
  4   1   5  1   
  5   4   6  1   
  6   4   7  1   
  7   5   8  1   
  8   5  24  1   
  9   5  25  1   
 10   6  26  1   
 11   6  27  1   
 12   6  28  1   
 13   7  29  1   
 14   7  30  1   
 15   7  31  1   
 16   8   9  1   
 17   8  10  1   
 18   8  32  1   
 19   9  11  1   
 20   9  12  1   
 21   9  33  1   
 22  10  13  1   
 23  10  34  1   
 24  10  35  1   
 25  11  14  am  
 26  11  36  1   
 27  12  13  1   
 28  12  37  1   
 29  12  38  1   
 30  14  15  2   
 31  14  16  1   
 32  16  17  1   
 33  16  18  2   
 34  17  19  2   
 35  17  20  am  
 36  18  21  1   
 37  18  39  1   
 38  20  22  1   
 39  20  23  1   
 40  21  22  2   
 41  21  40  1   
 42  22  41  1   
 43  23  42  1   
 44  23  43  1   
 45  23  44  1   
@<TRIPOS>SUBSTRUCTURE
  1 ****  11 GROUP 4 **** **** 0

# MOE 2024.06 (io_trps.svl 2023.06)
