@<TRIPOS>MOLECULE
NONAME
44 45 1 0 0 
SMALL
USER_CHARGES


@<TRIPOS>ATOM
  1 S        0.7290     0.2860     0.4660 S.o2  1 <1>   1.3330 
  2 O        1.6510    -0.0870    -0.5820 O.2   1 <1>  -0.6500 
  3 O        1.2170     0.4860     1.8130 O.2   1 <1>  -0.6500 
  4 N       -0.5090    -0.8740     0.5090 N.am  1 <1>  -0.8490 
  5 C       -0.1360     1.7750    -0.0240 C.3   1 <1>  -0.0550 
  6 C       -0.8000    -1.4660    -0.8010 C.3   1 <1>   0.1160 
  7 C       -0.2440    -1.9330     1.4870 C.3   1 <1>   0.1160 
  8 C        0.7570     3.0270     0.0050 C.3   1 <1>  -0.0800 
  9 C       -0.0090     4.2980    -0.3470 C.3   1 <1>   0.2000 
 10 C        1.9120     3.0070    -0.9980 C.3   1 <1>   0.1400 
 11 O       -0.6980     4.7600     0.7620 O.3   1 <1>  -0.6800 
 12 C        1.0540     5.2880    -0.8170 C.3   1 <1>   0.1400 
 13 N        2.1640     4.4330    -1.3140 N.am  1 <1>  -0.6600 
 14 C        3.3240     4.8650    -1.9020 C.2   1 <1>   0.5690 
 15 O        4.1830     4.0850    -2.2420 O.2   1 <1>  -0.5700 
 16 C        3.5800     6.3490    -2.1510 C.3   1 <1>   0.2010 
 17 N        4.0390     7.0620    -0.9160 N.am  1 <1>  -0.4690 
 18 C        3.2290     8.0090    -0.3100 C.2   1 <1>   0.6900 
 19 C        5.2710     6.7290    -0.3610 C.2   1 <1>  -0.0410 
 20 O        2.1290     8.2890    -0.7380 O.2   1 <1>  -0.5700 
 21 N        3.6790     8.6250     0.8140 N.am  1 <1>  -0.4900 
 22 C        5.6900     7.3480     0.7660 C.2   1 <1>  -0.1360 
 23 C        4.8780     8.3370     1.3890 C.2   1 <1>   0.6160 
 24 O        5.1990     8.9260     2.3990 O.2   1 <1>  -0.5700 
 25 H       -0.5410     1.6470    -1.0080 H     1 <1>   0.0800 
 26 H       -0.9570     1.9300     0.6500 H     1 <1>   0.0800 
 27 H       -1.6490    -2.1240    -0.7290 H     1 <1>   0.0800 
 28 H        0.0480    -2.0260    -1.1580 H     1 <1>   0.0800 
 29 H       -1.0290    -0.6940    -1.5150 H     1 <1>   0.0800 
 30 H       -1.0540    -2.6410     1.5000 H     1 <1>   0.0800 
 31 H       -0.1520    -1.5100     2.4740 H     1 <1>   0.0800 
 32 H        0.6730    -2.4460     1.2440 H     1 <1>   0.0800 
 33 H        1.1890     3.1330     0.9860 H     1 <1>   0.0800 
 34 H       -0.7190     4.1240    -1.1380 H     1 <1>   0.0800 
 35 H        1.6360     2.4920    -1.9030 H     1 <1>   0.0800 
 36 H        2.7930     2.5430    -0.5830 H     1 <1>   0.0800 
 37 H       -0.0860     4.9190     1.5070 H     1 <1>   0.4000 
 38 H        1.4050     5.8810     0.0080 H     1 <1>   0.0800 
 39 H        0.6740     5.9220    -1.6000 H     1 <1>   0.0800 
 40 H        2.6890     6.8000    -2.5440 H     1 <1>   0.0800 
 41 H        4.3430     6.4400    -2.9020 H     1 <1>   0.0800 
 42 H        5.8560     5.9700    -0.8600 H     1 <1>   0.1500 
 43 H        3.0920     9.3270     1.2480 H     1 <1>   0.3700 
 44 H        6.6290     7.1300     1.2380 H     1 <1>   0.1500 
@<TRIPOS>BOND
  1   1   2  2   
  2   1   3  2   
  3   1   4  am  
  4   1   5  1   
  5   4   6  1   
  6   4   7  1   
  7   5   8  1   
  8   5  25  1   
  9   5  26  1   
 10   6  27  1   
 11   6  28  1   
 12   6  29  1   
 13   7  30  1   
 14   7  31  1   
 15   7  32  1   
 16   8   9  1   
 17   8  10  1   
 18   8  33  1   
 19   9  11  1   
 20   9  12  1   
 21   9  34  1   
 22  10  13  1   
 23  10  35  1   
 24  10  36  1   
 25  11  37  1   
 26  12  13  1   
 27  12  38  1   
 28  12  39  1   
 29  13  14  am  
 30  14  15  2   
 31  14  16  1   
 32  16  17  1   
 33  16  40  1   
 34  16  41  1   
 35  17  18  am  
 36  17  19  1   
 37  18  20  2   
 38  18  21  am  
 39  19  22  2   
 40  19  42  1   
 41  21  23  am  
 42  21  43  1   
 43  22  23  1   
 44  22  44  1   
 45  23  24  2   
@<TRIPOS>SUBSTRUCTURE
  1 ****  13 GROUP 4 **** **** 0

# MOE 2024.06 (io_trps.svl 2023.06)
