@<TRIPOS>MOLECULE
NONAME
45 46 1 0 0 
SMALL
USER_CHARGES


@<TRIPOS>ATOM
  1 O        0.3070     1.6090     0.7760 O.3   1 <1>  -0.6800 
  2 C       -0.3230     2.1840    -0.3230 C.3   1 <1>   0.2000 
  3 C       -1.5590     3.0130     0.1470 C.3   1 <1>   0.0000 
  4 C        0.7360     3.0880    -0.9770 C.3   1 <1>   0.3430 
  5 C       -1.0570     4.1620     1.0680 C.3   1 <1>  -0.1600 
  6 C       -2.5850     2.1190     0.9050 C.3   1 <1>   0.1200 
  7 C       -2.2650     3.5890    -1.1200 C.3   1 <1>  -0.1600 
  8 N        1.2030     4.0760     0.0480 N.4   1 <1>  -0.9590 
  9 C        0.0860     4.9830     0.4580 C.3   1 <1>   0.3430 
 10 O       -2.0220     1.5070     2.0210 O.3   1 <1>  -0.6800 
 11 C       -3.5570     4.3970    -0.8870 C.3   1 <1>  -0.1600 
 12 C        2.4530     4.7730    -0.3880 C.3   1 <1>   0.3430 
 13 C       -4.1080     4.9260    -2.2140 C.3   1 <1>  -0.2400 
 14 C        3.1550     5.4960     0.7660 C.3   1 <1>   0.0960 
 15 N        4.3810     6.1100     0.2410 N.pl3 1 <1>   0.0480 
 16 C        4.5570     7.3820    -0.1820 C.2   1 <1>   0.0360 
 17 C        5.5560     5.5020    -0.0010 C.2   1 <1>  -0.3020 
 18 N        5.7310     7.6120    -0.6670 N.2   1 <1>  -0.5650 
 19 C        6.3660     6.4320    -0.5510 C.2   1 <1>   0.0770 
 20 H       -0.4090     1.3210     1.4100 H     1 <1>   0.4000 
 21 H       -0.6210     1.3920    -0.9890 H     1 <1>   0.0800 
 22 H        0.3300     3.5910    -1.8370 H     1 <1>   0.0800 
 23 H        1.5570     2.4690    -1.3020 H     1 <1>   0.0800 
 24 H       -0.7040     3.7540     1.9990 H     1 <1>   0.0800 
 25 H       -1.8650     4.8210     1.3250 H     1 <1>   0.0800 
 26 H       -2.9620     1.3440     0.2590 H     1 <1>   0.0800 
 27 H       -3.4140     2.7090     1.2570 H     1 <1>   0.0800 
 28 H       -1.5940     4.2240    -1.6680 H     1 <1>   0.0800 
 29 H       -2.5130     2.7680    -1.7720 H     1 <1>   0.0800 
 30 H        1.3990     3.4550     0.8580 H     1 <1>   0.4500 
 31 H        0.4340     5.6940     1.1890 H     1 <1>   0.0800 
 32 H       -0.2760     5.5300    -0.3990 H     1 <1>   0.0800 
 33 H       -2.7070     1.0200     2.5300 H     1 <1>   0.4000 
 34 H       -4.3160     3.7830    -0.4350 H     1 <1>   0.0800 
 35 H       -3.3770     5.2370    -0.2400 H     1 <1>   0.0800 
 36 H        3.1390     4.0460    -0.7940 H     1 <1>   0.0800 
 37 H        2.2190     5.4830    -1.1640 H     1 <1>   0.0800 
 38 H       -4.3340     4.1140    -2.8830 H     1 <1>   0.0800 
 39 H       -3.4000     5.5820    -2.6910 H     1 <1>   0.0800 
 40 H       -5.0140     5.4800    -2.0400 H     1 <1>   0.0800 
 41 H        3.4270     4.8000     1.5400 H     1 <1>   0.0800 
 42 H        2.5330     6.2690     1.1760 H     1 <1>   0.0800 
 43 H        3.7840     8.1280    -0.1190 H     1 <1>   0.1500 
 44 H        5.7640     4.4710     0.2250 H     1 <1>   0.1500 
 45 H        7.3890     6.3160    -0.8730 H     1 <1>   0.1500 
@<TRIPOS>BOND
  1   1   2  1   
  2   1  20  1   
  3   2   3  1   
  4   2   4  1   
  5   2  21  1   
  6   3   5  1   
  7   3   6  1   
  8   3   7  1   
  9   4   8  1   
 10   4  22  1   
 11   4  23  1   
 12   5   9  1   
 13   5  24  1   
 14   5  25  1   
 15   6  10  1   
 16   6  26  1   
 17   6  27  1   
 18   7  11  1   
 19   7  28  1   
 20   7  29  1   
 21   8   9  1   
 22   8  12  1   
 23   8  30  1   
 24   9  31  1   
 25   9  32  1   
 26  10  33  1   
 27  11  13  1   
 28  11  34  1   
 29  11  35  1   
 30  12  14  1   
 31  12  36  1   
 32  12  37  1   
 33  13  38  1   
 34  13  39  1   
 35  13  40  1   
 36  14  15  1   
 37  14  41  1   
 38  14  42  1   
 39  15  16  1   
 40  15  17  1   
 41  16  18  2   
 42  16  43  1   
 43  17  19  2   
 44  17  44  1   
 45  18  19  1   
 46  19  45  1   
@<TRIPOS>SUBSTRUCTURE
  1 ****   8 GROUP 4 **** **** 0

# MOE 2024.06 (io_trps.svl 2023.06)
