@<TRIPOS>MOLECULE
NONAME
39 41 1 0 0 
SMALL
USER_CHARGES


@<TRIPOS>ATOM
  1 S       -0.8050     0.4920     1.3370 S.o2  1 <1>   1.4470 
  2 O       -0.7280    -0.7530     2.0710 O.2   1 <1>  -0.6500 
  3 O       -1.5750     1.5920     1.8790 O.2   1 <1>  -0.6500 
  4 N       -1.3750     0.1720    -0.2280 N.am  1 <1>  -0.8490 
  5 C        0.8800     1.0880     1.0190 C.ar  1 <1>  -0.0090 
  6 C       -0.8150    -1.0570    -0.8530 C.3   1 <1>   0.1960 
  7 C       -2.8310     0.2720    -0.3750 C.3   1 <1>   0.1960 
  8 C        1.1240     2.0420     0.0370 C.ar  1 <1>  -0.1500 
  9 C        1.9630     0.6140     1.7540 C.ar  1 <1>  -0.1500 
 10 C       -1.8180    -2.2120    -1.0860 C.3   1 <1>   0.2000 
 11 C       -3.5670    -0.9200     0.2610 C.3   1 <1>  -0.1600 
 12 C        2.4040     2.5050    -0.2090 C.ar  1 <1>   0.0820 
 13 C        3.2520     1.0650     1.5140 C.ar  1 <1>  -0.1500 
 14 O       -2.4660    -2.0230    -2.2990 O.3   1 <1>  -0.6800 
 15 C       -2.8710    -2.2850     0.0260 C.3   1 <1>  -0.1860 
 16 O        2.5890     3.4460    -1.1680 O.3   1 <1>  -0.3630 
 17 C        3.4780     2.0060     0.5280 C.ar  1 <1>   0.0820 
 18 C       -3.8500    -3.4120    -0.2470 C.2   1 <1>   0.9060 
 19 C        3.8290     4.1260    -1.1660 C.3   1 <1>   0.1200 
 20 O        4.7470     2.4240     0.2940 O.3   1 <1>  -0.3630 
 21 O       -3.9970    -4.2980     0.5970 O.co2 1 <1>  -0.9000 
 22 O       -4.4510    -3.4180    -1.3310 O.co2 1 <1>  -0.9000 
 23 C        4.9770     3.1410    -0.9050 C.3   1 <1>   0.1200 
 24 H       -0.3800    -0.7950    -1.8010 H     1 <1>   0.0800 
 25 H       -0.0170    -1.4380    -0.2390 H     1 <1>   0.0800 
 26 H       -3.1910     1.1940     0.0480 H     1 <1>   0.0800 
 27 H       -3.0630     0.2980    -1.4270 H     1 <1>   0.0800 
 28 H        0.3050     2.4320    -0.5440 H     1 <1>   0.1500 
 29 H        1.7960    -0.1210     2.5250 H     1 <1>   0.1500 
 30 H       -1.2940    -3.1500    -1.1570 H     1 <1>   0.0800 
 31 H       -3.6760    -0.7570     1.3180 H     1 <1>   0.0800 
 32 H       -4.5590    -0.9500    -0.1550 H     1 <1>   0.0800 
 33 H        4.0810     0.6890     2.0860 H     1 <1>   0.1500 
 34 H       -3.3230    -2.5460    -2.2300 H     1 <1>   0.4000 
 35 H       -2.3530    -2.5450     0.9300 H     1 <1>   0.0800 
 36 H        3.9460     4.6060    -2.1210 H     1 <1>   0.0800 
 37 H        3.7980     4.8760    -0.3950 H     1 <1>   0.0800 
 38 H        5.9130     3.6600    -0.8070 H     1 <1>   0.0800 
 39 H        5.0490     2.4310    -1.7100 H     1 <1>   0.0800 
@<TRIPOS>BOND
  1   1   2  2   
  2   1   3  2   
  3   1   4  am  
  4   1   5  1   
  5   4   6  1   
  6   4   7  1   
  7   5   8  ar  
  8   5   9  ar  
  9   6  10  1   
 10   6  24  1   
 11   6  25  1   
 12   7  11  1   
 13   7  26  1   
 14   7  27  1   
 15   8  12  ar  
 16   8  28  1   
 17   9  13  ar  
 18   9  29  1   
 19  10  14  1   
 20  10  15  1   
 21  10  30  1   
 22  11  15  1   
 23  11  31  1   
 24  11  32  1   
 25  12  16  1   
 26  12  17  ar  
 27  13  17  ar  
 28  13  33  1   
 29  14  34  1   
 30  15  18  1   
 31  15  35  1   
 32  16  19  1   
 33  17  20  1   
 34  18  21  ar  
 35  18  22  ar  
 36  19  23  1   
 37  19  36  1   
 38  19  37  1   
 39  20  23  1   
 40  23  38  1   
 41  23  39  1   
@<TRIPOS>SUBSTRUCTURE
  1 ****   4 GROUP 4 **** **** 0

# MOE 2024.06 (io_trps.svl 2023.06)
