@<TRIPOS>MOLECULE
NONAME
48 51 1 0 0 
SMALL
USER_CHARGES


@<TRIPOS>ATOM
  1 O        1.6110     1.6100    -1.2670 O.3   1 <1>  -0.0190 
  2 N        2.5120     0.6800    -1.1650 N.2   1 <1>  -0.4100 
  3 C        1.0750     1.8960    -0.1110 C.2   1 <1>  -0.0400 
  4 C        2.5430     0.3450     0.0750 C.2   1 <1>   0.1080 
  5 C        1.6360     1.1010     0.8130 C.2   1 <1>  -0.1500 
  6 C        0.0280     2.9890    -0.0150 C.3   1 <1>   0.0200 
  7 C        3.4470    -0.7270     0.6440 C.3   1 <1>  -0.0590 
  8 C        0.5130     4.2570    -0.7450 C.3   1 <1>  -0.0800 
  9 C       -0.3430     5.5120    -0.5850 C.3   1 <1>   0.2000 
 10 C        1.9180     4.6970    -0.3160 C.3   1 <1>   0.3430 
 11 O       -0.6740     5.6880     0.7570 O.3   1 <1>  -0.6800 
 12 C        0.6340     6.6180    -0.9920 C.3   1 <1>   0.3430 
 13 N        1.9680     6.1790    -0.4750 N.4   1 <1>  -0.9590 
 14 C        2.2890     6.8520     0.8090 C.3   1 <1>   0.4860 
 15 C        2.4980     8.3280     0.5370 C.ar  1 <1>  -0.1430 
 16 C        3.5370     8.7460    -0.3040 C.ar  1 <1>   0.0820 
 17 C        1.6490     9.2580     1.1280 C.ar  1 <1>  -0.1500 
 18 O        4.3200     7.7780    -0.8560 O.3   1 <1>  -0.3630 
 19 C        3.7340    10.1060    -0.5570 C.ar  1 <1>  -0.1500 
 20 C        1.8640    10.5940     0.8580 C.ar  1 <1>   0.0820 
 21 C        5.5220     8.1150    -1.5210 C.3   1 <1>   0.0400 
 22 C        2.8760    11.0040     0.0420 C.ar  1 <1>   0.0820 
 23 O        1.1760    11.6480     1.3090 O.3   1 <1>  -0.3630 
 24 O        2.8730    12.3360    -0.0580 O.3   1 <1>  -0.3620 
 25 C        1.7990    12.8070     0.7540 C.3   1 <1>   0.4000 
 26 H        1.4610     1.0290     1.8710 H     1 <1>   0.1500 
 27 H       -0.8860     2.6390    -0.4640 H     1 <1>   0.0800 
 28 H       -0.1620     3.1860     1.0250 H     1 <1>   0.0800 
 29 H        4.0700    -0.3130     1.4140 H     1 <1>   0.0800 
 30 H        4.0740    -1.1290    -0.1320 H     1 <1>   0.0800 
 31 H        2.8550    -1.5230     1.0560 H     1 <1>   0.0800 
 32 H        0.5670     4.0290    -1.7970 H     1 <1>   0.0800 
 33 H       -1.2420     5.5140    -1.1780 H     1 <1>   0.0800 
 34 H        2.6690     4.2100    -0.9190 H     1 <1>   0.0800 
 35 H        2.0760     4.4310     0.7170 H     1 <1>   0.0800 
 36 H       -1.5200     5.2400     0.9750 H     1 <1>   0.4000 
 37 H        0.3320     7.5750    -0.5960 H     1 <1>   0.0800 
 38 H        0.6710     6.6780    -2.0670 H     1 <1>   0.0800 
 39 H        2.7230     6.4750    -1.1170 H     1 <1>   0.4500 
 40 H        1.4860     6.7100     1.5150 H     1 <1>   0.0800 
 41 H        3.1940     6.4400     1.2250 H     1 <1>   0.0800 
 42 H        0.8420     8.9760     1.7810 H     1 <1>   0.1500 
 43 H        4.5120    10.4830    -1.1930 H     1 <1>   0.1500 
 44 H        6.0280     7.2050    -1.7920 H     1 <1>   0.0800 
 45 H        6.1430     8.6900    -0.8560 H     1 <1>   0.0800 
 46 H        5.2900     8.6780    -2.4080 H     1 <1>   0.0800 
 47 H        2.1880    13.4220     1.5470 H     1 <1>   0.0800 
 48 H        1.0920    13.3430     0.1460 H     1 <1>   0.0800 
@<TRIPOS>BOND
  1   1   2  1   
  2   1   3  1   
  3   2   4  2   
  4   3   5  2   
  5   3   6  1   
  6   4   5  1   
  7   4   7  1   
  8   5  26  1   
  9   6   8  1   
 10   6  27  1   
 11   6  28  1   
 12   7  29  1   
 13   7  30  1   
 14   7  31  1   
 15   8   9  1   
 16   8  10  1   
 17   8  32  1   
 18   9  11  1   
 19   9  12  1   
 20   9  33  1   
 21  10  13  1   
 22  10  34  1   
 23  10  35  1   
 24  11  36  1   
 25  12  13  1   
 26  12  37  1   
 27  12  38  1   
 28  13  14  1   
 29  13  39  1   
 30  14  15  1   
 31  14  40  1   
 32  14  41  1   
 33  15  16  ar  
 34  15  17  ar  
 35  16  18  1   
 36  16  19  ar  
 37  17  20  ar  
 38  17  42  1   
 39  18  21  1   
 40  19  22  ar  
 41  19  43  1   
 42  20  22  ar  
 43  20  23  1   
 44  21  44  1   
 45  21  45  1   
 46  21  46  1   
 47  22  24  1   
 48  23  25  1   
 49  24  25  1   
 50  25  47  1   
 51  25  48  1   
@<TRIPOS>SUBSTRUCTURE
  1 ****  13 GROUP 4 **** **** 0

# MOE 2024.06 (io_trps.svl 2023.06)
