@<TRIPOS>MOLECULE
NONAME
46 48 1 0 0 
SMALL
USER_CHARGES


@<TRIPOS>ATOM
  1 F       -1.7600    -0.6640    -1.3500 F     1 <1>  -0.1900 
  2 C       -1.9530     0.4560    -0.7030 C.ar  1 <1>   0.1900 
  3 C       -2.6980     0.4380     0.4670 C.ar  1 <1>  -0.1440 
  4 C       -1.4110     1.6110    -1.2260 C.ar  1 <1>  -0.1500 
  5 C       -2.8830     1.6410     1.1350 C.ar  1 <1>  -0.1500 
  6 C       -3.2830    -0.8530     1.0110 C.3   1 <1>   0.4870 
  7 C       -1.6110     2.8060    -0.5570 C.ar  1 <1>   0.0830 
  8 C       -2.3470     2.8150     0.6270 C.ar  1 <1>  -0.1500 
  9 N       -4.1280    -1.5320    -0.0180 N.4   1 <1>  -0.9590 
 10 O       -1.0620     3.9110    -1.1140 O.3   1 <1>  -0.3630 
 11 C       -5.5420    -1.0530    -0.0620 C.3   1 <1>   0.4230 
 12 C       -4.0300    -3.0150     0.1580 C.3   1 <1>   0.2630 
 13 C       -1.1620     5.1780    -0.5010 C.3   1 <1>   0.0400 
 14 C       -6.3510    -1.7790    -1.1370 C.3   1 <1>  -0.1600 
 15 C       -5.6670     0.4170    -0.4550 C.3   1 <1>  -0.1600 
 16 C       -7.5140    -0.8390    -1.4760 C.3   1 <1>  -0.0800 
 17 C       -7.0750     0.5660    -1.0410 C.3   1 <1>  -0.0800 
 18 C       -8.8070    -1.1480    -0.7070 C.3   1 <1>  -0.1600 
 19 C       -8.1200     1.0540    -0.0260 C.3   1 <1>  -0.1600 
 20 C       -9.3540     0.2180    -0.3240 C.3   1 <1>   0.2000 
 21 O      -10.1490     0.1200     0.7960 O.3   1 <1>  -0.6800 
 22 H       -0.8400     1.5930    -2.1370 H     1 <1>   0.1500 
 23 H       -3.4420     1.6840     2.0550 H     1 <1>   0.1500 
 24 H       -3.8630    -0.6550     1.8970 H     1 <1>   0.0800 
 25 H       -2.4620    -1.4960     1.2870 H     1 <1>   0.0800 
 26 H       -2.5090     3.7310     1.1650 H     1 <1>   0.1500 
 27 H       -3.6950    -1.2910    -0.9240 H     1 <1>   0.4500 
 28 H       -6.0220    -1.2030     0.8920 H     1 <1>   0.0800 
 29 H       -4.4820    -3.3140     1.0900 H     1 <1>   0.0800 
 30 H       -2.9970    -3.3240     0.1580 H     1 <1>   0.0800 
 31 H       -4.5330    -3.5250    -0.6480 H     1 <1>   0.0800 
 32 H       -0.6390     5.8880    -1.1160 H     1 <1>   0.0800 
 33 H       -0.7050     5.1330     0.4720 H     1 <1>   0.0800 
 34 H       -2.1990     5.4530    -0.4300 H     1 <1>   0.0800 
 35 H       -5.7530    -1.9020    -2.0230 H     1 <1>   0.0800 
 36 H       -6.7050    -2.7390    -0.8070 H     1 <1>   0.0800 
 37 H       -5.5190     1.0790     0.3790 H     1 <1>   0.0800 
 38 H       -4.9570     0.6530    -1.2300 H     1 <1>   0.0800 
 39 H       -7.7170    -0.8500    -2.5350 H     1 <1>   0.0800 
 40 H       -7.0650     1.2310    -1.8900 H     1 <1>   0.0800 
 41 H       -8.5950    -1.7160     0.1820 H     1 <1>   0.0800 
 42 H       -9.5100    -1.6860    -1.3190 H     1 <1>   0.0800 
 43 H       -8.3270     2.1030    -0.1480 H     1 <1>   0.0800 
 44 H       -7.7890     0.8670     0.9800 H     1 <1>   0.0800 
 45 H       -9.9310     0.6470    -1.1280 H     1 <1>   0.0800 
 46 H       -9.6600    -0.2730     1.5400 H     1 <1>   0.4000 
@<TRIPOS>BOND
  1   1   2  1   
  2   2   3  ar  
  3   2   4  ar  
  4   3   5  ar  
  5   3   6  1   
  6   4   7  ar  
  7   4  22  1   
  8   5   8  ar  
  9   5  23  1   
 10   6   9  1   
 11   6  24  1   
 12   6  25  1   
 13   7   8  ar  
 14   7  10  1   
 15   8  26  1   
 16   9  11  1   
 17   9  12  1   
 18   9  27  1   
 19  10  13  1   
 20  11  14  1   
 21  11  15  1   
 22  11  28  1   
 23  12  29  1   
 24  12  30  1   
 25  12  31  1   
 26  13  32  1   
 27  13  33  1   
 28  13  34  1   
 29  14  16  1   
 30  14  35  1   
 31  14  36  1   
 32  15  17  1   
 33  15  37  1   
 34  15  38  1   
 35  16  17  1   
 36  16  18  1   
 37  16  39  1   
 38  17  19  1   
 39  17  40  1   
 40  18  20  1   
 41  18  41  1   
 42  18  42  1   
 43  19  20  1   
 44  19  43  1   
 45  19  44  1   
 46  20  21  1   
 47  20  45  1   
 48  21  46  1   
@<TRIPOS>SUBSTRUCTURE
  1 ****  15 GROUP 4 **** **** 0

# MOE 2024.06 (io_trps.svl 2023.06)
