@<TRIPOS>MOLECULE
NONAME
53 56 1 0 0 
SMALL
USER_CHARGES


@<TRIPOS>ATOM
  1 O       -1.6300     0.2940     0.2240 O.2   1 <1>  -0.5700 
  2 C       -2.4100     1.0450    -0.3220 C.2   1 <1>   0.5690 
  3 N       -3.5190     0.5410    -0.9490 N.am  1 <1>  -0.6600 
  4 C       -2.1890     2.5510    -0.2510 C.3   1 <1>  -0.0190 
  5 C       -3.5240    -0.8940    -1.2810 C.3   1 <1>   0.1400 
  6 C       -4.8710     1.0160    -0.5330 C.3   1 <1>   0.1400 
  7 C       -0.8020     2.9990    -0.7510 C.3   1 <1>  -0.0170 
  8 C       -2.3310     3.1300     1.1700 C.3   1 <1>  -0.0170 
  9 C       -4.1600    -1.5240    -0.0350 C.3   1 <1>   0.4230 
 10 C       -5.9390    -0.1300    -0.4360 C.3   1 <1>  -0.1600 
 11 C       -0.5390     4.2370     0.0700 C.ar  1 <1>  -0.1440 
 12 C       -1.3920     4.3090     1.1430 C.ar  1 <1>  -0.1440 
 13 N       -3.1880    -2.4140     0.7190 N.4   1 <1>  -0.9590 
 14 C       -5.7360    -1.7320    -0.2100 C.3   1 <1>   0.0000 
 15 C        0.4090     5.2190    -0.1480 C.ar  1 <1>  -0.1500 
 16 C       -1.3240     5.3660     2.0310 C.ar  1 <1>  -0.1500 
 17 C       -3.9100    -2.9970     1.8670 C.3   1 <1>   0.3430 
 18 C       -2.3990    -3.4340    -0.0500 C.3   1 <1>   0.2630 
 19 C       -5.5760    -3.3220    -0.0590 C.3   1 <1>  -0.1600 
 20 C       -7.3300    -1.9010    -0.3220 C.3   1 <1>   0.1200 
 21 C        0.4860     6.2840     0.7370 C.ar  1 <1>  -0.1500 
 22 C       -0.3770     6.3570     1.8220 C.ar  1 <1>  -0.1500 
 23 C       -5.0850    -3.8000     1.3280 C.3   1 <1>  -0.1600 
 24 O       -7.8400    -2.1480     0.9500 O.3   1 <1>  -0.6800 
 25 H       -2.9150     3.0420    -0.8740 H     1 <1>   0.0800 
 26 H       -4.1160    -1.0680    -2.1630 H     1 <1>   0.0800 
 27 H       -2.5210    -1.2320    -1.4660 H     1 <1>   0.0800 
 28 H       -4.7880     1.4870     0.4340 H     1 <1>   0.0800 
 29 H       -5.2070     1.7700    -1.2260 H     1 <1>   0.0800 
 30 H       -0.8090     3.2120    -1.8050 H     1 <1>   0.0800 
 31 H       -0.0470     2.2650    -0.5300 H     1 <1>   0.0800 
 32 H       -1.9890     2.4290     1.9120 H     1 <1>   0.0800 
 33 H       -3.3400     3.4320     1.3810 H     1 <1>   0.0800 
 34 H       -4.1700    -0.7180     0.6760 H     1 <1>   0.0800 
 35 H       -6.6230     0.2480     0.3120 H     1 <1>   0.0800 
 36 H       -6.4160    -0.0070    -1.3980 H     1 <1>   0.0800 
 37 H       -2.4860    -1.7410     1.0840 H     1 <1>   0.4500 
 38 H        1.0770     5.1580    -0.9880 H     1 <1>   0.1500 
 39 H       -1.9920     5.4210     2.8720 H     1 <1>   0.1500 
 40 H       -3.2600    -3.6210     2.4610 H     1 <1>   0.0800 
 41 H       -4.2860    -2.2030     2.4920 H     1 <1>   0.0800 
 42 H       -3.0450    -4.1790    -0.4820 H     1 <1>   0.0800 
 43 H       -1.7060    -3.9320     0.6080 H     1 <1>   0.0800 
 44 H       -1.8330    -2.9650    -0.8360 H     1 <1>   0.0800 
 45 H       -6.4260    -3.9640    -0.2350 H     1 <1>   0.0800 
 46 H       -4.9120    -3.6680    -0.8310 H     1 <1>   0.0800 
 47 H       -7.6440    -2.6860    -0.9900 H     1 <1>   0.0800 
 48 H       -7.9180    -1.0720    -0.6860 H     1 <1>   0.0800 
 49 H        1.2180     7.0560     0.5820 H     1 <1>   0.1500 
 50 H       -0.3100     7.1860     2.5040 H     1 <1>   0.1500 
 51 H       -4.8050    -4.8370     1.2680 H     1 <1>   0.0800 
 52 H       -5.8900    -3.7360     2.0400 H     1 <1>   0.0800 
 53 H       -8.8110    -2.2800     0.9210 H     1 <1>   0.4000 
@<TRIPOS>BOND
  1   1   2  2   
  2   2   3  am  
  3   2   4  1   
  4   3   5  1   
  5   3   6  1   
  6   4   7  1   
  7   4   8  1   
  8   4  25  1   
  9   5   9  1   
 10   5  26  1   
 11   5  27  1   
 12   6  10  1   
 13   6  28  1   
 14   6  29  1   
 15   7  11  1   
 16   7  30  1   
 17   7  31  1   
 18   8  12  1   
 19   8  32  1   
 20   8  33  1   
 21   9  13  1   
 22   9  14  1   
 23   9  34  1   
 24  10  14  1   
 25  10  35  1   
 26  10  36  1   
 27  11  12  ar  
 28  11  15  ar  
 29  12  16  ar  
 30  13  17  1   
 31  13  18  1   
 32  13  37  1   
 33  14  19  1   
 34  14  20  1   
 35  15  21  ar  
 36  15  38  1   
 37  16  22  ar  
 38  16  39  1   
 39  17  23  1   
 40  17  40  1   
 41  17  41  1   
 42  18  42  1   
 43  18  43  1   
 44  18  44  1   
 45  19  23  1   
 46  19  45  1   
 47  19  46  1   
 48  20  24  1   
 49  20  47  1   
 50  20  48  1   
 51  21  22  ar  
 52  21  49  1   
 53  22  50  1   
 54  23  51  1   
 55  23  52  1   
 56  24  53  1   
@<TRIPOS>SUBSTRUCTURE
  1 ****   2 GROUP 4 **** **** 0

# MOE 2024.06 (io_trps.svl 2023.06)
