@<TRIPOS>MOLECULE
NONAME
51 53 1 0 0 
SMALL
USER_CHARGES


@<TRIPOS>ATOM
  1 O       -0.0610     1.0200    -2.1210 O.2   1 <1>  -0.5700 
  2 C       -0.0630     1.9530    -1.3390 C.2   1 <1>   0.5440 
  3 N       -1.2710     2.4570    -0.9000 N.am  1 <1>  -0.6600 
  4 C        1.1960     2.5140    -0.9040 C.ar  1 <1>   0.0860 
  5 C       -1.3560     3.5310     0.1330 C.3   1 <1>   0.1400 
  6 C       -2.5600     1.9600    -1.4680 C.3   1 <1>   0.1400 
  7 C        1.7880     2.2440     0.3410 C.ar  1 <1>   0.0830 
  8 C        1.8550     3.4040    -1.7530 C.ar  1 <1>  -0.1500 
  9 C       -2.6910     3.4360     0.8690 C.3   1 <1>  -0.1600 
 10 C       -3.6050     3.0780    -1.4820 C.3   1 <1>  -0.1600 
 11 O        1.2780     1.3840     1.2550 O.3   1 <1>  -0.3620 
 12 C        2.9620     2.8830     0.7100 C.ar  1 <1>  -0.1500 
 13 C        3.0330     4.0250    -1.3820 C.ar  1 <1>  -0.1500 
 14 C       -3.8810     3.6830    -0.0830 C.3   1 <1>   0.2800 
 15 C        0.7690     0.1250     0.8630 C.3   1 <1>   0.0400 
 16 C        3.5920     3.7720    -0.1410 C.ar  1 <1>  -0.1430 
 17 O       -3.9900     5.0700    -0.3050 O.3   1 <1>  -0.5600 
 18 C       -5.1990     3.1320     0.5220 C.3   1 <1>  -0.1600 
 19 C        4.8810     4.4640     0.2630 C.3   1 <1>  -0.0970 
 20 C       -4.6500     5.8460     0.6550 C.3   1 <1>   0.1200 
 21 C       -6.4050     4.0320     0.2370 C.3   1 <1>   0.2800 
 22 C       -6.1290     5.4420     0.7680 C.3   1 <1>  -0.1600 
 23 O       -6.5460     4.1370    -1.1210 O.3   1 <1>  -0.6800 
 24 C       -7.7120     3.4530     0.7720 C.3   1 <1>  -0.2400 
 25 H       -1.2690     4.4930    -0.3450 H     1 <1>   0.0800 
 26 H       -0.5560     3.4280     0.8440 H     1 <1>   0.0800 
 27 H       -2.9090     1.1330    -0.8750 H     1 <1>   0.0800 
 28 H       -2.4040     1.6080    -2.4740 H     1 <1>   0.0800 
 29 H        1.4260     3.6080    -2.7180 H     1 <1>   0.1500 
 30 H       -2.7020     4.1290     1.6870 H     1 <1>   0.0800 
 31 H       -2.7600     2.4500     1.2930 H     1 <1>   0.0800 
 32 H       -4.5080     2.6880    -1.9130 H     1 <1>   0.0800 
 33 H       -3.2420     3.8430    -2.1460 H     1 <1>   0.0800 
 34 H        3.3800     2.6670     1.6770 H     1 <1>   0.1500 
 35 H        3.5140     4.7080    -2.0610 H     1 <1>   0.1500 
 36 H        0.8740    -0.5510     1.6920 H     1 <1>   0.0800 
 37 H        1.3300    -0.2390     0.0190 H     1 <1>   0.0800 
 38 H       -0.2710     0.2290     0.6110 H     1 <1>   0.0800 
 39 H       -5.0920     3.0590     1.5890 H     1 <1>   0.0800 
 40 H       -5.3860     2.1330     0.1720 H     1 <1>   0.0800 
 41 H        5.1640     4.1950     1.2650 H     1 <1>   0.0800 
 42 H        4.7540     5.5300     0.2180 H     1 <1>   0.0800 
 43 H        5.6740     4.1790    -0.4050 H     1 <1>   0.0800 
 44 H       -4.5670     6.8770     0.3560 H     1 <1>   0.0800 
 45 H       -4.1510     5.7270     1.5990 H     1 <1>   0.0800 
 46 H       -6.7500     6.1560     0.2550 H     1 <1>   0.0800 
 47 H       -6.3970     5.4910     1.8070 H     1 <1>   0.0800 
 48 H       -5.7350     4.5780    -1.4520 H     1 <1>   0.4000 
 49 H       -7.6610     3.3380     1.8390 H     1 <1>   0.0800 
 50 H       -7.8970     2.4890     0.3330 H     1 <1>   0.0800 
 51 H       -8.5310     4.1090     0.5370 H     1 <1>   0.0800 
@<TRIPOS>BOND
  1   1   2  2   
  2   2   3  am  
  3   2   4  1   
  4   3   5  1   
  5   3   6  1   
  6   4   7  ar  
  7   4   8  ar  
  8   5   9  1   
  9   5  25  1   
 10   5  26  1   
 11   6  10  1   
 12   6  27  1   
 13   6  28  1   
 14   7  11  1   
 15   7  12  ar  
 16   8  13  ar  
 17   8  29  1   
 18   9  14  1   
 19   9  30  1   
 20   9  31  1   
 21  10  14  1   
 22  10  32  1   
 23  10  33  1   
 24  11  15  1   
 25  12  16  ar  
 26  12  34  1   
 27  13  16  ar  
 28  13  35  1   
 29  14  17  1   
 30  14  18  1   
 31  15  36  1   
 32  15  37  1   
 33  15  38  1   
 34  16  19  1   
 35  17  20  1   
 36  18  21  1   
 37  18  39  1   
 38  18  40  1   
 39  19  41  1   
 40  19  42  1   
 41  19  43  1   
 42  20  22  1   
 43  20  44  1   
 44  20  45  1   
 45  21  22  1   
 46  21  23  1   
 47  21  24  1   
 48  22  46  1   
 49  22  47  1   
 50  23  48  1   
 51  24  49  1   
 52  24  50  1   
 53  24  51  1   
@<TRIPOS>SUBSTRUCTURE
  1 ****   5 GROUP 4 **** **** 0

# MOE 2024.06 (io_trps.svl 2023.06)
