@<TRIPOS>MOLECULE
NONAME
52 56 1 0 0 
SMALL
USER_CHARGES


@<TRIPOS>ATOM
  1 O       -0.5200     0.0970    -0.7250 O.2   1 <1>  -0.5700 
  2 C        0.2650    -0.8320    -0.6730 C.2   1 <1>   0.7060 
  3 O        1.5100    -0.5000    -0.3060 O.3   1 <1>  -0.2320 
  4 C       -0.0720    -2.1980    -0.9680 C.2   1 <1>   0.0290 
  5 C        2.5100    -1.3870    -0.1550 C.ar  1 <1>   0.0830 
  6 C        0.9580    -3.1660    -0.7570 C.2   1 <1>   0.4690 
  7 C       -1.3120    -2.5890    -1.4290 C.2   1 <1>  -0.0500 
  8 C        2.2790    -2.7430    -0.3690 C.ar  1 <1>   0.0860 
  9 C        3.7600    -0.9180     0.2190 C.ar  1 <1>  -0.1500 
 10 O        0.7310    -4.3570    -0.8950 O.2   1 <1>  -0.5700 
 11 N       -2.3800    -1.7850    -1.6610 N.pl3 1 <1>  -0.8690 
 12 C        3.3510    -3.6200    -0.1940 C.ar  1 <1>  -0.1500 
 13 C        4.8060    -1.8040     0.3860 C.ar  1 <1>  -0.1500 
 14 C       -3.7340    -2.2150    -2.1610 C.3   1 <1>   0.2700 
 15 C        4.5990    -3.1580     0.1790 C.ar  1 <1>  -0.1500 
 16 C       -4.9270    -1.6260    -1.3890 C.2   1 <1>   0.5690 
 17 O       -5.6350    -0.8450    -1.9860 O.2   1 <1>  -0.5700 
 18 N       -5.1950    -1.9810    -0.0850 N.am  1 <1>  -0.6600 
 19 C       -6.5120    -1.6530     0.5390 C.3   1 <1>   0.1400 
 20 C       -4.3350    -2.8670     0.7520 C.3   1 <1>   0.1400 
 21 C       -7.2550    -2.9440     0.9300 C.3   1 <1>   0.0580 
 22 C       -5.0990    -4.1270     1.2090 C.3   1 <1>  -0.0800 
 23 C       -7.5480    -3.7680    -0.3260 C.2   1 <1>  -0.0290 
 24 C       -6.4050    -3.7490     1.9190 C.3   1 <1>  -0.1600 
 25 C       -5.4000    -5.0710     0.0300 C.3   1 <1>   0.1400 
 26 N       -6.6060    -4.6940    -0.7750 N.am  1 <1>  -0.4690 
 27 C       -8.7060    -3.5770    -1.0180 C.2   1 <1>  -0.1500 
 28 C       -6.8190    -5.3830    -1.9590 C.2   1 <1>   0.6160 
 29 C       -8.9680    -4.2950    -2.2080 C.2   1 <1>  -0.1500 
 30 O       -5.9740    -6.1630    -2.3870 O.2   1 <1>  -0.5700 
 31 C       -8.0360    -5.1710    -2.6620 C.2   1 <1>  -0.1360 
 32 H       -1.4670    -3.6390    -1.6360 H     1 <1>   0.1500 
 33 H        3.9100     0.1360     0.3780 H     1 <1>   0.1500 
 34 H       -2.3080    -0.7630    -1.4890 H     1 <1>   0.4000 
 35 H        3.2000    -4.6750    -0.3530 H     1 <1>   0.1500 
 36 H        5.7800    -1.4460     0.6770 H     1 <1>   0.1500 
 37 H       -3.8260    -1.9140    -3.1900 H     1 <1>   0.0800 
 38 H       -3.8080    -3.2870    -2.1330 H     1 <1>   0.0800 
 39 H        5.4140    -3.8510     0.3090 H     1 <1>   0.1500 
 40 H       -6.3440    -1.0450     1.4100 H     1 <1>   0.0800 
 41 H       -7.1240    -1.0880    -0.1440 H     1 <1>   0.0800 
 42 H       -3.4480    -3.1630     0.2240 H     1 <1>   0.0800 
 43 H       -4.0190    -2.3090     1.6170 H     1 <1>   0.0800 
 44 H       -8.1830    -2.6730     1.4030 H     1 <1>   0.0800 
 45 H       -4.4640    -4.6570     1.8970 H     1 <1>   0.0800 
 46 H       -6.1980    -3.1610     2.7960 H     1 <1>   0.0800 
 47 H       -6.9350    -4.6350     2.2210 H     1 <1>   0.0800 
 48 H       -5.5690    -6.0610     0.4160 H     1 <1>   0.0800 
 49 H       -4.5410    -5.1210    -0.6170 H     1 <1>   0.0800 
 50 H       -9.4460    -2.8680    -0.6900 H     1 <1>   0.1500 
 51 H       -9.8960    -4.1240    -2.7270 H     1 <1>   0.1500 
 52 H       -8.1700    -5.7380    -3.5620 H     1 <1>   0.1500 
@<TRIPOS>BOND
  1   1   2  2   
  2   2   3  1   
  3   2   4  1   
  4   3   5  1   
  5   4   6  1   
  6   4   7  2   
  7   5   8  ar  
  8   5   9  ar  
  9   6   8  1   
 10   6  10  2   
 11   7  11  1   
 12   7  32  1   
 13   8  12  ar  
 14   9  13  ar  
 15   9  33  1   
 16  11  14  1   
 17  11  34  1   
 18  12  15  ar  
 19  12  35  1   
 20  13  15  ar  
 21  13  36  1   
 22  14  16  1   
 23  14  37  1   
 24  14  38  1   
 25  15  39  1   
 26  16  17  2   
 27  16  18  am  
 28  18  19  1   
 29  18  20  1   
 30  19  21  1   
 31  19  40  1   
 32  19  41  1   
 33  20  22  1   
 34  20  42  1   
 35  20  43  1   
 36  21  23  1   
 37  21  24  1   
 38  21  44  1   
 39  22  24  1   
 40  22  25  1   
 41  22  45  1   
 42  23  26  1   
 43  23  27  2   
 44  24  46  1   
 45  24  47  1   
 46  25  26  1   
 47  25  48  1   
 48  25  49  1   
 49  26  28  am  
 50  27  29  1   
 51  27  50  1   
 52  28  30  2   
 53  28  31  1   
 54  29  31  2   
 55  29  51  1   
 56  31  52  1   
@<TRIPOS>SUBSTRUCTURE
  1 ****  11 GROUP 4 **** **** 0

# MOE 2024.06 (io_trps.svl 2023.06)
