@<TRIPOS>MOLECULE
NONAME
58 62 1 0 0 
SMALL
USER_CHARGES


@<TRIPOS>ATOM
  1 O       -3.2350     2.1150     2.8820 O.2   1 <1>  -0.5700 
  2 C       -2.9940     1.7710     1.7380 C.2   1 <1>   0.6160 
  3 N       -3.4560     0.5400     1.3030 N.am  1 <1>  -0.6600 
  4 C       -2.2990     2.6970     0.8880 C.2   1 <1>   0.0290 
  5 C       -4.0090    -0.4630     2.2540 C.3   1 <1>   0.1400 
  6 C       -3.3930     0.0860    -0.1130 C.3   1 <1>   0.1400 
  7 C       -1.0530     2.3120     0.3030 C.2   1 <1>   0.6160 
  8 C       -2.7810     3.9580     0.6350 C.2   1 <1>  -0.1500 
  9 C       -5.4200    -0.8610     1.8260 C.3   1 <1>  -0.1600 
 10 C       -4.7730    -0.3770    -0.5870 C.3   1 <1>  -0.1600 
 11 O       -0.5190     1.2220     0.4490 O.2   1 <1>  -0.5700 
 12 N       -0.4060     3.2100    -0.5010 N.am  1 <1>  -0.5390 
 13 C       -2.0760     4.8540    -0.1990 C.2   1 <1>  -0.1380 
 14 C       -5.5280    -1.3260     0.3620 C.3   1 <1>   0.4240 
 15 C       -0.8960     4.4620    -0.7630 C.2   1 <1>  -0.0290 
 16 C       -2.6720     6.2350    -0.4400 C.3   1 <1>  -0.0220 
 17 O       -6.8720    -1.1400    -0.0100 O.3   1 <1>  -0.5600 
 18 C       -5.1120    -2.8140     0.1750 C.ar  1 <1>  -0.1430 
 19 C       -0.0650     5.3550    -1.6730 C.3   1 <1>  -0.0220 
 20 C       -1.6410     7.2180    -1.0130 C.3   1 <1>  -0.1600 
 21 C       -7.7990    -2.0910     0.4060 C.3   1 <1>   0.1200 
 22 C       -6.0620    -3.7800    -0.1570 C.ar  1 <1>  -0.1430 
 23 C       -3.7960    -3.2370     0.3390 C.ar  1 <1>  -0.1500 
 24 C       -0.8560     6.5760    -2.1640 C.3   1 <1>  -0.1600 
 25 C       -7.5150    -3.3870    -0.3390 C.3   1 <1>  -0.0170 
 26 C       -5.7060    -5.1090    -0.3280 C.ar  1 <1>  -0.1500 
 27 C       -3.4380    -4.5620     0.1720 C.ar  1 <1>  -0.1500 
 28 C       -4.3860    -5.5090    -0.1630 C.ar  1 <1>   0.0830 
 29 O       -3.9550    -6.7870    -0.3100 O.3   1 <1>  -0.3630 
 30 C       -4.8400    -7.8210    -0.6750 C.3   1 <1>   0.0400 
 31 H       -4.0490    -0.0610     3.2520 H     1 <1>   0.0800 
 32 H       -3.3620    -1.3190     2.2860 H     1 <1>   0.0800 
 33 H       -2.6640    -0.6960    -0.2050 H     1 <1>   0.0800 
 34 H       -3.0740     0.8880    -0.7540 H     1 <1>   0.0800 
 35 H       -3.7080     4.2770     1.0790 H     1 <1>   0.1500 
 36 H       -6.0500    -0.0010     1.9680 H     1 <1>   0.0800 
 37 H       -5.7640    -1.6410     2.4780 H     1 <1>   0.0800 
 38 H       -4.6750    -0.8470    -1.5480 H     1 <1>   0.0800 
 39 H       -5.3640     0.5120    -0.7210 H     1 <1>   0.0800 
 40 H        0.4810     2.8780    -0.8800 H     1 <1>   0.3700 
 41 H       -3.0580     6.6320     0.4820 H     1 <1>   0.0800 
 42 H       -3.4930     6.1370    -1.1290 H     1 <1>   0.0800 
 43 H        0.2760     4.7940    -2.5250 H     1 <1>   0.0800 
 44 H        0.7980     5.6870    -1.1240 H     1 <1>   0.0800 
 45 H       -0.9560     7.5070    -0.2350 H     1 <1>   0.0800 
 46 H       -2.1440     8.1040    -1.3600 H     1 <1>   0.0800 
 47 H       -8.7810    -1.7230     0.1640 H     1 <1>   0.0800 
 48 H       -7.7240    -2.2250     1.4700 H     1 <1>   0.0800 
 49 H       -3.0170    -2.5530     0.6020 H     1 <1>   0.1500 
 50 H       -1.5450     6.2670    -2.9320 H     1 <1>   0.0800 
 51 H       -0.1800     7.2940    -2.5940 H     1 <1>   0.0800 
 52 H       -7.7240    -3.2500    -1.3850 H     1 <1>   0.0800 
 53 H       -8.1620    -4.1580     0.0380 H     1 <1>   0.0800 
 54 H       -6.4650    -5.8200    -0.5890 H     1 <1>   0.1500 
 55 H       -2.4170    -4.8710     0.3020 H     1 <1>   0.1500 
 56 H       -4.2770    -8.7350    -0.7400 H     1 <1>   0.0800 
 57 H       -5.2730    -7.5890    -1.6310 H     1 <1>   0.0800 
 58 H       -5.6000    -7.9130     0.0820 H     1 <1>   0.0800 
@<TRIPOS>BOND
  1   1   2  2   
  2   2   3  am  
  3   2   4  1   
  4   3   5  1   
  5   3   6  1   
  6   4   7  1   
  7   4   8  2   
  8   5   9  1   
  9   5  31  1   
 10   5  32  1   
 11   6  10  1   
 12   6  33  1   
 13   6  34  1   
 14   7  11  2   
 15   7  12  am  
 16   8  13  1   
 17   8  35  1   
 18   9  14  1   
 19   9  36  1   
 20   9  37  1   
 21  10  14  1   
 22  10  38  1   
 23  10  39  1   
 24  12  15  1   
 25  12  40  1   
 26  13  15  2   
 27  13  16  1   
 28  14  17  1   
 29  14  18  1   
 30  15  19  1   
 31  16  20  1   
 32  16  41  1   
 33  16  42  1   
 34  17  21  1   
 35  18  22  ar  
 36  18  23  ar  
 37  19  24  1   
 38  19  43  1   
 39  19  44  1   
 40  20  24  1   
 41  20  45  1   
 42  20  46  1   
 43  21  25  1   
 44  21  47  1   
 45  21  48  1   
 46  22  25  1   
 47  22  26  ar  
 48  23  27  ar  
 49  23  49  1   
 50  24  50  1   
 51  24  51  1   
 52  25  52  1   
 53  25  53  1   
 54  26  28  ar  
 55  26  54  1   
 56  27  28  ar  
 57  27  55  1   
 58  28  29  1   
 59  29  30  1   
 60  30  56  1   
 61  30  57  1   
 62  30  58  1   
@<TRIPOS>SUBSTRUCTURE
  1 ****   6 GROUP 4 **** **** 0

# MOE 2024.06 (io_trps.svl 2023.06)
