@<TRIPOS>MOLECULE
NONAME
52 54 1 0 0 
SMALL
USER_CHARGES


@<TRIPOS>ATOM
  1 O       -3.2910    -1.0250    -3.1220 O.2   1 <1>  -0.5700 
  2 C       -3.0970    -1.3400    -1.9800 C.2   1 <1>   0.5690 
  3 N       -2.6560    -0.4340    -1.0910 N.am  1 <1>  -0.7300 
  4 C       -3.3880    -2.7470    -1.5360 C.3   1 <1>  -0.0190 
  5 C       -2.3930    -0.6890     0.3450 C.3   1 <1>   0.2200 
  6 C       -2.1200    -3.4510    -1.0030 C.3   1 <1>   0.1200 
  7 C       -4.6090    -2.7200    -0.6050 C.3   1 <1>   0.3430 
  8 C       -1.3030    -1.7780     0.5090 C.3   1 <1>   0.1200 
  9 C       -3.7190    -1.0170     1.0900 C.3   1 <1>   0.3430 
 10 O       -1.7920    -3.0810     0.3110 O.3   1 <1>  -0.5600 
 11 N       -4.2820    -2.3910     0.8250 N.4   1 <1>  -0.9590 
 12 C       -5.3800    -2.7490     1.7610 C.3   1 <1>   0.4860 
 13 C       -5.6570    -4.2350     1.6360 C.ar  1 <1>  -0.1440 
 14 C       -6.8520    -4.6730     1.0800 C.ar  1 <1>  -0.1500 
 15 C       -4.7180    -5.1640     2.0630 C.ar  1 <1>  -0.1500 
 16 C       -7.1140    -6.0270     0.9370 C.ar  1 <1>  -0.1440 
 17 C       -4.9700    -6.5160     1.9240 C.ar  1 <1>  -0.1500 
 18 C       -6.1590    -6.9460     1.3570 C.ar  1 <1>   0.0820 
 19 C       -8.4310    -6.4870     0.3230 C.3   1 <1>   0.1220 
 20 O       -6.3920    -8.2680     1.2320 O.3   1 <1>  -0.3620 
 21 C       -8.3110    -6.5640    -1.1900 C.2   1 <1>  -0.2880 
 22 C       -5.6750    -8.9400     0.2250 C.3   1 <1>   0.2580 
 23 C       -8.4540    -7.6790    -1.9120 C.2   1 <1>  -0.3000 
 24 C       -6.2170   -10.3520     0.1210 C.2   1 <1>  -0.2880 
 25 C       -6.6850   -10.9220    -0.9940 C.2   1 <1>  -0.3000 
 26 H       -2.4230     0.4910    -1.4700 H     1 <1>   0.3700 
 27 H       -3.6860    -3.2770    -2.4230 H     1 <1>   0.0800 
 28 H       -2.0030     0.2260     0.7560 H     1 <1>   0.0800 
 29 H       -1.2740    -3.2540    -1.6410 H     1 <1>   0.0800 
 30 H       -2.2830    -4.5160    -0.9920 H     1 <1>   0.0800 
 31 H       -5.0560    -3.7010    -0.6410 H     1 <1>   0.0800 
 32 H       -5.3330    -2.0200    -0.9880 H     1 <1>   0.0800 
 33 H       -0.9190    -1.7440     1.5140 H     1 <1>   0.0800 
 34 H       -0.4790    -1.6040    -0.1640 H     1 <1>   0.0800 
 35 H       -4.4500    -0.2680     0.8340 H     1 <1>   0.0800 
 36 H       -3.5230    -0.9290     2.1460 H     1 <1>   0.0800 
 37 H       -3.4930    -3.0360     1.0320 H     1 <1>   0.4500 
 38 H       -5.0920    -2.5300     2.7760 H     1 <1>   0.0800 
 39 H       -6.2690    -2.1870     1.5270 H     1 <1>   0.0800 
 40 H       -7.5940    -3.9640     0.7530 H     1 <1>   0.1500 
 41 H       -3.7890    -4.8540     2.5100 H     1 <1>   0.1500 
 42 H       -4.2530    -7.2420     2.2640 H     1 <1>   0.1500 
 43 H       -8.7120    -7.4480     0.7200 H     1 <1>   0.0800 
 44 H       -9.2160    -5.7990     0.5830 H     1 <1>   0.0800 
 45 H       -8.0950    -5.6100    -1.6390 H     1 <1>   0.1500 
 46 H       -5.8050    -8.4070    -0.7010 H     1 <1>   0.0800 
 47 H       -4.6340    -8.9520     0.4970 H     1 <1>   0.0800 
 48 H       -8.3700    -7.7200    -2.9840 H     1 <1>   0.1500 
 49 H       -8.6690    -8.6470    -1.4890 H     1 <1>   0.1500 
 50 H       -6.1870   -10.8640     1.0670 H     1 <1>   0.1500 
 51 H       -7.0670   -11.9280    -1.0370 H     1 <1>   0.1500 
 52 H       -6.7290   -10.4360    -1.9540 H     1 <1>   0.1500 
@<TRIPOS>BOND
  1   1   2  2   
  2   2   3  am  
  3   2   4  1   
  4   3   5  1   
  5   3  26  1   
  6   4   6  1   
  7   4   7  1   
  8   4  27  1   
  9   5   8  1   
 10   5   9  1   
 11   5  28  1   
 12   6  10  1   
 13   6  29  1   
 14   6  30  1   
 15   7  11  1   
 16   7  31  1   
 17   7  32  1   
 18   8  10  1   
 19   8  33  1   
 20   8  34  1   
 21   9  11  1   
 22   9  35  1   
 23   9  36  1   
 24  11  12  1   
 25  11  37  1   
 26  12  13  1   
 27  12  38  1   
 28  12  39  1   
 29  13  14  ar  
 30  13  15  ar  
 31  14  16  ar  
 32  14  40  1   
 33  15  17  ar  
 34  15  41  1   
 35  16  18  ar  
 36  16  19  1   
 37  17  18  ar  
 38  17  42  1   
 39  18  20  1   
 40  19  21  1   
 41  19  43  1   
 42  19  44  1   
 43  20  22  1   
 44  21  23  2   
 45  21  45  1   
 46  22  24  1   
 47  22  46  1   
 48  22  47  1   
 49  23  48  1   
 50  23  49  1   
 51  24  25  2   
 52  24  50  1   
 53  25  51  1   
 54  25  52  1   
@<TRIPOS>SUBSTRUCTURE
  1 ****  13 GROUP 4 **** **** 0

# MOE 2024.06 (io_trps.svl 2023.06)
