@<TRIPOS>MOLECULE
NONAME
48 50 1 0 0 
SMALL
USER_CHARGES


@<TRIPOS>ATOM
  1 O       -4.4880     3.7150    -0.8970 O.2   1 <1>  -0.5700 
  2 C       -3.3380     3.4100    -0.6940 C.2   1 <1>   0.5690 
  3 N       -2.8450     2.1990    -1.0540 N.am  1 <1>  -0.7300 
  4 C       -2.4140     4.4090    -0.0150 C.3   1 <1>   0.0440 
  5 C       -3.6060     1.0940    -1.6720 C.3   1 <1>   0.2200 
  6 C       -1.1250     3.7580     0.4790 C.ar  1 <1>  -0.1440 
  7 C       -3.6340    -0.0810    -0.7100 C.3   1 <1>  -0.0800 
  8 C       -2.8240     0.5250    -2.8560 C.3   1 <1>   0.1200 
  9 C       -0.0180     3.6780    -0.3500 C.ar  1 <1>  -0.1500 
 10 C       -1.0610     3.2100     1.7480 C.ar  1 <1>  -0.1500 
 11 C       -2.2910    -0.7490    -1.0080 C.3   1 <1>   0.1200 
 12 C       -4.8260    -1.0150    -0.9930 C.3   1 <1>  -0.0160 
 13 O       -2.0200    -0.5070    -2.3570 O.3   1 <1>  -0.5600 
 14 C        1.1440     3.0510     0.0710 C.ar  1 <1>  -0.1440 
 15 C        0.0960     2.5850     2.1760 C.ar  1 <1>  -0.1500 
 16 C       -4.8590    -2.1850    -0.0220 C.ar  1 <1>  -0.1440 
 17 C        1.2020     2.4980     1.3460 C.ar  1 <1>  -0.1440 
 18 C        2.3320     2.9820    -0.8790 C.3   1 <1>  -0.0970 
 19 C       -5.2870    -2.0350     1.2810 C.ar  1 <1>  -0.1500 
 20 C       -4.4640    -3.4550    -0.3920 C.ar  1 <1>  -0.1500 
 21 C        2.4550     1.7990     1.8540 C.3   1 <1>  -0.0970 
 22 C       -5.2950    -3.1310     2.1290 C.ar  1 <1>   0.1600 
 23 C       -4.5110    -4.4830     0.5350 C.ar  1 <1>   0.1600 
 24 N       -4.9150    -4.3510     1.7880 N.ar  1 <1>  -0.6200 
 25 H       -1.8660     1.9900    -0.8290 H     1 <1>   0.3700 
 26 H       -2.1870     5.1920    -0.7140 H     1 <1>   0.0800 
 27 H       -2.9390     4.8530     0.8110 H     1 <1>   0.0800 
 28 H       -4.5870     1.4340    -1.9600 H     1 <1>   0.0800 
 29 H       -3.6840     0.2500     0.3120 H     1 <1>   0.0800 
 30 H       -2.2040     1.2650    -3.3320 H     1 <1>   0.0800 
 31 H       -3.4920     0.0920    -3.5770 H     1 <1>   0.0800 
 32 H       -0.0640     4.1050    -1.3370 H     1 <1>   0.1500 
 33 H       -1.9100     3.2610     2.4080 H     1 <1>   0.1500 
 34 H       -2.2900    -1.8100    -0.8310 H     1 <1>   0.0800 
 35 H       -1.5050    -0.2920    -0.4320 H     1 <1>   0.0800 
 36 H       -4.7780    -1.3860    -2.0020 H     1 <1>   0.0800 
 37 H       -5.7440    -0.4610    -0.8950 H     1 <1>   0.0800 
 38 H        0.1280     2.1650     3.1660 H     1 <1>   0.1500 
 39 H        2.1110     3.4690    -1.8110 H     1 <1>   0.0800 
 40 H        2.5790     1.9560    -1.0850 H     1 <1>   0.0800 
 41 H        3.1840     3.4680    -0.4390 H     1 <1>   0.0800 
 42 H       -5.6130    -1.0780     1.6450 H     1 <1>   0.1500 
 43 H       -4.1190    -3.6550    -1.3900 H     1 <1>   0.1500 
 44 H        2.3120     1.4280     2.8520 H     1 <1>   0.0800 
 45 H        3.2800     2.4870     1.8650 H     1 <1>   0.0800 
 46 H        2.6970     0.9680     1.2170 H     1 <1>   0.0800 
 47 H       -5.6320    -2.9950     3.1430 H     1 <1>   0.1500 
 48 H       -4.1980    -5.4670     0.2280 H     1 <1>   0.1500 
@<TRIPOS>BOND
  1   1   2  2   
  2   2   3  am  
  3   2   4  1   
  4   3   5  1   
  5   3  25  1   
  6   4   6  1   
  7   4  26  1   
  8   4  27  1   
  9   5   7  1   
 10   5   8  1   
 11   5  28  1   
 12   6   9  ar  
 13   6  10  ar  
 14   7  11  1   
 15   7  12  1   
 16   7  29  1   
 17   8  13  1   
 18   8  30  1   
 19   8  31  1   
 20   9  14  ar  
 21   9  32  1   
 22  10  15  ar  
 23  10  33  1   
 24  11  13  1   
 25  11  34  1   
 26  11  35  1   
 27  12  16  1   
 28  12  36  1   
 29  12  37  1   
 30  14  17  ar  
 31  14  18  1   
 32  15  17  ar  
 33  15  38  1   
 34  16  19  ar  
 35  16  20  ar  
 36  17  21  1   
 37  18  39  1   
 38  18  40  1   
 39  18  41  1   
 40  19  22  ar  
 41  19  42  1   
 42  20  23  ar  
 43  20  43  1   
 44  21  44  1   
 45  21  45  1   
 46  21  46  1   
 47  22  24  ar  
 48  22  47  1   
 49  23  24  ar  
 50  23  48  1   
@<TRIPOS>SUBSTRUCTURE
  1 ****   7 GROUP 4 **** **** 0

# MOE 2024.06 (io_trps.svl 2023.06)
