@<TRIPOS>MOLECULE
NONAME
59 62 1 0 0 
SMALL
USER_CHARGES


@<TRIPOS>ATOM
  1 S       -0.6100    -0.5760    -1.1950 S.o2  1 <1>   1.5760 
  2 O        0.5630    -0.8260    -1.9990 O.2   1 <1>  -0.6500 
  3 O       -1.9330    -0.5710    -1.7810 O.2   1 <1>  -0.6500 
  4 N       -0.6570    -1.6710     0.0940 N.am  1 <1>  -0.8490 
  5 N       -0.3830     0.8630    -0.3460 N.am  1 <1>  -0.8490 
  6 C       -1.8210    -1.3830     0.9520 C.3   1 <1>   0.1960 
  7 C       -0.5690    -3.0460    -0.4150 C.3   1 <1>   0.1960 
  8 C        0.9730     0.9440     0.2100 C.3   1 <1>   0.1960 
  9 C       -0.6560     2.0180    -1.2040 C.3   1 <1>   0.1960 
 10 C       -2.0700    -2.3690     2.1080 C.3   1 <1>   0.2090 
 11 C       -0.1580    -4.0180     0.6960 C.3   1 <1>  -0.1600 
 12 C        1.1080     2.1910     1.0900 C.3   1 <1>  -0.1600 
 13 C       -0.5830     3.3120    -0.3870 C.3   1 <1>  -0.1600 
 14 N       -2.4930    -3.7200     1.6020 N.pl3 1 <1>  -0.8380 
 15 C       -1.3330    -4.6600     1.4440 C.3   1 <1>   0.2090 
 16 C        0.7790     3.4640     0.3020 C.3   1 <1>  -0.1600 
 17 C       -3.7620    -4.0990     1.2760 C.ar  1 <1>   0.7710 
 18 N       -4.0020    -5.3600     0.9480 N.ar  1 <1>  -0.6200 
 19 N       -4.7470    -3.1810     1.2840 N.ar  1 <1>  -0.1790 
 20 C       -5.2290    -5.7160     0.6180 C.ar  1 <1>   0.4100 
 21 C       -6.0210    -3.4970     0.9500 C.ar  1 <1>   0.2110 
 22 N       -5.4410    -7.0150     0.2880 N.pl3 1 <1>  -0.8380 
 23 C       -6.2810    -4.7800     0.6100 C.ar  1 <1>  -0.1500 
 24 C       -6.7450    -7.6360    -0.0830 C.3   1 <1>   0.2090 
 25 C       -4.3780    -8.0550     0.2920 C.3   1 <1>   0.2090 
 26 C       -6.4460    -9.1110    -0.3690 C.3   1 <1>   0.2000 
 27 C       -4.9350    -9.2080    -0.5320 C.3   1 <1>  -0.1600 
 28 O       -7.0630    -9.5280    -1.5370 O.3   1 <1>  -0.6800 
 29 H       -2.7120    -1.3350     0.3520 H     1 <1>   0.0800 
 30 H       -1.6810    -0.4100     1.3910 H     1 <1>   0.0800 
 31 H        0.2030    -3.0900    -1.1670 H     1 <1>   0.0800 
 32 H       -1.4930    -3.3440    -0.8840 H     1 <1>   0.0800 
 33 H        1.6980     0.9810    -0.5870 H     1 <1>   0.0800 
 34 H        1.1770     0.0700     0.8060 H     1 <1>   0.0800 
 35 H       -1.6430     1.9330    -1.6280 H     1 <1>   0.0800 
 36 H        0.0550     2.0500    -2.0140 H     1 <1>   0.0800 
 37 H       -2.8270    -1.9700     2.7580 H     1 <1>   0.0800 
 38 H       -1.1730    -2.4520     2.7000 H     1 <1>   0.0800 
 39 H        0.5050    -3.5250     1.3840 H     1 <1>   0.0800 
 40 H        0.4080    -4.8170     0.2520 H     1 <1>   0.0800 
 41 H        2.1110     2.2510     1.4720 H     1 <1>   0.0800 
 42 H        0.4410     2.0980     1.9290 H     1 <1>   0.0800 
 43 H       -1.3650     3.3010     0.3520 H     1 <1>   0.0800 
 44 H       -0.7550     4.1530    -1.0350 H     1 <1>   0.0800 
 45 H       -1.0040    -4.9900     2.4150 H     1 <1>   0.0800 
 46 H       -1.6230    -5.5390     0.8930 H     1 <1>   0.0800 
 47 H        1.5390     3.6290    -0.4420 H     1 <1>   0.0800 
 48 H        0.7660     4.3140     0.9620 H     1 <1>   0.0800 
 49 H       -4.4750    -2.2390     1.5320 H     1 <1>   0.4570 
 50 H       -6.7790    -2.7300     0.9630 H     1 <1>   0.1500 
 51 H       -7.2690    -5.0950     0.3360 H     1 <1>   0.1500 
 52 H       -7.1400    -7.1530    -0.9600 H     1 <1>   0.0800 
 53 H       -7.4420    -7.5540     0.7330 H     1 <1>   0.0800 
 54 H       -4.1990    -8.3690     1.3070 H     1 <1>   0.0800 
 55 H       -3.4620    -7.6810    -0.1340 H     1 <1>   0.0800 
 56 H       -6.7960    -9.7260     0.4420 H     1 <1>   0.0800 
 57 H       -4.5560   -10.1520    -0.1840 H     1 <1>   0.0800 
 58 H       -4.6460    -9.0610    -1.5570 H     1 <1>   0.0800 
 59 H       -6.6480    -9.1020    -2.3110 H     1 <1>   0.4000 
@<TRIPOS>BOND
  1   1   2  2   
  2   1   3  2   
  3   1   4  am  
  4   1   5  am  
  5   4   6  1   
  6   4   7  1   
  7   5   8  1   
  8   5   9  1   
  9   6  10  1   
 10   6  29  1   
 11   6  30  1   
 12   7  11  1   
 13   7  31  1   
 14   7  32  1   
 15   8  12  1   
 16   8  33  1   
 17   8  34  1   
 18   9  13  1   
 19   9  35  1   
 20   9  36  1   
 21  10  14  1   
 22  10  37  1   
 23  10  38  1   
 24  11  15  1   
 25  11  39  1   
 26  11  40  1   
 27  12  16  1   
 28  12  41  1   
 29  12  42  1   
 30  13  16  1   
 31  13  43  1   
 32  13  44  1   
 33  14  15  1   
 34  14  17  1   
 35  15  45  1   
 36  15  46  1   
 37  16  47  1   
 38  16  48  1   
 39  17  18  ar  
 40  17  19  ar  
 41  18  20  ar  
 42  19  21  ar  
 43  19  49  1   
 44  20  22  1   
 45  20  23  ar  
 46  21  23  ar  
 47  21  50  1   
 48  22  24  1   
 49  22  25  1   
 50  23  51  1   
 51  24  26  1   
 52  24  52  1   
 53  24  53  1   
 54  25  27  1   
 55  25  54  1   
 56  25  55  1   
 57  26  27  1   
 58  26  28  1   
 59  26  56  1   
 60  27  57  1   
 61  27  58  1   
 62  28  59  1   
@<TRIPOS>SUBSTRUCTURE
  1 ****  14 GROUP 4 **** **** 0

# MOE 2024.06 (io_trps.svl 2023.06)
