@<TRIPOS>MOLECULE
NONAME
48 52 1 0 0 
SMALL
USER_CHARGES


@<TRIPOS>ATOM
  1 S       -1.2090     0.9210     1.3380 S.3   1 <1>  -0.0800 
  2 C       -0.5520     2.1690     0.2990 C.2   1 <1>  -0.1400 
  3 C        0.2010     1.0210     2.3810 C.2   1 <1>  -0.1100 
  4 C        0.6420     2.5980     0.7260 C.2   1 <1>  -0.1810 
  5 C       -1.2750     2.6750    -0.9180 C.3   1 <1>   0.0200 
  6 C        1.0740     1.9420     1.9270 C.2   1 <1>  -0.1500 
  7 C        1.4180     3.6740    -0.0420 C.3   1 <1>   0.4610 
  8 C       -0.6530     4.0330    -1.2790 C.3   1 <1>   0.1200 
  9 O        0.7550     3.9770    -1.2570 O.3   1 <1>  -0.5600 
 10 C        1.5160     4.9660     0.7860 C.3   1 <1>  -0.1600 
 11 C        2.8030     3.1430    -0.4610 C.3   1 <1>  -0.1600 
 12 C        2.6220     5.8730     0.2510 C.3   1 <1>   0.1400 
 13 C        3.9450     3.6980     0.3920 C.3   1 <1>   0.1400 
 14 N        3.9470     5.1920     0.3620 N.am  1 <1>  -0.6600 
 15 C        5.1350     5.8770     0.4040 C.2   1 <1>   0.6300 
 16 O        6.1960     5.3090     0.5230 O.2   1 <1>  -0.5700 
 17 C        5.1460     7.3960     0.2840 C.3   1 <1>  -0.1000 
 18 C        6.2260     8.2090     0.9380 C.3   1 <1>  -0.0680 
 19 C        4.8240     8.2750     1.4580 C.3   1 <1>  -0.2000 
 20 C        6.8280     9.3780     0.1800 C.ar  1 <1>  -0.0320 
 21 C        7.4670     9.1590    -1.0300 C.ar  1 <1>  -0.1500 
 22 C        6.7520    10.6650     0.6870 C.ar  1 <1>  -0.1500 
 23 C        8.0180    10.2170    -1.7320 C.ar  1 <1>  -0.1500 
 24 C        7.3020    11.7260    -0.0130 C.ar  1 <1>  -0.1500 
 25 C        7.9340    11.5020    -1.2240 C.ar  1 <1>  -0.1500 
 26 H        0.2270     0.3700     3.2360 H     1 <1>   0.1500 
 27 H       -1.1580     1.9810    -1.7310 H     1 <1>   0.0800 
 28 H       -2.3230     2.7960    -0.7110 H     1 <1>   0.0800 
 29 H        2.0120     2.1860     2.3940 H     1 <1>   0.1500 
 30 H       -0.9780     4.7860    -0.5830 H     1 <1>   0.0800 
 31 H       -0.9550     4.3270    -2.2690 H     1 <1>   0.0800 
 32 H        0.5780     5.4850     0.7870 H     1 <1>   0.0800 
 33 H        1.7420     4.7270     1.8090 H     1 <1>   0.0800 
 34 H        2.8130     2.0700    -0.4070 H     1 <1>   0.0800 
 35 H        3.0030     3.4120    -1.4830 H     1 <1>   0.0800 
 36 H        2.6270     6.7880     0.8160 H     1 <1>   0.0800 
 37 H        2.4300     6.1090    -0.7830 H     1 <1>   0.0800 
 38 H        4.8810     3.3210     0.0150 H     1 <1>   0.0800 
 39 H        3.8420     3.3700     1.4110 H     1 <1>   0.0800 
 40 H        4.8260     7.7160    -0.6900 H     1 <1>   0.1000 
 41 H        6.9560     7.6820     1.5300 H     1 <1>   0.1000 
 42 H        4.2460     9.1660     1.2870 H     1 <1>   0.1000 
 43 H        4.6150     7.8190     2.4100 H     1 <1>   0.1000 
 44 H        7.5350     8.1590    -1.4230 H     1 <1>   0.1500 
 45 H        6.2660    10.8420     1.6290 H     1 <1>   0.1500 
 46 H        8.5110    10.0390    -2.6720 H     1 <1>   0.1500 
 47 H        7.2390    12.7230     0.3850 H     1 <1>   0.1500 
 48 H        8.3620    12.3250    -1.7690 H     1 <1>   0.1500 
@<TRIPOS>BOND
  1   1   2  1   
  2   1   3  1   
  3   2   4  2   
  4   2   5  1   
  5   3   6  2   
  6   3  26  1   
  7   4   6  1   
  8   4   7  1   
  9   5   8  1   
 10   5  27  1   
 11   5  28  1   
 12   6  29  1   
 13   7   9  1   
 14   7  10  1   
 15   7  11  1   
 16   8   9  1   
 17   8  30  1   
 18   8  31  1   
 19  10  12  1   
 20  10  32  1   
 21  10  33  1   
 22  11  13  1   
 23  11  34  1   
 24  11  35  1   
 25  12  14  1   
 26  12  36  1   
 27  12  37  1   
 28  13  14  1   
 29  13  38  1   
 30  13  39  1   
 31  14  15  am  
 32  15  16  2   
 33  15  17  1   
 34  17  18  1   
 35  17  19  1   
 36  17  40  1   
 37  18  19  1   
 38  18  20  1   
 39  18  41  1   
 40  19  42  1   
 41  19  43  1   
 42  20  21  ar  
 43  20  22  ar  
 44  21  23  ar  
 45  21  44  1   
 46  22  24  ar  
 47  22  45  1   
 48  23  25  ar  
 49  23  46  1   
 50  24  25  ar  
 51  24  47  1   
 52  25  48  1   
@<TRIPOS>SUBSTRUCTURE
  1 ****  14 GROUP 4 **** **** 0

# MOE 2024.06 (io_trps.svl 2023.06)
