@<TRIPOS>MOLECULE
NONAME
52 55 1 0 0 
SMALL
USER_CHARGES


@<TRIPOS>ATOM
  1 S        1.4740     0.9930    -0.1440 S.3   1 <1>  -0.0800 
  2 C       -0.1930     1.4860    -0.4100 C.2   1 <1>  -0.1400 
  3 C        1.1400    -0.6050    -0.7980 C.2   1 <1>  -0.1100 
  4 C       -0.9040     0.4800    -0.9360 C.2   1 <1>  -0.1810 
  5 C       -0.7150     2.8780    -0.0620 C.3   1 <1>   0.4600 
  6 C       -0.1510    -0.7140    -1.1690 C.2   1 <1>  -0.1500 
  7 C       -2.3760     0.6770    -1.2210 C.3   1 <1>   0.0210 
  8 O       -2.0370     2.9930    -0.5470 O.3   1 <1>  -0.5600 
  9 C       -0.7690     3.0990     1.4620 C.3   1 <1>  -0.1600 
 10 C        0.0870     3.9610    -0.8000 C.3   1 <1>  -0.1600 
 11 C       -2.8880     1.8800    -0.4040 C.3   1 <1>   0.1200 
 12 C        0.4860     3.7830     2.0080 C.3   1 <1>   0.1400 
 13 C        0.0910     5.2750    -0.0250 C.3   1 <1>   0.1400 
 14 N        0.7820     5.0570     1.2840 N.am  1 <1>  -0.6600 
 15 C        1.6640     5.9710     1.8350 C.2   1 <1>   0.5440 
 16 O        1.9260     5.8740     3.0220 O.2   1 <1>  -0.5700 
 17 C        2.2940     7.0190     1.0630 C.ar  1 <1>   0.0860 
 18 C        3.0830     6.7270    -0.0640 C.ar  1 <1>   0.1000 
 19 C        2.1580     8.3540     1.4470 C.ar  1 <1>  -0.1500 
 20 N        3.2660     5.4180    -0.4900 N.pl3 1 <1>  -0.8690 
 21 C        3.6820     7.7650    -0.7700 C.ar  1 <1>  -0.1500 
 22 C        2.7620     9.3750     0.7400 C.ar  1 <1>  -0.1500 
 23 C        4.6020     4.8220    -0.4650 C.3   1 <1>   0.2890 
 24 C        3.5270     9.0780    -0.3770 C.ar  1 <1>  -0.1500 
 25 C        4.7810     4.0340    -1.7550 C.3   1 <1>  -0.2400 
 26 C        4.6760     3.9160     0.7570 C.3   1 <1>  -0.2400 
 27 H        1.9560    -1.3040    -0.8370 H     1 <1>   0.1500 
 28 H       -0.6090    -1.5880    -1.5980 H     1 <1>   0.1500 
 29 H       -2.9280    -0.2030    -0.9440 H     1 <1>   0.0800 
 30 H       -2.5240     0.8580    -2.2700 H     1 <1>   0.0800 
 31 H       -0.8980     2.1570     1.9610 H     1 <1>   0.0800 
 32 H       -1.6110     3.7220     1.7070 H     1 <1>   0.0800 
 33 H       -0.3240     4.1100    -1.7820 H     1 <1>   0.0800 
 34 H        1.1060     3.6520    -0.9320 H     1 <1>   0.0800 
 35 H       -2.9450     1.6270     0.6410 H     1 <1>   0.0800 
 36 H       -3.8670     2.1700    -0.7420 H     1 <1>   0.0800 
 37 H        1.3330     3.1270     1.9080 H     1 <1>   0.0800 
 38 H        0.3490     3.9890     3.0560 H     1 <1>   0.0800 
 39 H       -0.9210     5.5970     0.1550 H     1 <1>   0.0800 
 40 H        0.5830     6.0360    -0.6040 H     1 <1>   0.0800 
 41 H        1.5710     8.5800     2.3200 H     1 <1>   0.1500 
 42 H        2.5970     4.7640    -0.0610 H     1 <1>   0.4000 
 43 H        4.2690     7.5270    -1.6380 H     1 <1>   0.1500 
 44 H        2.6430    10.3980     1.0540 H     1 <1>   0.1500 
 45 H        5.3520     5.5940    -0.3960 H     1 <1>   0.0800 
 46 H        3.9970     9.8700    -0.9330 H     1 <1>   0.1500 
 47 H        4.0330     3.2650    -1.8340 H     1 <1>   0.0800 
 48 H        5.7520     3.5750    -1.7730 H     1 <1>   0.0800 
 49 H        4.6990     4.6950    -2.5980 H     1 <1>   0.0800 
 50 H        3.9370     3.1370     0.7010 H     1 <1>   0.0800 
 51 H        4.5180     4.4930     1.6520 H     1 <1>   0.0800 
 52 H        5.6480     3.4630     0.8170 H     1 <1>   0.0800 
@<TRIPOS>BOND
  1   1   2  1   
  2   1   3  1   
  3   2   4  2   
  4   2   5  1   
  5   3   6  2   
  6   3  27  1   
  7   4   6  1   
  8   4   7  1   
  9   5   8  1   
 10   5   9  1   
 11   5  10  1   
 12   6  28  1   
 13   7  11  1   
 14   7  29  1   
 15   7  30  1   
 16   8  11  1   
 17   9  12  1   
 18   9  31  1   
 19   9  32  1   
 20  10  13  1   
 21  10  33  1   
 22  10  34  1   
 23  11  35  1   
 24  11  36  1   
 25  12  14  1   
 26  12  37  1   
 27  12  38  1   
 28  13  14  1   
 29  13  39  1   
 30  13  40  1   
 31  14  15  am  
 32  15  16  2   
 33  15  17  1   
 34  17  18  ar  
 35  17  19  ar  
 36  18  20  1   
 37  18  21  ar  
 38  19  22  ar  
 39  19  41  1   
 40  20  23  1   
 41  20  42  1   
 42  21  24  ar  
 43  21  43  1   
 44  22  24  ar  
 45  22  44  1   
 46  23  25  1   
 47  23  26  1   
 48  23  45  1   
 49  24  46  1   
 50  25  47  1   
 51  25  48  1   
 52  25  49  1   
 53  26  50  1   
 54  26  51  1   
 55  26  52  1   
@<TRIPOS>SUBSTRUCTURE
  1 ****  10 GROUP 4 **** **** 0

# MOE 2024.06 (io_trps.svl 2023.06)
