@<TRIPOS>MOLECULE
NONAME
48 51 1 0 0 
SMALL
USER_CHARGES


@<TRIPOS>ATOM
  1 O       -0.2560     0.0970     0.6820 O.2   1 <1>  -0.5700 
  2 C       -1.2810     0.7510     0.6430 C.2   1 <1>   0.5440 
  3 N       -2.4790     0.0860     0.5010 N.am  1 <1>  -0.6600 
  4 C       -1.2190     2.1980     0.7220 C.ar  1 <1>   0.0860 
  5 C       -3.7180     0.6960    -0.0450 C.3   1 <1>   0.1400 
  6 C       -2.5530    -1.3950     0.4270 C.3   1 <1>   0.1400 
  7 C       -0.3040     2.9130    -0.0520 C.ar  1 <1>  -0.1500 
  8 C       -2.0610     2.9260     1.5650 C.ar  1 <1>  -0.1500 
  9 C       -4.4500    -0.4580    -0.7270 C.3   1 <1>   0.2000 
 10 C       -3.9900    -1.7110     0.0100 C.3   1 <1>  -0.0800 
 11 C       -0.2370     4.2950    -0.0110 C.ar  1 <1>  -0.1440 
 12 C       -2.0050     4.3060     1.6170 C.ar  1 <1>  -0.1500 
 13 O       -5.8250    -0.3200    -0.6330 O.3   1 <1>  -0.6800 
 14 C       -4.1180    -2.9910    -0.8280 C.3   1 <1>   0.0210 
 15 C       -1.0960     4.9950     0.8320 C.ar  1 <1>   0.0830 
 16 C        0.7670     5.0370    -0.8770 C.3   1 <1>  -0.0170 
 17 C       -3.5650    -4.1860    -0.0780 C.2   1 <1>   0.1080 
 18 O       -1.0820     6.3440     0.9110 O.3   1 <1>  -0.3630 
 19 C        0.3590     6.5050    -1.0220 C.3   1 <1>  -0.1600 
 20 N       -4.0840    -4.6250     1.0260 N.2   1 <1>  -0.7070 
 21 C       -2.4540    -4.9270    -0.4680 C.2   1 <1>  -0.1500 
 22 C       -0.0120     7.0780     0.3490 C.3   1 <1>   0.1200 
 23 N       -3.3110    -5.6720     1.3720 N.pl3 1 <1>   0.3000 
 24 C       -2.3160    -5.8730     0.4840 C.2   1 <1>  -0.3320 
 25 C       -1.2770    -6.9730     0.6010 C.3   1 <1>  -0.0600 
 26 H       -4.3040     1.0890     0.7670 H     1 <1>   0.0800 
 27 H       -3.4870     1.4750    -0.7510 H     1 <1>   0.0800 
 28 H       -1.8500    -1.7450    -0.3110 H     1 <1>   0.0800 
 29 H       -2.3130    -1.8370     1.3790 H     1 <1>   0.0800 
 30 H        0.3610     2.3600    -0.6920 H     1 <1>   0.1500 
 31 H       -2.7600     2.3980     2.1880 H     1 <1>   0.1500 
 32 H       -4.1800    -0.4910    -1.7690 H     1 <1>   0.0800 
 33 H       -4.5600    -1.8280     0.9160 H     1 <1>   0.0800 
 34 H       -2.6590     4.8600     2.2660 H     1 <1>   0.1500 
 35 H       -6.1160    -0.4590     0.2890 H     1 <1>   0.4000 
 36 H       -3.5930    -2.8790    -1.7590 H     1 <1>   0.0800 
 37 H       -5.1550    -3.1730    -1.0490 H     1 <1>   0.0800 
 38 H        1.7340     4.9760    -0.4090 H     1 <1>   0.0800 
 39 H        0.8310     4.5800    -1.8490 H     1 <1>   0.0800 
 40 H       -0.4920     6.5880    -1.6760 H     1 <1>   0.0800 
 41 H        1.1680     7.0700    -1.4490 H     1 <1>   0.0800 
 42 H       -1.8530    -4.7590    -1.3440 H     1 <1>   0.1500 
 43 H       -0.3270     8.1030     0.2660 H     1 <1>   0.0800 
 44 H        0.8200     7.0160     1.0280 H     1 <1>   0.0800 
 45 H       -3.4890    -6.2250     2.2190 H     1 <1>   0.2700 
 46 H       -0.5930    -6.9250    -0.2280 H     1 <1>   0.0800 
 47 H       -1.7540    -7.9380     0.5970 H     1 <1>   0.0800 
 48 H       -0.7180    -6.8610     1.5130 H     1 <1>   0.0800 
@<TRIPOS>BOND
  1   1   2  2   
  2   2   3  am  
  3   2   4  1   
  4   3   5  1   
  5   3   6  1   
  6   4   7  ar  
  7   4   8  ar  
  8   5   9  1   
  9   5  26  1   
 10   5  27  1   
 11   6  10  1   
 12   6  28  1   
 13   6  29  1   
 14   7  11  ar  
 15   7  30  1   
 16   8  12  ar  
 17   8  31  1   
 18   9  10  1   
 19   9  13  1   
 20   9  32  1   
 21  10  14  1   
 22  10  33  1   
 23  11  15  ar  
 24  11  16  1   
 25  12  15  ar  
 26  12  34  1   
 27  13  35  1   
 28  14  17  1   
 29  14  36  1   
 30  14  37  1   
 31  15  18  1   
 32  16  19  1   
 33  16  38  1   
 34  16  39  1   
 35  17  20  2   
 36  17  21  1   
 37  18  22  1   
 38  19  22  1   
 39  19  40  1   
 40  19  41  1   
 41  20  23  1   
 42  21  24  2   
 43  21  42  1   
 44  22  43  1   
 45  22  44  1   
 46  23  24  1   
 47  23  45  1   
 48  24  25  1   
 49  25  46  1   
 50  25  47  1   
 51  25  48  1   
@<TRIPOS>SUBSTRUCTURE
  1 ****   3 GROUP 4 **** **** 0

# MOE 2024.06 (io_trps.svl 2023.06)
