@<TRIPOS>MOLECULE
NONAME
49 52 1 0 0 
SMALL
USER_CHARGES


@<TRIPOS>ATOM
  1 O        2.2030    -0.3850    -3.0580 O.2   1 <1>  -0.5700 
  2 C        2.3210    -1.3350    -2.3170 C.2   1 <1>   0.5690 
  3 N        2.9650    -1.2210    -1.1040 N.am  1 <1>  -0.6600 
  4 C        1.7010    -2.6450    -2.7880 C.3   1 <1>   0.0440 
  5 C        3.3330     0.1270    -0.5950 C.3   1 <1>   0.1400 
  6 C        3.2660    -2.3650    -0.1940 C.3   1 <1>   0.1400 
  7 C        0.4810    -3.0270    -1.9560 C.ar  1 <1>  -0.1440 
  8 C        2.1070     0.7780     0.0510 C.3   1 <1>  -0.1600 
  9 C        2.8040    -2.1390     1.2540 C.3   1 <1>  -0.1600 
 10 C        0.4120    -4.2450    -1.3080 C.ar  1 <1>  -0.1500 
 11 C       -0.5770    -2.1190    -1.8390 C.ar  1 <1>  -0.1500 
 12 C        1.7060     0.1610     1.3960 C.3   1 <1>   0.2000 
 13 C        1.4870    -1.3580     1.4070 C.3   1 <1>  -0.1600 
 14 C       -0.6990    -4.5510    -0.5240 C.ar  1 <1>   0.0000 
 15 C       -1.6830    -2.4140    -1.0710 C.ar  1 <1>  -0.1500 
 16 O        0.5190     0.7470     1.7720 O.3   1 <1>  -0.6800 
 17 C       -1.7390    -3.6380    -0.4060 C.ar  1 <1>  -0.1520 
 18 C       -1.0430    -5.6840     0.2640 C.ar  1 <1>   0.0000 
 19 N       -2.7060    -4.1750     0.4220 N.pl3 1 <1>   0.0480 
 20 C       -2.2810    -5.4220     0.8390 C.ar  1 <1>  -0.1520 
 21 C       -0.3960    -6.8910     0.5250 C.ar  1 <1>  -0.1500 
 22 C       -3.9680    -3.5210     0.8100 C.3   1 <1>   0.0160 
 23 C       -2.8820    -6.3560     1.6840 C.ar  1 <1>  -0.1500 
 24 C       -0.9920    -7.8150     1.3580 C.ar  1 <1>  -0.1500 
 25 C       -2.2330    -7.5460     1.9370 C.ar  1 <1>  -0.1500 
 26 H        2.4450    -3.4180    -2.7630 H     1 <1>   0.0800 
 27 H        1.3940    -2.5320    -3.8120 H     1 <1>   0.0800 
 28 H        3.6640     0.7370    -1.4190 H     1 <1>   0.0800 
 29 H        4.1460     0.0570     0.1070 H     1 <1>   0.0800 
 30 H        4.3270    -2.5450    -0.2020 H     1 <1>   0.0800 
 31 H        2.7930    -3.2570    -0.5530 H     1 <1>   0.0800 
 32 H        1.2860     0.7280    -0.6420 H     1 <1>   0.0800 
 33 H        2.3320     1.8160     0.2180 H     1 <1>   0.0800 
 34 H        3.5850    -1.6470     1.8070 H     1 <1>   0.0800 
 35 H        2.6790    -3.1090     1.7040 H     1 <1>   0.0800 
 36 H        1.2000    -4.9700    -1.3860 H     1 <1>   0.1500 
 37 H       -0.5210    -1.1750    -2.3550 H     1 <1>   0.1500 
 38 H        2.4360     0.4230     2.1440 H     1 <1>   0.0800 
 39 H        1.0590    -1.6230     2.3590 H     1 <1>   0.0800 
 40 H        0.7930    -1.6500     0.6390 H     1 <1>   0.0800 
 41 H       -2.4890    -1.7090    -0.9850 H     1 <1>   0.1500 
 42 H       -0.1800     0.4790     1.1470 H     1 <1>   0.4000 
 43 H        0.5590    -7.0870     0.0740 H     1 <1>   0.1500 
 44 H       -4.2960    -2.8750     0.0170 H     1 <1>   0.0800 
 45 H       -3.8070    -2.9470     1.7030 H     1 <1>   0.0800 
 46 H       -4.7190    -4.2670     0.9880 H     1 <1>   0.0800 
 47 H       -3.8370    -6.1510     2.1320 H     1 <1>   0.1500 
 48 H       -0.5030    -8.7500     1.5680 H     1 <1>   0.1500 
 49 H       -2.6810    -8.2790     2.5850 H     1 <1>   0.1500 
@<TRIPOS>BOND
  1   1   2  2   
  2   2   3  am  
  3   2   4  1   
  4   3   5  1   
  5   3   6  1   
  6   4   7  1   
  7   4  26  1   
  8   4  27  1   
  9   5   8  1   
 10   5  28  1   
 11   5  29  1   
 12   6   9  1   
 13   6  30  1   
 14   6  31  1   
 15   7  10  ar  
 16   7  11  ar  
 17   8  12  1   
 18   8  32  1   
 19   8  33  1   
 20   9  13  1   
 21   9  34  1   
 22   9  35  1   
 23  10  14  ar  
 24  10  36  1   
 25  11  15  ar  
 26  11  37  1   
 27  12  13  1   
 28  12  16  1   
 29  12  38  1   
 30  13  39  1   
 31  13  40  1   
 32  14  17  ar  
 33  14  18  1   
 34  15  17  ar  
 35  15  41  1   
 36  16  42  1   
 37  17  19  1   
 38  18  20  ar  
 39  18  21  ar  
 40  19  20  1   
 41  19  22  1   
 42  20  23  ar  
 43  21  24  ar  
 44  21  43  1   
 45  22  44  1   
 46  22  45  1   
 47  22  46  1   
 48  23  25  ar  
 49  23  47  1   
 50  24  25  ar  
 51  24  48  1   
 52  25  49  1   
@<TRIPOS>SUBSTRUCTURE
  1 ****  10 GROUP 4 **** **** 0

# MOE 2024.06 (io_trps.svl 2023.06)
