@<TRIPOS>MOLECULE
NONAME
53 55 1 0 0 
SMALL
USER_CHARGES


@<TRIPOS>ATOM
  1 O       -3.1080     2.3990    -2.0680 O.2   1 <1>  -0.5700 
  2 C       -2.6220     1.7200    -1.1930 C.2   1 <1>   0.5690 
  3 N       -3.0170     0.4180    -1.0140 N.am  1 <1>  -0.6600 
  4 C       -1.5670     2.3570    -0.2980 C.3   1 <1>  -0.0990 
  5 C       -2.4680    -0.4740     0.0740 C.3   1 <1>   0.3640 
  6 C       -4.1310    -0.1050    -1.8630 C.3   1 <1>   0.1400 
  7 C       -1.4610     3.8790    -0.4410 C.3   1 <1>   0.0210 
  8 C       -0.9690    -0.6940    -0.1560 C.ar  1 <1>  -0.1440 
  9 C       -3.1540    -1.8680     0.2430 C.3   1 <1>   0.2000 
 10 C       -4.2880    -1.6230    -1.7870 C.3   1 <1>   0.1200 
 11 C       -0.4250     4.4040     0.5380 C.2   1 <1>  -0.1810 
 12 C       -0.0760    -0.5350     0.8950 C.ar  1 <1>  -0.1500 
 13 C       -0.4780    -1.0470    -1.4060 C.ar  1 <1>  -0.1500 
 14 O       -4.3630    -2.0010    -0.4530 O.3   1 <1>  -0.5600 
 15 C       -3.4670    -2.1920     1.7120 C.3   1 <1>   0.1200 
 16 C       -0.6630     4.9060     1.8150 C.2   1 <1>   0.1080 
 17 C        0.9160     4.4740     0.3870 C.2   1 <1>  -0.3320 
 18 C        1.2810    -0.7260     0.7020 C.ar  1 <1>  -0.1500 
 19 C        0.8790    -1.2390    -1.6010 C.ar  1 <1>  -0.1500 
 20 O       -2.3220    -2.1230     2.5000 O.3   1 <1>  -0.6800 
 21 N        0.4280     5.2620     2.4130 N.2   1 <1>  -0.7070 
 22 C       -2.0170     5.0400     2.4730 C.3   1 <1>  -0.0590 
 23 N        1.4060     4.9990     1.5320 N.pl3 1 <1>   0.3140 
 24 C        1.7760     4.0560    -0.7960 C.3   1 <1>  -0.0600 
 25 C        1.7600    -1.0790    -0.5470 C.ar  1 <1>  -0.1500 
 26 C        2.8100     5.2710     1.8570 C.3   1 <1>   0.0160 
 27 H       -1.7870     2.1330     0.7280 H     1 <1>   0.0800 
 28 H       -0.6110     1.9330    -0.5400 H     1 <1>   0.0800 
 29 H       -2.5890     0.0520     1.0040 H     1 <1>   0.0800 
 30 H       -5.0510     0.3560    -1.5460 H     1 <1>   0.0800 
 31 H       -3.9630     0.1790    -2.8880 H     1 <1>   0.0800 
 32 H       -2.4150     4.3370    -0.2500 H     1 <1>   0.0800 
 33 H       -1.1720     4.1340    -1.4450 H     1 <1>   0.0800 
 34 H       -2.5000    -2.6330    -0.1370 H     1 <1>   0.0800 
 35 H       -3.4630    -2.1280    -2.2590 H     1 <1>   0.0800 
 36 H       -5.2020    -1.9240    -2.2690 H     1 <1>   0.0800 
 37 H       -0.4300    -0.2580     1.8740 H     1 <1>   0.1500 
 38 H       -1.1500    -1.1660    -2.2380 H     1 <1>   0.1500 
 39 H       -3.8750    -3.1840     1.7990 H     1 <1>   0.0800 
 40 H       -4.1740    -1.4800     2.1020 H     1 <1>   0.0800 
 41 H        1.9640    -0.5980     1.5240 H     1 <1>   0.1500 
 42 H        1.2490    -1.5110    -2.5750 H     1 <1>   0.1500 
 43 H       -1.6860    -2.8270     2.2580 H     1 <1>   0.4000 
 44 H       -2.5580     4.1160     2.3930 H     1 <1>   0.0800 
 45 H       -2.5730     5.8240     1.9960 H     1 <1>   0.0800 
 46 H       -1.8930     5.2820     3.5130 H     1 <1>   0.0800 
 47 H        1.1670     3.6570    -1.5860 H     1 <1>   0.0800 
 48 H        2.4750     3.2970    -0.4940 H     1 <1>   0.0800 
 49 H        2.3170     4.9030    -1.1780 H     1 <1>   0.0800 
 50 H        2.8150    -1.2280    -0.6980 H     1 <1>   0.1500 
 51 H        3.2090     5.9630     1.1410 H     1 <1>   0.0800 
 52 H        3.3610     4.3500     1.8310 H     1 <1>   0.0800 
 53 H        2.8660     5.6970     2.8420 H     1 <1>   0.0800 
@<TRIPOS>BOND
  1   1   2  2   
  2   2   3  am  
  3   2   4  1   
  4   3   5  1   
  5   3   6  1   
  6   4   7  1   
  7   4  27  1   
  8   4  28  1   
  9   5   8  1   
 10   5   9  1   
 11   5  29  1   
 12   6  10  1   
 13   6  30  1   
 14   6  31  1   
 15   7  11  1   
 16   7  32  1   
 17   7  33  1   
 18   8  12  ar  
 19   8  13  ar  
 20   9  14  1   
 21   9  15  1   
 22   9  34  1   
 23  10  14  1   
 24  10  35  1   
 25  10  36  1   
 26  11  16  1   
 27  11  17  2   
 28  12  18  ar  
 29  12  37  1   
 30  13  19  ar  
 31  13  38  1   
 32  15  20  1   
 33  15  39  1   
 34  15  40  1   
 35  16  21  2   
 36  16  22  1   
 37  17  23  1   
 38  17  24  1   
 39  18  25  ar  
 40  18  41  1   
 41  19  25  ar  
 42  19  42  1   
 43  20  43  1   
 44  21  23  1   
 45  22  44  1   
 46  22  45  1   
 47  22  46  1   
 48  23  26  1   
 49  24  47  1   
 50  24  48  1   
 51  24  49  1   
 52  25  50  1   
 53  26  51  1   
 54  26  52  1   
 55  26  53  1   
@<TRIPOS>SUBSTRUCTURE
  1 ****   4 GROUP 4 **** **** 0

# MOE 2024.06 (io_trps.svl 2023.06)
