@<TRIPOS>MOLECULE
NONAME
47 49 1 0 0 
SMALL
USER_CHARGES


@<TRIPOS>ATOM
  1 F        1.2230    -0.7200     2.2710 F     1 <1>  -0.1900 
  2 C        1.4100    -1.8320     1.6110 C.ar  1 <1>   0.1900 
  3 C        0.5810    -2.9060     1.8650 C.ar  1 <1>  -0.1500 
  4 C        2.4280    -1.8930     0.6810 C.ar  1 <1>  -0.1500 
  5 C        0.7860    -4.0830     1.1630 C.ar  1 <1>  -0.1500 
  6 C        2.6210    -3.0750    -0.0140 C.ar  1 <1>  -0.1500 
  7 C        1.8090    -4.1810     0.2230 C.ar  1 <1>  -0.1080 
  8 C        2.0590    -5.4660    -0.5700 C.3   1 <1>   0.3330 
  9 N        1.6060    -6.7380     0.0920 N.am  1 <1>  -0.5100 
 10 C        3.5120    -5.9860    -0.4460 C.3   1 <1>   0.0000 
 11 C        0.3830    -7.3110    -0.0580 C.2   1 <1>   0.5690 
 12 C        2.9240    -7.3880    -0.2010 C.3   1 <1>   0.2250 
 13 O       -0.5790    -6.6960    -0.4480 O.2   1 <1>  -0.5700 
 14 C        0.1990    -8.7780     0.2520 C.3   1 <1>  -0.0990 
 15 C        0.0200    -9.5550    -1.0540 C.3   1 <1>   0.0960 
 16 N       -0.0220   -11.0030    -0.7800 N.pl3 1 <1>   0.3140 
 17 N        1.1240   -11.6780    -0.6360 N.2   1 <1>  -0.7070 
 18 C       -1.0930   -11.8050    -0.6250 C.2   1 <1>  -0.3320 
 19 C        0.7690   -12.8960    -0.3970 C.2   1 <1>   0.1080 
 20 C       -0.6240   -13.0660    -0.3560 C.2   1 <1>  -0.0860 
 21 C       -2.5250   -11.3000    -0.7690 C.3   1 <1>  -0.0600 
 22 C        1.8020   -13.9820    -0.1810 C.3   1 <1>  -0.0590 
 23 C       -1.2890   -14.3150    -0.0730 C.2   1 <1>   0.5950 
 24 O       -0.8240   -15.3970    -0.3290 O.2   1 <1>  -0.5700 
 25 C       -2.6360   -14.3140     0.6160 C.3   1 <1>  -0.1790 
 26 H       -0.2060    -2.8220     2.5930 H     1 <1>   0.1500 
 27 H        3.0510    -1.0340     0.5080 H     1 <1>   0.1500 
 28 H        0.1360    -4.9190     1.3530 H     1 <1>   0.1500 
 29 H        3.4100    -3.1290    -0.7440 H     1 <1>   0.1500 
 30 H        1.7170    -5.4220    -1.5900 H     1 <1>   0.0000 
 31 H        4.0360    -5.6060     0.4140 H     1 <1>   0.0000 
 32 H        4.0810    -5.9060    -1.3550 H     1 <1>   0.0000 
 33 H        2.8740    -7.9980    -1.0860 H     1 <1>   0.0000 
 34 H        3.3300    -7.8840     0.6620 H     1 <1>   0.0000 
 35 H       -0.6750    -8.8920     0.8660 H     1 <1>   0.0800 
 36 H        1.0490    -9.1520     0.7920 H     1 <1>   0.0800 
 37 H        0.8490    -9.3690    -1.7110 H     1 <1>   0.0800 
 38 H       -0.8820    -9.2520    -1.5520 H     1 <1>   0.0800 
 39 H       -2.6310   -10.7380    -1.6800 H     1 <1>   0.0800 
 40 H       -2.7800   -10.6660     0.0610 H     1 <1>   0.0800 
 41 H       -3.2260   -12.1100    -0.8140 H     1 <1>   0.0800 
 42 H        2.7870   -13.5540    -0.1520 H     1 <1>   0.0800 
 43 H        1.7540   -14.6910    -0.9860 H     1 <1>   0.0800 
 44 H        1.6150   -14.4900     0.7470 H     1 <1>   0.0800 
 45 H       -2.7570   -13.4230     1.2020 H     1 <1>   0.0800 
 46 H       -2.7030   -15.1650     1.2680 H     1 <1>   0.0800 
 47 H       -3.4150   -14.3810    -0.1190 H     1 <1>   0.0800 
@<TRIPOS>BOND
  1   1   2  1   
  2   2   3  ar  
  3   2   4  ar  
  4   3   5  ar  
  5   3  26  1   
  6   4   6  ar  
  7   4  27  1   
  8   5   7  ar  
  9   5  28  1   
 10   6   7  ar  
 11   6  29  1   
 12   7   8  1   
 13   8   9  1   
 14   8  10  1   
 15   8  30  1   
 16   9  11  am  
 17   9  12  1   
 18  10  12  1   
 19  10  31  1   
 20  10  32  1   
 21  11  13  2   
 22  11  14  1   
 23  12  33  1   
 24  12  34  1   
 25  14  15  1   
 26  14  35  1   
 27  14  36  1   
 28  15  16  1   
 29  15  37  1   
 30  15  38  1   
 31  16  17  1   
 32  16  18  1   
 33  17  19  2   
 34  18  20  2   
 35  18  21  1   
 36  19  20  1   
 37  19  22  1   
 38  20  23  1   
 39  21  39  1   
 40  21  40  1   
 41  21  41  1   
 42  22  42  1   
 43  22  43  1   
 44  22  44  1   
 45  23  24  2   
 46  23  25  1   
 47  25  45  1   
 48  25  46  1   
 49  25  47  1   
@<TRIPOS>SUBSTRUCTURE
  1 ****  14 GROUP 4 **** **** 0

# MOE 2024.06 (io_trps.svl 2023.06)
