@<TRIPOS>MOLECULE
NONAME
41 44 1 0 0 
SMALL
USER_CHARGES


@<TRIPOS>ATOM
  1 S        3.1470     0.6030     1.6610 S.3   1 <1>  -0.1570 
  2 C        2.2810     1.9280     0.8580 C.2   1 <1>   0.2420 
  3 C        2.1090    -0.5940     0.8430 C.2   1 <1>  -0.0490 
  4 N        2.4110     3.2080     0.9010 N.2   1 <1>  -0.5650 
  5 N        1.3120     1.4350     0.0640 N.pl3 1 <1>   0.3340 
  6 C        1.2150     0.0270     0.0550 C.2   1 <1>  -0.1810 
  7 C        1.4230     3.6300     0.0420 C.2   1 <1>   0.1410 
  8 C        0.7600     2.5400    -0.4620 C.2   1 <1>  -0.3020 
  9 C        1.1740     5.0310    -0.2500 C.2   1 <1>   0.7160 
 10 O        0.3160     5.3530    -1.0570 O.2   1 <1>  -0.5700 
 11 N        1.9340     5.9730     0.3830 N.am  1 <1>  -0.4930 
 12 C        2.0780     7.3620     0.1430 C.2   1 <1>   0.0630 
 13 C        3.3170     8.0130     0.1340 C.2   1 <1>   0.3720 
 14 C        1.1730     8.3350    -0.1040 C.2   1 <1>  -0.3320 
 15 N        3.2120     9.2790    -0.1230 N.2   1 <1>  -0.7070 
 16 N        4.5470     7.3660     0.3620 N.pl3 1 <1>  -0.8210 
 17 N        1.8840     9.4770    -0.2760 N.pl3 1 <1>   0.3140 
 18 C       -0.3450     8.2560    -0.1790 C.3   1 <1>  -0.0600 
 19 C        5.2930     7.1620    -0.9060 C.3   1 <1>   0.2090 
 20 C        5.4310     8.0980     1.3110 C.3   1 <1>   0.2090 
 21 C        1.3560    10.8100    -0.5910 C.3   1 <1>   0.0160 
 22 C        6.7480     7.4810    -0.5940 C.3   1 <1>  -0.1600 
 23 C        6.6590     8.5160     0.5150 C.3   1 <1>  -0.1600 
 24 H        2.3020    -1.6310     1.0610 H     1 <1>   0.1500 
 25 H        0.4580    -0.4210    -0.5630 H     1 <1>   0.1500 
 26 H       -0.0590     2.5170    -1.1570 H     1 <1>   0.1500 
 27 H        2.7380     5.5750     0.8770 H     1 <1>   0.3700 
 28 H       -0.6920     7.3270     0.2340 H     1 <1>   0.0800 
 29 H       -0.6670     8.3150    -1.2030 H     1 <1>   0.0800 
 30 H       -0.7940     9.0560     0.3830 H     1 <1>   0.0800 
 31 H        4.9250     7.8340    -1.6640 H     1 <1>   0.0800 
 32 H        5.1790     6.1470    -1.2480 H     1 <1>   0.0800 
 33 H        5.7140     7.4230     2.0990 H     1 <1>   0.0800 
 34 H        4.9390     8.9530     1.7460 H     1 <1>   0.0800 
 35 H        0.7110    10.7410    -1.4460 H     1 <1>   0.0800 
 36 H        2.1750    11.4700    -0.8090 H     1 <1>   0.0800 
 37 H        0.8110    11.1800     0.2560 H     1 <1>   0.0800 
 38 H        7.2710     7.8460    -1.4590 H     1 <1>   0.0800 
 39 H        7.2320     6.5900    -0.2320 H     1 <1>   0.0800 
 40 H        7.5430     8.5490     1.1260 H     1 <1>   0.0800 
 41 H        6.4790     9.4900     0.0940 H     1 <1>   0.0800 
@<TRIPOS>BOND
  1   1   2  1   
  2   1   3  1   
  3   2   4  2   
  4   2   5  1   
  5   3   6  2   
  6   3  24  1   
  7   4   7  1   
  8   5   6  1   
  9   5   8  1   
 10   6  25  1   
 11   7   8  2   
 12   7   9  1   
 13   8  26  1   
 14   9  10  2   
 15   9  11  am  
 16  11  12  1   
 17  11  27  1   
 18  12  13  1   
 19  12  14  2   
 20  13  15  2   
 21  13  16  1   
 22  14  17  1   
 23  14  18  1   
 24  15  17  1   
 25  16  19  1   
 26  16  20  1   
 27  17  21  1   
 28  18  28  1   
 29  18  29  1   
 30  18  30  1   
 31  19  22  1   
 32  19  31  1   
 33  19  32  1   
 34  20  23  1   
 35  20  33  1   
 36  20  34  1   
 37  21  35  1   
 38  21  36  1   
 39  21  37  1   
 40  22  23  1   
 41  22  38  1   
 42  22  39  1   
 43  23  40  1   
 44  23  41  1   
@<TRIPOS>SUBSTRUCTURE
  1 ****  11 GROUP 4 **** **** 0

# MOE 2024.06 (io_trps.svl 2023.06)
