@<TRIPOS>MOLECULE
NONAME
53 56 1 0 0 
SMALL
USER_CHARGES


@<TRIPOS>ATOM
  1 O       -1.0060    -0.7500     1.0790 O.3   1 <1>  -0.3630 
  2 C       -1.8820    -1.7810     1.0180 C.ar  1 <1>   0.0830 
  3 C        0.0030    -0.5790     0.1070 C.3   1 <1>   0.1200 
  4 C       -2.7870    -1.8910     2.0590 C.ar  1 <1>  -0.1500 
  5 C       -1.9130    -2.7130    -0.0150 C.ar  1 <1>  -0.1500 
  6 C        0.8080     0.6700     0.4600 C.3   1 <1>   0.1200 
  7 C       -3.7220    -2.9090     2.0750 C.ar  1 <1>  -0.1500 
  8 C       -2.8510    -3.7310    -0.0020 C.ar  1 <1>  -0.1500 
  9 O        1.8480     0.8150    -0.4480 O.3   1 <1>  -0.6800 
 10 C       -3.7660    -3.8300     1.0380 C.ar  1 <1>  -0.1430 
 11 C       -4.8130    -4.9260     1.0310 C.3   1 <1>   0.4860 
 12 N       -5.8910    -4.5140     0.0940 N.4   1 <1>  -0.9590 
 13 C       -6.6530    -3.3360     0.6380 C.3   1 <1>   0.3430 
 14 C       -6.8040    -5.6420    -0.2420 C.3   1 <1>   0.3430 
 15 C       -7.6930    -2.8070    -0.3650 C.3   1 <1>   0.1430 
 16 C       -7.8210    -5.1870    -1.2930 C.3   1 <1>  -0.1600 
 17 C       -8.4960    -1.7280     0.3200 C.ar  1 <1>   0.1670 
 18 C       -8.6170    -3.9510    -0.8340 C.3   1 <1>  -0.1600 
 19 C       -7.0480    -2.0450    -1.5550 C.3   1 <1>  -0.1600 
 20 N       -9.0230    -1.8430     1.5130 N.ar  1 <1>  -0.6200 
 21 C       -8.5920    -0.6040    -0.4430 C.ar  1 <1>  -0.1430 
 22 C       -7.8770    -0.7610    -1.7610 C.3   1 <1>  -0.0170 
 23 C       -9.6630    -0.7540     1.9180 C.ar  1 <1>   0.7200 
 24 C       -9.2900     0.4590     0.0780 C.ar  1 <1>   0.1600 
 25 N       -9.8370     0.3900     1.2710 N.ar  1 <1>  -0.6200 
 26 N      -10.2210    -0.8210     3.1260 N.pl3 1 <1>  -0.9000 
 27 H       -0.4660    -0.4560    -0.8530 H     1 <1>   0.0800 
 28 H        0.6310    -1.4520     0.1200 H     1 <1>   0.0800 
 29 H       -2.7500    -1.1700     2.8580 H     1 <1>   0.1500 
 30 H       -1.2170    -2.6600    -0.8320 H     1 <1>   0.1500 
 31 H        1.2280     0.5950     1.4480 H     1 <1>   0.0800 
 32 H        0.1860     1.5450     0.3910 H     1 <1>   0.0800 
 33 H       -4.4090    -2.9670     2.9030 H     1 <1>   0.1500 
 34 H       -2.8510    -4.4430    -0.8110 H     1 <1>   0.1500 
 35 H        2.5500     0.1540    -0.2860 H     1 <1>   0.4000 
 36 H       -5.2090    -5.0730     2.0230 H     1 <1>   0.0800 
 37 H       -4.3610    -5.8470     0.7000 H     1 <1>   0.0800 
 38 H       -5.4220    -4.1990    -0.7630 H     1 <1>   0.4500 
 39 H       -5.9780    -2.5330     0.8860 H     1 <1>   0.0800 
 40 H       -7.1680    -3.6230     1.5400 H     1 <1>   0.0800 
 41 H       -7.3270    -5.9650     0.6450 H     1 <1>   0.0800 
 42 H       -6.2390    -6.4770    -0.6260 H     1 <1>   0.0800 
 43 H       -8.5070    -5.9940    -1.4830 H     1 <1>   0.0800 
 44 H       -7.3110    -4.9830    -2.2180 H     1 <1>   0.0800 
 45 H       -9.2590    -3.6070    -1.6270 H     1 <1>   0.0800 
 46 H       -9.2550    -4.2390    -0.0140 H     1 <1>   0.0800 
 47 H       -7.0120    -2.6280    -2.4590 H     1 <1>   0.0800 
 48 H       -6.0440    -1.7520    -1.2990 H     1 <1>   0.0800 
 49 H       -8.5980    -0.8920    -2.5500 H     1 <1>   0.0800 
 50 H       -7.2500     0.0880    -1.9780 H     1 <1>   0.0800 
 51 H       -9.4000     1.3720    -0.4830 H     1 <1>   0.1500 
 52 H      -10.9050    -0.0930     3.3180 H     1 <1>   0.4000 
 53 H      -10.4490    -1.7510     3.4640 H     1 <1>   0.4000 
@<TRIPOS>BOND
  1   1   2  1   
  2   1   3  1   
  3   2   4  ar  
  4   2   5  ar  
  5   3   6  1   
  6   3  27  1   
  7   3  28  1   
  8   4   7  ar  
  9   4  29  1   
 10   5   8  ar  
 11   5  30  1   
 12   6   9  1   
 13   6  31  1   
 14   6  32  1   
 15   7  10  ar  
 16   7  33  1   
 17   8  10  ar  
 18   8  34  1   
 19   9  35  1   
 20  10  11  1   
 21  11  12  1   
 22  11  36  1   
 23  11  37  1   
 24  12  13  1   
 25  12  14  1   
 26  12  38  1   
 27  13  15  1   
 28  13  39  1   
 29  13  40  1   
 30  14  16  1   
 31  14  41  1   
 32  14  42  1   
 33  15  17  1   
 34  15  18  1   
 35  15  19  1   
 36  16  18  1   
 37  16  43  1   
 38  16  44  1   
 39  17  20  ar  
 40  17  21  ar  
 41  18  45  1   
 42  18  46  1   
 43  19  22  1   
 44  19  47  1   
 45  19  48  1   
 46  20  23  ar  
 47  21  22  1   
 48  21  24  ar  
 49  22  49  1   
 50  22  50  1   
 51  23  25  ar  
 52  23  26  1   
 53  24  25  ar  
 54  24  51  1   
 55  26  52  1   
 56  26  53  1   
@<TRIPOS>SUBSTRUCTURE
  1 ****  13 GROUP 4 **** **** 0

# MOE 2024.06 (io_trps.svl 2023.06)
