@<TRIPOS>MOLECULE
NONAME
50 52 1 0 0 
SMALL
USER_CHARGES


@<TRIPOS>ATOM
  1 F       -1.4060    -4.4540     3.0080 F     1 <1>  -0.1900 
  2 C       -2.3780    -4.1620     2.1870 C.ar  1 <1>   0.1900 
  3 C       -3.1200    -3.0190     2.4140 C.ar  1 <1>  -0.1500 
  4 C       -2.6300    -5.0060     1.1230 C.ar  1 <1>  -0.1500 
  5 C       -4.1520    -2.7130     1.5410 C.ar  1 <1>  -0.1500 
  6 C       -3.6640    -4.6890     0.2580 C.ar  1 <1>  -0.1500 
  7 C       -4.4270    -3.5450     0.4610 C.ar  1 <1>  -0.1430 
  8 C       -5.5590    -3.2070    -0.5020 C.3   1 <1>   0.2540 
  9 N       -6.5360    -4.3080    -0.5810 N.3   1 <1>  -0.8100 
 10 C       -7.5350    -4.0520    -1.6630 C.3   1 <1>   0.1710 
 11 C       -7.2070    -4.5200     0.7140 C.3   1 <1>   0.0300 
 12 C       -8.3380    -5.2890    -2.0800 C.2   1 <1>   0.5690 
 13 O       -9.4370    -5.1590    -2.5610 O.2   1 <1>  -0.5700 
 14 N       -7.7770    -6.5070    -1.8830 N.am  1 <1>  -0.7300 
 15 C       -8.4090    -7.8140    -2.1570 C.3   1 <1>   0.2200 
 16 C       -8.8170    -8.4510    -0.8400 C.3   1 <1>  -0.0800 
 17 C       -7.3660    -8.7980    -2.6850 C.3   1 <1>   0.1200 
 18 C       -7.5100    -9.1130    -0.4040 C.3   1 <1>   0.1200 
 19 C       -9.9530    -9.4730    -1.0350 C.3   1 <1>  -0.0170 
 20 O       -6.8360    -9.4670    -1.5750 O.3   1 <1>  -0.5600 
 21 C      -10.3750   -10.0920     0.2880 C.ar  1 <1>  -0.1430 
 22 C      -11.1530    -9.4020     1.1960 C.ar  1 <1>  -0.1500 
 23 C      -10.0060   -11.3720     0.6510 C.ar  1 <1>  -0.1500 
 24 C      -11.5090   -10.0050     2.3910 C.ar  1 <1>   0.1600 
 25 C      -10.4170   -11.8830     1.8710 C.ar  1 <1>   0.1600 
 26 N      -11.1580   -11.2290     2.7510 N.ar  1 <1>  -0.6200 
 27 H       -2.8930    -2.3870     3.2530 H     1 <1>   0.1500 
 28 H       -2.0330    -5.8880     0.9790 H     1 <1>   0.1500 
 29 H       -4.7380    -1.8260     1.7070 H     1 <1>   0.1500 
 30 H       -3.8830    -5.3350    -0.5750 H     1 <1>   0.1500 
 31 H       -5.1300    -3.0400    -1.4750 H     1 <1>   0.0800 
 32 H       -6.0530    -2.3010    -0.1950 H     1 <1>   0.0800 
 33 H       -8.2210    -3.2830    -1.3550 H     1 <1>   0.0800 
 34 H       -7.0260    -3.7060    -2.5440 H     1 <1>   0.0800 
 35 H       -6.4860    -4.7900     1.4670 H     1 <1>   0.0800 
 36 H       -7.9220    -5.3210     0.6390 H     1 <1>   0.0800 
 37 H       -7.7190    -3.6260     1.0270 H     1 <1>   0.0800 
 38 H       -6.8750    -6.5210    -1.3950 H     1 <1>   0.3700 
 39 H       -9.2310    -7.6880    -2.8420 H     1 <1>   0.0800 
 40 H       -9.1340    -7.7090    -0.1280 H     1 <1>   0.0800 
 41 H       -6.5730    -8.3080    -3.2220 H     1 <1>   0.0800 
 42 H       -7.8280    -9.5360    -3.3150 H     1 <1>   0.0800 
 43 H       -7.6540    -9.9900     0.2010 H     1 <1>   0.0800 
 44 H       -6.8890    -8.4110     0.1260 H     1 <1>   0.0800 
 45 H       -9.6440   -10.2490    -1.7140 H     1 <1>   0.0800 
 46 H      -10.8040    -8.9810    -1.4720 H     1 <1>   0.0800 
 47 H      -11.4840    -8.4010     0.9860 H     1 <1>   0.1500 
 48 H       -9.4020   -11.9750    -0.0020 H     1 <1>   0.1500 
 49 H      -12.1150    -9.4510     3.0870 H     1 <1>   0.1500 
 50 H      -10.1190   -12.8830     2.1370 H     1 <1>   0.1500 
@<TRIPOS>BOND
  1   1   2  1   
  2   2   3  ar  
  3   2   4  ar  
  4   3   5  ar  
  5   3  27  1   
  6   4   6  ar  
  7   4  28  1   
  8   5   7  ar  
  9   5  29  1   
 10   6   7  ar  
 11   6  30  1   
 12   7   8  1   
 13   8   9  1   
 14   8  31  1   
 15   8  32  1   
 16   9  10  1   
 17   9  11  1   
 18  10  12  1   
 19  10  33  1   
 20  10  34  1   
 21  11  35  1   
 22  11  36  1   
 23  11  37  1   
 24  12  13  2   
 25  12  14  am  
 26  14  15  1   
 27  14  38  1   
 28  15  16  1   
 29  15  17  1   
 30  15  39  1   
 31  16  18  1   
 32  16  19  1   
 33  16  40  1   
 34  17  20  1   
 35  17  41  1   
 36  17  42  1   
 37  18  20  1   
 38  18  43  1   
 39  18  44  1   
 40  19  21  1   
 41  19  45  1   
 42  19  46  1   
 43  21  22  ar  
 44  21  23  ar  
 45  22  24  ar  
 46  22  47  1   
 47  23  25  ar  
 48  23  48  1   
 49  24  26  ar  
 50  24  49  1   
 51  25  26  ar  
 52  25  50  1   
@<TRIPOS>SUBSTRUCTURE
  1 ****  14 GROUP 4 **** **** 0

# MOE 2024.06 (io_trps.svl 2023.06)
