@<TRIPOS>MOLECULE
NONAME
41 42 1 0 0 
SMALL
USER_CHARGES


@<TRIPOS>ATOM
  1 O       -0.5060    -1.0820     0.9690 O.2   1 <1>  -0.5700 
  2 C       -1.2060    -0.2190     0.4910 C.2   1 <1>   0.5690 
  3 N       -1.9220    -0.4390    -0.6590 N.am  1 <1>  -0.6600 
  4 C       -1.2800     1.1050     1.2460 C.3   1 <1>   0.0820 
  5 C       -2.2700    -1.8380    -1.0140 C.3   1 <1>   0.3200 
  6 C       -2.1780     0.6020    -1.7060 C.3   1 <1>   0.1400 
  7 C       -0.6410     2.2830     0.5220 C.2   1 <1>  -0.1810 
  8 C       -3.3930    -2.3020    -0.1110 C.2   1 <1>  -0.3320 
  9 C       -3.5380     1.3010    -1.5530 C.3   1 <1>   0.1200 
 10 C       -1.1400     3.5000     0.2490 C.2   1 <1>  -0.0400 
 11 C        0.6380     2.3290    -0.0360 C.2   1 <1>   0.1080 
 12 N       -4.6030    -1.7200    -0.0790 N.pl3 1 <1>   0.0330 
 13 C       -3.4340    -3.3030     0.7950 C.2   1 <1>   0.0770 
 14 O       -4.5840     0.4590    -1.9200 O.3   1 <1>  -0.6800 
 15 O       -0.2360     4.1630    -0.4190 O.3   1 <1>  -0.0190 
 16 C       -2.4610     4.1750     0.5610 C.3   1 <1>  -0.0600 
 17 N        0.8450     3.4630    -0.6010 N.2   1 <1>  -0.4100 
 18 C        1.6670     1.2180    -0.0030 C.3   1 <1>  -0.0590 
 19 C       -5.3110    -2.4100     0.8390 C.2   1 <1>   0.0060 
 20 N       -4.6440    -3.3720     1.3860 N.2   1 <1>  -0.5650 
 21 C       -6.7440    -2.0750     1.1850 C.3   1 <1>  -0.0600 
 22 H       -0.7880     0.9820     2.1930 H     1 <1>   0.0800 
 23 H       -2.3130     1.3100     1.4510 H     1 <1>   0.0800 
 24 H       -1.4100    -2.4730    -0.8820 H     1 <1>   0.0800 
 25 H       -2.5810    -1.9040    -2.0420 H     1 <1>   0.0800 
 26 H       -2.1080     0.1630    -2.6850 H     1 <1>   0.0800 
 27 H       -1.4030     1.3450    -1.6610 H     1 <1>   0.0800 
 28 H       -3.5810     2.1730    -2.1820 H     1 <1>   0.0800 
 29 H       -3.6910     1.6040    -0.5320 H     1 <1>   0.0800 
 30 H       -4.8990    -0.9040    -0.6340 H     1 <1>   0.2700 
 31 H       -2.6440    -3.9860     1.0610 H     1 <1>   0.1500 
 32 H       -4.6100     0.3480    -2.8930 H     1 <1>   0.4000 
 33 H       -3.1000     3.5250     1.1280 H     1 <1>   0.0800 
 34 H       -2.9560     4.4480    -0.3530 H     1 <1>   0.0800 
 35 H       -2.2800     5.0670     1.1340 H     1 <1>   0.0800 
 36 H        1.7220     0.7910     0.9810 H     1 <1>   0.0800 
 37 H        2.6350     1.6060    -0.2650 H     1 <1>   0.0800 
 38 H        1.4000     0.4490    -0.7050 H     1 <1>   0.0800 
 39 H       -7.3660    -2.1740     0.3140 H     1 <1>   0.0800 
 40 H       -6.8080    -1.0700     1.5580 H     1 <1>   0.0800 
 41 H       -7.1010    -2.7490     1.9430 H     1 <1>   0.0800 
@<TRIPOS>BOND
  1   1   2  2   
  2   2   3  am  
  3   2   4  1   
  4   3   5  1   
  5   3   6  1   
  6   4   7  1   
  7   4  22  1   
  8   4  23  1   
  9   5   8  1   
 10   5  24  1   
 11   5  25  1   
 12   6   9  1   
 13   6  26  1   
 14   6  27  1   
 15   7  10  2   
 16   7  11  1   
 17   8  12  1   
 18   8  13  2   
 19   9  14  1   
 20   9  28  1   
 21   9  29  1   
 22  10  15  1   
 23  10  16  1   
 24  11  17  2   
 25  11  18  1   
 26  12  19  1   
 27  12  30  1   
 28  13  20  1   
 29  13  31  1   
 30  14  32  1   
 31  15  17  1   
 32  16  33  1   
 33  16  34  1   
 34  16  35  1   
 35  18  36  1   
 36  18  37  1   
 37  18  38  1   
 38  19  20  2   
 39  19  21  1   
 40  21  39  1   
 41  21  40  1   
 42  21  41  1   
@<TRIPOS>SUBSTRUCTURE
  1 ****   3 GROUP 4 **** **** 0

# MOE 2024.06 (io_trps.svl 2023.06)
