@<TRIPOS>MOLECULE
NONAME
45 47 1 0 0 
SMALL
USER_CHARGES


@<TRIPOS>ATOM
  1 F       -1.2830    -0.0480     1.5640 F     1 <1>  -0.3400 
  2 C       -1.6640    -0.1090     0.2890 C.3   1 <1>   0.2600 
  3 C       -2.4000     1.1920    -0.0270 C.3   1 <1>   0.2000 
  4 C       -2.7390    -1.1960     0.1700 C.3   1 <1>   0.2090 
  5 O       -2.5240     1.3230    -1.4100 O.3   1 <1>  -0.6800 
  6 C       -3.7950     0.9560     0.5590 C.3   1 <1>   0.2090 
  7 N       -4.0580    -0.4990     0.3360 N.pl3 1 <1>  -0.8380 
  8 C       -5.2570    -1.1310     0.2870 C.ar  1 <1>   0.4100 
  9 N       -5.2560    -2.3940    -0.0900 N.ar  1 <1>  -0.6200 
 10 C       -6.4510    -0.4680     0.6270 C.ar  1 <1>  -0.1500 
 11 C       -6.4120    -3.0410    -0.1500 C.ar  1 <1>   0.7710 
 12 C       -7.6230    -1.1430     0.5670 C.ar  1 <1>   0.2180 
 13 N       -7.5680    -2.4370     0.1740 N.ar  1 <1>  -0.1790 
 14 N       -6.4370    -4.3440    -0.5420 N.pl3 1 <1>  -0.8380 
 15 C       -8.9730    -0.5300     0.9190 C.3   1 <1>  -0.0170 
 16 C       -7.6450    -5.1840    -0.8150 C.3   1 <1>   0.2090 
 17 C       -5.1760    -5.1370    -0.7250 C.3   1 <1>   0.2090 
 18 C       -9.9190    -0.4840    -0.2890 C.3   1 <1>  -0.2400 
 19 C       -7.6940    -6.3320     0.1970 C.3   1 <1>  -0.1600 
 20 C       -5.1670    -6.2980     0.2750 C.3   1 <1>  -0.1600 
 21 C       -6.4160    -7.1810     0.1400 C.3   1 <1>  -0.1600 
 22 H       -0.7780    -0.2780    -0.2960 H     1 <1>   0.0800 
 23 H       -1.9030     2.0650     0.3580 H     1 <1>   0.0800 
 24 H       -2.6060    -1.9630     0.9140 H     1 <1>   0.0800 
 25 H       -2.7000    -1.6390    -0.8100 H     1 <1>   0.0800 
 26 H       -3.1450     0.6410    -1.7400 H     1 <1>   0.4000 
 27 H       -4.5280     1.5840     0.0820 H     1 <1>   0.0800 
 28 H       -3.7800     1.1520     1.6180 H     1 <1>   0.0800 
 29 H       -6.4080     0.5590     0.9340 H     1 <1>   0.1500 
 30 H       -8.3930    -3.0170     0.1230 H     1 <1>   0.4570 
 31 H       -9.4300    -1.0910     1.7170 H     1 <1>   0.0800 
 32 H       -8.8260     0.4740     1.2790 H     1 <1>   0.0800 
 33 H       -8.5550    -4.6160    -0.7690 H     1 <1>   0.0800 
 34 H       -7.5700    -5.5920    -1.8110 H     1 <1>   0.0800 
 35 H       -5.1400    -5.5230    -1.7310 H     1 <1>   0.0800 
 36 H       -4.2920    -4.5410    -0.5760 H     1 <1>   0.0800 
 37 H      -10.1600    -1.4700    -0.6420 H     1 <1>   0.0800 
 38 H       -9.4740     0.0760    -1.0950 H     1 <1>   0.0800 
 39 H      -10.8380     0.0060    -0.0120 H     1 <1>   0.0800 
 40 H       -7.8180    -5.9320     1.1880 H     1 <1>   0.0800 
 41 H       -8.5440    -6.9580    -0.0130 H     1 <1>   0.0800 
 42 H       -4.2870    -6.8950     0.1160 H     1 <1>   0.0800 
 43 H       -5.1100    -5.8960     1.2720 H     1 <1>   0.0800 
 44 H       -6.3790    -7.7050    -0.8010 H     1 <1>   0.0800 
 45 H       -6.4290    -7.9170     0.9260 H     1 <1>   0.0800 
@<TRIPOS>BOND
  1   1   2  1   
  2   2   3  1   
  3   2   4  1   
  4   2  22  1   
  5   3   5  1   
  6   3   6  1   
  7   3  23  1   
  8   4   7  1   
  9   4  24  1   
 10   4  25  1   
 11   5  26  1   
 12   6   7  1   
 13   6  27  1   
 14   6  28  1   
 15   7   8  1   
 16   8   9  ar  
 17   8  10  ar  
 18   9  11  ar  
 19  10  12  ar  
 20  10  29  1   
 21  11  13  ar  
 22  11  14  1   
 23  12  13  ar  
 24  12  15  1   
 25  13  30  1   
 26  14  16  1   
 27  14  17  1   
 28  15  18  1   
 29  15  31  1   
 30  15  32  1   
 31  16  19  1   
 32  16  33  1   
 33  16  34  1   
 34  17  20  1   
 35  17  35  1   
 36  17  36  1   
 37  18  37  1   
 38  18  38  1   
 39  18  39  1   
 40  19  21  1   
 41  19  40  1   
 42  19  41  1   
 43  20  21  1   
 44  20  42  1   
 45  20  43  1   
 46  21  44  1   
 47  21  45  1   
@<TRIPOS>SUBSTRUCTURE
  1 ****   9 GROUP 4 **** **** 0

# MOE 2024.06 (io_trps.svl 2023.06)
