@<TRIPOS>MOLECULE
NONAME
44 45 1 0 0 
SMALL
USER_CHARGES


@<TRIPOS>ATOM
  1 S        0.8340     0.0790    -1.6690 S.o2  1 <1>   1.3330 
  2 O        1.2170    -1.2500    -2.0910 O.2   1 <1>  -0.6500 
  3 O        0.0550     0.9150    -2.5540 O.2   1 <1>  -0.6500 
  4 N       -0.0420    -0.0690    -0.2200 N.am  1 <1>  -0.8490 
  5 C        2.3220     0.9550    -1.1810 C.3   1 <1>  -0.0550 
  6 C       -0.9380    -1.2300    -0.2330 C.3   1 <1>   0.1160 
  7 C       -0.8020     1.1380     0.1240 C.3   1 <1>   0.1160 
  8 C        3.2790     0.1310    -0.2930 C.3   1 <1>  -0.0800 
  9 C        4.6240     0.7870    -0.0150 C.3   1 <1>   0.2200 
 10 C        2.7600    -0.1840     1.1160 C.3   1 <1>   0.1200 
 11 N        4.4530     2.2210     0.3110 N.am  1 <1>  -0.7300 
 12 C        5.0340     0.0470     1.2500 C.3   1 <1>   0.1200 
 13 O        3.8550    -0.0840     1.9820 O.3   1 <1>  -0.5600 
 14 C        4.6720     3.2680    -0.5290 C.2   1 <1>   0.7160 
 15 O        4.9590     3.0230    -1.6850 O.2   1 <1>  -0.5700 
 16 C        4.5280     4.6140    -0.0280 C.2   1 <1>  -0.0860 
 17 C        4.5860     5.8160    -0.7490 C.2   1 <1>   0.1080 
 18 C        4.3030     5.0400     1.2480 C.2   1 <1>  -0.3020 
 19 N        4.4150     6.8580    -0.0020 N.2   1 <1>  -0.7070 
 20 C        4.8190     5.9470    -2.2400 C.3   1 <1>  -0.0590 
 21 N        4.2420     6.3790     1.2340 N.pl3 1 <1>   0.3140 
 22 C        4.0230     7.2780     2.3720 C.3   1 <1>   0.0160 
 23 H        2.8540     1.2310    -2.0710 H     1 <1>   0.0800 
 24 H        2.0500     1.8630    -0.6810 H     1 <1>   0.0800 
 25 H       -1.4690    -1.3030     0.7010 H     1 <1>   0.0800 
 26 H       -0.3680    -2.1340    -0.3660 H     1 <1>   0.0800 
 27 H       -1.6470    -1.1460    -1.0400 H     1 <1>   0.0800 
 28 H       -1.2620     1.0230     1.0900 H     1 <1>   0.0800 
 29 H       -1.5710     1.3220    -0.6100 H     1 <1>   0.0800 
 30 H       -0.1490     1.9930     0.1590 H     1 <1>   0.0800 
 31 H        3.4700    -0.8080    -0.7840 H     1 <1>   0.0800 
 32 H        5.3300     0.6560    -0.8180 H     1 <1>   0.0800 
 33 H        2.3510    -1.1790     1.1780 H     1 <1>   0.0800 
 34 H        2.0240     0.5300     1.4420 H     1 <1>   0.0800 
 35 H        4.1640     2.4060     1.2720 H     1 <1>   0.3700 
 36 H        5.7680     0.5800     1.8290 H     1 <1>   0.0800 
 37 H        5.3940    -0.9410     1.0180 H     1 <1>   0.0800 
 38 H        4.1900     4.4640     2.1470 H     1 <1>   0.1500 
 39 H        4.0530     5.4200    -2.7770 H     1 <1>   0.0800 
 40 H        5.7770     5.5350    -2.4970 H     1 <1>   0.0800 
 41 H        4.7960     6.9820    -2.5270 H     1 <1>   0.0800 
 42 H        3.9210     6.7050     3.2730 H     1 <1>   0.0800 
 43 H        3.1310     7.8490     2.1960 H     1 <1>   0.0800 
 44 H        4.8630     7.9420     2.4530 H     1 <1>   0.0800 
@<TRIPOS>BOND
  1   1   2  2   
  2   1   3  2   
  3   1   4  am  
  4   1   5  1   
  5   4   6  1   
  6   4   7  1   
  7   5   8  1   
  8   5  23  1   
  9   5  24  1   
 10   6  25  1   
 11   6  26  1   
 12   6  27  1   
 13   7  28  1   
 14   7  29  1   
 15   7  30  1   
 16   8   9  1   
 17   8  10  1   
 18   8  31  1   
 19   9  11  1   
 20   9  12  1   
 21   9  32  1   
 22  10  13  1   
 23  10  33  1   
 24  10  34  1   
 25  11  14  am  
 26  11  35  1   
 27  12  13  1   
 28  12  36  1   
 29  12  37  1   
 30  14  15  2   
 31  14  16  1   
 32  16  17  1   
 33  16  18  2   
 34  17  19  2   
 35  17  20  1   
 36  18  21  1   
 37  18  38  1   
 38  19  21  1   
 39  20  39  1   
 40  20  40  1   
 41  20  41  1   
 42  21  22  1   
 43  22  42  1   
 44  22  43  1   
 45  22  44  1   
@<TRIPOS>SUBSTRUCTURE
  1 ****  11 GROUP 4 **** **** 0

# MOE 2024.06 (io_trps.svl 2023.06)
