@<TRIPOS>MOLECULE
NONAME
56 58 1 0 0 
SMALL
USER_CHARGES


@<TRIPOS>ATOM
  1 S       -0.3660     0.4410     0.2290 S.3   1 <1>  -0.4600 
  2 C       -0.3570     2.2380     0.4120 C.3   1 <1>   0.0700 
  3 C       -1.8270    -0.0880     1.1690 C.3   1 <1>  -0.0100 
  4 C        0.8400     2.7490    -0.3960 C.3   1 <1>   0.3430 
  5 N        0.9630     4.2430    -0.3700 N.4   1 <1>  -0.9590 
  6 C        1.9570     4.6780    -1.3990 C.3   1 <1>   0.3430 
  7 C        1.3180     4.7510     0.9930 C.3   1 <1>   0.3430 
  8 C        2.0250     6.1990    -1.4430 C.3   1 <1>  -0.1600 
  9 C        1.3860     6.2750     0.9820 C.3   1 <1>  -0.1600 
 10 C        2.3870     6.7450    -0.0660 C.3   1 <1>   0.2890 
 11 N        2.3860     8.2120    -0.1100 N.pl3 1 <1>  -0.8690 
 12 C        3.4650     8.9480    -0.5480 C.ar  1 <1>   0.4100 
 13 N        4.5790     8.2890    -0.8370 N.ar  1 <1>  -0.6200 
 14 C        3.3380    10.3240    -0.6750 C.ar  1 <1>  -0.1500 
 15 C        5.5870     9.0250    -1.2700 C.ar  1 <1>   0.1600 
 16 C        4.3920    11.0980    -1.1180 C.ar  1 <1>   0.0860 
 17 C        5.5480    10.3950    -1.4280 C.ar  1 <1>  -0.1500 
 18 C        4.2820    12.5360    -1.2600 C.2   1 <1>   0.5440 
 19 O        3.3530    12.9850    -1.9040 O.2   1 <1>  -0.5700 
 20 N        5.1900    13.4030    -0.6850 N.am  1 <1>  -0.6600 
 21 C        6.0950    13.0300     0.4380 C.3   1 <1>   0.1400 
 22 C        5.1950    14.8570    -1.0140 C.3   1 <1>   0.1400 
 23 C        5.7240    13.8330     1.6900 C.3   1 <1>  -0.1600 
 24 C        4.8110    15.6700     0.2260 C.3   1 <1>  -0.1600 
 25 C        5.7210    15.3430     1.4190 C.3   1 <1>  -0.1600 
 26 H       -0.2640     2.4440     1.4630 H     1 <1>   0.0800 
 27 H       -1.2920     2.6000     0.0220 H     1 <1>   0.0800 
 28 H       -1.8880    -1.1600     1.1010 H     1 <1>   0.0800 
 29 H       -2.6950     0.3690     0.7290 H     1 <1>   0.0800 
 30 H       -1.7010     0.2190     2.1920 H     1 <1>   0.0800 
 31 H        0.7190     2.4160    -1.4150 H     1 <1>   0.0800 
 32 H        1.7410     2.3000    -0.0090 H     1 <1>   0.0800 
 33 H        0.0550     4.6460    -0.6380 H     1 <1>   0.4500 
 34 H        1.6730     4.3050    -2.3710 H     1 <1>   0.0800 
 35 H        2.9320     4.2840    -1.1580 H     1 <1>   0.0800 
 36 H        2.2750     4.3520     1.2920 H     1 <1>   0.0800 
 37 H        0.5810     4.4340     1.7140 H     1 <1>   0.0800 
 38 H        1.0850     6.6000    -1.7770 H     1 <1>   0.0800 
 39 H        2.7850     6.4910    -2.1470 H     1 <1>   0.0800 
 40 H        1.7050     6.6190     1.9500 H     1 <1>   0.0800 
 41 H        0.4100     6.6810     0.7830 H     1 <1>   0.0800 
 42 H        3.3690     6.3960     0.2140 H     1 <1>   0.0800 
 43 H        1.4740     8.6650    -0.1920 H     1 <1>   0.4000 
 44 H        2.4080    10.7990    -0.4280 H     1 <1>   0.1500 
 45 H        6.4970     8.5040    -1.5160 H     1 <1>   0.1500 
 46 H        6.4080    10.9250    -1.7950 H     1 <1>   0.1500 
 47 H        7.1110    13.2450     0.1550 H     1 <1>   0.0800 
 48 H        6.0220    11.9810     0.6640 H     1 <1>   0.0800 
 49 H        4.5060    15.0710    -1.8140 H     1 <1>   0.0800 
 50 H        6.1800    15.1370    -1.3440 H     1 <1>   0.0800 
 51 H        6.4230    13.6090     2.4770 H     1 <1>   0.0800 
 52 H        4.7490    13.5230     2.0230 H     1 <1>   0.0800 
 53 H        3.7870    15.4520     0.4760 H     1 <1>   0.0800 
 54 H        4.8760    16.7190    -0.0030 H     1 <1>   0.0800 
 55 H        6.7230    15.6710     1.2040 H     1 <1>   0.0800 
 56 H        5.3770    15.8700     2.2930 H     1 <1>   0.0800 
@<TRIPOS>BOND
  1   1   2  1   
  2   1   3  1   
  3   2   4  1   
  4   2  26  1   
  5   2  27  1   
  6   3  28  1   
  7   3  29  1   
  8   3  30  1   
  9   4   5  1   
 10   4  31  1   
 11   4  32  1   
 12   5   6  1   
 13   5   7  1   
 14   5  33  1   
 15   6   8  1   
 16   6  34  1   
 17   6  35  1   
 18   7   9  1   
 19   7  36  1   
 20   7  37  1   
 21   8  10  1   
 22   8  38  1   
 23   8  39  1   
 24   9  10  1   
 25   9  40  1   
 26   9  41  1   
 27  10  11  1   
 28  10  42  1   
 29  11  12  1   
 30  11  43  1   
 31  12  13  ar  
 32  12  14  ar  
 33  13  15  ar  
 34  14  16  ar  
 35  14  44  1   
 36  15  17  ar  
 37  15  45  1   
 38  16  17  ar  
 39  16  18  1   
 40  17  46  1   
 41  18  19  2   
 42  18  20  am  
 43  20  21  1   
 44  20  22  1   
 45  21  23  1   
 46  21  47  1   
 47  21  48  1   
 48  22  24  1   
 49  22  49  1   
 50  22  50  1   
 51  23  25  1   
 52  23  51  1   
 53  23  52  1   
 54  24  25  1   
 55  24  53  1   
 56  24  54  1   
 57  25  55  1   
 58  25  56  1   
@<TRIPOS>SUBSTRUCTURE
  1 ****  12 GROUP 4 **** **** 0

# MOE 2024.06 (io_trps.svl 2023.06)
