@<TRIPOS>MOLECULE
NONAME
41 42 1 0 0 
SMALL
USER_CHARGES


@<TRIPOS>ATOM
  1 CL      -2.0070     0.4120    -2.4300 Cl    1 <1>  -0.1230 
  2 C       -2.5790     0.2800    -0.7730 C.2   1 <1>   0.1230 
  3 C       -2.9480    -0.8930    -0.1030 C.2   1 <1>   0.2030 
  4 C       -2.7350     1.3050     0.0840 C.2   1 <1>  -0.3320 
  5 N       -3.3200    -0.5860     1.1340 N.2   1 <1>  -0.7070 
  6 C       -2.9340    -2.2380    -0.6510 C.2   1 <1>   0.7160 
  7 N       -3.1830     0.7500     1.2290 N.pl3 1 <1>   0.3000 
  8 C       -2.4850     2.7920    -0.1050 C.3   1 <1>  -0.0600 
  9 O       -2.7210    -2.4830    -1.8250 O.2   1 <1>  -0.5700 
 10 N       -3.2010    -3.2900     0.1760 N.am  1 <1>  -0.7300 
 11 C       -3.2280    -4.7250    -0.1900 C.3   1 <1>   0.2200 
 12 C       -4.6590    -5.2270    -0.2980 C.3   1 <1>  -0.0800 
 13 C       -2.7260    -5.5500     0.9860 C.3   1 <1>   0.1200 
 14 C       -5.0150    -5.5430     1.1600 C.3   1 <1>   0.1200 
 15 C       -5.6320    -4.2680    -1.0180 C.3   1 <1>  -0.0550 
 16 O       -3.8090    -5.6430     1.8600 O.3   1 <1>  -0.5600 
 17 S       -7.2670    -4.9510    -1.3040 S.o2  1 <1>   1.3330 
 18 O       -7.1070    -6.2920    -1.8210 O.2   1 <1>  -0.6500 
 19 O       -8.0640    -3.9930    -2.0360 O.2   1 <1>  -0.6500 
 20 N       -7.9370    -5.0730     0.2530 N.am  1 <1>  -0.8490 
 21 C       -8.9820    -6.0980     0.3230 C.3   1 <1>   0.1160 
 22 C       -8.4590    -3.7990     0.7620 C.3   1 <1>   0.1160 
 23 H       -3.4020     1.2640     2.0930 H     1 <1>   0.2700 
 24 H       -2.1300     2.9880    -1.1020 H     1 <1>   0.0800 
 25 H       -1.7420     3.1380     0.5920 H     1 <1>   0.0800 
 26 H       -3.3940     3.3470     0.0460 H     1 <1>   0.0800 
 27 H       -3.3980    -3.0710     1.1580 H     1 <1>   0.3700 
 28 H       -2.6550    -4.9000    -1.0860 H     1 <1>   0.0800 
 29 H       -4.6410    -6.1600    -0.8360 H     1 <1>   0.0800 
 30 H       -1.8900    -5.0970     1.4890 H     1 <1>   0.0800 
 31 H       -2.4710    -6.5470     0.6720 H     1 <1>   0.0800 
 32 H       -5.5540    -6.4710     1.2500 H     1 <1>   0.0800 
 33 H       -5.5840    -4.7490     1.6120 H     1 <1>   0.0800 
 34 H       -5.2030    -4.0170    -1.9700 H     1 <1>   0.0800 
 35 H       -5.7240    -3.3560    -0.4620 H     1 <1>   0.0800 
 36 H       -9.3780    -6.1610     1.3220 H     1 <1>   0.0800 
 37 H       -8.5740    -7.0600     0.0610 H     1 <1>   0.0800 
 38 H       -9.7810    -5.8650    -0.3620 H     1 <1>   0.0800 
 39 H       -8.7930    -3.9160     1.7780 H     1 <1>   0.0800 
 40 H       -9.2860    -3.4620     0.1580 H     1 <1>   0.0800 
 41 H       -7.6900    -3.0470     0.7430 H     1 <1>   0.0800 
@<TRIPOS>BOND
  1   1   2  1   
  2   2   3  1   
  3   2   4  2   
  4   3   5  2   
  5   3   6  1   
  6   4   7  1   
  7   4   8  1   
  8   5   7  1   
  9   6   9  2   
 10   6  10  am  
 11   7  23  1   
 12   8  24  1   
 13   8  25  1   
 14   8  26  1   
 15  10  11  1   
 16  10  27  1   
 17  11  12  1   
 18  11  13  1   
 19  11  28  1   
 20  12  14  1   
 21  12  15  1   
 22  12  29  1   
 23  13  16  1   
 24  13  30  1   
 25  13  31  1   
 26  14  16  1   
 27  14  32  1   
 28  14  33  1   
 29  15  17  1   
 30  15  34  1   
 31  15  35  1   
 32  17  18  2   
 33  17  19  2   
 34  17  20  am  
 35  20  21  1   
 36  20  22  1   
 37  21  36  1   
 38  21  37  1   
 39  21  38  1   
 40  22  39  1   
 41  22  40  1   
 42  22  41  1   
@<TRIPOS>SUBSTRUCTURE
  1 ****  10 GROUP 4 **** **** 0

# MOE 2024.06 (io_trps.svl 2023.06)
