@<TRIPOS>MOLECULE
Untitled Document
56 57 1 0 0 
SMALL
USER_CHARGES


@<TRIPOS>ATOM
  1 O       -1.4750    -1.4990     2.2780 O.co2 1 <1>  -0.9000 
  2 C       -0.9450    -1.7510     1.1920 C.2   1 <1>   0.9060 
  3 O        0.2470    -1.5320     0.9590 O.co2 1 <1>  -0.9000 
  4 C       -1.7920    -2.3650     0.1000 C.3   1 <1>  -0.2660 
  5 C       -1.9340    -3.8870     0.2680 C.3   1 <1>  -0.1600 
  6 C       -2.7450    -4.5120    -0.8700 C.3   1 <1>  -0.0220 
  7 C       -2.8640    -6.0150    -0.6560 C.2   1 <1>  -0.2880 
  8 C       -3.9980    -6.7480    -0.5980 C.2   1 <1>  -0.0570 
  9 C       -3.9760    -8.1680    -0.2910 C.ar  1 <1>   0.0280 
 10 C       -5.3150    -6.1880    -0.8250 C.ar  1 <1>   0.0280 
 11 C       -4.8350    -9.0710    -0.9210 C.ar  1 <1>   0.1600 
 12 C       -3.1110    -8.6870     0.6610 C.ar  1 <1>  -0.1500 
 13 C       -6.2610    -6.1750     0.1910 C.ar  1 <1>  -0.1500 
 14 C       -5.6800    -5.6870    -2.0700 C.ar  1 <1>  -0.1500 
 15 N       -4.9030   -10.3730    -0.6910 N.ar  1 <1>  -0.6200 
 16 C       -3.1570   -10.0410     0.9130 C.ar  1 <1>  -0.1500 
 17 C       -7.5500    -5.7060    -0.0120 C.ar  1 <1>   0.1000 
 18 C       -6.9570    -5.2080    -2.2930 C.ar  1 <1>  -0.1500 
 19 C       -4.0590   -10.8290     0.2200 C.ar  1 <1>   0.1600 
 20 N       -8.4610    -5.7770     1.0490 N.pl3 1 <1>  -0.5500 
 21 C       -7.8900    -5.2250    -1.2730 C.ar  1 <1>  -0.1500 
 22 C       -9.7990    -5.4940     1.0960 C.2   1 <1>   0.5500 
 23 N      -10.3660    -4.3730     0.9010 N.2   1 <1>  -0.5560 
 24 N      -10.5900    -6.5220     1.4860 N.pl3 1 <1>  -0.8190 
 25 C       -9.5610    -3.2620     0.6750 C.1   1 <1>   0.6630 
 26 C      -10.6420    -7.8720     0.9100 C.3   1 <1>   0.3690 
 27 N       -8.9310    -2.3340     0.4750 N.1   1 <1>  -0.5570 
 28 C       -9.5300    -8.7380     1.5030 C.3   1 <1>  -0.2400 
 29 C      -11.9990    -8.4440     1.3130 C.3   1 <1>  -0.2400 
 30 C      -10.5480    -7.8140    -0.6150 C.3   1 <1>  -0.2400 
 31 H       -2.7560    -1.8960     0.1330 H     1 <1>   0.0800 
 32 H       -1.3290    -2.1340    -0.8400 H     1 <1>   0.0800 
 33 H       -0.9500    -4.3230     0.2990 H     1 <1>   0.0800 
 34 H       -2.4160    -4.0880     1.2100 H     1 <1>   0.0800 
 35 H       -2.2500    -4.3240    -1.8070 H     1 <1>   0.0800 
 36 H       -3.7150    -4.0480    -0.9040 H     1 <1>   0.0800 
 37 H       -1.8960    -6.4690    -0.5320 H     1 <1>   0.1500 
 38 H       -5.5100    -8.6860    -1.6660 H     1 <1>   0.1500 
 39 H       -2.4290    -8.0460     1.1920 H     1 <1>   0.1500 
 40 H       -5.9770    -6.5450     1.1590 H     1 <1>   0.1500 
 41 H       -4.9550    -5.6800    -2.8640 H     1 <1>   0.1500 
 42 H       -2.5030   -10.4850     1.6410 H     1 <1>   0.1500 
 43 H       -7.2270    -4.8240    -3.2620 H     1 <1>   0.1500 
 44 H       -4.0880   -11.8860     0.4250 H     1 <1>   0.1500 
 45 H       -8.2240    -6.4660     1.7590 H     1 <1>   0.4000 
 46 H       -8.8830    -4.8650    -1.4660 H     1 <1>   0.1500 
 47 H      -11.5360    -6.1820     1.6560 H     1 <1>   0.4000 
 48 H       -9.6650    -9.7620     1.2040 H     1 <1>   0.0800 
 49 H       -9.5520    -8.6940     2.5770 H     1 <1>   0.0800 
 50 H       -8.5650    -8.4280     1.1500 H     1 <1>   0.0800 
 51 H      -12.1050    -9.4460     0.9370 H     1 <1>   0.0800 
 52 H      -12.7970    -7.8500     0.9060 H     1 <1>   0.0800 
 53 H      -12.0910    -8.4760     2.3840 H     1 <1>   0.0800 
 54 H      -10.7110    -8.7910    -1.0320 H     1 <1>   0.0800 
 55 H       -9.5750    -7.4870    -0.9270 H     1 <1>   0.0800 
 56 H      -11.2900    -7.1450    -1.0140 H     1 <1>   0.0800 
@<TRIPOS>BOND
  1   1   2  ar  
  2   2   3  ar  
  3   2   4  1   
  4   4   5  1   
  5   4  31  1   
  6   4  32  1   
  7   5   6  1   
  8   5  33  1   
  9   5  34  1   
 10   6   7  1   
 11   6  35  1   
 12   6  36  1   
 13   7   8  2   
 14   7  37  1   
 15   8   9  1   
 16   8  10  1   
 17   9  11  ar  
 18   9  12  ar  
 19  10  13  ar  
 20  10  14  ar  
 21  11  15  ar  
 22  11  38  1   
 23  12  16  ar  
 24  12  39  1   
 25  13  17  ar  
 26  13  40  1   
 27  14  18  ar  
 28  14  41  1   
 29  15  19  ar  
 30  16  19  ar  
 31  16  42  1   
 32  17  20  1   
 33  17  21  ar  
 34  18  21  ar  
 35  18  43  1   
 36  19  44  1   
 37  20  22  1   
 38  20  45  1   
 39  21  46  1   
 40  22  23  2   
 41  22  24  1   
 42  23  25  1   
 43  24  26  1   
 44  24  47  1   
 45  25  27  3   
 46  26  28  1   
 47  26  29  1   
 48  26  30  1   
 49  28  48  1   
 50  28  49  1   
 51  28  50  1   
 52  29  51  1   
 53  29  52  1   
 54  29  53  1   
 55  30  54  1   
 56  30  55  1   
 57  30  56  1   
@<TRIPOS>SUBSTRUCTURE
  1 ****  13 GROUP 4 **** **** 0

# MOE 2024.06 (io_trps.svl 2023.06)
