@<TRIPOS>MOLECULE
NONAME
49 51 1 0 0 
SMALL
USER_CHARGES


@<TRIPOS>ATOM
  1 CL      -0.7860     0.9230    -2.2160 Cl    1 <1>  -0.1770 
  2 C       -2.0810     1.5240    -1.2030 C.ar  1 <1>   0.1770 
  3 C       -3.1270     0.6970    -0.8190 C.ar  1 <1>   0.0820 
  4 C       -2.0430     2.8420    -0.7990 C.ar  1 <1>  -0.1500 
  5 O       -3.2000    -0.5940    -1.2140 O.3   1 <1>  -0.3630 
  6 C       -4.1390     1.2110    -0.0280 C.ar  1 <1>  -0.1500 
  7 C       -3.0640     3.3470     0.0040 C.ar  1 <1>   0.0830 
  8 C       -2.4450    -1.5160    -0.4610 C.3   1 <1>   0.0400 
  9 C       -4.1250     2.5320     0.4090 C.ar  1 <1>  -0.0090 
 10 O       -3.0660     4.6440     0.4020 O.3   1 <1>  -0.3630 
 11 S       -5.4880     3.1320     1.4500 S.o2  1 <1>   1.4470 
 12 C       -1.8910     5.4270     0.4000 C.3   1 <1>   0.0400 
 13 O       -6.0680     1.9800     2.1100 O.2   1 <1>  -0.6500 
 14 O       -5.1390     4.2660     2.2790 O.2   1 <1>  -0.6500 
 15 N       -6.6480     3.6720     0.3360 N.am  1 <1>  -0.8490 
 16 C       -7.9670     3.8080     0.9760 C.3   1 <1>   0.1960 
 17 C       -6.2610     4.9350    -0.3010 C.3   1 <1>   0.1960 
 18 C       -9.0800     4.1370    -0.0510 C.3   1 <1>   0.0000 
 19 C       -7.2770     5.3270    -1.3790 C.3   1 <1>  -0.1600 
 20 C      -10.4670     4.2590     0.6090 C.3   1 <1>   0.2000 
 21 C       -8.7000     5.4250    -0.8080 C.3   1 <1>  -0.1600 
 22 C       -9.2960     2.9450    -1.0020 C.3   1 <1>  -0.1600 
 23 O      -10.4280     4.8620     1.8550 O.3   1 <1>  -0.6800 
 24 C      -11.0290     2.8400     0.7270 C.3   1 <1>  -0.1600 
 25 C      -10.2140     1.9790    -0.2470 C.3   1 <1>  -0.1600 
 26 H       -1.2220     3.4490    -1.1270 H     1 <1>   0.1500 
 27 H       -4.9530     0.5630     0.2510 H     1 <1>   0.1500 
 28 H       -2.6130    -2.4970    -0.8680 H     1 <1>   0.0800 
 29 H       -2.7720    -1.4810     0.5630 H     1 <1>   0.0800 
 30 H       -1.4030    -1.2630    -0.5330 H     1 <1>   0.0800 
 31 H       -2.1060     6.3490     0.9110 H     1 <1>   0.0800 
 32 H       -1.6070     5.6330    -0.6160 H     1 <1>   0.0800 
 33 H       -1.1140     4.8960     0.9200 H     1 <1>   0.0800 
 34 H       -8.2220     2.8920     1.4800 H     1 <1>   0.0800 
 35 H       -7.9120     4.5870     1.7200 H     1 <1>   0.0800 
 36 H       -6.1930     5.7160     0.4390 H     1 <1>   0.0800 
 37 H       -5.2980     4.8280    -0.7670 H     1 <1>   0.0800 
 38 H       -6.9950     6.2750    -1.8020 H     1 <1>   0.0800 
 39 H       -7.2460     4.5960    -2.1680 H     1 <1>   0.0800 
 40 H      -11.1150     4.8480    -0.0190 H     1 <1>   0.0800 
 41 H       -9.4000     5.6190    -1.6010 H     1 <1>   0.0800 
 42 H       -8.7440     6.2550    -0.1220 H     1 <1>   0.0800 
 43 H       -9.8020     3.2790    -1.8910 H     1 <1>   0.0800 
 44 H       -8.3750     2.4700    -1.2940 H     1 <1>   0.0800 
 45 H      -10.0380     4.2550     2.5120 H     1 <1>   0.4000 
 46 H      -10.9250     2.4530     1.7250 H     1 <1>   0.0800 
 47 H      -12.0680     2.8390     0.4510 H     1 <1>   0.0800 
 48 H       -9.6160     1.2750     0.3060 H     1 <1>   0.0800 
 49 H      -10.8480     1.4350    -0.9260 H     1 <1>   0.0800 
@<TRIPOS>BOND
  1   1   2  1   
  2   2   3  ar  
  3   2   4  ar  
  4   3   5  1   
  5   3   6  ar  
  6   4   7  ar  
  7   4  26  1   
  8   5   8  1   
  9   6   9  ar  
 10   6  27  1   
 11   7   9  ar  
 12   7  10  1   
 13   8  28  1   
 14   8  29  1   
 15   8  30  1   
 16   9  11  1   
 17  10  12  1   
 18  11  13  2   
 19  11  14  2   
 20  11  15  am  
 21  12  31  1   
 22  12  32  1   
 23  12  33  1   
 24  15  16  1   
 25  15  17  1   
 26  16  18  1   
 27  16  34  1   
 28  16  35  1   
 29  17  19  1   
 30  17  36  1   
 31  17  37  1   
 32  18  20  1   
 33  18  21  1   
 34  18  22  1   
 35  19  21  1   
 36  19  38  1   
 37  19  39  1   
 38  20  23  1   
 39  20  24  1   
 40  20  40  1   
 41  21  41  1   
 42  21  42  1   
 43  22  25  1   
 44  22  43  1   
 45  22  44  1   
 46  23  45  1   
 47  24  25  1   
 48  24  46  1   
 49  24  47  1   
 50  25  48  1   
 51  25  49  1   
@<TRIPOS>SUBSTRUCTURE
  1 ****  15 GROUP 4 **** **** 0

# MOE 2024.06 (io_trps.svl 2023.06)
