@<TRIPOS>MOLECULE
NONAME
50 52 1 0 0 
SMALL
USER_CHARGES


@<TRIPOS>ATOM
  1 O       -0.5060     0.1100     0.8760 O.2   1 <1>  -0.5700 
  2 C       -1.4850     0.8070     1.0850 C.2   1 <1>   0.5440 
  3 N       -2.7070     0.1940     1.2610 N.am  1 <1>  -0.6600 
  4 C       -1.3590     2.2420     1.1150 C.ar  1 <1>   0.0860 
  5 C       -2.8320    -1.2950     1.3480 C.3   1 <1>   0.1400 
  6 C       -3.9870     0.8420     0.8400 C.3   1 <1>   0.1400 
  7 C       -0.8570     2.9430     0.0040 C.ar  1 <1>   0.4100 
  8 C       -1.7560     2.9740     2.2260 C.ar  1 <1>  -0.1500 
  9 C       -3.4310    -1.8610     0.0490 C.3   1 <1>   0.3440 
 10 C       -4.5350     0.1720    -0.4410 C.3   1 <1>   0.2000 
 11 N       -0.7650     4.2710    -0.0500 N.ar  1 <1>  -0.6200 
 12 N       -0.4320     2.2580    -1.1120 N.pl3 1 <1>  -0.8690 
 13 C       -1.6460     4.3450     2.1720 C.ar  1 <1>  -0.1500 
 14 O       -4.6440    -1.2120    -0.2370 O.3   1 <1>  -0.5600 
 15 C       -3.6660    -3.3640     0.1750 C.ar  1 <1>  -0.1430 
 16 C       -5.9220     0.7090    -0.8660 C.3   1 <1>  -0.0800 
 17 C       -1.1520     4.9340     1.0210 C.ar  1 <1>   0.1600 
 18 C        0.3030     2.8900    -2.2370 C.3   1 <1>   0.1290 
 19 C       -2.6550    -4.2440    -0.1840 C.ar  1 <1>  -0.1500 
 20 C       -4.8640    -3.8750     0.6550 C.ar  1 <1>  -0.1500 
 21 C       -6.4450    -0.0140    -2.1190 C.3   1 <1>  -0.2400 
 22 C       -5.8990     2.2220    -1.1460 C.3   1 <1>  -0.2400 
 23 C       -2.8370    -5.6110    -0.0660 C.ar  1 <1>  -0.1500 
 24 C       -5.0480    -5.2420     0.7750 C.ar  1 <1>  -0.1500 
 25 C       -4.0340    -6.1110     0.4140 C.ar  1 <1>  -0.1500 
 26 H       -1.8740    -1.7500     1.5260 H     1 <1>   0.0800 
 27 H       -3.4720    -1.5520     2.1720 H     1 <1>   0.0800 
 28 H       -4.7110     0.7480     1.6300 H     1 <1>   0.0800 
 29 H       -3.8320     1.8880     0.6530 H     1 <1>   0.0800 
 30 H       -2.1370     2.4740     3.0990 H     1 <1>   0.1500 
 31 H       -2.7550    -1.6760    -0.7690 H     1 <1>   0.0800 
 32 H       -3.8400     0.3340    -1.2480 H     1 <1>   0.0800 
 33 H       -0.1730     1.2760    -0.9260 H     1 <1>   0.4000 
 34 H       -1.9390     4.9550     3.0070 H     1 <1>   0.1500 
 35 H       -6.6130     0.5280    -0.0590 H     1 <1>   0.0800 
 36 H       -1.0710     6.0070     0.9840 H     1 <1>   0.1500 
 37 H       -0.2310     3.7600    -2.5800 H     1 <1>   0.0800 
 38 H        0.3960     2.1930    -3.0510 H     1 <1>   0.0800 
 39 H        1.2830     3.1880    -1.9070 H     1 <1>   0.0800 
 40 H       -1.7180    -3.8690    -0.5580 H     1 <1>   0.1500 
 41 H       -5.6600    -3.2060     0.9350 H     1 <1>   0.1500 
 42 H       -5.7700     0.1240    -2.9450 H     1 <1>   0.0800 
 43 H       -7.4130     0.3640    -2.3970 H     1 <1>   0.0800 
 44 H       -6.5430    -1.0690    -1.9320 H     1 <1>   0.0800 
 45 H       -5.1620     2.4570    -1.8950 H     1 <1>   0.0800 
 46 H       -5.6780     2.7800    -0.2550 H     1 <1>   0.0800 
 47 H       -6.8600     2.5490    -1.5020 H     1 <1>   0.0800 
 48 H       -2.0470    -6.2850    -0.3470 H     1 <1>   0.1500 
 49 H       -5.9810    -5.6270     1.1460 H     1 <1>   0.1500 
 50 H       -4.1770    -7.1730     0.5060 H     1 <1>   0.1500 
@<TRIPOS>BOND
  1   1   2  2   
  2   2   3  am  
  3   2   4  1   
  4   3   5  1   
  5   3   6  1   
  6   4   7  ar  
  7   4   8  ar  
  8   5   9  1   
  9   5  26  1   
 10   5  27  1   
 11   6  10  1   
 12   6  28  1   
 13   6  29  1   
 14   7  11  ar  
 15   7  12  1   
 16   8  13  ar  
 17   8  30  1   
 18   9  14  1   
 19   9  15  1   
 20   9  31  1   
 21  10  14  1   
 22  10  16  1   
 23  10  32  1   
 24  11  17  ar  
 25  12  18  1   
 26  12  33  1   
 27  13  17  ar  
 28  13  34  1   
 29  15  19  ar  
 30  15  20  ar  
 31  16  21  1   
 32  16  22  1   
 33  16  35  1   
 34  17  36  1   
 35  18  37  1   
 36  18  38  1   
 37  18  39  1   
 38  19  23  ar  
 39  19  40  1   
 40  20  24  ar  
 41  20  41  1   
 42  21  42  1   
 43  21  43  1   
 44  21  44  1   
 45  22  45  1   
 46  22  46  1   
 47  22  47  1   
 48  23  25  ar  
 49  23  48  1   
 50  24  25  ar  
 51  24  49  1   
 52  25  50  1   
@<TRIPOS>SUBSTRUCTURE
  1 ****   3 GROUP 4 **** **** 0

# MOE 2024.06 (io_trps.svl 2023.06)
