@<TRIPOS>MOLECULE
NONAME
52 54 1 0 0 
SMALL
USER_CHARGES


@<TRIPOS>ATOM
  1 CL      -4.2230    -0.0710     3.8200 Cl    1 <1>  -0.1230 
  2 C       -3.7780     0.3190     2.1650 C.2   1 <1>   0.1230 
  3 C       -3.3860    -0.5860     1.1730 C.2   1 <1>   0.2030 
  4 C       -3.7780     1.5500     1.6230 C.2   1 <1>  -0.3320 
  5 N       -3.1650     0.0880     0.0490 N.2   1 <1>  -0.7070 
  6 C       -3.2520    -2.0230     1.3880 C.2   1 <1>   0.7160 
  7 N       -3.3970     1.3770     0.3390 N.pl3 1 <1>   0.3140 
  8 C       -4.1230     2.8880     2.2610 C.3   1 <1>  -0.0600 
  9 O       -2.8450    -2.4370     2.4600 O.2   1 <1>  -0.5700 
 10 N       -3.5720    -2.9570     0.4170 N.am  1 <1>  -0.6600 
 11 C       -3.2320     2.4290    -0.6740 C.3   1 <1>   0.0160 
 12 C       -3.4330    -4.4320     0.6720 C.3   1 <1>   0.3640 
 13 C       -4.1760    -2.5690    -0.8960 C.3   1 <1>   0.1400 
 14 C       -2.1470    -5.0090     0.0510 C.ar  1 <1>  -0.1430 
 15 C       -4.6970    -5.2160     0.1870 C.3   1 <1>   0.2000 
 16 C       -4.6580    -3.7820    -1.7040 C.3   1 <1>   0.1200 
 17 C       -1.8160    -6.3270     0.3440 C.ar  1 <1>  -0.1500 
 18 C       -1.2910    -4.2840    -0.7740 C.ar  1 <1>  -0.1500 
 19 O       -5.4040    -4.6190    -0.8790 O.3   1 <1>  -0.5600 
 20 C       -5.7040    -5.4040     1.3280 C.3   1 <1>   0.1200 
 21 C       -0.6870    -6.9250    -0.1890 C.ar  1 <1>   0.0830 
 22 C       -0.1480    -4.8640    -1.2970 C.ar  1 <1>  -0.1500 
 23 O       -5.2250    -6.3390     2.2410 O.3   1 <1>  -0.6800 
 24 O       -0.4740    -8.2300     0.1140 O.3   1 <1>  -0.3630 
 25 C        0.1700    -6.1770    -1.0020 C.ar  1 <1>   0.0830 
 26 C       -0.4630    -9.1400    -0.9650 C.3   1 <1>   0.0400 
 27 O        1.3230    -6.6750    -1.5120 O.3   1 <1>  -0.3630 
 28 C        2.3450    -6.9410    -0.5780 C.3   1 <1>   0.0400 
 29 H       -4.3960     2.7510     3.2930 H     1 <1>   0.0800 
 30 H       -4.9520     3.3430     1.7490 H     1 <1>   0.0800 
 31 H       -3.2770     3.5500     2.2200 H     1 <1>   0.0800 
 32 H       -2.4890     3.1280    -0.3400 H     1 <1>   0.0800 
 33 H       -4.1700     2.9300    -0.8200 H     1 <1>   0.0800 
 34 H       -2.9150     1.9820    -1.5990 H     1 <1>   0.0800 
 35 H       -3.3430    -4.6030     1.7310 H     1 <1>   0.0800 
 36 H       -5.0140    -1.9160    -0.7200 H     1 <1>   0.0800 
 37 H       -3.4530    -2.0250    -1.4790 H     1 <1>   0.0800 
 38 H       -4.4050    -6.1900    -0.1620 H     1 <1>   0.0800 
 39 H       -3.8300    -4.3370    -2.1120 H     1 <1>   0.0800 
 40 H       -5.2900    -3.4620    -2.5130 H     1 <1>   0.0800 
 41 H       -2.4380    -6.9140     0.9960 H     1 <1>   0.1500 
 42 H       -1.4900    -3.2550    -1.0120 H     1 <1>   0.1500 
 43 H       -6.6460    -5.7590     0.9490 H     1 <1>   0.0800 
 44 H       -5.8520    -4.4740     1.8490 H     1 <1>   0.0800 
 45 H        0.5090    -4.2950    -1.9290 H     1 <1>   0.1500 
 46 H       -5.3520    -7.2490     1.9060 H     1 <1>   0.4000 
 47 H       -0.4630   -10.1370    -0.5630 H     1 <1>   0.0800 
 48 H        0.4220    -8.9850    -1.5540 H     1 <1>   0.0800 
 49 H       -1.3430    -8.9820    -1.5630 H     1 <1>   0.0800 
 50 H        3.2190    -7.2580    -1.1160 H     1 <1>   0.0800 
 51 H        2.0220    -7.7190     0.0910 H     1 <1>   0.0800 
 52 H        2.5540    -6.0410    -0.0280 H     1 <1>   0.0800 
@<TRIPOS>BOND
  1   1   2  1   
  2   2   3  1   
  3   2   4  2   
  4   3   5  2   
  5   3   6  1   
  6   4   7  1   
  7   4   8  1   
  8   5   7  1   
  9   6   9  2   
 10   6  10  am  
 11   7  11  1   
 12   8  29  1   
 13   8  30  1   
 14   8  31  1   
 15  10  12  1   
 16  10  13  1   
 17  11  32  1   
 18  11  33  1   
 19  11  34  1   
 20  12  14  1   
 21  12  15  1   
 22  12  35  1   
 23  13  16  1   
 24  13  36  1   
 25  13  37  1   
 26  14  17  ar  
 27  14  18  ar  
 28  15  19  1   
 29  15  20  1   
 30  15  38  1   
 31  16  19  1   
 32  16  39  1   
 33  16  40  1   
 34  17  21  ar  
 35  17  41  1   
 36  18  22  ar  
 37  18  42  1   
 38  20  23  1   
 39  20  43  1   
 40  20  44  1   
 41  21  24  1   
 42  21  25  ar  
 43  22  25  ar  
 44  22  45  1   
 45  23  46  1   
 46  24  26  1   
 47  25  27  1   
 48  26  47  1   
 49  26  48  1   
 50  26  49  1   
 51  27  28  1   
 52  28  50  1   
 53  28  51  1   
 54  28  52  1   
@<TRIPOS>SUBSTRUCTURE
  1 ****  10 GROUP 4 **** **** 0

# MOE 2024.06 (io_trps.svl 2023.06)
