@<TRIPOS>MOLECULE
NONAME
57 61 1 0 0 
SMALL
USER_CHARGES


@<TRIPOS>ATOM
  1 O       -2.2200     1.6850    -0.2880 O.3   1 <1>  -0.3630 
  2 C       -3.1710     1.3030     0.5990 C.ar  1 <1>   0.0830 
  3 C       -1.3110     2.6820     0.1430 C.3   1 <1>   0.1200 
  4 C       -3.4590     2.0710     1.7280 C.ar  1 <1>   0.0830 
  5 C       -3.8610     0.1280     0.3660 C.ar  1 <1>  -0.1500 
  6 C       -2.0540     3.7890     0.9040 C.3   1 <1>   0.1200 
  7 O       -2.8110     3.2380     1.9670 O.3   1 <1>  -0.3630 
  8 C       -4.4230     1.6440     2.6220 C.ar  1 <1>  -0.1500 
  9 C       -4.8440    -0.2920     1.2530 C.ar  1 <1>  -0.1430 
 10 C       -5.1140     0.4670     2.3860 C.ar  1 <1>  -0.1500 
 11 C       -5.6290    -1.5560     0.9700 C.3   1 <1>   0.4860 
 12 N       -6.5290    -1.2770    -0.1800 N.4   1 <1>  -0.9590 
 13 C       -7.5500    -0.2320     0.1790 C.3   1 <1>   0.3430 
 14 C       -7.1770    -2.5100    -0.7070 C.3   1 <1>   0.3430 
 15 C       -8.3940     0.1820    -1.0360 C.3   1 <1>   0.1440 
 16 C       -7.9890    -2.1670    -1.9600 C.3   1 <1>  -0.1600 
 17 C       -9.4630     1.1280    -0.5520 C.ar  1 <1>   0.1670 
 18 C       -9.0270    -1.0600    -1.6980 C.3   1 <1>  -0.1600 
 19 C       -7.6040     1.0550    -2.0500 C.3   1 <1>  -0.1600 
 20 N      -10.2220     0.9070     0.4900 N.ar  1 <1>  -0.6200 
 21 C       -9.5300     2.2550    -1.3110 C.ar  1 <1>  -0.1430 
 22 C       -8.5230     2.2310    -2.4340 C.3   1 <1>  -0.0170 
 23 C      -11.0920     1.8840     0.7650 C.ar  1 <1>   0.7200 
 24 C      -10.4540     3.2030    -0.9530 C.ar  1 <1>   0.1600 
 25 N      -11.2370     3.0260     0.0860 N.ar  1 <1>  -0.6200 
 26 N      -11.9090     1.6950     1.8590 N.pl3 1 <1>  -0.8380 
 27 C      -12.6580     2.8260     2.4760 C.3   1 <1>   0.1290 
 28 C      -12.2960     0.3410     2.3410 C.3   1 <1>   0.1290 
 29 H       -0.8170     3.0800    -0.7250 H     1 <1>   0.0800 
 30 H       -0.5800     2.2170     0.7810 H     1 <1>   0.0800 
 31 H       -3.6080    -0.4400    -0.5110 H     1 <1>   0.1500 
 32 H       -2.7300     4.3070     0.2460 H     1 <1>   0.0800 
 33 H       -1.3610     4.4960     1.3230 H     1 <1>   0.0800 
 34 H       -4.6280     2.2390     3.4950 H     1 <1>   0.1500 
 35 H       -5.8630     0.1580     3.0970 H     1 <1>   0.1500 
 36 H       -6.2020    -1.8430     1.8370 H     1 <1>   0.0800 
 37 H       -4.9450    -2.3530     0.7270 H     1 <1>   0.0800 
 38 H       -5.9380    -0.8750    -0.9170 H     1 <1>   0.4500 
 39 H       -7.0680     0.6460     0.5780 H     1 <1>   0.0800 
 40 H       -8.2120    -0.6160     0.9380 H     1 <1>   0.0800 
 41 H       -7.8330    -2.9260     0.0420 H     1 <1>   0.0800 
 42 H       -6.4300    -3.2480    -0.9530 H     1 <1>   0.0800 
 43 H       -8.5000    -3.0530    -2.2950 H     1 <1>   0.0800 
 44 H       -7.3190    -1.8730    -2.7500 H     1 <1>   0.0800 
 45 H       -9.5150    -0.7810    -2.6170 H     1 <1>   0.0800 
 46 H       -9.7880    -1.4500    -1.0420 H     1 <1>   0.0800 
 47 H       -7.2940     0.5100    -2.9240 H     1 <1>   0.0800 
 48 H       -6.7280     1.4630    -1.5740 H     1 <1>   0.0800 
 49 H       -9.0280     2.0370    -3.3650 H     1 <1>   0.0800 
 50 H       -7.9790     3.1580    -2.5000 H     1 <1>   0.0800 
 51 H      -10.5520     4.1140    -1.5170 H     1 <1>   0.1500 
 52 H      -12.1000     3.7420     2.3800 H     1 <1>   0.0800 
 53 H      -12.8210     2.6360     3.5220 H     1 <1>   0.0800 
 54 H      -13.6070     2.9420     1.9810 H     1 <1>   0.0800 
 55 H      -12.0560    -0.4100     1.6090 H     1 <1>   0.0800 
 56 H      -13.3560     0.3060     2.5240 H     1 <1>   0.0800 
 57 H      -11.7720     0.1210     3.2540 H     1 <1>   0.0800 
@<TRIPOS>BOND
  1   1   2  1   
  2   1   3  1   
  3   2   4  ar  
  4   2   5  ar  
  5   3   6  1   
  6   3  29  1   
  7   3  30  1   
  8   4   7  1   
  9   4   8  ar  
 10   5   9  ar  
 11   5  31  1   
 12   6   7  1   
 13   6  32  1   
 14   6  33  1   
 15   8  10  ar  
 16   8  34  1   
 17   9  10  ar  
 18   9  11  1   
 19  10  35  1   
 20  11  12  1   
 21  11  36  1   
 22  11  37  1   
 23  12  13  1   
 24  12  14  1   
 25  12  38  1   
 26  13  15  1   
 27  13  39  1   
 28  13  40  1   
 29  14  16  1   
 30  14  41  1   
 31  14  42  1   
 32  15  17  1   
 33  15  18  1   
 34  15  19  1   
 35  16  18  1   
 36  16  43  1   
 37  16  44  1   
 38  17  20  ar  
 39  17  21  ar  
 40  18  45  1   
 41  18  46  1   
 42  19  22  1   
 43  19  47  1   
 44  19  48  1   
 45  20  23  ar  
 46  21  22  1   
 47  21  24  ar  
 48  22  49  1   
 49  22  50  1   
 50  23  25  ar  
 51  23  26  1   
 52  24  25  ar  
 53  24  51  1   
 54  26  27  1   
 55  26  28  1   
 56  27  52  1   
 57  27  53  1   
 58  27  54  1   
 59  28  55  1   
 60  28  56  1   
 61  28  57  1   
@<TRIPOS>SUBSTRUCTURE
  1 ****  13 GROUP 4 **** **** 0

# MOE 2024.06 (io_trps.svl 2023.06)
