@<TRIPOS>MOLECULE
NONAME
44 47 1 0 0 
SMALL
USER_CHARGES


@<TRIPOS>ATOM
  1 O       -0.5860     0.9230    -0.8510 O.2   1 <1>  -0.5700 
  2 C       -0.5680     2.1280    -0.7570 C.2   1 <1>   0.5690 
  3 N       -1.5590     2.8530    -0.1490 N.am  1 <1>  -0.5090 
  4 C        0.6060     2.8770    -1.3790 C.3   1 <1>   0.1810 
  5 C       -1.6170     4.3440    -0.2710 C.3   1 <1>   0.3640 
  6 C       -2.7110     2.2220     0.5380 C.3   1 <1>   0.0490 
  7 O        0.8100     4.1260    -0.7700 O.3   1 <1>  -0.5600 
  8 C       -2.8070     4.7310    -1.1490 C.ar  1 <1>  -0.1440 
  9 C       -0.3150     4.9930    -0.8220 C.3   1 <1>   0.2610 
 10 C       -2.9500     2.5490     1.9800 C.3   1 <1>  -0.2000 
 11 C       -2.4680     1.1880     1.5910 C.3   1 <1>  -0.2000 
 12 C       -3.6350     5.7790    -0.7680 C.ar  1 <1>   0.1600 
 13 C       -3.0930     4.0640    -2.3290 C.ar  1 <1>  -0.1500 
 14 C       -0.0200     6.2840    -0.0510 C.2   1 <1>   0.5690 
 15 N       -4.6950     6.1950    -1.4430 N.ar  1 <1>  -0.6200 
 16 C       -4.1910     4.4890    -3.0450 C.ar  1 <1>  -0.1500 
 17 O       -0.9140     7.0800     0.1100 O.2   1 <1>  -0.5700 
 18 N        1.2380     6.4760     0.4340 N.am  1 <1>  -0.6550 
 19 C       -4.9470     5.5420    -2.5640 C.ar  1 <1>   0.1600 
 20 C        1.8040     7.6030     1.2160 C.3   1 <1>   0.2250 
 21 C        0.9960     8.0190     2.4740 C.3   1 <1>   0.0000 
 22 C        1.5400     9.0220     0.6440 C.3   1 <1>   0.0000 
 23 C        1.3420     9.4870     2.1110 C.3   1 <1>   0.0000 
 24 H        0.4320     3.0260    -2.4300 H     1 <1>   0.0800 
 25 H        1.5030     2.2990    -1.2520 H     1 <1>   0.0800 
 26 H       -1.7860     4.7340     0.7180 H     1 <1>   0.0800 
 27 H       -3.5620     2.0940    -0.1110 H     1 <1>   0.1000 
 28 H       -0.4620     5.2610    -1.8530 H     1 <1>   0.0800 
 29 H       -2.2650     3.1860     2.5100 H     1 <1>   0.1000 
 30 H       -3.9630     2.6460     2.3280 H     1 <1>   0.1000 
 31 H       -3.1500     0.3590     1.6610 H     1 <1>   0.1000 
 32 H       -1.4520     0.9050     1.8050 H     1 <1>   0.1000 
 33 H       -3.4170     6.3130     0.1430 H     1 <1>   0.1500 
 34 H       -2.4970     3.2400    -2.6820 H     1 <1>   0.1500 
 35 H       -4.4630     4.0080    -3.9670 H     1 <1>   0.1500 
 36 H        1.8980     5.7130     0.2570 H     1 <1>   0.3700 
 37 H       -5.8050     5.8650    -3.1300 H     1 <1>   0.1500 
 38 H        2.8450     7.4450     1.4390 H     1 <1>   0.0000 
 39 H       -0.0600     7.8270     2.4150 H     1 <1>   0.0000 
 40 H        1.4410     7.7000     3.4000 H     1 <1>   0.0000 
 41 H        2.4000     9.4670     0.1760 H     1 <1>   0.0000 
 42 H        0.6380     9.1150     0.0670 H     1 <1>   0.0000 
 43 H        2.2600     9.8200     2.5660 H     1 <1>   0.0000 
 44 H        0.5240    10.1720     2.2430 H     1 <1>   0.0000 
@<TRIPOS>BOND
  1   1   2  2   
  2   2   3  am  
  3   2   4  1   
  4   3   5  1   
  5   3   6  1   
  6   4   7  1   
  7   4  24  1   
  8   4  25  1   
  9   5   8  1   
 10   5   9  1   
 11   5  26  1   
 12   6  10  1   
 13   6  11  1   
 14   6  27  1   
 15   7   9  1   
 16   8  12  ar  
 17   8  13  ar  
 18   9  14  1   
 19   9  28  1   
 20  10  11  1   
 21  10  29  1   
 22  10  30  1   
 23  11  31  1   
 24  11  32  1   
 25  12  15  ar  
 26  12  33  1   
 27  13  16  ar  
 28  13  34  1   
 29  14  17  2   
 30  14  18  am  
 31  15  19  ar  
 32  16  19  ar  
 33  16  35  1   
 34  18  20  1   
 35  18  36  1   
 36  19  37  1   
 37  20  21  1   
 38  20  22  1   
 39  20  38  1   
 40  21  23  1   
 41  21  39  1   
 42  21  40  1   
 43  22  23  1   
 44  22  41  1   
 45  22  42  1   
 46  23  43  1   
 47  23  44  1   
@<TRIPOS>SUBSTRUCTURE
  1 ****   5 GROUP 4 **** **** 0

# MOE 2024.06 (io_trps.svl 2023.06)
