@<TRIPOS>MOLECULE
NONAME
46 48 1 0 0 
SMALL
USER_CHARGES


@<TRIPOS>ATOM
  1 S       -0.0840    -0.3130     2.1300 S.o2  1 <1>   1.5010 
  2 O       -0.5810    -1.3190     3.0430 O.2   1 <1>  -0.6500 
  3 O        0.4300     0.9360     2.6510 O.2   1 <1>  -0.6500 
  4 N       -1.3420     0.0700     1.0600 N.am  1 <1>  -0.8490 
  5 C        1.1390    -1.0780     1.0360 C.2   1 <1>  -0.0630 
  6 C       -2.5810     0.3700     1.7850 C.3   1 <1>   0.1960 
  7 C       -0.9900     1.1870     0.1760 C.3   1 <1>   0.1960 
  8 C        1.0340    -2.3000     0.4760 C.2   1 <1>  -0.1100 
  9 C        2.3390    -0.4060     0.6380 C.2   1 <1>  -0.1500 
 10 C       -3.7350     0.5430     0.7960 C.3   1 <1>  -0.1600 
 11 C       -2.0800     1.3730    -0.8790 C.3   1 <1>  -0.1600 
 12 S        2.4060    -2.6540    -0.5490 S.3   1 <1>  -0.0800 
 13 C        3.1460    -1.0870    -0.2140 C.2   1 <1>  -0.0450 
 14 C       -3.4350     1.6430    -0.2200 C.3   1 <1>   0.4180 
 15 C        4.4020    -0.7400    -0.8290 C.2   1 <1>   0.7150 
 16 O       -3.3650     2.8420     0.5130 O.3   1 <1>  -0.5600 
 17 C       -4.5530     1.7140    -1.2570 C.2   1 <1>  -0.2880 
 18 O        4.8890     0.3580    -0.6480 O.2   1 <1>  -0.5700 
 19 N        5.0580    -1.6350    -1.6270 N.am  1 <1>  -0.7300 
 20 C       -3.5260     4.0410    -0.1930 C.3   1 <1>   0.1200 
 21 C       -5.2490     2.8190    -1.5340 C.2   1 <1>  -0.2760 
 22 C        6.3530    -1.4080    -2.3190 C.3   1 <1>   0.0600 
 23 C       -4.9260     4.1170    -0.8190 C.3   1 <1>  -0.0220 
 24 C       -6.3890     2.8900    -2.5340 C.3   1 <1>  -0.1020 
 25 H       -2.4580     1.2650     2.3750 H     1 <1>   0.0800 
 26 H       -2.8220    -0.4400     2.4530 H     1 <1>   0.0800 
 27 H       -0.0570     0.9820    -0.3220 H     1 <1>   0.0800 
 28 H       -0.8730     2.0940     0.7490 H     1 <1>   0.0800 
 29 H        0.2650    -3.0480     0.5630 H     1 <1>   0.1500 
 30 H        2.5620     0.5820     1.0080 H     1 <1>   0.1500 
 31 H       -4.6380     0.7870     1.3250 H     1 <1>   0.0800 
 32 H       -3.8940    -0.3900     0.2870 H     1 <1>   0.0800 
 33 H       -2.1430     0.4770    -1.4690 H     1 <1>   0.0800 
 34 H       -1.8220     2.1750    -1.5430 H     1 <1>   0.0800 
 35 H       -4.7310     0.7710    -1.7420 H     1 <1>   0.1500 
 36 H        4.6290    -2.5530    -1.7560 H     1 <1>   0.3700 
 37 H       -2.7700     4.0990    -0.9540 H     1 <1>   0.0800 
 38 H       -3.3830     4.8520     0.5000 H     1 <1>   0.0800 
 39 H        6.7190    -0.4150    -2.1190 H     1 <1>   0.0800 
 40 H        6.2230    -1.5210    -3.3810 H     1 <1>   0.0800 
 41 H        7.0810    -2.1210    -1.9730 H     1 <1>   0.0800 
 42 H       -4.9460     4.9400    -1.5110 H     1 <1>   0.0800 
 43 H       -5.6570     4.3040    -0.0530 H     1 <1>   0.0800 
 44 H       -7.2930     3.2040    -2.0420 H     1 <1>   0.0800 
 45 H       -6.5610     1.9270    -2.9800 H     1 <1>   0.0800 
 46 H       -6.1560     3.5910    -3.3150 H     1 <1>   0.0800 
@<TRIPOS>BOND
  1   1   2  2   
  2   1   3  2   
  3   1   4  am  
  4   1   5  1   
  5   4   6  1   
  6   4   7  1   
  7   5   8  2   
  8   5   9  1   
  9   6  10  1   
 10   6  25  1   
 11   6  26  1   
 12   7  11  1   
 13   7  27  1   
 14   7  28  1   
 15   8  12  1   
 16   8  29  1   
 17   9  13  2   
 18   9  30  1   
 19  10  14  1   
 20  10  31  1   
 21  10  32  1   
 22  11  14  1   
 23  11  33  1   
 24  11  34  1   
 25  12  13  1   
 26  13  15  1   
 27  14  16  1   
 28  14  17  1   
 29  15  18  2   
 30  15  19  am  
 31  16  20  1   
 32  17  21  2   
 33  17  35  1   
 34  19  22  1   
 35  19  36  1   
 36  20  23  1   
 37  20  37  1   
 38  20  38  1   
 39  21  23  1   
 40  21  24  1   
 41  22  39  1   
 42  22  40  1   
 43  22  41  1   
 44  23  42  1   
 45  23  43  1   
 46  24  44  1   
 47  24  45  1   
 48  24  46  1   
@<TRIPOS>SUBSTRUCTURE
  1 ****   7 GROUP 4 **** **** 0

# MOE 2024.06 (io_trps.svl 2023.06)
