@<TRIPOS>MOLECULE
NONAME
46 48 1 0 0 
SMALL
USER_CHARGES


@<TRIPOS>ATOM
  1 S        1.1760    -0.0370     1.0910 S.3   1 <1>  -0.0800 
  2 C       -0.4020    -0.5890     0.5790 C.2   1 <1>   0.1980 
  3 C        1.7850    -0.4050    -0.4950 C.2   1 <1>  -0.1100 
  4 N       -0.4540    -0.9950    -0.6290 N.2   1 <1>  -0.5650 
  5 C       -1.5280    -0.5340     1.6030 C.3   1 <1>   0.5230 
  6 C        0.7840    -0.8940    -1.2430 C.2   1 <1>   0.0460 
  7 N       -2.8420    -0.7940     0.9370 N.4   1 <1>  -0.9590 
  8 C        0.8790    -1.3440    -2.6850 C.3   1 <1>  -0.0590 
  9 C       -3.2720     0.3860     0.1320 C.3   1 <1>   0.3430 
 10 C       -3.8910    -1.2240     1.8990 C.3   1 <1>   0.3430 
 11 C       -4.5440     0.0530    -0.6400 C.3   1 <1>  -0.1600 
 12 C       -5.1690    -1.5780     1.1460 C.3   1 <1>  -0.1600 
 13 C       -5.6700    -0.3940     0.3080 C.3   1 <1>   0.2800 
 14 O       -5.8480     0.6700     1.2170 O.3   1 <1>  -0.5600 
 15 C       -6.9870    -0.7810    -0.4330 C.3   1 <1>   0.2000 
 16 C       -7.1000     1.2980     1.3000 C.3   1 <1>   0.1200 
 17 O       -6.7420    -1.7310    -1.4290 O.3   1 <1>  -0.6800 
 18 C       -7.7970     0.4380    -0.9720 C.3   1 <1>   0.2800 
 19 C       -7.5650     1.6860    -0.1050 C.3   1 <1>  -0.1600 
 20 O       -9.1300     0.1000    -0.8530 O.3   1 <1>  -0.6800 
 21 C       -7.5990     0.7680    -2.4590 C.3   1 <1>  -0.2400 
 22 H        2.8250    -0.2180    -0.6970 H     1 <1>   0.1500 
 23 H       -1.5370     0.4300     2.0820 H     1 <1>   0.0800 
 24 H       -1.3400    -1.2870     2.3500 H     1 <1>   0.0800 
 25 H       -2.6530    -1.5490     0.2580 H     1 <1>   0.4500 
 26 H        1.8820    -1.2220    -3.0520 H     1 <1>   0.0800 
 27 H        0.2130    -0.7610    -3.2940 H     1 <1>   0.0800 
 28 H        0.6040    -2.3800    -2.7620 H     1 <1>   0.0800 
 29 H       -3.4650     1.2230     0.7830 H     1 <1>   0.0800 
 30 H       -2.4950     0.6620    -0.5640 H     1 <1>   0.0800 
 31 H       -3.5560    -2.0820     2.4590 H     1 <1>   0.0800 
 32 H       -4.1030    -0.4230     2.5900 H     1 <1>   0.0800 
 33 H       -4.3320    -0.7170    -1.3600 H     1 <1>   0.0800 
 34 H       -4.8500     0.9250    -1.1840 H     1 <1>   0.0800 
 35 H       -5.9280    -1.8600     1.8530 H     1 <1>   0.0800 
 36 H       -4.9890    -2.4290     0.5130 H     1 <1>   0.0800 
 37 H       -7.6070    -1.2770     0.2940 H     1 <1>   0.0800 
 38 H       -7.7980     0.6280     1.7740 H     1 <1>   0.0800 
 39 H       -6.9870     2.1740     1.9160 H     1 <1>   0.0800 
 40 H       -7.5970    -1.9720    -1.8440 H     1 <1>   0.4000 
 41 H       -6.8020     2.3070    -0.5390 H     1 <1>   0.0800 
 42 H       -8.4600     2.2790    -0.0440 H     1 <1>   0.0800 
 43 H       -9.6850     0.7860    -1.2710 H     1 <1>   0.4000 
 44 H       -6.5650     0.9640    -2.6690 H     1 <1>   0.0800 
 45 H       -8.1620     1.6420    -2.7330 H     1 <1>   0.0800 
 46 H       -7.9100    -0.0530    -3.0800 H     1 <1>   0.0800 
@<TRIPOS>BOND
  1   1   2  1   
  2   1   3  1   
  3   2   4  2   
  4   2   5  1   
  5   3   6  2   
  6   3  22  1   
  7   4   6  1   
  8   5   7  1   
  9   5  23  1   
 10   5  24  1   
 11   6   8  1   
 12   7   9  1   
 13   7  10  1   
 14   7  25  1   
 15   8  26  1   
 16   8  27  1   
 17   8  28  1   
 18   9  11  1   
 19   9  29  1   
 20   9  30  1   
 21  10  12  1   
 22  10  31  1   
 23  10  32  1   
 24  11  13  1   
 25  11  33  1   
 26  11  34  1   
 27  12  13  1   
 28  12  35  1   
 29  12  36  1   
 30  13  14  1   
 31  13  15  1   
 32  14  16  1   
 33  15  17  1   
 34  15  18  1   
 35  15  37  1   
 36  16  19  1   
 37  16  38  1   
 38  16  39  1   
 39  17  40  1   
 40  18  19  1   
 41  18  20  1   
 42  18  21  1   
 43  19  41  1   
 44  19  42  1   
 45  20  43  1   
 46  21  44  1   
 47  21  45  1   
 48  21  46  1   
@<TRIPOS>SUBSTRUCTURE
  1 ****  11 GROUP 4 **** **** 0

# MOE 2024.06 (io_trps.svl 2023.06)
