@<TRIPOS>MOLECULE
NONAME
47 49 1 0 0 
SMALL
USER_CHARGES


@<TRIPOS>ATOM
  1 O       -2.7920    -5.1820     1.9530 O.2   1 <1>  -0.5700 
  2 C       -2.2940    -5.1870     0.8450 C.2   1 <1>   0.5440 
  3 N       -3.1170    -4.8770    -0.2130 N.am  1 <1>  -0.6600 
  4 C       -0.8790    -5.4450     0.6660 C.ar  1 <1>   0.0860 
  5 C       -4.5730    -5.1880    -0.1000 C.3   1 <1>   0.1400 
  6 C       -2.8380    -3.6520    -1.0170 C.3   1 <1>   0.1400 
  7 C       -0.3760    -5.9140    -0.5450 C.ar  1 <1>   0.1600 
  8 C        0.0410    -5.2370     1.6840 C.ar  1 <1>  -0.1500 
  9 C       -5.3200    -3.9900     0.5150 C.3   1 <1>   0.3430 
 10 C       -3.6050    -2.4460    -0.4290 C.3   1 <1>   0.3430 
 11 N        0.8970    -6.1470    -0.8190 N.ar  1 <1>  -0.6200 
 12 C        1.3710    -5.4850     1.4230 C.ar  1 <1>  -0.1500 
 13 N       -5.0810    -2.7180    -0.2650 N.4   1 <1>  -0.9590 
 14 C        1.7530    -5.9330     0.1660 C.ar  1 <1>   0.1670 
 15 C       -5.7620    -1.5650     0.3980 C.3   1 <1>   0.2630 
 16 C        3.2140    -6.2220    -0.1640 C.3   1 <1>   0.0630 
 17 C        3.7690    -7.3840     0.6740 C.3   1 <1>  -0.1600 
 18 C        4.1030    -4.9770    -0.0160 C.3   1 <1>  -0.1600 
 19 C        5.2250    -7.6720     0.3130 C.3   1 <1>   0.3430 
 20 C        5.5540    -5.2990    -0.3690 C.3   1 <1>   0.3430 
 21 N        6.0360    -6.4320     0.4710 N.4   1 <1>  -0.9060 
 22 H       -4.7110    -6.0530     0.5280 H     1 <1>   0.0800 
 23 H       -4.9730    -5.4220    -1.0710 H     1 <1>   0.0800 
 24 H       -3.1330    -3.8160    -2.0390 H     1 <1>   0.0800 
 25 H       -1.7830    -3.4360    -1.0110 H     1 <1>   0.0800 
 26 H       -1.0750    -6.1110    -1.3410 H     1 <1>   0.1500 
 27 H       -0.2840    -4.8920     2.6520 H     1 <1>   0.1500 
 28 H       -4.9710    -3.8670     1.5290 H     1 <1>   0.0800 
 29 H       -6.3740    -4.2100     0.5510 H     1 <1>   0.0800 
 30 H       -3.4590    -1.5900    -1.0670 H     1 <1>   0.0800 
 31 H       -3.1760    -2.2150     0.5330 H     1 <1>   0.0800 
 32 H        2.0970    -5.3310     2.2000 H     1 <1>   0.1500 
 33 H       -5.4850    -2.8490    -1.2030 H     1 <1>   0.4500 
 34 H       -5.3620    -1.4130     1.3880 H     1 <1>   0.0800 
 35 H       -6.8210    -1.7520     0.4810 H     1 <1>   0.0800 
 36 H       -5.6170    -0.6640    -0.1750 H     1 <1>   0.0800 
 37 H        3.2540    -6.5240    -1.2000 H     1 <1>   0.0800 
 38 H        3.1790    -8.2650     0.4840 H     1 <1>   0.0800 
 39 H        3.6920    -7.1670     1.7250 H     1 <1>   0.0800 
 40 H        4.0530    -4.5890     0.9860 H     1 <1>   0.0800 
 41 H        3.7430    -4.2090    -0.6780 H     1 <1>   0.0800 
 42 H        5.2780    -8.0140    -0.7090 H     1 <1>   0.0800 
 43 H        5.6090    -8.4530     0.9500 H     1 <1>   0.0800 
 44 H        6.1690    -4.4270    -0.2070 H     1 <1>   0.0800 
 45 H        5.6170    -5.5660    -1.4120 H     1 <1>   0.0800 
 46 H        7.0180    -6.6350     0.2390 H     1 <1>   0.4500 
 47 H        6.0230    -6.1470     1.4590 H     1 <1>   0.4500 
@<TRIPOS>BOND
  1   1   2  2   
  2   2   3  am  
  3   2   4  1   
  4   3   5  1   
  5   3   6  1   
  6   4   7  ar  
  7   4   8  ar  
  8   5   9  1   
  9   5  22  1   
 10   5  23  1   
 11   6  10  1   
 12   6  24  1   
 13   6  25  1   
 14   7  11  ar  
 15   7  26  1   
 16   8  12  ar  
 17   8  27  1   
 18   9  13  1   
 19   9  28  1   
 20   9  29  1   
 21  10  13  1   
 22  10  30  1   
 23  10  31  1   
 24  11  14  ar  
 25  12  14  ar  
 26  12  32  1   
 27  13  15  1   
 28  13  33  1   
 29  14  16  1   
 30  15  34  1   
 31  15  35  1   
 32  15  36  1   
 33  16  17  1   
 34  16  18  1   
 35  16  37  1   
 36  17  19  1   
 37  17  38  1   
 38  17  39  1   
 39  18  20  1   
 40  18  40  1   
 41  18  41  1   
 42  19  21  1   
 43  19  42  1   
 44  19  43  1   
 45  20  21  1   
 46  20  44  1   
 47  20  45  1   
 48  21  46  1   
 49  21  47  1   
@<TRIPOS>SUBSTRUCTURE
  1 ****   4 GROUP 4 **** **** 0

# MOE 2024.06 (io_trps.svl 2023.06)
