@<TRIPOS>MOLECULE
NONAME
44 46 1 0 0 
SMALL
USER_CHARGES


@<TRIPOS>ATOM
  1 O       -2.9940     0.5410    -2.1530 O.2   1 <1>  -0.5700 
  2 C       -2.6920     0.6010    -0.9870 C.2   1 <1>   0.5690 
  3 N       -2.3990    -0.5070    -0.2670 N.am  1 <1>  -0.7300 
  4 C       -2.6570     1.9470    -0.2930 C.3   1 <1>  -0.0990 
  5 C       -2.3350    -1.8850    -0.8100 C.3   1 <1>   0.2200 
  6 C       -1.2200     2.4330    -0.0450 C.3   1 <1>  -0.1600 
  7 C       -3.5680    -2.6950    -0.4260 C.3   1 <1>  -0.0800 
  8 C       -1.2570    -2.6520    -0.0590 C.3   1 <1>   0.1200 
  9 C       -1.2050     3.7960     0.6540 C.3   1 <1>  -0.2400 
 10 C       -3.2310    -3.1540     0.9990 C.3   1 <1>   0.1200 
 11 C       -4.9110    -1.9470    -0.5630 C.3   1 <1>  -0.0170 
 12 O       -1.8470    -3.0120     1.1540 O.3   1 <1>  -0.5600 
 13 C       -6.1840    -2.7610    -0.2990 C.ar  1 <1>  -0.1440 
 14 C       -7.4350    -2.0980    -0.2370 C.ar  1 <1>   0.0000 
 15 C       -6.1940    -4.1170    -0.1220 C.ar  1 <1>  -0.1500 
 16 C       -8.5880    -2.8740     0.0370 C.ar  1 <1>   0.3100 
 17 C       -7.6110    -0.7070    -0.4390 C.ar  1 <1>  -0.1500 
 18 C       -7.3940    -4.7910     0.1340 C.ar  1 <1>   0.1600 
 19 N       -8.5510    -4.2160     0.2210 N.ar  1 <1>  -0.6200 
 20 C       -9.8360    -2.2360     0.1190 C.ar  1 <1>  -0.1500 
 21 C       -8.8430    -0.1170    -0.3550 C.ar  1 <1>  -0.1500 
 22 C       -9.9710    -0.8880    -0.0690 C.ar  1 <1>  -0.1500 
 23 H       -2.1730    -0.4410     0.7280 H     1 <1>   0.3700 
 24 H       -3.1760     2.6600    -0.9080 H     1 <1>   0.0800 
 25 H       -3.1850     1.8690     0.6400 H     1 <1>   0.0800 
 26 H       -2.1620    -1.8670    -1.8740 H     1 <1>   0.0800 
 27 H       -0.6920     1.7170     0.5610 H     1 <1>   0.0800 
 28 H       -0.7060     2.5110    -0.9890 H     1 <1>   0.0800 
 29 H       -3.5890    -3.5600    -1.0650 H     1 <1>   0.0800 
 30 H       -0.3750    -2.0640     0.1240 H     1 <1>   0.0800 
 31 H       -0.9960    -3.5560    -0.5810 H     1 <1>   0.0800 
 32 H       -1.6960     3.7370     1.6100 H     1 <1>   0.0800 
 33 H       -1.7060     4.5340     0.0510 H     1 <1>   0.0800 
 34 H       -0.1910     4.1170     0.8110 H     1 <1>   0.0800 
 35 H       -3.4930    -4.1840     1.1680 H     1 <1>   0.0800 
 36 H       -3.7070    -2.5320     1.7380 H     1 <1>   0.0800 
 37 H       -4.9720    -1.5430    -1.5590 H     1 <1>   0.0800 
 38 H       -4.9040    -1.1190     0.1230 H     1 <1>   0.0800 
 39 H       -5.3080    -4.7170    -0.1700 H     1 <1>   0.1500 
 40 H       -6.7610    -0.0920    -0.6700 H     1 <1>   0.1500 
 41 H       -7.3510    -5.8580     0.2700 H     1 <1>   0.1500 
 42 H      -10.6900    -2.8510     0.3370 H     1 <1>   0.1500 
 43 H       -8.9590     0.9420    -0.5100 H     1 <1>   0.1500 
 44 H      -10.9350    -0.4130    -0.0040 H     1 <1>   0.1500 
@<TRIPOS>BOND
  1   1   2  2   
  2   2   3  am  
  3   2   4  1   
  4   3   5  1   
  5   3  23  1   
  6   4   6  1   
  7   4  24  1   
  8   4  25  1   
  9   5   7  1   
 10   5   8  1   
 11   5  26  1   
 12   6   9  1   
 13   6  27  1   
 14   6  28  1   
 15   7  10  1   
 16   7  11  1   
 17   7  29  1   
 18   8  12  1   
 19   8  30  1   
 20   8  31  1   
 21   9  32  1   
 22   9  33  1   
 23   9  34  1   
 24  10  12  1   
 25  10  35  1   
 26  10  36  1   
 27  11  13  1   
 28  11  37  1   
 29  11  38  1   
 30  13  14  ar  
 31  13  15  ar  
 32  14  16  ar  
 33  14  17  ar  
 34  15  18  ar  
 35  15  39  1   
 36  16  19  ar  
 37  16  20  ar  
 38  17  21  ar  
 39  17  40  1   
 40  18  19  ar  
 41  18  41  1   
 42  20  22  ar  
 43  20  42  1   
 44  21  22  ar  
 45  21  43  1   
 46  22  44  1   
@<TRIPOS>SUBSTRUCTURE
  1 ****  11 GROUP 4 **** **** 0

# MOE 2024.06 (io_trps.svl 2023.06)
