@<TRIPOS>MOLECULE
NONAME
47 49 1 0 0 
SMALL
USER_CHARGES


@<TRIPOS>ATOM
  1 O       -0.5730     0.5910    -0.8730 O.2   1 <1>  -0.5700 
  2 C       -1.1930     1.2960    -0.0970 C.2   1 <1>   0.7160 
  3 N       -2.3290     0.7800     0.4910 N.am  1 <1>  -0.6600 
  4 C       -0.7350     2.6430     0.1460 C.2   1 <1>  -0.0860 
  5 C       -2.6830    -0.6640     0.3200 C.3   1 <1>   0.1400 
  6 C       -3.4600     1.6270     0.9610 C.3   1 <1>   0.1400 
  7 C       -0.0920     3.4320    -0.8110 C.2   1 <1>   0.1390 
  8 C       -0.7620     3.4550     1.2420 C.2   1 <1>  -0.3020 
  9 C       -3.5220    -0.9190    -0.9450 C.3   1 <1>   0.1400 
 10 C       -4.2080     2.2720    -0.2140 C.3   1 <1>  -0.1600 
 11 N        0.2280     4.6100    -0.3730 N.2   1 <1>  -0.7070 
 12 N       -0.1850     4.6180     0.9050 N.pl3 1 <1>   0.3000 
 13 N       -4.7290    -0.0330    -1.0190 N.am  1 <1>  -0.6600 
 14 C       -4.4180     1.3640    -1.4330 C.3   1 <1>   0.1400 
 15 C       -6.0340    -0.4310    -0.7980 C.2   1 <1>   0.5690 
 16 O       -6.9320     0.3790    -0.8990 O.2   1 <1>  -0.5700 
 17 C       -6.3660    -1.8860    -0.3700 C.3   1 <1>   0.4040 
 18 O       -6.0540    -2.8010    -1.4030 O.3   1 <1>  -0.5600 
 19 C       -7.8160    -2.1030     0.0900 C.ar  1 <1>  -0.1430 
 20 C       -6.1330    -4.1520    -1.0610 C.3   1 <1>   0.0400 
 21 C       -8.0980    -2.3560     1.4260 C.ar  1 <1>  -0.1500 
 22 C       -8.8610    -2.0620    -0.8220 C.ar  1 <1>  -0.1500 
 23 C       -9.4020    -2.5680     1.8400 C.ar  1 <1>  -0.1500 
 24 C      -10.1650    -2.2750    -0.4110 C.ar  1 <1>  -0.1500 
 25 C      -10.4360    -2.5290     0.9210 C.ar  1 <1>  -0.1500 
 26 H       -1.7810    -1.2490     0.2610 H     1 <1>   0.0800 
 27 H       -3.2250    -1.0050     1.1840 H     1 <1>   0.0800 
 28 H       -4.1520     1.0140     1.5130 H     1 <1>   0.0800 
 29 H       -3.1100     2.3880     1.6340 H     1 <1>   0.0800 
 30 H        0.1170     3.0930    -1.8140 H     1 <1>   0.1500 
 31 H       -1.1470     3.2550     2.2250 H     1 <1>   0.1500 
 32 H       -3.8040    -1.9540    -0.9730 H     1 <1>   0.0800 
 33 H       -2.9030    -0.7470    -1.8100 H     1 <1>   0.0800 
 34 H       -3.6820     3.1540    -0.5300 H     1 <1>   0.0800 
 35 H       -5.1720     2.5960     0.1360 H     1 <1>   0.0800 
 36 H       -0.0450     5.4350     1.5140 H     1 <1>   0.2700 
 37 H       -3.5260     1.3650    -2.0380 H     1 <1>   0.0800 
 38 H       -5.2170     1.7540    -2.0420 H     1 <1>   0.0800 
 39 H       -5.7160    -2.1140     0.4530 H     1 <1>   0.0800 
 40 H       -5.7780    -4.7280    -1.8970 H     1 <1>   0.0800 
 41 H       -7.1580    -4.4140    -0.8600 H     1 <1>   0.0800 
 42 H       -5.5180    -4.3440    -0.1990 H     1 <1>   0.0800 
 43 H       -7.3080    -2.3880     2.1550 H     1 <1>   0.1500 
 44 H       -8.6520    -1.8600    -1.8600 H     1 <1>   0.1500 
 45 H       -9.6140    -2.7620     2.8770 H     1 <1>   0.1500 
 46 H      -10.9660    -2.2380    -1.1280 H     1 <1>   0.1500 
 47 H      -11.4500    -2.6930     1.2420 H     1 <1>   0.1500 
@<TRIPOS>BOND
  1   1   2  2   
  2   2   3  am  
  3   2   4  1   
  4   3   5  1   
  5   3   6  1   
  6   4   7  1   
  7   4   8  2   
  8   5   9  1   
  9   5  26  1   
 10   5  27  1   
 11   6  10  1   
 12   6  28  1   
 13   6  29  1   
 14   7  11  2   
 15   7  30  1   
 16   8  12  1   
 17   8  31  1   
 18   9  13  1   
 19   9  32  1   
 20   9  33  1   
 21  10  14  1   
 22  10  34  1   
 23  10  35  1   
 24  11  12  1   
 25  12  36  1   
 26  13  14  1   
 27  13  15  am  
 28  14  37  1   
 29  14  38  1   
 30  15  16  2   
 31  15  17  1   
 32  17  18  1   
 33  17  19  1   
 34  17  39  1   
 35  18  20  1   
 36  19  21  ar  
 37  19  22  ar  
 38  20  40  1   
 39  20  41  1   
 40  20  42  1   
 41  21  23  ar  
 42  21  43  1   
 43  22  24  ar  
 44  22  44  1   
 45  23  25  ar  
 46  23  45  1   
 47  24  25  ar  
 48  24  46  1   
 49  25  47  1   
@<TRIPOS>SUBSTRUCTURE
  1 ****  13 GROUP 4 **** **** 0

# MOE 2024.06 (io_trps.svl 2023.06)
