@<TRIPOS>MOLECULE
NONAME
53 56 1 0 0 
SMALL
USER_CHARGES


@<TRIPOS>ATOM
  1 O        0.7760    -0.3880    -1.6100 O.2   1 <1>  -0.5700 
  2 C        1.3520    -0.7100    -0.5890 C.2   1 <1>   0.5440 
  3 N        2.0090     0.2550     0.1220 N.am  1 <1>  -0.7300 
  4 C        1.3410    -2.0850    -0.1270 C.ar  1 <1>   0.0860 
  5 C        2.0770     1.6850    -0.2420 C.3   1 <1>   0.2200 
  6 C        0.2450    -2.9110    -0.3610 C.ar  1 <1>  -0.1500 
  7 C        2.4180    -2.6390     0.5660 C.ar  1 <1>  -0.1500 
  8 C        3.4260     1.9830    -0.9040 C.3   1 <1>  -0.0160 
  9 C        1.8900     2.5220     1.0210 C.3   1 <1>  -0.1600 
 10 C        0.1870    -4.2240     0.0740 C.ar  1 <1>   0.1000 
 11 C        2.3920    -3.9480     1.0130 C.ar  1 <1>  -0.1500 
 12 C        3.7290     3.4750    -0.9870 C.ar  1 <1>  -0.1430 
 13 C        1.8610     4.0110     0.6620 C.3   1 <1>  -0.0170 
 14 N       -0.9800    -4.9390    -0.2270 N.pl3 1 <1>  -0.8380 
 15 C        1.2840    -4.7540     0.7760 C.ar  1 <1>   0.0830 
 16 C        3.0150     4.4130    -0.2490 C.ar  1 <1>  -0.1430 
 17 C        4.7590     3.8960    -1.8140 C.ar  1 <1>  -0.1500 
 18 C       -1.8100    -5.3660     0.9370 C.3   1 <1>   0.2090 
 19 C       -0.8200    -6.0590    -1.1980 C.3   1 <1>   0.2090 
 20 O        1.2270    -6.0500     1.2020 O.3   1 <1>  -0.3630 
 21 C        3.3430     5.7570    -0.3510 C.ar  1 <1>  -0.1500 
 22 C        5.0820     5.2380    -1.9110 C.ar  1 <1>  -0.1500 
 23 C       -3.1390    -5.9780     0.4580 C.3   1 <1>   0.1200 
 24 C       -2.1930    -6.6420    -1.5830 C.3   1 <1>   0.1200 
 25 C        2.3020    -6.6690     1.8710 C.3   1 <1>   0.0400 
 26 C        4.3720     6.1700    -1.1770 C.ar  1 <1>  -0.1500 
 27 O       -2.9180    -7.0290    -0.4460 O.3   1 <1>  -0.5600 
 28 H        2.4270     0.0150     1.0190 H     1 <1>   0.3700 
 29 H        1.2880     1.9210    -0.9380 H     1 <1>   0.0800 
 30 H       -0.5970    -2.5180    -0.9030 H     1 <1>   0.1500 
 31 H        3.2920    -2.0410     0.7500 H     1 <1>   0.1500 
 32 H        3.4210     1.5610    -1.8930 H     1 <1>   0.0800 
 33 H        4.2120     1.5170    -0.3380 H     1 <1>   0.0800 
 34 H        2.7050     2.3410     1.7000 H     1 <1>   0.0800 
 35 H        0.9660     2.2580     1.5030 H     1 <1>   0.0800 
 36 H        3.2480    -4.3200     1.5410 H     1 <1>   0.1500 
 37 H        1.8910     4.5940     1.5660 H     1 <1>   0.0800 
 38 H        0.9390     4.2350     0.1550 H     1 <1>   0.0800 
 39 H        5.3180     3.1770    -2.3880 H     1 <1>   0.1500 
 40 H       -2.0090    -4.5140     1.5620 H     1 <1>   0.0800 
 41 H       -1.2770    -6.0950     1.5210 H     1 <1>   0.0800 
 42 H       -0.2140    -6.8360    -0.7660 H     1 <1>   0.0800 
 43 H       -0.3220    -5.6960    -2.0800 H     1 <1>   0.0800 
 44 H        2.7950     6.4900     0.2130 H     1 <1>   0.1500 
 45 H        5.8820     5.5550    -2.5550 H     1 <1>   0.1500 
 46 H       -3.7380    -5.2290    -0.0280 H     1 <1>   0.0800 
 47 H       -3.6870    -6.3740     1.2940 H     1 <1>   0.0800 
 48 H       -2.0650    -7.5120    -2.2020 H     1 <1>   0.0800 
 49 H       -2.7670    -5.9110    -2.1240 H     1 <1>   0.0800 
 50 H        2.0200    -7.6850     2.0840 H     1 <1>   0.0800 
 51 H        2.4910    -6.1440     2.7900 H     1 <1>   0.0800 
 52 H        3.1660    -6.6570     1.2310 H     1 <1>   0.0800 
 53 H        4.6200     7.2140    -1.2490 H     1 <1>   0.1500 
@<TRIPOS>BOND
  1   1   2  2   
  2   2   3  am  
  3   2   4  1   
  4   3   5  1   
  5   3  28  1   
  6   4   6  ar  
  7   4   7  ar  
  8   5   8  1   
  9   5   9  1   
 10   5  29  1   
 11   6  10  ar  
 12   6  30  1   
 13   7  11  ar  
 14   7  31  1   
 15   8  12  1   
 16   8  32  1   
 17   8  33  1   
 18   9  13  1   
 19   9  34  1   
 20   9  35  1   
 21  10  14  1   
 22  10  15  ar  
 23  11  15  ar  
 24  11  36  1   
 25  12  16  ar  
 26  12  17  ar  
 27  13  16  1   
 28  13  37  1   
 29  13  38  1   
 30  14  18  1   
 31  14  19  1   
 32  15  20  1   
 33  16  21  ar  
 34  17  22  ar  
 35  17  39  1   
 36  18  23  1   
 37  18  40  1   
 38  18  41  1   
 39  19  24  1   
 40  19  42  1   
 41  19  43  1   
 42  20  25  1   
 43  21  26  ar  
 44  21  44  1   
 45  22  26  ar  
 46  22  45  1   
 47  23  27  1   
 48  23  46  1   
 49  23  47  1   
 50  24  27  1   
 51  24  48  1   
 52  24  49  1   
 53  25  50  1   
 54  25  51  1   
 55  25  52  1   
 56  26  53  1   
@<TRIPOS>SUBSTRUCTURE
  1 ****   2 GROUP 4 **** **** 0

# MOE 2024.06 (io_trps.svl 2023.06)
