@<TRIPOS>MOLECULE
NONAME
44 45 1 0 0 
SMALL
USER_CHARGES


@<TRIPOS>ATOM
  1 O       -1.2750     0.9130    -0.9270 O.3   1 <1>  -0.8500 
  2 C       -0.9450     2.0410    -0.5320 C.2   1 <1>  -0.1780 
  3 C       -1.9050     3.0020    -0.1170 C.2   1 <1>   0.0290 
  4 C        0.4590     2.3800    -0.4920 C.ar  1 <1>   0.0280 
  5 C       -1.4540     4.2880     0.2640 C.2   1 <1>   0.6160 
  6 C       -3.2920     2.6920    -0.0740 C.2   1 <1>   0.6160 
  7 C        0.8740     3.6230     0.0120 C.ar  1 <1>   0.1170 
  8 C        1.4280     1.4870    -0.9510 C.ar  1 <1>  -0.1500 
  9 O       -2.2050     5.2640     0.3830 O.2   1 <1>  -0.5700 
 10 N       -0.0930     4.5280     0.4830 N.am  1 <1>  -0.4770 
 11 O       -4.0970     3.2230     0.7030 O.2   1 <1>  -0.5700 
 12 N       -3.7820     1.6880    -0.8690 N.am  1 <1>  -0.4300 
 13 C        2.2410     3.9270     0.0150 C.ar  1 <1>  -0.1500 
 14 C        2.7710     1.7960    -0.9290 C.ar  1 <1>  -0.1500 
 15 C        0.3100     5.7390     1.2550 C.3   1 <1>   0.0600 
 16 N       -5.1560     1.1600    -0.8810 N.am  1 <1>  -0.4300 
 17 C        3.1800     3.0270    -0.4450 C.ar  1 <1>  -0.1500 
 18 C       -6.1210     1.4100    -1.8030 C.2   1 <1>   0.5690 
 19 O       -5.9270     1.9520    -2.8710 O.2   1 <1>  -0.5700 
 20 C       -7.5350     0.9690    -1.4760 C.3   1 <1>  -0.0990 
 21 C       -8.2020     1.9030    -0.4530 C.3   1 <1>  -0.1600 
 22 C       -9.6270     1.4450    -0.1190 C.3   1 <1>  -0.1600 
 23 C      -10.2790     2.3820     0.9040 C.3   1 <1>  -0.1600 
 24 C      -11.7010     1.9260     1.2410 C.3   1 <1>  -0.2400 
 25 H        1.0930     0.5360    -1.3270 H     1 <1>   0.1500 
 26 H       -2.9930     1.1110    -1.2460 H     1 <1>   0.3700 
 27 H        2.5820     4.8770     0.3740 H     1 <1>   0.1500 
 28 H        3.4920     1.0850    -1.2890 H     1 <1>   0.1500 
 29 H       -0.5180     6.1170     1.8300 H     1 <1>   0.0800 
 30 H        0.6390     6.5030     0.5740 H     1 <1>   0.0800 
 31 H        1.1000     5.4910     1.9400 H     1 <1>   0.0800 
 32 H       -5.4230     0.7190     0.0000 H     1 <1>   0.3700 
 33 H        4.2260     3.2750    -0.4320 H     1 <1>   0.1500 
 34 H       -7.5060    -0.0360    -1.0960 H     1 <1>   0.0800 
 35 H       -8.1090     0.9630    -2.3850 H     1 <1>   0.0800 
 36 H       -8.2270     2.9020    -0.8580 H     1 <1>   0.0800 
 37 H       -7.6110     1.9320     0.4480 H     1 <1>   0.0800 
 38 H       -9.5990     0.4460     0.2800 H     1 <1>   0.0800 
 39 H      -10.2180     1.4320    -1.0190 H     1 <1>   0.0800 
 40 H      -10.3130     3.3830     0.5070 H     1 <1>   0.0800 
 41 H       -9.6900     2.4020     1.8050 H     1 <1>   0.0800 
 42 H      -12.3140     1.9210     0.3560 H     1 <1>   0.0800 
 43 H      -12.1410     2.5960     1.9580 H     1 <1>   0.0800 
 44 H      -11.6890     0.9350     1.6610 H     1 <1>   0.0800 
@<TRIPOS>BOND
  1   1   2  1   
  2   2   3  2   
  3   2   4  1   
  4   3   5  1   
  5   3   6  1   
  6   4   7  ar  
  7   4   8  ar  
  8   5   9  2   
  9   5  10  am  
 10   6  11  2   
 11   6  12  am  
 12   7  10  1   
 13   7  13  ar  
 14   8  14  ar  
 15   8  25  1   
 16  10  15  1   
 17  12  16  1   
 18  12  26  1   
 19  13  17  ar  
 20  13  27  1   
 21  14  17  ar  
 22  14  28  1   
 23  15  29  1   
 24  15  30  1   
 25  15  31  1   
 26  16  18  am  
 27  16  32  1   
 28  17  33  1   
 29  18  19  2   
 30  18  20  1   
 31  20  21  1   
 32  20  34  1   
 33  20  35  1   
 34  21  22  1   
 35  21  36  1   
 36  21  37  1   
 37  22  23  1   
 38  22  38  1   
 39  22  39  1   
 40  23  24  1   
 41  23  40  1   
 42  23  41  1   
 43  24  42  1   
 44  24  43  1   
 45  24  44  1   
@<TRIPOS>SUBSTRUCTURE
  1 ****   6 GROUP 4 **** **** 0

# MOE 2024.06 (io_trps.svl 2023.06)
