@<TRIPOS>MOLECULE
NONAME
55 58 1 0 0 
SMALL
USER_CHARGES


@<TRIPOS>ATOM
  1 O        0.1590     0.3640    -0.2340 O.3   1 <1>  -0.5600 
  2 C        1.3450    -0.2950    -0.5520 C.3   1 <1>   0.3440 
  3 C        0.1890     1.7480    -0.4560 C.3   1 <1>   0.2000 
  4 C        1.1610    -1.7950    -0.3630 C.ar  1 <1>  -0.1440 
  5 C        2.4740     0.2180     0.3650 C.3   1 <1>   0.2090 
  6 C       -1.2440     2.3280    -0.2560 C.3   1 <1>   0.0000 
  7 C        1.2800     2.4020     0.4350 C.3   1 <1>   0.2090 
  8 C        1.6660    -2.6820    -1.3040 C.ar  1 <1>  -0.1500 
  9 C        0.5070    -2.2960     0.7540 C.ar  1 <1>  -0.1500 
 10 N        2.6300     1.7260     0.3320 N.pl3 1 <1>  -0.8380 
 11 C       -2.2030     1.6760    -1.2700 C.3   1 <1>  -0.2400 
 12 C       -1.2670     3.8480    -0.5080 C.3   1 <1>  -0.2400 
 13 C       -1.7920     2.0620     1.1590 C.3   1 <1>  -0.2400 
 14 C        1.5290    -4.0480    -1.1230 C.ar  1 <1>  -0.1500 
 15 C        0.3710    -3.6600     0.9360 C.ar  1 <1>  -0.1500 
 16 C        3.8050     2.4070     0.3330 C.ar  1 <1>   0.4610 
 17 C        0.8850    -4.5380    -0.0020 C.ar  1 <1>  -0.1500 
 18 N        4.9260     1.7820    -0.0610 N.ar  1 <1>  -0.1790 
 19 C        3.9880     3.7600     0.7100 C.ar  1 <1>   0.0000 
 20 C        6.1470     2.4040    -0.1660 C.ar  1 <1>   0.5270 
 21 C        5.2350     4.3230     0.5760 C.ar  1 <1>   0.1050 
 22 C        3.2300     4.8020     1.2690 C.2   1 <1>   0.1390 
 23 N        6.3310     3.6430     0.1260 N.ar  1 <1>  -0.5670 
 24 C        7.3160     1.5750    -0.6580 C.3   1 <1>  -0.0970 
 25 N        5.1470     5.6060     0.9950 N.pl3 1 <1>   0.3140 
 26 N        3.9020     5.8920     1.4260 N.2   1 <1>  -0.7070 
 27 C        6.2190     6.6130     1.0450 C.3   1 <1>   0.0160 
 28 H        1.5750    -0.0900    -1.5830 H     1 <1>   0.0800 
 29 H        0.4610     1.9030    -1.4860 H     1 <1>   0.0800 
 30 H        3.3830    -0.2830     0.0900 H     1 <1>   0.0800 
 31 H        2.2390    -0.0810     1.3730 H     1 <1>   0.0800 
 32 H        0.9590     2.3870     1.4610 H     1 <1>   0.0800 
 33 H        1.3630     3.4240     0.1200 H     1 <1>   0.0800 
 34 H        2.1630    -2.3240    -2.1880 H     1 <1>   0.1500 
 35 H        0.0930    -1.6220     1.4850 H     1 <1>   0.1500 
 36 H       -3.1950     2.0800    -1.1740 H     1 <1>   0.0800 
 37 H       -2.2610     0.6140    -1.1080 H     1 <1>   0.0800 
 38 H       -1.8660     1.8450    -2.2770 H     1 <1>   0.0800 
 39 H       -2.2770     4.2170    -0.4710 H     1 <1>   0.0800 
 40 H       -0.8660     4.0780    -1.4800 H     1 <1>   0.0800 
 41 H       -0.7030     4.3800     0.2360 H     1 <1>   0.0800 
 42 H       -2.8050     2.4130     1.2410 H     1 <1>   0.0800 
 43 H       -1.2090     2.5620     1.9100 H     1 <1>   0.0800 
 44 H       -1.7890     1.0070     1.3720 H     1 <1>   0.0800 
 45 H        1.9200    -4.7330    -1.8560 H     1 <1>   0.1500 
 46 H       -0.1390    -4.0400     1.8050 H     1 <1>   0.1500 
 47 H        0.7780    -5.5990     0.1390 H     1 <1>   0.1500 
 48 H        4.8510     0.8130    -0.3370 H     1 <1>   0.4570 
 49 H        2.1960     4.7260     1.5610 H     1 <1>   0.1500 
 50 H        8.2060     2.1790    -0.6920 H     1 <1>   0.0800 
 51 H        7.1240     1.2040    -1.6480 H     1 <1>   0.0800 
 52 H        7.4970     0.7500     0.0070 H     1 <1>   0.0800 
 53 H        7.1040     6.2300     0.5730 H     1 <1>   0.0800 
 54 H        6.4280     6.8500     2.0710 H     1 <1>   0.0800 
 55 H        5.8910     7.4990     0.5340 H     1 <1>   0.0800 
@<TRIPOS>BOND
  1   1   2  1   
  2   1   3  1   
  3   2   4  1   
  4   2   5  1   
  5   2  28  1   
  6   3   6  1   
  7   3   7  1   
  8   3  29  1   
  9   4   8  ar  
 10   4   9  ar  
 11   5  10  1   
 12   5  30  1   
 13   5  31  1   
 14   6  11  1   
 15   6  12  1   
 16   6  13  1   
 17   7  10  1   
 18   7  32  1   
 19   7  33  1   
 20   8  14  ar  
 21   8  34  1   
 22   9  15  ar  
 23   9  35  1   
 24  10  16  1   
 25  11  36  1   
 26  11  37  1   
 27  11  38  1   
 28  12  39  1   
 29  12  40  1   
 30  12  41  1   
 31  13  42  1   
 32  13  43  1   
 33  13  44  1   
 34  14  17  ar  
 35  14  45  1   
 36  15  17  ar  
 37  15  46  1   
 38  16  18  ar  
 39  16  19  ar  
 40  17  47  1   
 41  18  20  ar  
 42  18  48  1   
 43  19  21  ar  
 44  19  22  1   
 45  20  23  ar  
 46  20  24  1   
 47  21  23  ar  
 48  21  25  1   
 49  22  26  2   
 50  22  49  1   
 51  24  50  1   
 52  24  51  1   
 53  24  52  1   
 54  25  26  1   
 55  25  27  1   
 56  27  53  1   
 57  27  54  1   
 58  27  55  1   
@<TRIPOS>SUBSTRUCTURE
  1 ****  10 GROUP 4 **** **** 0

# MOE 2024.06 (io_trps.svl 2023.06)
