@<TRIPOS>MOLECULE
NONAME
47 49 1 0 0 
SMALL
USER_CHARGES


@<TRIPOS>ATOM
  1 O        1.5100    -0.4300     1.0450 O.3   1 <1>  -0.3630 
  2 C        0.9780    -1.6270     0.6830 C.ar  1 <1>   0.0830 
  3 C        1.7340     0.6240     0.1320 C.3   1 <1>   0.2000 
  4 C        1.0240    -2.6570     1.6160 C.ar  1 <1>   0.1600 
  5 C        0.3960    -1.8790    -0.5510 C.ar  1 <1>  -0.1500 
  6 C        2.9550     0.2940    -0.7350 C.3   1 <1>  -0.1600 
  7 C        1.9760     1.8920     0.9520 C.3   1 <1>  -0.1600 
  8 N        0.5580    -3.8840     1.4280 N.ar  1 <1>  -0.6200 
  9 C       -0.0930    -3.1510    -0.7620 C.ar  1 <1>  -0.1500 
 10 C        3.3220     1.4800    -1.6270 C.3   1 <1>   0.2090 
 11 C        2.3440     3.0680     0.0490 C.3   1 <1>   0.2090 
 12 C        0.0110    -4.1000     0.2430 C.ar  1 <1>   0.1600 
 13 N        3.5160     2.7000    -0.7930 N.pl3 1 <1>  -0.8380 
 14 C        4.7550     3.1990    -0.5500 C.ar  1 <1>   0.4100 
 15 N        5.6760     2.3080    -0.2420 N.ar  1 <1>  -0.6200 
 16 C        5.0370     4.5930    -0.6000 C.ar  1 <1>  -0.1430 
 17 C        6.8570     2.7510     0.1060 C.ar  1 <1>   0.7710 
 18 C        6.2770     5.0090    -0.2090 C.ar  1 <1>   0.2180 
 19 C        3.9690     5.5680    -1.1150 C.3   1 <1>  -0.0970 
 20 N        7.1690     4.0530     0.1450 N.ar  1 <1>  -0.1790 
 21 N        7.7590     1.8310     0.4350 N.pl3 1 <1>  -0.9000 
 22 C        6.7690     6.4580    -0.1380 C.3   1 <1>  -0.0170 
 23 C        7.2800     6.8370     1.2600 C.3   1 <1>  -0.2400 
 24 H        0.8520     0.7590    -0.4690 H     1 <1>   0.0800 
 25 H        1.4750    -2.4450     2.5690 H     1 <1>   0.1500 
 26 H        0.3160    -1.1380    -1.3220 H     1 <1>   0.1500 
 27 H        2.7550    -0.5590    -1.3550 H     1 <1>   0.0800 
 28 H        3.7950     0.0660    -0.1040 H     1 <1>   0.0800 
 29 H        2.7800     1.7250     1.6470 H     1 <1>   0.0800 
 30 H        1.0880     2.1350     1.5070 H     1 <1>   0.0800 
 31 H       -0.5550    -3.4110    -1.6970 H     1 <1>   0.1500 
 32 H        2.5360     1.6610    -2.3400 H     1 <1>   0.0800 
 33 H        4.2220     1.2570    -2.1750 H     1 <1>   0.0800 
 34 H        2.5770     3.9210     0.6620 H     1 <1>   0.0800 
 35 H        1.5140     3.3230    -0.5880 H     1 <1>   0.0800 
 36 H       -0.3760    -5.0890     0.0620 H     1 <1>   0.1500 
 37 H        3.2810     5.0720    -1.7760 H     1 <1>   0.0800 
 38 H        4.4040     6.3690    -1.6830 H     1 <1>   0.0800 
 39 H        3.4140     5.9840    -0.2930 H     1 <1>   0.0800 
 40 H        8.1050     4.2940     0.4480 H     1 <1>   0.4570 
 41 H        8.7280     1.9520     0.7310 H     1 <1>   0.4000 
 42 H        7.4550     0.8520     0.3970 H     1 <1>   0.4000 
 43 H        5.9820     7.1440    -0.3890 H     1 <1>   0.0800 
 44 H        7.5550     6.6050    -0.8590 H     1 <1>   0.0800 
 45 H        6.5120     6.6730     1.9980 H     1 <1>   0.0800 
 46 H        7.5390     7.8820     1.2790 H     1 <1>   0.0800 
 47 H        8.1550     6.2760     1.5350 H     1 <1>   0.0800 
@<TRIPOS>BOND
  1   1   2  1   
  2   1   3  1   
  3   2   4  ar  
  4   2   5  ar  
  5   3   6  1   
  6   3   7  1   
  7   3  24  1   
  8   4   8  ar  
  9   4  25  1   
 10   5   9  ar  
 11   5  26  1   
 12   6  10  1   
 13   6  27  1   
 14   6  28  1   
 15   7  11  1   
 16   7  29  1   
 17   7  30  1   
 18   8  12  ar  
 19   9  12  ar  
 20   9  31  1   
 21  10  13  1   
 22  10  32  1   
 23  10  33  1   
 24  11  13  1   
 25  11  34  1   
 26  11  35  1   
 27  12  36  1   
 28  13  14  1   
 29  14  15  ar  
 30  14  16  ar  
 31  15  17  ar  
 32  16  18  ar  
 33  16  19  1   
 34  17  20  ar  
 35  17  21  1   
 36  18  20  ar  
 37  18  22  1   
 38  19  37  1   
 39  19  38  1   
 40  19  39  1   
 41  20  40  1   
 42  21  41  1   
 43  21  42  1   
 44  22  23  1   
 45  22  43  1   
 46  22  44  1   
 47  23  45  1   
 48  23  46  1   
 49  23  47  1   
@<TRIPOS>SUBSTRUCTURE
  1 ****  13 GROUP 4 **** **** 0

# MOE 2024.06 (io_trps.svl 2023.06)
