@<TRIPOS>MOLECULE
NONAME
43 43 1 0 0 
SMALL
USER_CHARGES


@<TRIPOS>ATOM
  1 S       -0.3890    -1.0240     0.5070 S.3   1 <1>  -0.0800 
  2 C        0.0060     0.3280    -0.5290 C.2   1 <1>   0.1980 
  3 C       -1.8670    -0.2210     0.9590 C.2   1 <1>  -0.1400 
  4 N       -0.8640     1.2580    -0.5190 N.2   1 <1>  -0.5650 
  5 C        1.3110     0.2300    -1.3000 C.3   1 <1>   0.0200 
  6 C       -1.9250     0.9580     0.3170 C.2   1 <1>   0.0460 
  7 C       -2.7790    -0.9410     1.9290 C.3   1 <1>   0.3200 
  8 C        1.5770     1.4580    -2.1860 C.3   1 <1>  -0.1600 
  9 C       -3.0200     2.0000     0.3940 C.3   1 <1>  -0.0590 
 10 N       -3.2200    -2.1910     1.2950 N.am  1 <1>  -0.7300 
 11 C        2.8990     1.3310    -2.9510 C.3   1 <1>  -0.2400 
 12 C       -3.5750    -3.3160     1.9670 C.2   1 <1>   0.5690 
 13 O       -3.7040    -3.3050     3.1860 O.2   1 <1>  -0.5700 
 14 C       -3.7960    -4.6280     1.1700 C.3   1 <1>   0.2810 
 15 N       -3.0290    -4.6910    -0.0830 N.am  1 <1>  -0.7300 
 16 C       -5.2880    -4.8090     0.8390 C.3   1 <1>  -0.1600 
 17 C       -1.7130    -4.7910    -0.2180 C.2   1 <1>   0.5690 
 18 C       -5.6150    -6.1490     0.1590 C.3   1 <1>  -0.2400 
 19 O       -1.2380    -4.7870    -1.3390 O.2   1 <1>  -0.5700 
 20 C       -0.8150    -4.9080     1.0020 C.3   1 <1>  -0.1790 
 21 H        1.2760    -0.6520    -1.9130 H     1 <1>   0.0800 
 22 H        2.1150     0.1170    -0.5950 H     1 <1>   0.0800 
 23 H       -3.6390    -0.3380     2.1620 H     1 <1>   0.0800 
 24 H       -2.2510    -1.1570     2.8430 H     1 <1>   0.0800 
 25 H        1.6020     2.3400    -1.5690 H     1 <1>   0.0800 
 26 H        0.7660     1.5700    -2.8860 H     1 <1>   0.0800 
 27 H       -3.8070     1.6900     1.0550 H     1 <1>   0.0800 
 28 H       -3.4310     2.1600    -0.5870 H     1 <1>   0.0800 
 29 H       -2.6090     2.9260     0.7500 H     1 <1>   0.0800 
 30 H       -3.0090    -2.2550     0.2950 H     1 <1>   0.3700 
 31 H        3.7240     1.2430    -2.2670 H     1 <1>   0.0800 
 32 H        3.0540     2.2030    -3.5620 H     1 <1>   0.0800 
 33 H        2.8820     0.4650    -3.5910 H     1 <1>   0.0800 
 34 H       -3.4930    -5.4530     1.8170 H     1 <1>   0.0800 
 35 H       -3.5390    -4.6710    -0.9500 H     1 <1>   0.3700 
 36 H       -5.6190    -3.9930     0.2200 H     1 <1>   0.0800 
 37 H       -5.8420    -4.7540     1.7600 H     1 <1>   0.0800 
 38 H       -5.1390    -6.2250    -0.8040 H     1 <1>   0.0800 
 39 H       -6.6780    -6.2370     0.0160 H     1 <1>   0.0800 
 40 H       -5.2860    -6.9710     0.7700 H     1 <1>   0.0800 
 41 H       -1.1180    -5.7650     1.6000 H     1 <1>   0.0800 
 42 H       -0.8790    -3.9990     1.5970 H     1 <1>   0.0800 
 43 H        0.2140    -5.0460     0.6720 H     1 <1>   0.0800 
@<TRIPOS>BOND
  1   1   2  1   
  2   1   3  1   
  3   2   4  2   
  4   2   5  1   
  5   3   6  2   
  6   3   7  1   
  7   4   6  1   
  8   5   8  1   
  9   5  21  1   
 10   5  22  1   
 11   6   9  1   
 12   7  10  1   
 13   7  23  1   
 14   7  24  1   
 15   8  11  1   
 16   8  25  1   
 17   8  26  1   
 18   9  27  1   
 19   9  28  1   
 20   9  29  1   
 21  10  12  am  
 22  10  30  1   
 23  11  31  1   
 24  11  32  1   
 25  11  33  1   
 26  12  13  2   
 27  12  14  1   
 28  14  15  1   
 29  14  16  1   
 30  14  34  1   
 31  15  17  am  
 32  15  35  1   
 33  16  18  1   
 34  16  36  1   
 35  16  37  1   
 36  17  19  2   
 37  17  20  1   
 38  18  38  1   
 39  18  39  1   
 40  18  40  1   
 41  20  41  1   
 42  20  42  1   
 43  20  43  1   
@<TRIPOS>SUBSTRUCTURE
  1 ****   1 GROUP 4 **** **** 0

# MOE 2024.06 (io_trps.svl 2023.06)
