@<TRIPOS>MOLECULE
NONAME
54 56 1 0 0 
SMALL
USER_CHARGES


@<TRIPOS>ATOM
  1 O       -1.2860    -3.9640     0.9620 O.2   1 <1>  -0.5700 
  2 C       -0.0860    -3.7120     0.9550 C.2   1 <1>   0.7670 
  3 N        0.6260    -4.1360     2.0370 N.2   1 <1>  -0.6610 
  4 C        0.5350    -3.0320    -0.1410 C.2   1 <1>  -0.1240 
  5 C        1.8810    -3.8910     2.0460 C.2   1 <1>   0.4390 
  6 C        1.8770    -2.8180    -0.0870 C.2   1 <1>  -0.0380 
  7 C       -0.3670    -2.6100    -1.3100 C.3   1 <1>   0.0390 
  8 N        2.5270    -3.2480     1.0370 N.pl3 1 <1>  -0.5500 
  9 C        2.7220    -4.3280     3.2200 C.3   1 <1>  -0.1790 
 10 C        2.7650    -2.1650    -1.1350 C.3   1 <1>  -0.1020 
 11 C       -0.8990    -3.8350    -2.0470 C.2   1 <1>   0.5690 
 12 O       -0.0760    -4.4900    -2.6390 O.2   1 <1>  -0.5700 
 13 N       -2.2190    -4.2350    -2.0270 N.am  1 <1>  -0.6600 
 14 C       -3.3520    -3.6110    -1.2560 C.3   1 <1>   0.1400 
 15 C       -2.5610    -5.6180    -2.4740 C.3   1 <1>   0.1400 
 16 C       -4.0090    -4.5950    -0.2460 C.3   1 <1>   0.4230 
 17 C       -2.7310    -6.5380    -1.2460 C.3   1 <1>   0.3430 
 18 N       -3.1450    -5.8030     0.0130 N.4   1 <1>  -0.9590 
 19 C       -5.4280    -5.0400    -0.6620 C.3   1 <1>   0.1200 
 20 C       -3.7860    -6.6500     1.0630 C.3   1 <1>   0.4230 
 21 O       -5.9800    -5.8790     0.3170 O.3   1 <1>  -0.5600 
 22 C       -5.2320    -7.0230     0.6440 C.3   1 <1>   0.1200 
 23 C       -2.9080    -7.8710     1.3790 C.3   1 <1>  -0.1600 
 24 C       -3.3510    -8.5970     2.6590 C.3   1 <1>  -0.1600 
 25 C       -2.4040    -9.7550     2.9840 C.3   1 <1>  -0.2400 
 26 H        0.1680    -2.0170    -2.0220 H     1 <1>   0.0800 
 27 H       -1.1530    -1.9850    -0.9430 H     1 <1>   0.0800 
 28 H        3.5360    -3.1050     1.1290 H     1 <1>   0.4000 
 29 H        3.1830    -3.4730     3.6790 H     1 <1>   0.0800 
 30 H        3.4820    -5.0130     2.8920 H     1 <1>   0.0800 
 31 H        2.1080    -4.8210     3.9520 H     1 <1>   0.0800 
 32 H        3.6680    -2.7370    -1.2560 H     1 <1>   0.0800 
 33 H        3.0270    -1.1690    -0.8240 H     1 <1>   0.0800 
 34 H        2.2950    -2.1150    -2.0980 H     1 <1>   0.0800 
 35 H       -3.0170    -2.7590    -0.6980 H     1 <1>   0.0800 
 36 H       -4.0920    -3.2510    -1.9500 H     1 <1>   0.0800 
 37 H       -3.4760    -5.5900    -3.0380 H     1 <1>   0.0800 
 38 H       -1.8050    -6.0240    -3.1250 H     1 <1>   0.0800 
 39 H       -4.1230    -4.0540     0.6790 H     1 <1>   0.0800 
 40 H       -1.7930    -7.0370    -1.0640 H     1 <1>   0.0800 
 41 H       -3.4560    -7.2960    -1.4870 H     1 <1>   0.0800 
 42 H       -2.2790    -5.3880     0.4190 H     1 <1>   0.4500 
 43 H       -5.4210    -5.5640    -1.6010 H     1 <1>   0.0800 
 44 H       -6.0740    -4.1840    -0.7520 H     1 <1>   0.0800 
 45 H       -3.8580    -6.0660     1.9670 H     1 <1>   0.0800 
 46 H       -5.7390    -7.5110     1.4560 H     1 <1>   0.0800 
 47 H       -5.2320    -7.6870    -0.2030 H     1 <1>   0.0800 
 48 H       -2.9310    -8.5710     0.5620 H     1 <1>   0.0800 
 49 H       -1.8940    -7.5390     1.5190 H     1 <1>   0.0800 
 50 H       -3.3540    -7.9080     3.4890 H     1 <1>   0.0800 
 51 H       -4.3470    -8.9910     2.5480 H     1 <1>   0.0800 
 52 H       -1.4010    -9.3940     3.1410 H     1 <1>   0.0800 
 53 H       -2.3920   -10.4750     2.1850 H     1 <1>   0.0800 
 54 H       -2.7260   -10.2520     3.8830 H     1 <1>   0.0800 
@<TRIPOS>BOND
  1   1   2  2   
  2   2   3  1   
  3   2   4  1   
  4   3   5  2   
  5   4   6  2   
  6   4   7  1   
  7   5   8  1   
  8   5   9  1   
  9   6   8  1   
 10   6  10  1   
 11   7  11  1   
 12   7  26  1   
 13   7  27  1   
 14   8  28  1   
 15   9  29  1   
 16   9  30  1   
 17   9  31  1   
 18  10  32  1   
 19  10  33  1   
 20  10  34  1   
 21  11  12  2   
 22  11  13  am  
 23  13  14  1   
 24  13  15  1   
 25  14  16  1   
 26  14  35  1   
 27  14  36  1   
 28  15  17  1   
 29  15  37  1   
 30  15  38  1   
 31  16  18  1   
 32  16  19  1   
 33  16  39  1   
 34  17  18  1   
 35  17  40  1   
 36  17  41  1   
 37  18  20  1   
 38  18  42  1   
 39  19  21  1   
 40  19  43  1   
 41  19  44  1   
 42  20  22  1   
 43  20  23  1   
 44  20  45  1   
 45  21  22  1   
 46  22  46  1   
 47  22  47  1   
 48  23  24  1   
 49  23  48  1   
 50  23  49  1   
 51  24  25  1   
 52  24  50  1   
 53  24  51  1   
 54  25  52  1   
 55  25  53  1   
 56  25  54  1   
@<TRIPOS>SUBSTRUCTURE
  1 ****   1 GROUP 4 **** **** 0

# MOE 2024.06 (io_trps.svl 2023.06)
