@<TRIPOS>MOLECULE
NONAME
60 63 1 0 0 
SMALL
USER_CHARGES


@<TRIPOS>ATOM
  1 F       -1.9930    -3.5190    -1.8490 F     1 <1>  -0.1900 
  2 C       -0.8690    -4.1810    -1.7780 C.ar  1 <1>   0.1900 
  3 C       -0.0130    -3.9710    -0.7070 C.ar  1 <1>  -0.1440 
  4 C       -0.5870    -5.0800    -2.7900 C.ar  1 <1>  -0.1500 
  5 C        1.1590    -4.7120    -0.6620 C.ar  1 <1>  -0.1500 
  6 C       -0.3250    -2.9640     0.3960 C.3   1 <1>   0.2640 
  7 C        0.5880    -5.8090    -2.7290 C.ar  1 <1>  -0.1500 
  8 C        1.4560    -5.6240    -1.6640 C.ar  1 <1>  -0.1500 
  9 O       -0.4210    -3.6470     1.6280 O.3   1 <1>  -0.3620 
 10 C       -1.5670    -4.3370     1.8250 C.ar  1 <1>   0.0830 
 11 C       -2.7510    -3.7020     2.2030 C.ar  1 <1>   0.0830 
 12 C       -1.5330    -5.7040     1.6230 C.ar  1 <1>  -0.1500 
 13 O       -2.7370    -2.3490     2.3660 O.3   1 <1>  -0.3620 
 14 C       -3.8940    -4.4740     2.3840 C.ar  1 <1>  -0.1500 
 15 C       -2.6860    -6.4600     1.7630 C.ar  1 <1>  -0.1430 
 16 C       -3.9280    -1.6340     2.6110 C.3   1 <1>   0.0400 
 17 C       -3.8610    -5.8410     2.1650 C.ar  1 <1>  -0.1500 
 18 C       -2.6540    -7.9340     1.4390 C.3   1 <1>   0.4860 
 19 N       -2.4020    -8.0970    -0.0290 N.4   1 <1>  -0.9590 
 20 C       -3.5610    -7.9310    -0.9630 C.3   1 <1>   0.4230 
 21 C       -1.7120    -9.3940    -0.2880 C.3   1 <1>   0.2630 
 22 C       -4.8970    -8.4810    -0.4800 C.3   1 <1>  -0.1600 
 23 C       -3.8520    -6.4820    -1.3310 C.3   1 <1>  -0.1600 
 24 C       -5.9290    -7.8230    -1.4090 C.3   1 <1>  -0.0800 
 25 C       -5.3110    -6.4600    -1.8220 C.3   1 <1>  -0.0800 
 26 C       -7.3240    -7.7310    -0.7590 C.3   1 <1>   0.1400 
 27 C       -6.0760    -5.2230    -1.2900 C.3   1 <1>  -0.0990 
 28 N       -7.3110    -6.6660     0.2620 N.am  1 <1>  -0.7300 
 29 C       -6.7240    -5.4690     0.0580 C.2   1 <1>   0.5690 
 30 O       -6.7230    -4.6200     0.9120 O.2   1 <1>  -0.5700 
 31 H       -1.2690    -5.1950    -3.6130 H     1 <1>   0.1500 
 32 H        1.8470    -4.5740     0.1560 H     1 <1>   0.1500 
 33 H       -1.2440    -2.4310     0.2210 H     1 <1>   0.0800 
 34 H        0.4740    -2.2500     0.4840 H     1 <1>   0.0800 
 35 H        0.8350    -6.5070    -3.5110 H     1 <1>   0.1500 
 36 H        2.3760    -6.1840    -1.6180 H     1 <1>   0.1500 
 37 H       -0.5950    -6.1480     1.3440 H     1 <1>   0.1500 
 38 H       -4.8270    -4.0320     2.6830 H     1 <1>   0.1500 
 39 H       -3.6900    -0.5860     2.6370 H     1 <1>   0.0800 
 40 H       -4.3300    -1.9400     3.5610 H     1 <1>   0.0800 
 41 H       -4.6260    -1.8310     1.8160 H     1 <1>   0.0800 
 42 H       -4.7720    -6.4010     2.2990 H     1 <1>   0.1500 
 43 H       -3.5710    -8.4130     1.7370 H     1 <1>   0.0800 
 44 H       -1.8490    -8.3810     2.0000 H     1 <1>   0.0800 
 45 H       -1.7540    -7.3290    -0.2630 H     1 <1>   0.4500 
 46 H       -3.3280    -8.4330    -1.8890 H     1 <1>   0.0800 
 47 H       -2.3620   -10.2190    -0.0480 H     1 <1>   0.0800 
 48 H       -0.8190    -9.4700     0.3130 H     1 <1>   0.0800 
 49 H       -1.4300    -9.4670    -1.3260 H     1 <1>   0.0800 
 50 H       -4.9390    -9.5530    -0.5460 H     1 <1>   0.0800 
 51 H       -5.1050    -8.1680     0.5260 H     1 <1>   0.0800 
 52 H       -3.7500    -5.8330    -0.4840 H     1 <1>   0.0800 
 53 H       -3.1910    -6.1420    -2.1060 H     1 <1>   0.0800 
 54 H       -6.0150    -8.4350    -2.2920 H     1 <1>   0.0800 
 55 H       -5.3020    -6.4010    -2.8990 H     1 <1>   0.0800 
 56 H       -7.5920    -8.6710    -0.3050 H     1 <1>   0.0800 
 57 H       -8.0640    -7.4900    -1.5040 H     1 <1>   0.0800 
 58 H       -6.8670    -4.9780    -1.9750 H     1 <1>   0.0800 
 59 H       -5.4300    -4.3650    -1.2300 H     1 <1>   0.0800 
 60 H       -7.8800    -6.7770     1.1060 H     1 <1>   0.3700 
@<TRIPOS>BOND
  1   1   2  1   
  2   2   3  ar  
  3   2   4  ar  
  4   3   5  ar  
  5   3   6  1   
  6   4   7  ar  
  7   4  31  1   
  8   5   8  ar  
  9   5  32  1   
 10   6   9  1   
 11   6  33  1   
 12   6  34  1   
 13   7   8  ar  
 14   7  35  1   
 15   8  36  1   
 16   9  10  1   
 17  10  11  ar  
 18  10  12  ar  
 19  11  13  1   
 20  11  14  ar  
 21  12  15  ar  
 22  12  37  1   
 23  13  16  1   
 24  14  17  ar  
 25  14  38  1   
 26  15  17  ar  
 27  15  18  1   
 28  16  39  1   
 29  16  40  1   
 30  16  41  1   
 31  17  42  1   
 32  18  19  1   
 33  18  43  1   
 34  18  44  1   
 35  19  20  1   
 36  19  21  1   
 37  19  45  1   
 38  20  22  1   
 39  20  23  1   
 40  20  46  1   
 41  21  47  1   
 42  21  48  1   
 43  21  49  1   
 44  22  24  1   
 45  22  50  1   
 46  22  51  1   
 47  23  25  1   
 48  23  52  1   
 49  23  53  1   
 50  24  25  1   
 51  24  26  1   
 52  24  54  1   
 53  25  27  1   
 54  25  55  1   
 55  26  28  1   
 56  26  56  1   
 57  26  57  1   
 58  27  29  1   
 59  27  58  1   
 60  27  59  1   
 61  28  29  am  
 62  28  60  1   
 63  29  30  2   
@<TRIPOS>SUBSTRUCTURE
  1 ****  23 GROUP 4 **** **** 0

# MOE 2024.06 (io_trps.svl 2023.06)
