@<TRIPOS>MOLECULE
NONAME
49 52 1 0 0 
SMALL
USER_CHARGES


@<TRIPOS>ATOM
  1 S        0.0200    -0.2760     1.4450 S.3   1 <1>  -0.0800 
  2 C       -0.7850     1.0770     0.6150 C.2   1 <1>  -0.0450 
  3 C       -0.9830    -1.4820     0.6480 C.ar  1 <1>   0.0400 
  4 C       -1.7550     0.5750    -0.2000 C.2   1 <1>  -0.1810 
  5 C       -0.3210     2.4110     0.9290 C.2   1 <1>   0.7150 
  6 C       -1.8830    -0.8580    -0.2000 C.ar  1 <1>   0.0000 
  7 C       -0.9080    -2.8510     0.8200 C.ar  1 <1>  -0.1500 
  8 C       -2.6890     1.3880    -1.0860 C.3   1 <1>  -0.0590 
  9 O       -1.0060     3.3930     0.7070 O.2   1 <1>  -0.5700 
 10 N        0.9410     2.6420     1.4320 N.am  1 <1>  -0.6600 
 11 C       -2.7590    -1.6780    -0.9130 C.ar  1 <1>  -0.1500 
 12 C       -1.7860    -3.6420     0.1010 C.ar  1 <1>  -0.1500 
 13 C        2.1480     2.1570     0.7280 C.3   1 <1>   0.1400 
 14 C        1.3050     3.8950     2.1380 C.3   1 <1>   0.1400 
 15 C       -2.7060    -3.0530    -0.7610 C.ar  1 <1>  -0.1500 
 16 C        2.8570     3.4420     0.2960 C.3   1 <1>   0.2000 
 17 C        2.4290     4.5370     1.3050 C.3   1 <1>   0.4230 
 18 O        4.2410     3.3080     0.3120 O.3   1 <1>  -0.6800 
 19 N        2.0410     5.8460     0.6520 N.4   1 <1>  -0.9590 
 20 C        0.8100     5.7540    -0.2000 C.3   1 <1>   0.3430 
 21 C        3.2050     6.4140    -0.0940 C.3   1 <1>   0.3430 
 22 C        0.4370     7.1410    -0.7260 C.3   1 <1>  -0.1600 
 23 C        2.8620     7.8120    -0.6090 C.3   1 <1>  -0.1600 
 24 C        1.5990     7.8020    -1.4780 C.3   1 <1>  -0.1600 
 25 H       -0.1890    -3.2800     1.4940 H     1 <1>   0.1500 
 26 H       -2.5930     1.0700    -2.1090 H     1 <1>   0.0800 
 27 H       -2.4740     2.4380    -1.0420 H     1 <1>   0.0800 
 28 H       -3.7070     1.2400    -0.7720 H     1 <1>   0.0800 
 29 H       -3.4780    -1.2410    -1.5810 H     1 <1>   0.1500 
 30 H       -1.7590    -4.7120     0.2070 H     1 <1>   0.1500 
 31 H        2.7530     1.5910     1.4180 H     1 <1>   0.0800 
 32 H        1.8870     1.5480    -0.1210 H     1 <1>   0.0800 
 33 H        0.4600     4.5470     2.2710 H     1 <1>   0.0800 
 34 H        1.6890     3.6310     3.1090 H     1 <1>   0.0800 
 35 H       -3.3850    -3.6780    -1.3150 H     1 <1>   0.1500 
 36 H        2.5550     3.6910    -0.7060 H     1 <1>   0.0800 
 37 H        3.2570     4.7170     1.9690 H     1 <1>   0.0800 
 38 H        4.5410     2.5730    -0.2650 H     1 <1>   0.4000 
 39 H        1.8220     6.5160     1.4000 H     1 <1>   0.4500 
 40 H        0.9800     5.0890    -1.0300 H     1 <1>   0.0800 
 41 H       -0.0160     5.3700     0.3750 H     1 <1>   0.0800 
 42 H        4.0680     6.4690     0.5500 H     1 <1>   0.0800 
 43 H        3.4520     5.7770    -0.9280 H     1 <1>   0.0800 
 44 H       -0.4080     7.0470    -1.3870 H     1 <1>   0.0800 
 45 H        0.1300     7.7630     0.0960 H     1 <1>   0.0800 
 46 H        2.7300     8.4800     0.2250 H     1 <1>   0.0800 
 47 H        3.6890     8.1850    -1.1890 H     1 <1>   0.0800 
 48 H        1.3320     8.8100    -1.7490 H     1 <1>   0.0800 
 49 H        1.7920     7.2590    -2.3890 H     1 <1>   0.0800 
@<TRIPOS>BOND
  1   1   2  1   
  2   1   3  1   
  3   2   4  2   
  4   2   5  1   
  5   3   6  ar  
  6   3   7  ar  
  7   4   6  1   
  8   4   8  1   
  9   5   9  2   
 10   5  10  am  
 11   6  11  ar  
 12   7  12  ar  
 13   7  25  1   
 14   8  26  1   
 15   8  27  1   
 16   8  28  1   
 17  10  13  1   
 18  10  14  1   
 19  11  15  ar  
 20  11  29  1   
 21  12  15  ar  
 22  12  30  1   
 23  13  16  1   
 24  13  31  1   
 25  13  32  1   
 26  14  17  1   
 27  14  33  1   
 28  14  34  1   
 29  15  35  1   
 30  16  17  1   
 31  16  18  1   
 32  16  36  1   
 33  17  19  1   
 34  17  37  1   
 35  18  38  1   
 36  19  20  1   
 37  19  21  1   
 38  19  39  1   
 39  20  22  1   
 40  20  40  1   
 41  20  41  1   
 42  21  23  1   
 43  21  42  1   
 44  21  43  1   
 45  22  24  1   
 46  22  44  1   
 47  22  45  1   
 48  23  24  1   
 49  23  46  1   
 50  23  47  1   
 51  24  48  1   
 52  24  49  1   
@<TRIPOS>SUBSTRUCTURE
  1 ****   5 GROUP 4 **** **** 0

# MOE 2024.06 (io_trps.svl 2023.06)
