@<TRIPOS>MOLECULE
NONAME
38 40 1 0 0 
SMALL
USER_CHARGES


@<TRIPOS>ATOM
  1 F       -1.1270     0.2580    -1.4530 F     1 <1>  -0.1900 
  2 C       -1.8380     0.8770    -0.5510 C.ar  1 <1>   0.1900 
  3 C       -2.6620     0.1520     0.3230 C.ar  1 <1>   0.3960 
  4 C       -1.7470     2.2520    -0.5240 C.ar  1 <1>  -0.1500 
  5 N       -3.4420     0.7960     1.2250 N.ar  1 <1>  -0.6200 
  6 C       -2.6810    -1.3070     0.2560 C.2   1 <1>   0.5440 
  7 C       -2.5390     2.8600     0.4190 C.ar  1 <1>   0.1900 
  8 C       -3.3580     2.1180     1.2570 C.ar  1 <1>   0.1600 
  9 O       -1.6390    -1.9360     0.3270 O.2   1 <1>  -0.5700 
 10 N       -3.8500    -2.0290     0.1070 N.am  1 <1>  -0.6600 
 11 F       -2.5230     4.1590     0.5210 F     1 <1>  -0.1900 
 12 C       -5.2150    -1.4600     0.0000 C.3   1 <1>   0.1400 
 13 C       -3.8850    -3.5100     0.0580 C.3   1 <1>   0.1400 
 14 C       -6.1000    -2.6500    -0.3690 C.3   1 <1>   0.2000 
 15 C       -5.3660    -3.8820     0.1580 C.3   1 <1>  -0.0800 
 16 O       -7.3550    -2.5550     0.2100 O.3   1 <1>  -0.6800 
 17 C       -5.7310    -5.1650    -0.6050 C.3   1 <1>   0.0200 
 18 C       -4.9350    -6.3500    -0.0950 C.2   1 <1>  -0.0400 
 19 O       -5.1030    -6.7740     1.1290 O.3   1 <1>  -0.0190 
 20 C       -4.0080    -7.1260    -0.6760 C.2   1 <1>  -0.1500 
 21 N       -4.3380    -7.7910     1.3990 N.2   1 <1>  -0.4100 
 22 C       -3.6660    -8.0250     0.3300 C.2   1 <1>   0.1080 
 23 C       -2.6430    -9.1310     0.1930 C.3   1 <1>  -0.0590 
 24 H       -1.1110     2.8040    -1.1900 H     1 <1>   0.1500 
 25 H       -3.9630     2.6440     1.9770 H     1 <1>   0.1500 
 26 H       -5.5010    -1.0500     0.9540 H     1 <1>   0.0800 
 27 H       -5.2530    -0.7010    -0.7600 H     1 <1>   0.0800 
 28 H       -3.4620    -3.8360    -0.8770 H     1 <1>   0.0800 
 29 H       -3.3170    -3.9340     0.8700 H     1 <1>   0.0800 
 30 H       -6.2210    -2.6920    -1.4380 H     1 <1>   0.0800 
 31 H       -5.5890    -4.0130     1.2030 H     1 <1>   0.0800 
 32 H       -7.2820    -2.5680     1.1840 H     1 <1>   0.4000 
 33 H       -5.5360    -5.0350    -1.6540 H     1 <1>   0.0800 
 34 H       -6.7800    -5.3700    -0.4840 H     1 <1>   0.0800 
 35 H       -3.6010    -7.0920    -1.6700 H     1 <1>   0.1500 
 36 H       -2.9320    -9.8000    -0.5960 H     1 <1>   0.0800 
 37 H       -2.5760    -9.6840     1.1120 H     1 <1>   0.0800 
 38 H       -1.6800    -8.7110    -0.0300 H     1 <1>   0.0800 
@<TRIPOS>BOND
  1   1   2  1   
  2   2   3  ar  
  3   2   4  ar  
  4   3   5  ar  
  5   3   6  1   
  6   4   7  ar  
  7   4  24  1   
  8   5   8  ar  
  9   6   9  2   
 10   6  10  am  
 11   7   8  ar  
 12   7  11  1   
 13   8  25  1   
 14  10  12  1   
 15  10  13  1   
 16  12  14  1   
 17  12  26  1   
 18  12  27  1   
 19  13  15  1   
 20  13  28  1   
 21  13  29  1   
 22  14  15  1   
 23  14  16  1   
 24  14  30  1   
 25  15  17  1   
 26  15  31  1   
 27  16  32  1   
 28  17  18  1   
 29  17  33  1   
 30  17  34  1   
 31  18  19  1   
 32  18  20  2   
 33  19  21  1   
 34  20  22  1   
 35  20  35  1   
 36  21  22  2   
 37  22  23  1   
 38  23  36  1   
 39  23  37  1   
 40  23  38  1   
@<TRIPOS>SUBSTRUCTURE
  1 ****  10 GROUP 4 **** **** 0

# MOE 2024.06 (io_trps.svl 2023.06)
