@<TRIPOS>MOLECULE
NONAME
43 45 1 0 0 
SMALL
USER_CHARGES


@<TRIPOS>ATOM
  1 F       -0.3180    -1.8870    -0.5480 F     1 <1>  -0.1900 
  2 C       -1.5580    -2.0670    -0.1720 C.ar  1 <1>   0.1900 
  3 C       -2.4850    -2.5140    -1.0710 C.ar  1 <1>  -0.1500 
  4 C       -1.8860    -1.7940     1.1500 C.ar  1 <1>  -0.1500 
  5 C       -3.8150    -2.7070    -0.6650 C.ar  1 <1>  -0.1710 
  6 C       -3.1930    -1.9760     1.5500 C.ar  1 <1>  -0.1500 
  7 O       -4.6090    -3.1470    -1.5270 O.3   1 <1>  -0.8290 
  8 C       -4.2020    -2.4190     0.6800 C.ar  1 <1>   0.0860 
  9 C       -5.5390    -2.5510     1.2170 C.2   1 <1>   0.5440 
 10 O       -5.6820    -3.0780     2.3210 O.2   1 <1>  -0.5700 
 11 N       -6.6830    -2.0080     0.6440 N.am  1 <1>  -0.6600 
 12 C       -8.0360    -2.3170     1.1980 C.3   1 <1>   0.1400 
 13 C       -6.6200    -1.2190    -0.6180 C.3   1 <1>   0.1400 
 14 C       -9.1630    -2.2570     0.1370 C.3   1 <1>   0.0000 
 15 C       -7.7670    -0.2090    -0.6620 C.3   1 <1>  -0.1600 
 16 C      -10.5090    -2.5670     0.8250 C.3   1 <1>   0.2000 
 17 C       -9.1570    -0.8680    -0.5610 C.3   1 <1>  -0.1600 
 18 C       -9.0200    -3.4330    -0.8530 C.3   1 <1>  -0.1600 
 19 O      -11.5710    -2.1530     0.0080 O.3   1 <1>  -0.5600 
 20 C      -10.5600    -4.0940     0.9440 C.3   1 <1>  -0.1600 
 21 C       -9.6840    -4.6440    -0.1890 C.3   1 <1>  -0.1600 
 22 C      -12.7600    -1.8810     0.6800 C.3   1 <1>   0.0400 
 23 H       -2.2310    -2.7320    -2.0890 H     1 <1>   0.1500 
 24 H       -1.1280    -1.4520     1.8290 H     1 <1>   0.1500 
 25 H       -3.4660    -1.7740     2.5700 H     1 <1>   0.1500 
 26 H       -8.0110    -3.2950     1.6450 H     1 <1>   0.0800 
 27 H       -8.2410    -1.6050     1.9770 H     1 <1>   0.0800 
 28 H       -5.6760    -0.7070    -0.6830 H     1 <1>   0.0800 
 29 H       -6.6850    -1.8870    -1.4590 H     1 <1>   0.0800 
 30 H       -7.6320     0.4750     0.1580 H     1 <1>   0.0800 
 31 H       -7.7020     0.3590    -1.5720 H     1 <1>   0.0800 
 32 H      -10.5840    -2.0740     1.7790 H     1 <1>   0.0800 
 33 H       -9.5790    -0.9640    -1.5450 H     1 <1>   0.0800 
 34 H       -9.7960    -0.1950    -0.0170 H     1 <1>   0.0800 
 35 H       -9.5540    -3.2100    -1.7600 H     1 <1>   0.0800 
 36 H       -7.9950    -3.6460    -1.1070 H     1 <1>   0.0800 
 37 H      -10.1310    -4.3860     1.8860 H     1 <1>   0.0800 
 38 H      -11.5630    -4.4750     0.8900 H     1 <1>   0.0800 
 39 H       -8.9310    -5.3020     0.2120 H     1 <1>   0.0800 
 40 H      -10.2740    -5.1850    -0.9080 H     1 <1>   0.0800 
 41 H      -13.4990    -1.6070    -0.0510 H     1 <1>   0.0800 
 42 H      -12.6010    -1.0630     1.3600 H     1 <1>   0.0800 
 43 H      -13.0830    -2.7590     1.2110 H     1 <1>   0.0800 
@<TRIPOS>BOND
  1   1   2  1   
  2   2   3  ar  
  3   2   4  ar  
  4   3   5  ar  
  5   3  23  1   
  6   4   6  ar  
  7   4  24  1   
  8   5   7  1   
  9   5   8  ar  
 10   6   8  ar  
 11   6  25  1   
 12   8   9  1   
 13   9  10  2   
 14   9  11  am  
 15  11  12  1   
 16  11  13  1   
 17  12  14  1   
 18  12  26  1   
 19  12  27  1   
 20  13  15  1   
 21  13  28  1   
 22  13  29  1   
 23  14  16  1   
 24  14  17  1   
 25  14  18  1   
 26  15  17  1   
 27  15  30  1   
 28  15  31  1   
 29  16  19  1   
 30  16  20  1   
 31  16  32  1   
 32  17  33  1   
 33  17  34  1   
 34  18  21  1   
 35  18  35  1   
 36  18  36  1   
 37  19  22  1   
 38  20  21  1   
 39  20  37  1   
 40  20  38  1   
 41  21  39  1   
 42  21  40  1   
 43  22  41  1   
 44  22  42  1   
 45  22  43  1   
@<TRIPOS>SUBSTRUCTURE
  1 ****  11 GROUP 4 **** **** 0

# MOE 2024.06 (io_trps.svl 2023.06)
