@<TRIPOS>MOLECULE
NONAME
59 62 1 0 0 
SMALL
USER_CHARGES


@<TRIPOS>ATOM
  1 O        0.4700    -0.4870     1.1500 O.3   1 <1>  -0.5600 
  2 C        1.5940    -0.9660     0.4440 C.3   1 <1>   0.4240 
  3 C       -0.7880    -0.8850     0.7020 C.3   1 <1>   0.1200 
  4 C        1.4100    -2.4400     0.0210 C.ar  1 <1>  -0.1440 
  5 C        2.7720    -0.8280     1.4150 C.3   1 <1>  -0.1600 
  6 C        1.8180    -0.0640    -0.7800 C.3   1 <1>  -0.1600 
  7 C       -0.9320    -2.3880     0.9160 C.3   1 <1>  -0.0160 
  8 C        0.2170    -3.1140     0.2450 C.ar  1 <1>  -0.1440 
  9 C        2.4430    -3.1260    -0.6060 C.ar  1 <1>  -0.1500 
 10 C        3.0400     0.6300     1.7930 C.3   1 <1>   0.2090 
 11 C        2.0520     1.3900    -0.3760 C.3   1 <1>   0.2090 
 12 C        0.0680    -4.4370    -0.1420 C.ar  1 <1>  -0.1500 
 13 C        2.3150    -4.4490    -0.9940 C.ar  1 <1>   0.0830 
 14 N        3.1950     1.4650     0.5700 N.pl3 1 <1>  -0.8380 
 15 C        1.1040    -5.1220    -0.7710 C.ar  1 <1>   0.0830 
 16 O        3.4200    -4.9870    -1.5830 O.3   1 <1>  -0.3630 
 17 C        4.4590     1.7820     0.0950 C.ar  1 <1>   0.4100 
 18 O        0.9550    -6.4150    -1.1870 O.3   1 <1>  -0.3630 
 19 C        3.7700    -6.3350    -1.3590 C.3   1 <1>   0.0400 
 20 N        5.2970     0.7600     0.0160 N.ar  1 <1>  -0.6200 
 21 C        4.8020     3.0890    -0.2760 C.ar  1 <1>   0.0730 
 22 C       -0.2900    -7.0780    -1.1470 C.3   1 <1>   0.0400 
 23 C        6.5090     1.0050    -0.4330 C.ar  1 <1>   0.1660 
 24 C        3.8200     4.1240    -0.1360 C.1   1 <1>   0.4840 
 25 C        6.0830     3.3400    -0.7590 C.ar  1 <1>  -0.1430 
 26 C        6.9640     2.2660    -0.8180 C.ar  1 <1>  -0.1430 
 27 C        7.3940    -0.2280    -0.5060 C.3   1 <1>  -0.0970 
 28 N        3.0640     4.9770    -0.0700 N.1   1 <1>  -0.5570 
 29 C        6.5140     4.7430    -1.2040 C.3   1 <1>  -0.0970 
 30 C        8.4040     2.4720    -1.2990 C.3   1 <1>  -0.0970 
 31 H       -0.8930    -0.6280    -0.3370 H     1 <1>   0.0800 
 32 H       -1.5250    -0.3500     1.2750 H     1 <1>   0.0800 
 33 H        3.6650    -1.2220     0.9690 H     1 <1>   0.0800 
 34 H        2.5730    -1.4040     2.2980 H     1 <1>   0.0800 
 35 H        0.9840    -0.1320    -1.4510 H     1 <1>   0.0800 
 36 H        2.6860    -0.4010    -1.3170 H     1 <1>   0.0800 
 37 H       -1.8710    -2.7140     0.5070 H     1 <1>   0.0800 
 38 H       -0.9290    -2.6010     1.9700 H     1 <1>   0.0800 
 39 H        3.3800    -2.6370    -0.8050 H     1 <1>   0.1500 
 40 H        3.9340     0.6920     2.3900 H     1 <1>   0.0800 
 41 H        2.2190     1.0130     2.3760 H     1 <1>   0.0800 
 42 H        1.1740     1.7920     0.0990 H     1 <1>   0.0800 
 43 H        2.2600     1.9780    -1.2540 H     1 <1>   0.0800 
 44 H       -0.8690    -4.9180     0.0560 H     1 <1>   0.1500 
 45 H        4.8200    -6.4460    -1.5610 H     1 <1>   0.0800 
 46 H        3.2040    -6.9550    -2.0300 H     1 <1>   0.0800 
 47 H        3.5610    -6.5880    -0.3350 H     1 <1>   0.0800 
 48 H       -0.1650    -8.0480    -1.5920 H     1 <1>   0.0800 
 49 H       -1.0080    -6.5080    -1.7100 H     1 <1>   0.0800 
 50 H       -0.5960    -7.1840    -0.1210 H     1 <1>   0.0800 
 51 H        6.8030    -1.1200    -0.3930 H     1 <1>   0.0800 
 52 H        8.1200    -0.2010     0.2850 H     1 <1>   0.0800 
 53 H        7.8920    -0.2790    -1.4560 H     1 <1>   0.0800 
 54 H        5.6780     5.3850    -1.4160 H     1 <1>   0.0800 
 55 H        7.0970     4.6910    -2.1050 H     1 <1>   0.0800 
 56 H        7.1050     5.2040    -0.4330 H     1 <1>   0.0800 
 57 H        9.0680     1.7170    -0.9210 H     1 <1>   0.0800 
 58 H        8.7930     3.4140    -0.9580 H     1 <1>   0.0800 
 59 H        8.4350     2.4500    -2.3730 H     1 <1>   0.0800 
@<TRIPOS>BOND
  1   1   2  1   
  2   1   3  1   
  3   2   4  1   
  4   2   5  1   
  5   2   6  1   
  6   3   7  1   
  7   3  31  1   
  8   3  32  1   
  9   4   8  ar  
 10   4   9  ar  
 11   5  10  1   
 12   5  33  1   
 13   5  34  1   
 14   6  11  1   
 15   6  35  1   
 16   6  36  1   
 17   7   8  1   
 18   7  37  1   
 19   7  38  1   
 20   8  12  ar  
 21   9  13  ar  
 22   9  39  1   
 23  10  14  1   
 24  10  40  1   
 25  10  41  1   
 26  11  14  1   
 27  11  42  1   
 28  11  43  1   
 29  12  15  ar  
 30  12  44  1   
 31  13  15  ar  
 32  13  16  1   
 33  14  17  1   
 34  15  18  1   
 35  16  19  1   
 36  17  20  ar  
 37  17  21  ar  
 38  18  22  1   
 39  19  45  1   
 40  19  46  1   
 41  19  47  1   
 42  20  23  ar  
 43  21  24  1   
 44  21  25  ar  
 45  22  48  1   
 46  22  49  1   
 47  22  50  1   
 48  23  26  ar  
 49  23  27  1   
 50  24  28  3   
 51  25  26  ar  
 52  25  29  1   
 53  26  30  1   
 54  27  51  1   
 55  27  52  1   
 56  27  53  1   
 57  29  54  1   
 58  29  55  1   
 59  29  56  1   
 60  30  57  1   
 61  30  58  1   
 62  30  59  1   
@<TRIPOS>SUBSTRUCTURE
  1 ****   6 GROUP 4 **** **** 0

# MOE 2024.06 (io_trps.svl 2023.06)
