@<TRIPOS>MOLECULE
NONAME
53 55 1 0 0 
SMALL
USER_CHARGES


@<TRIPOS>ATOM
  1 O        1.2190    -2.1710     0.8540 O.co2 1 <1>  -0.9000 
  2 C        1.0030    -0.9500     0.8990 C.2   1 <1>   0.9060 
  3 O        0.0270    -0.4960     1.5060 O.co2 1 <1>  -0.9000 
  4 C        1.9710     0.0310     0.2090 C.3   1 <1>  -0.1060 
  5 C        3.0570    -0.7380    -0.5950 C.3   1 <1>   0.2000 
  6 C        2.6960     0.8610     1.3180 C.3   1 <1>  -0.1600 
  7 C        1.1280     0.8720    -0.8140 C.3   1 <1>  -0.0160 
  8 O        3.6890    -1.6580     0.2300 O.3   1 <1>  -0.6800 
  9 C        4.1370     0.2030    -1.1900 C.3   1 <1>   0.1100 
 10 C        4.1370     1.2720     0.9890 C.3   1 <1>   0.1100 
 11 C        1.0120     2.3830    -0.6200 C.ar  1 <1>  -0.1430 
 12 N        4.2910     1.4900    -0.4580 N.3   1 <1>  -0.8100 
 13 C        0.1870     2.8870     0.3720 C.ar  1 <1>  -0.1500 
 14 C        1.6770     3.2620    -1.4610 C.ar  1 <1>  -0.1500 
 15 C        5.5540     2.1840    -0.7960 C.3   1 <1>   0.2540 
 16 C        0.0260     4.2530     0.5230 C.ar  1 <1>  -0.1500 
 17 C        1.5090     4.6290    -1.3210 C.ar  1 <1>  -0.1500 
 18 C        5.5470     3.6650    -0.3720 C.cat 1 <1>   0.6560 
 19 C        0.6820     5.1250    -0.3280 C.ar  1 <1>  -0.1500 
 20 N        4.4400     4.3120    -0.0550 N.pl3 1 <1>  -0.7000 
 21 N        6.5960     4.4850    -0.2510 N.pl3 1 <1>  -0.7640 
 22 C        4.7640     5.5840     0.3040 C.2   1 <1>   0.1820 
 23 C        6.1070     5.6990     0.1800 C.2   1 <1>   0.1820 
 24 C        8.0320     4.1830    -0.5070 C.3   1 <1>   0.2740 
 25 C        3.6990     6.5660     0.7480 C.3   1 <1>  -0.0720 
 26 C        7.0100     6.8920     0.4420 C.3   1 <1>  -0.0720 
 27 H        2.5970    -1.3130    -1.3800 H     1 <1>   0.0800 
 28 H        2.7530     0.2530     2.2050 H     1 <1>   0.0800 
 29 H        2.1230     1.7170     1.6080 H     1 <1>   0.0800 
 30 H        1.4860     0.7010    -1.8110 H     1 <1>   0.0800 
 31 H        0.1200     0.4920    -0.8290 H     1 <1>   0.0800 
 32 H        2.9350    -2.1660     0.6530 H     1 <1>   0.4000 
 33 H        3.8590     0.4310    -2.2040 H     1 <1>   0.0800 
 34 H        5.0730    -0.3290    -1.2180 H     1 <1>   0.0800 
 35 H        4.8080     0.4880     1.3030 H     1 <1>   0.0800 
 36 H        4.3780     2.1580     1.5500 H     1 <1>   0.0800 
 37 H       -0.3330     2.2000     1.0230 H     1 <1>   0.1500 
 38 H        2.3150     2.8750    -2.2360 H     1 <1>   0.1500 
 39 H        6.3770     1.6760    -0.3260 H     1 <1>   0.0800 
 40 H        5.6970     2.1510    -1.8610 H     1 <1>   0.0800 
 41 H       -0.6200     4.6280     1.2980 H     1 <1>   0.1500 
 42 H        2.0110     5.3020    -1.9930 H     1 <1>   0.1500 
 43 H        0.5390     6.1860    -0.2190 H     1 <1>   0.1500 
 44 H        3.5130     3.8490    -0.0780 H     1 <1>   0.4500 
 45 H        8.4180     4.8540    -1.2560 H     1 <1>   0.0800 
 46 H        8.1570     3.1730    -0.8560 H     1 <1>   0.0800 
 47 H        8.5990     4.3080     0.4000 H     1 <1>   0.0800 
 48 H        4.1410     7.4610     1.1440 H     1 <1>   0.0800 
 49 H        3.0850     6.1190     1.5090 H     1 <1>   0.0800 
 50 H        3.0780     6.8310    -0.0880 H     1 <1>   0.0800 
 51 H        6.4370     7.7420     0.7620 H     1 <1>   0.0800 
 52 H        7.5380     7.1580    -0.4550 H     1 <1>   0.0800 
 53 H        7.7210     6.6530     1.2120 H     1 <1>   0.0800 
@<TRIPOS>BOND
  1   1   2  ar  
  2   2   3  ar  
  3   2   4  1   
  4   4   5  1   
  5   4   6  1   
  6   4   7  1   
  7   5   8  1   
  8   5   9  1   
  9   5  27  1   
 10   6  10  1   
 11   6  28  1   
 12   6  29  1   
 13   7  11  1   
 14   7  30  1   
 15   7  31  1   
 16   8  32  1   
 17   9  12  1   
 18   9  33  1   
 19   9  34  1   
 20  10  12  1   
 21  10  35  1   
 22  10  36  1   
 23  11  13  ar  
 24  11  14  ar  
 25  12  15  1   
 26  13  16  ar  
 27  13  37  1   
 28  14  17  ar  
 29  14  38  1   
 30  15  18  1   
 31  15  39  1   
 32  15  40  1   
 33  16  19  ar  
 34  16  41  1   
 35  17  19  ar  
 36  17  42  1   
 37  18  20  ar  
 38  18  21  ar  
 39  19  43  1   
 40  20  22  1   
 41  20  44  1   
 42  21  23  1   
 43  21  24  1   
 44  22  23  2   
 45  22  25  1   
 46  23  26  1   
 47  24  45  1   
 48  24  46  1   
 49  24  47  1   
 50  25  48  1   
 51  25  49  1   
 52  25  50  1   
 53  26  51  1   
 54  26  52  1   
 55  26  53  1   
@<TRIPOS>SUBSTRUCTURE
  1 ****  12 GROUP 4 **** **** 0

# MOE 2024.06 (io_trps.svl 2023.06)
