@<TRIPOS>MOLECULE
NONAME
49 51 1 0 0 
SMALL
USER_CHARGES


@<TRIPOS>ATOM
  1 O        4.5140     1.0120     1.8750 O.co2 1 <1>  -0.9000 
  2 C        3.6280     0.3120     1.3630 C.2   1 <1>   0.9060 
  3 O        3.6380    -0.9120     1.4930 O.co2 1 <1>  -0.9000 
  4 C        2.6940     0.9260     0.2970 C.3   1 <1>  -0.1060 
  5 C        3.1560     0.2310    -1.0050 C.3   1 <1>   0.2000 
  6 C        2.9440     2.4650     0.1400 C.3   1 <1>  -0.1600 
  7 C        1.2230     0.6270     0.7180 C.3   1 <1>  -0.1600 
  8 O        2.5110     0.7870    -2.1110 O.3   1 <1>  -0.6800 
  9 C        4.6850     0.4250    -1.1910 C.3   1 <1>   0.3430 
 10 C        4.1700     2.8230    -0.7250 C.3   1 <1>   0.3430 
 11 C        0.0990     0.9310    -0.2910 C.3   1 <1>  -0.1600 
 12 N        5.1840     1.7380    -0.6310 N.4   1 <1>  -0.9590 
 13 C       -1.2740     0.7570     0.3650 C.3   1 <1>  -0.2400 
 14 C        6.5640     2.0600    -1.0640 C.3   1 <1>   0.4860 
 15 C        6.9300     3.5120    -0.7980 C.ar  1 <1>  -0.1440 
 16 C        7.1500     3.9800     0.5240 C.ar  1 <1>   0.0000 
 17 C        7.0460     4.3600    -1.8690 C.ar  1 <1>  -0.1500 
 18 C        7.4860     5.3430     0.7040 C.ar  1 <1>   0.0000 
 19 C        7.0470     3.1730     1.6810 C.ar  1 <1>  -0.1500 
 20 C        7.3810     5.7030    -1.6830 C.ar  1 <1>  -0.1500 
 21 C        7.5950     6.1800    -0.4220 C.ar  1 <1>  -0.1500 
 22 C        7.7020     5.8350     2.0080 C.ar  1 <1>  -0.1500 
 23 C        7.2550     3.6790     2.9340 C.ar  1 <1>  -0.1500 
 24 C        7.5890     5.0250     3.1020 C.ar  1 <1>  -0.1500 
 25 H        2.9230    -0.8220    -0.9830 H     1 <1>   0.0800 
 26 H        3.0590     2.9120     1.1120 H     1 <1>   0.0800 
 27 H        2.0970     2.9450    -0.3110 H     1 <1>   0.0800 
 28 H        1.1510    -0.4170     0.9780 H     1 <1>   0.0800 
 29 H        1.0300     1.1760     1.6250 H     1 <1>   0.0800 
 30 H        1.5450     0.7450    -1.9590 H     1 <1>   0.4000 
 31 H        4.9140     0.3460    -2.2390 H     1 <1>   0.0800 
 32 H        5.1850    -0.3760    -0.6700 H     1 <1>   0.0800 
 33 H        4.5780     3.7600    -0.3840 H     1 <1>   0.0800 
 34 H        3.8660     2.9320    -1.7530 H     1 <1>   0.0800 
 35 H        0.1730     1.9370    -0.6620 H     1 <1>   0.0800 
 36 H        0.1560     0.2490    -1.1200 H     1 <1>   0.0800 
 37 H        5.2210     1.5740     0.4100 H     1 <1>   0.4500 
 38 H       -1.3880     1.4410     1.1880 H     1 <1>   0.0800 
 39 H       -1.3900    -0.2480     0.7330 H     1 <1>   0.0800 
 40 H       -2.0540     0.9500    -0.3500 H     1 <1>   0.0800 
 41 H        7.2610     1.4150    -0.5550 H     1 <1>   0.0800 
 42 H        6.6510     1.8750    -2.1210 H     1 <1>   0.0800 
 43 H        6.8840     4.0190    -2.8780 H     1 <1>   0.1500 
 44 H        6.7910     2.1330     1.6000 H     1 <1>   0.1500 
 45 H        7.4680     6.3500    -2.5400 H     1 <1>   0.1500 
 46 H        7.8540     7.2130    -0.2700 H     1 <1>   0.1500 
 47 H        7.9590     6.8720     2.1290 H     1 <1>   0.1500 
 48 H        7.1590     3.0460     3.8010 H     1 <1>   0.1500 
 49 H        7.7520     5.4040     4.0960 H     1 <1>   0.1500 
@<TRIPOS>BOND
  1   1   2  ar  
  2   2   3  ar  
  3   2   4  1   
  4   4   5  1   
  5   4   6  1   
  6   4   7  1   
  7   5   8  1   
  8   5   9  1   
  9   5  25  1   
 10   6  10  1   
 11   6  26  1   
 12   6  27  1   
 13   7  11  1   
 14   7  28  1   
 15   7  29  1   
 16   8  30  1   
 17   9  12  1   
 18   9  31  1   
 19   9  32  1   
 20  10  12  1   
 21  10  33  1   
 22  10  34  1   
 23  11  13  1   
 24  11  35  1   
 25  11  36  1   
 26  12  14  1   
 27  12  37  1   
 28  13  38  1   
 29  13  39  1   
 30  13  40  1   
 31  14  15  1   
 32  14  41  1   
 33  14  42  1   
 34  15  16  ar  
 35  15  17  ar  
 36  16  18  ar  
 37  16  19  ar  
 38  17  20  ar  
 39  17  43  1   
 40  18  21  ar  
 41  18  22  ar  
 42  19  23  ar  
 43  19  44  1   
 44  20  21  ar  
 45  20  45  1   
 46  21  46  1   
 47  22  24  ar  
 48  22  47  1   
 49  23  24  ar  
 50  23  48  1   
 51  24  49  1   
@<TRIPOS>SUBSTRUCTURE
  1 ****  12 GROUP 4 **** **** 0

# MOE 2024.06 (io_trps.svl 2023.06)
