@<TRIPOS>MOLECULE
NONAME
50 51 1 0 0 
SMALL
USER_CHARGES


@<TRIPOS>ATOM
  1 O       -3.3570     0.9340     2.2120 O.2   1 <1>  -0.5700 
  2 C       -2.2850     0.6480     1.7340 C.2   1 <1>   0.5690 
  3 N       -2.2110    -0.3550     0.8110 N.am  1 <1>  -0.6600 
  4 C       -1.0450     1.4390     2.1310 C.3   1 <1>   0.0440 
  5 C       -2.6900    -1.7080     1.2040 C.3   1 <1>   0.3200 
  6 C       -2.0060    -0.0860    -0.6550 C.3   1 <1>   0.1400 
  7 C       -0.7170     2.5250     1.1080 C.ar  1 <1>  -0.1440 
  8 C       -4.0440    -1.9770     0.5830 C.2   1 <1>  -0.3320 
  9 C       -2.6640     1.2280    -1.1480 C.3   1 <1>   0.3430 
 10 C       -1.3430     3.7690     1.1170 C.ar  1 <1>  -0.1440 
 11 C        0.2290     2.2430     0.1310 C.ar  1 <1>  -0.1500 
 12 N       -4.2840    -2.8740    -0.3950 N.pl3 1 <1>   0.0330 
 13 C       -5.2350    -1.4160     0.8870 C.2   1 <1>   0.0770 
 14 N       -4.0590     1.3920    -0.6300 N.4   1 <1>  -0.9590 
 15 C       -1.0440     4.6840     0.1190 C.ar  1 <1>  -0.1500 
 16 C       -2.3280     4.1800     2.2050 C.3   1 <1>  -0.0970 
 17 C        0.5220     3.1580    -0.8640 C.ar  1 <1>  -0.1430 
 18 C       -5.6060    -2.7720    -0.6450 C.2   1 <1>   0.0360 
 19 N       -6.2080    -1.8930     0.0880 N.2   1 <1>  -0.5650 
 20 C       -5.0760     0.6520    -1.4320 C.3   1 <1>   0.2630 
 21 C       -4.4170     2.8320    -0.5000 C.3   1 <1>   0.2630 
 22 C       -0.1250     4.3800    -0.8680 C.ar  1 <1>  -0.1500 
 23 C        1.5580     2.8400    -1.9270 C.3   1 <1>  -0.0970 
 24 H       -0.2190     0.7590     2.2230 H     1 <1>   0.0800 
 25 H       -1.2000     1.8720     3.1010 H     1 <1>   0.0800 
 26 H       -2.7800    -1.7600     2.2770 H     1 <1>   0.0800 
 27 H       -1.9730    -2.4500     0.8960 H     1 <1>   0.0800 
 28 H       -2.4120    -0.8980    -1.2300 H     1 <1>   0.0800 
 29 H       -0.9520    -0.0510    -0.8630 H     1 <1>   0.0800 
 30 H       -2.6630     1.2560    -2.2240 H     1 <1>   0.0800 
 31 H       -2.0650     2.0550    -0.8110 H     1 <1>   0.0800 
 32 H        0.7490     1.3010     0.1430 H     1 <1>   0.1500 
 33 H       -3.6300    -3.5270    -0.8400 H     1 <1>   0.2700 
 34 H       -5.4430    -0.6780     1.6480 H     1 <1>   0.1500 
 35 H       -4.0470     0.9880     0.3340 H     1 <1>   0.4500 
 36 H       -1.5140     5.6530     0.1090 H     1 <1>   0.1500 
 37 H       -3.1460     3.4880     2.2740 H     1 <1>   0.0800 
 38 H       -2.7330     5.1580     2.0130 H     1 <1>   0.0800 
 39 H       -1.8250     4.2140     3.1550 H     1 <1>   0.0800 
 40 H       -6.0990    -3.3800    -1.3870 H     1 <1>   0.1500 
 41 H       -5.1610     1.0730    -2.4200 H     1 <1>   0.0800 
 42 H       -6.0390     0.6990    -0.9480 H     1 <1>   0.0800 
 43 H       -4.8000    -0.3860    -1.5180 H     1 <1>   0.0800 
 44 H       -4.4580     3.2980    -1.4700 H     1 <1>   0.0800 
 45 H       -3.6810     3.3430     0.0970 H     1 <1>   0.0800 
 46 H       -5.3770     2.9330    -0.0220 H     1 <1>   0.0800 
 47 H        0.0970     5.1080    -1.6300 H     1 <1>   0.1500 
 48 H        1.6310     1.7790    -2.0870 H     1 <1>   0.0800 
 49 H        2.5190     3.2070    -1.6150 H     1 <1>   0.0800 
 50 H        1.2990     3.3080    -2.8600 H     1 <1>   0.0800 
@<TRIPOS>BOND
  1   1   2  2   
  2   2   3  am  
  3   2   4  1   
  4   3   5  1   
  5   3   6  1   
  6   4   7  1   
  7   4  24  1   
  8   4  25  1   
  9   5   8  1   
 10   5  26  1   
 11   5  27  1   
 12   6   9  1   
 13   6  28  1   
 14   6  29  1   
 15   7  10  ar  
 16   7  11  ar  
 17   8  12  1   
 18   8  13  2   
 19   9  14  1   
 20   9  30  1   
 21   9  31  1   
 22  10  15  ar  
 23  10  16  1   
 24  11  17  ar  
 25  11  32  1   
 26  12  18  1   
 27  12  33  1   
 28  13  19  1   
 29  13  34  1   
 30  14  20  1   
 31  14  21  1   
 32  14  35  1   
 33  15  22  ar  
 34  15  36  1   
 35  16  37  1   
 36  16  38  1   
 37  16  39  1   
 38  17  22  ar  
 39  17  23  1   
 40  18  19  2   
 41  18  40  1   
 42  20  41  1   
 43  20  42  1   
 44  20  43  1   
 45  21  44  1   
 46  21  45  1   
 47  21  46  1   
 48  22  47  1   
 49  23  48  1   
 50  23  49  1   
 51  23  50  1   
@<TRIPOS>SUBSTRUCTURE
  1 ****   9 GROUP 4 **** **** 0

# MOE 2024.06 (io_trps.svl 2023.06)
