@<TRIPOS>MOLECULE
NONAME
49 52 1 0 0 
SMALL
USER_CHARGES


@<TRIPOS>ATOM
  1 S       -0.0370    -0.5680    -0.0810 S.3   1 <1>  -0.0800 
  2 C       -0.6500     1.0510     0.2400 C.2   1 <1>   0.4620 
  3 C       -1.4520    -1.2430     0.6790 C.2   1 <1>  -0.1400 
  4 N       -1.7790     1.0530     0.8510 N.2   1 <1>  -0.5650 
  5 N        0.0750     2.1400    -0.1690 N.pl3 1 <1>  -0.8220 
  6 C       -2.2220    -0.2260     1.1010 C.2   1 <1>   0.0770 
  7 C       -1.5430    -2.7500     0.7120 C.3   1 <1>   0.5230 
  8 C       -0.3740     3.5190     0.1070 C.3   1 <1>   0.2090 
  9 C        1.4420     2.1120    -0.7270 C.3   1 <1>   0.2090 
 10 N       -2.9630    -3.1740     0.8290 N.4   1 <1>  -0.9590 
 11 C        0.6830     4.4010    -0.5470 C.3   1 <1>  -0.1600 
 12 C        1.9460     3.5420    -0.5690 C.3   1 <1>  -0.1600 
 13 C       -3.8460    -2.7230    -0.2830 C.3   1 <1>   0.3430 
 14 C       -3.1740    -4.6460     0.9480 C.3   1 <1>   0.3430 
 15 C       -5.0930    -3.5890    -0.1090 C.3   1 <1>   0.2000 
 16 C       -4.5130    -4.9570     0.2550 C.3   1 <1>  -0.0800 
 17 O       -5.7830    -3.1090     0.9980 O.3   1 <1>  -0.6800 
 18 C       -4.3130    -5.8390    -0.9930 C.3   1 <1>  -0.0170 
 19 C       -3.4850    -7.0720    -0.6650 C.ar  1 <1>  -0.1430 
 20 C       -3.9360    -8.0430     0.2080 C.ar  1 <1>  -0.1500 
 21 C       -2.2380    -7.2840    -1.2210 C.ar  1 <1>  -0.1500 
 22 C       -3.1320    -9.1330     0.4960 C.ar  1 <1>   0.1600 
 23 C       -1.5140    -8.4110    -0.8680 C.ar  1 <1>   0.1600 
 24 N       -1.9280    -9.3300    -0.0130 N.ar  1 <1>  -0.6200 
 25 H       -3.1630    -0.3130     1.6190 H     1 <1>   0.1500 
 26 H       -0.9690    -3.1240     1.5450 H     1 <1>   0.0800 
 27 H       -1.1220    -3.1480    -0.1960 H     1 <1>   0.0800 
 28 H       -1.3530     3.6940    -0.3060 H     1 <1>   0.0800 
 29 H       -0.3970     3.6760     1.1720 H     1 <1>   0.0800 
 30 H        2.0690     1.4160    -0.1970 H     1 <1>   0.0800 
 31 H        1.3920     1.8430    -1.7690 H     1 <1>   0.0800 
 32 H       -3.3720    -2.7500     1.6750 H     1 <1>   0.4500 
 33 H        0.3740     4.6230    -1.5530 H     1 <1>   0.0800 
 34 H        0.8200     5.3230    -0.0100 H     1 <1>   0.0800 
 35 H        2.4590     3.6260     0.3730 H     1 <1>   0.0800 
 36 H        2.6180     3.8190    -1.3610 H     1 <1>   0.0800 
 37 H       -4.0870    -1.6740    -0.2170 H     1 <1>   0.0800 
 38 H       -3.3850    -2.9300    -1.2350 H     1 <1>   0.0800 
 39 H       -2.3730    -5.1840     0.4680 H     1 <1>   0.0800 
 40 H       -3.2110    -4.9360     1.9870 H     1 <1>   0.0800 
 41 H       -5.7440    -3.5810    -0.9680 H     1 <1>   0.0800 
 42 H       -5.1620    -5.4810     0.9360 H     1 <1>   0.0800 
 43 H       -6.6890    -3.4840     1.0460 H     1 <1>   0.4000 
 44 H       -3.8230    -5.2820    -1.7740 H     1 <1>   0.0800 
 45 H       -5.2700    -6.1530    -1.3750 H     1 <1>   0.0800 
 46 H       -4.9050    -7.9730     0.6690 H     1 <1>   0.1500 
 47 H       -1.8160    -6.5960    -1.9300 H     1 <1>   0.1500 
 48 H       -3.4960    -9.8820     1.1790 H     1 <1>   0.1500 
 49 H       -0.5440    -8.5670    -1.3110 H     1 <1>   0.1500 
@<TRIPOS>BOND
  1   1   2  1   
  2   1   3  1   
  3   2   4  2   
  4   2   5  1   
  5   3   6  2   
  6   3   7  1   
  7   4   6  1   
  8   5   8  1   
  9   5   9  1   
 10   6  25  1   
 11   7  10  1   
 12   7  26  1   
 13   7  27  1   
 14   8  11  1   
 15   8  28  1   
 16   8  29  1   
 17   9  12  1   
 18   9  30  1   
 19   9  31  1   
 20  10  13  1   
 21  10  14  1   
 22  10  32  1   
 23  11  12  1   
 24  11  33  1   
 25  11  34  1   
 26  12  35  1   
 27  12  36  1   
 28  13  15  1   
 29  13  37  1   
 30  13  38  1   
 31  14  16  1   
 32  14  39  1   
 33  14  40  1   
 34  15  16  1   
 35  15  17  1   
 36  15  41  1   
 37  16  18  1   
 38  16  42  1   
 39  17  43  1   
 40  18  19  1   
 41  18  44  1   
 42  18  45  1   
 43  19  20  ar  
 44  19  21  ar  
 45  20  22  ar  
 46  20  46  1   
 47  21  23  ar  
 48  21  47  1   
 49  22  24  ar  
 50  22  48  1   
 51  23  24  ar  
 52  23  49  1   
@<TRIPOS>SUBSTRUCTURE
  1 ****   7 GROUP 4 **** **** 0

# MOE 2024.06 (io_trps.svl 2023.06)
