@<TRIPOS>MOLECULE
NONAME
54 57 1 0 0 
SMALL
USER_CHARGES


@<TRIPOS>ATOM
  1 O       -2.0560    -0.1090     1.3720 O.2   1 <1>  -0.5700 
  2 C       -2.0940     0.3110     0.2410 C.2   1 <1>   0.5690 
  3 N       -2.2780    -0.5220    -0.8240 N.am  1 <1>  -0.7300 
  4 C       -1.9840     1.8340    -0.0280 C.3   1 <1>   0.0610 
  5 C       -2.4350    -2.0060    -0.8720 C.3   1 <1>   0.2200 
  6 C       -1.5390     2.5860     1.2550 C.3   1 <1>  -0.1600 
  7 C       -0.9400     2.0960    -1.1460 C.3   1 <1>  -0.1600 
  8 C       -3.3760     2.3430    -0.4700 C.3   1 <1>  -0.2400 
  9 C       -3.8600    -2.5000    -0.6610 C.3   1 <1>  -0.0800 
 10 C       -1.6430    -2.8390     0.1370 C.3   1 <1>   0.1200 
 11 C       -1.2100     4.0730     1.0410 C.3   1 <1>  -0.1600 
 12 C       -0.6110     3.5820    -1.3660 C.3   1 <1>  -0.1600 
 13 C       -3.5930    -3.9760    -0.3530 C.3   1 <1>   0.1200 
 14 C       -4.6130    -1.8120     0.5010 C.3   1 <1>  -0.0170 
 15 O       -2.3370    -4.0480     0.2550 O.3   1 <1>  -0.5600 
 16 C       -0.1630     4.2520    -0.0630 C.3   1 <1>  -0.1600 
 17 C       -6.0250    -2.3650     0.6750 C.ar  1 <1>  -0.1440 
 18 C       -7.0870    -2.0280    -0.1970 C.ar  1 <1>   0.0000 
 19 C       -6.3010    -3.2170     1.7040 C.ar  1 <1>  -0.1500 
 20 C       -8.3500    -2.6230     0.0450 C.ar  1 <1>   0.3100 
 21 C       -6.9730    -1.1360    -1.2880 C.ar  1 <1>  -0.1500 
 22 C       -7.5890    -3.7420     1.8600 C.ar  1 <1>   0.1600 
 23 N       -8.5840    -3.4760     1.0750 N.ar  1 <1>  -0.6200 
 24 C       -9.4190    -2.3200    -0.8130 C.ar  1 <1>  -0.1500 
 25 C       -8.0360    -0.8590    -2.1040 C.ar  1 <1>  -0.1500 
 26 C       -9.2750    -1.4600    -1.8680 C.ar  1 <1>  -0.1500 
 27 H       -2.3330    -0.0780    -1.7400 H     1 <1>   0.3700 
 28 H       -2.1110    -2.3290    -1.8460 H     1 <1>   0.0800 
 29 H       -2.3020     2.4970     2.0090 H     1 <1>   0.0800 
 30 H       -0.6570     2.1050     1.6440 H     1 <1>   0.0800 
 31 H       -0.0270     1.5870    -0.8830 H     1 <1>   0.0800 
 32 H       -1.2790     1.6820    -2.0790 H     1 <1>   0.0800 
 33 H       -3.3770     3.4000    -0.6550 H     1 <1>   0.0800 
 34 H       -4.0990     2.1390     0.3010 H     1 <1>   0.0800 
 35 H       -3.6960     1.8480    -1.3690 H     1 <1>   0.0800 
 36 H       -4.4280    -2.4180    -1.5680 H     1 <1>   0.0800 
 37 H       -1.6190    -2.3970     1.1150 H     1 <1>   0.0800 
 38 H       -0.6430    -3.0420    -0.2030 H     1 <1>   0.0800 
 39 H       -2.1020     4.6170     0.7860 H     1 <1>   0.0800 
 40 H       -0.8320     4.4880     1.9600 H     1 <1>   0.0800 
 41 H        0.1760     3.6690    -2.0960 H     1 <1>   0.0800 
 42 H       -1.4710     4.0970    -1.7570 H     1 <1>   0.0800 
 43 H       -3.5420    -4.5490    -1.2630 H     1 <1>   0.0800 
 44 H       -4.3240    -4.4180     0.3000 H     1 <1>   0.0800 
 45 H       -4.6790    -0.7520     0.3370 H     1 <1>   0.0800 
 46 H       -4.0590    -1.9470     1.4150 H     1 <1>   0.0800 
 47 H        0.7690     3.8170     0.2590 H     1 <1>   0.0800 
 48 H        0.0050     5.3010    -0.2340 H     1 <1>   0.0800 
 49 H       -5.5440    -3.5080     2.4110 H     1 <1>   0.1500 
 50 H       -6.0320    -0.6580    -1.4810 H     1 <1>   0.1500 
 51 H       -7.7610    -4.4120     2.6850 H     1 <1>   0.1500 
 52 H      -10.3630    -2.7900    -0.6100 H     1 <1>   0.1500 
 53 H       -7.9360    -0.1790    -2.9330 H     1 <1>   0.1500 
 54 H      -10.1050    -1.2370    -2.5170 H     1 <1>   0.1500 
@<TRIPOS>BOND
  1   1   2  2   
  2   2   3  am  
  3   2   4  1   
  4   3   5  1   
  5   3  27  1   
  6   4   6  1   
  7   4   7  1   
  8   4   8  1   
  9   5   9  1   
 10   5  10  1   
 11   5  28  1   
 12   6  11  1   
 13   6  29  1   
 14   6  30  1   
 15   7  12  1   
 16   7  31  1   
 17   7  32  1   
 18   8  33  1   
 19   8  34  1   
 20   8  35  1   
 21   9  13  1   
 22   9  14  1   
 23   9  36  1   
 24  10  15  1   
 25  10  37  1   
 26  10  38  1   
 27  11  16  1   
 28  11  39  1   
 29  11  40  1   
 30  12  16  1   
 31  12  41  1   
 32  12  42  1   
 33  13  15  1   
 34  13  43  1   
 35  13  44  1   
 36  14  17  1   
 37  14  45  1   
 38  14  46  1   
 39  16  47  1   
 40  16  48  1   
 41  17  18  ar  
 42  17  19  ar  
 43  18  20  ar  
 44  18  21  ar  
 45  19  22  ar  
 46  19  49  1   
 47  20  23  ar  
 48  20  24  ar  
 49  21  25  ar  
 50  21  50  1   
 51  22  23  ar  
 52  22  51  1   
 53  24  26  ar  
 54  24  52  1   
 55  25  26  ar  
 56  25  53  1   
 57  26  54  1   
@<TRIPOS>SUBSTRUCTURE
  1 ****  14 GROUP 4 **** **** 0

# MOE 2024.06 (io_trps.svl 2023.06)
