@<TRIPOS>MOLECULE
NONAME
41 43 1 0 0 
SMALL
USER_CHARGES


@<TRIPOS>ATOM
  1 CL      -0.3950     0.8420    -1.0850 Cl    1 <1>  -0.1770 
  2 C        1.2250     1.4490    -0.8650 C.ar  1 <1>   0.1770 
  3 C        2.2830     0.7940    -1.4630 C.ar  1 <1>  -0.1500 
  4 C        1.4310     2.5760    -0.0970 C.ar  1 <1>  -0.1500 
  5 C        3.5700     1.2760    -1.2880 C.ar  1 <1>  -0.1500 
  6 C        2.7190     3.0530     0.0750 C.ar  1 <1>  -0.1500 
  7 C        3.8080     2.4110    -0.5140 C.ar  1 <1>  -0.1430 
  8 C        5.2170     2.9820    -0.2930 C.3   1 <1>   0.4240 
  9 O        5.3710     3.1170     1.0730 O.3   1 <1>  -0.6800 
 10 C        6.3780     2.0950    -0.7680 C.3   1 <1>  -0.1600 
 11 C        5.3510     4.3810    -0.9160 C.3   1 <1>  -0.1600 
 12 C        7.7580     2.6730    -0.4200 C.3   1 <1>   0.3430 
 13 C        6.7980     4.8560    -1.0940 C.3   1 <1>   0.3430 
 14 N        7.6810     4.1350    -0.1370 N.4   1 <1>  -0.9590 
 15 C        9.0280     4.7800     0.0140 C.3   1 <1>   0.5230 
 16 C        8.9010     6.2280     0.4610 C.2   1 <1>   0.1980 
 17 S        8.8210     6.5320     2.1810 S.3   1 <1>  -0.0800 
 18 N        8.8200     7.2700    -0.2650 N.2   1 <1>  -0.5650 
 19 C        8.6810     8.2320     1.8410 C.2   1 <1>  -0.1100 
 20 C        8.7020     8.4110     0.5110 C.2   1 <1>   0.0460 
 21 C        8.6120     9.7350    -0.2170 C.3   1 <1>  -0.0590 
 22 H        2.0950    -0.0820    -2.0590 H     1 <1>   0.1500 
 23 H        0.5900     3.0700     0.3580 H     1 <1>   0.1500 
 24 H        4.3660     0.7400    -1.7720 H     1 <1>   0.1500 
 25 H        2.8610     3.9360     0.6750 H     1 <1>   0.1500 
 26 H        4.6800     2.5680     1.5030 H     1 <1>   0.4000 
 27 H        6.3200     1.9900    -1.8370 H     1 <1>   0.0800 
 28 H        6.2900     1.1090    -0.3480 H     1 <1>   0.0800 
 29 H        4.8080     5.0970    -0.3260 H     1 <1>   0.0800 
 30 H        4.8920     4.3760    -1.8890 H     1 <1>   0.0800 
 31 H        8.4380     2.4830    -1.2350 H     1 <1>   0.0800 
 32 H        8.1340     2.1680     0.4560 H     1 <1>   0.0800 
 33 H        6.8410     5.9210    -0.9300 H     1 <1>   0.0800 
 34 H        7.1250     4.6590    -2.1020 H     1 <1>   0.0800 
 35 H        7.1870     4.2090     0.7720 H     1 <1>   0.4500 
 36 H        9.5460     4.7610    -0.9290 H     1 <1>   0.0800 
 37 H        9.6180     4.2430     0.7380 H     1 <1>   0.0800 
 38 H        8.6010     8.9120     2.6700 H     1 <1>   0.1500 
 39 H        9.4940     9.8820    -0.8140 H     1 <1>   0.0800 
 40 H        8.5280    10.5450     0.4850 H     1 <1>   0.0800 
 41 H        7.7510     9.7410    -0.8600 H     1 <1>   0.0800 
@<TRIPOS>BOND
  1   1   2  1   
  2   2   3  ar  
  3   2   4  ar  
  4   3   5  ar  
  5   3  22  1   
  6   4   6  ar  
  7   4  23  1   
  8   5   7  ar  
  9   5  24  1   
 10   6   7  ar  
 11   6  25  1   
 12   7   8  1   
 13   8   9  1   
 14   8  10  1   
 15   8  11  1   
 16   9  26  1   
 17  10  12  1   
 18  10  27  1   
 19  10  28  1   
 20  11  13  1   
 21  11  29  1   
 22  11  30  1   
 23  12  14  1   
 24  12  31  1   
 25  12  32  1   
 26  13  14  1   
 27  13  33  1   
 28  13  34  1   
 29  14  15  1   
 30  14  35  1   
 31  15  16  1   
 32  15  36  1   
 33  15  37  1   
 34  16  17  1   
 35  16  18  2   
 36  17  19  1   
 37  18  20  1   
 38  19  20  2   
 39  19  38  1   
 40  20  21  1   
 41  21  39  1   
 42  21  40  1   
 43  21  41  1   
@<TRIPOS>SUBSTRUCTURE
  1 ****  11 GROUP 4 **** **** 0

# MOE 2024.06 (io_trps.svl 2023.06)
