@<TRIPOS>MOLECULE
NONAME
51 53 1 0 0 
SMALL
USER_CHARGES


@<TRIPOS>ATOM
  1 S        0.3030    -0.5280    -1.5140 S.o2  1 <1>   1.4470 
  2 O        1.7290    -0.3230    -1.4600 O.2   1 <1>  -0.6500 
  3 O       -0.4440    -0.4420    -2.7440 O.2   1 <1>  -0.6500 
  4 N       -0.3480     0.6450    -0.5270 N.am  1 <1>  -0.9780 
  5 C       -0.1370    -2.0490    -0.6270 C.ar  1 <1>  -0.0090 
  6 C       -1.3660    -2.6630    -0.8210 C.ar  1 <1>  -0.1500 
  7 C        0.7320    -2.6210     0.2920 C.ar  1 <1>  -0.1500 
  8 C       -1.7490    -3.8120    -0.1320 C.ar  1 <1>   0.0860 
  9 C        0.3860    -3.7670     0.9840 C.ar  1 <1>  -0.1500 
 10 C       -0.8430    -4.3680     0.7760 C.ar  1 <1>  -0.1430 
 11 C       -3.0600    -4.3820    -0.3740 C.2   1 <1>   0.5440 
 12 C       -1.1920    -5.6450     1.5300 C.3   1 <1>  -0.0960 
 13 O       -3.2090    -5.1450    -1.3090 O.2   1 <1>  -0.5700 
 14 N       -4.1360    -4.0630     0.4270 N.am  1 <1>  -0.6600 
 15 C       -5.5090    -4.5720     0.1340 C.3   1 <1>   0.1400 
 16 C       -4.0380    -3.1220     1.5820 C.3   1 <1>   0.1400 
 17 C       -6.4820    -3.4130    -0.2220 C.3   1 <1>   0.0000 
 18 C       -5.3930    -2.4760     1.9080 C.3   1 <1>  -0.1600 
 19 C       -7.9270    -3.9430    -0.0780 C.3   1 <1>   0.2000 
 20 C       -6.1630    -2.1420     0.6220 C.3   1 <1>  -0.1600 
 21 C       -6.3920    -3.1120    -1.7280 C.3   1 <1>  -0.1600 
 22 O       -8.8400    -2.8820    -0.0890 O.3   1 <1>  -0.5600 
 23 C       -8.1590    -4.7750    -1.3450 C.3   1 <1>  -0.1600 
 24 C       -7.2730    -4.1520    -2.4320 C.3   1 <1>  -0.1600 
 25 C      -10.0600    -3.1430     0.5290 C.3   1 <1>   0.0400 
 26 H        0.0840     0.5500     0.3850 H     1 <1>   0.4200 
 27 H       -1.3460     0.4790    -0.4730 H     1 <1>   0.4200 
 28 H       -2.0590    -2.2490    -1.5360 H     1 <1>   0.1500 
 29 H        1.6970    -2.1720     0.4640 H     1 <1>   0.1500 
 30 H        1.0880    -4.1920     1.6820 H     1 <1>   0.1500 
 31 H       -0.3600    -5.9910     2.1170 H     1 <1>   0.0800 
 32 H       -1.4570    -6.4210     0.8330 H     1 <1>   0.0800 
 33 H       -2.0260    -5.4750     2.1870 H     1 <1>   0.0800 
 34 H       -5.4830    -5.2970    -0.6620 H     1 <1>   0.0800 
 35 H       -5.8620    -5.0840     1.0110 H     1 <1>   0.0800 
 36 H       -3.6700    -3.6500     2.4450 H     1 <1>   0.0800 
 37 H       -3.3370    -2.3420     1.3410 H     1 <1>   0.0800 
 38 H       -5.9760    -3.1430     2.5180 H     1 <1>   0.0800 
 39 H       -5.2290    -1.5800     2.4800 H     1 <1>   0.0800 
 40 H       -8.0570    -4.5120     0.8280 H     1 <1>   0.0800 
 41 H       -5.5470    -1.4810     0.0380 H     1 <1>   0.0800 
 42 H       -7.0540    -1.5950     0.8680 H     1 <1>   0.0800 
 43 H       -6.8040    -2.1350    -1.9190 H     1 <1>   0.0800 
 44 H       -5.3780    -3.1350    -2.0880 H     1 <1>   0.0800 
 45 H       -7.8360    -5.7850    -1.1670 H     1 <1>   0.0800 
 46 H       -9.1930    -4.7950    -1.6380 H     1 <1>   0.0800 
 47 H       -6.6640    -4.9100    -2.8950 H     1 <1>   0.0800 
 48 H       -7.8730    -3.6760    -3.1890 H     1 <1>   0.0800 
 49 H      -10.6780    -2.2690     0.4270 H     1 <1>   0.0800 
 50 H       -9.8910    -3.3470     1.5720 H     1 <1>   0.0800 
 51 H      -10.5360    -3.9810     0.0510 H     1 <1>   0.0800 
@<TRIPOS>BOND
  1   1   2  2   
  2   1   3  2   
  3   1   4  am  
  4   1   5  1   
  5   4  26  1   
  6   4  27  1   
  7   5   6  ar  
  8   5   7  ar  
  9   6   8  ar  
 10   6  28  1   
 11   7   9  ar  
 12   7  29  1   
 13   8  10  ar  
 14   8  11  1   
 15   9  10  ar  
 16   9  30  1   
 17  10  12  1   
 18  11  13  2   
 19  11  14  am  
 20  12  31  1   
 21  12  32  1   
 22  12  33  1   
 23  14  15  1   
 24  14  16  1   
 25  15  17  1   
 26  15  34  1   
 27  15  35  1   
 28  16  18  1   
 29  16  36  1   
 30  16  37  1   
 31  17  19  1   
 32  17  20  1   
 33  17  21  1   
 34  18  20  1   
 35  18  38  1   
 36  18  39  1   
 37  19  22  1   
 38  19  23  1   
 39  19  40  1   
 40  20  41  1   
 41  20  42  1   
 42  21  24  1   
 43  21  43  1   
 44  21  44  1   
 45  22  25  1   
 46  23  24  1   
 47  23  45  1   
 48  23  46  1   
 49  24  47  1   
 50  24  48  1   
 51  25  49  1   
 52  25  50  1   
 53  25  51  1   
@<TRIPOS>SUBSTRUCTURE
  1 ****  14 GROUP 4 **** **** 0

# MOE 2024.06 (io_trps.svl 2023.06)
