@<TRIPOS>MOLECULE
NONAME
39 41 1 0 0 
SMALL
USER_CHARGES


@<TRIPOS>ATOM
  1 CL      -2.2240    -1.6860    -1.6650 Cl    1 <1>  -0.1770 
  2 C       -2.3360    -0.1790    -0.7870 C.ar  1 <1>   0.1770 
  3 C       -2.8610    -0.1600     0.5070 C.ar  1 <1>   0.0860 
  4 C       -1.8920     0.9670    -1.4180 C.ar  1 <1>  -0.1500 
  5 C       -3.3240    -1.3660     1.1520 C.2   1 <1>   0.5440 
  6 C       -2.9180     1.0690     1.1690 C.ar  1 <1>  -0.1500 
  7 C       -1.9750     2.1590    -0.7270 C.ar  1 <1>   0.1900 
  8 O       -2.6580    -1.8640     2.0370 O.2   1 <1>  -0.5700 
  9 N       -4.5150    -1.9550     0.8060 N.am  1 <1>  -0.6600 
 10 C       -2.4800     2.2320     0.5580 C.ar  1 <1>  -0.1500 
 11 F       -1.5650     3.2520    -1.3060 F     1 <1>  -0.1900 
 12 C       -5.4630    -1.4680    -0.2310 C.3   1 <1>   0.1400 
 13 C       -4.8980    -3.3140     1.2630 C.3   1 <1>   0.1400 
 14 C       -6.5900    -2.5040    -0.2460 C.3   1 <1>   0.2000 
 15 C       -5.9300    -3.7980     0.2360 C.3   1 <1>  -0.0800 
 16 O       -7.5420    -2.1290     0.6880 O.3   1 <1>  -0.6800 
 17 C       -5.2520    -4.5380    -0.9340 C.3   1 <1>   0.0200 
 18 C       -4.5570    -5.8010    -0.4650 C.2   1 <1>  -0.0400 
 19 O       -5.2530    -6.7970     0.0140 O.3   1 <1>  -0.0190 
 20 C       -3.2610    -6.1430    -0.4250 C.2   1 <1>  -0.1500 
 21 N       -4.4910    -7.7890     0.3760 N.2   1 <1>  -0.4100 
 22 C       -3.2850    -7.4230     0.1230 C.2   1 <1>   0.1080 
 23 C       -2.0630    -8.2720     0.3920 C.3   1 <1>  -0.0590 
 24 H       -1.4910     0.9360    -2.4140 H     1 <1>   0.1500 
 25 H       -3.3060     1.1010     2.1740 H     1 <1>   0.1500 
 26 H       -2.5230     3.1800     1.0660 H     1 <1>   0.1500 
 27 H       -5.8300    -0.4830    -0.0020 H     1 <1>   0.0800 
 28 H       -4.9700    -1.4570    -1.1870 H     1 <1>   0.0800 
 29 H       -4.0370    -3.9570     1.3270 H     1 <1>   0.0800 
 30 H       -5.3460    -3.2400     2.2390 H     1 <1>   0.0800 
 31 H       -7.0750    -2.5900    -1.2040 H     1 <1>   0.0800 
 32 H       -6.6490    -4.4590     0.6900 H     1 <1>   0.0800 
 33 H       -7.1040    -1.9730     1.5480 H     1 <1>   0.4000 
 34 H       -4.5250    -3.9010    -1.4070 H     1 <1>   0.0800 
 35 H       -5.9890    -4.8070    -1.6700 H     1 <1>   0.0800 
 36 H       -2.3910    -5.5900    -0.7260 H     1 <1>   0.1500 
 37 H       -1.3860    -7.7430     1.0370 H     1 <1>   0.0800 
 38 H       -1.5670    -8.4990    -0.5340 H     1 <1>   0.0800 
 39 H       -2.3520    -9.1910     0.8680 H     1 <1>   0.0800 
@<TRIPOS>BOND
  1   1   2  1   
  2   2   3  ar  
  3   2   4  ar  
  4   3   5  1   
  5   3   6  ar  
  6   4   7  ar  
  7   4  24  1   
  8   5   8  2   
  9   5   9  am  
 10   6  10  ar  
 11   6  25  1   
 12   7  10  ar  
 13   7  11  1   
 14   9  12  1   
 15   9  13  1   
 16  10  26  1   
 17  12  14  1   
 18  12  27  1   
 19  12  28  1   
 20  13  15  1   
 21  13  29  1   
 22  13  30  1   
 23  14  15  1   
 24  14  16  1   
 25  14  31  1   
 26  15  17  1   
 27  15  32  1   
 28  16  33  1   
 29  17  18  1   
 30  17  34  1   
 31  17  35  1   
 32  18  19  1   
 33  18  20  2   
 34  19  21  1   
 35  20  22  1   
 36  20  36  1   
 37  21  22  2   
 38  22  23  1   
 39  23  37  1   
 40  23  38  1   
 41  23  39  1   
@<TRIPOS>SUBSTRUCTURE
  1 ****   9 GROUP 4 **** **** 0

# MOE 2024.06 (io_trps.svl 2023.06)
