@<TRIPOS>MOLECULE
NONAME
41 42 1 0 0 
SMALL
USER_CHARGES


@<TRIPOS>ATOM
  1 O        0.2960    -0.4130     0.2530 O.3   1 <1>  -0.3570 
  2 C        0.1580    -1.7500    -0.0260 C.2   1 <1>   0.0910 
  3 C        1.4730     0.0560     0.8800 C.3   1 <1>   0.0400 
  4 C        0.6990    -2.8010     0.7940 C.2   1 <1>   0.5410 
  5 C       -0.5490    -2.0710    -1.1440 C.2   1 <1>  -0.0500 
  6 O        1.3290    -2.6350     1.8370 O.2   1 <1>  -0.5700 
  7 C        0.4580    -4.1330     0.3660 C.2   1 <1>  -0.1360 
  8 N       -0.7620    -3.3850    -1.5170 N.pl3 1 <1>  -0.6000 
  9 C       -0.2640    -4.4200    -0.7520 C.2   1 <1>  -0.0380 
 10 C       -0.5440    -5.8610    -1.1660 C.3   1 <1>   0.4810 
 11 N       -1.7190    -6.3820    -0.3990 N.4   1 <1>  -0.9590 
 12 C       -1.8340    -7.8670    -0.6050 C.3   1 <1>   0.3430 
 13 C       -2.9660    -5.6430    -0.7590 C.3   1 <1>   0.3430 
 14 C       -1.9720    -8.6440     0.7100 C.3   1 <1>   0.0960 
 15 C       -4.0930    -5.9960     0.2030 C.3   1 <1>  -0.2400 
 16 N       -1.9850   -10.0810     0.4020 N.pl3 1 <1>   0.3140 
 17 N       -1.3970   -10.5660    -0.7060 N.2   1 <1>  -0.7070 
 18 C       -2.5460   -11.0630     1.1310 C.2   1 <1>  -0.3020 
 19 C       -1.5970   -11.8490    -0.6540 C.2   1 <1>   0.1390 
 20 C       -2.3140   -12.2210     0.4770 C.2   1 <1>  -0.1500 
 21 H        1.5250     1.1200     0.7430 H     1 <1>   0.0800 
 22 H        2.3290    -0.4150     0.4300 H     1 <1>   0.0800 
 23 H        1.4240    -0.1700     1.9310 H     1 <1>   0.0800 
 24 H       -0.9590    -1.2940    -1.7710 H     1 <1>   0.1500 
 25 H        0.8830    -4.8940     0.9930 H     1 <1>   0.1500 
 26 H       -1.2450    -3.5430    -2.4150 H     1 <1>   0.4000 
 27 H        0.3260    -6.4590    -0.9450 H     1 <1>   0.0800 
 28 H       -0.7270    -5.9140    -2.2270 H     1 <1>   0.0800 
 29 H       -1.5230    -6.1770     0.5890 H     1 <1>   0.4500 
 30 H       -0.9510    -8.2290    -1.1080 H     1 <1>   0.0800 
 31 H       -2.6790    -8.0890    -1.2370 H     1 <1>   0.0800 
 32 H       -3.2600    -5.8740    -1.7710 H     1 <1>   0.0800 
 33 H       -2.7880    -4.5800    -0.6960 H     1 <1>   0.0800 
 34 H       -2.8860    -8.3970     1.2150 H     1 <1>   0.0800 
 35 H       -1.1320    -8.4550     1.3510 H     1 <1>   0.0800 
 36 H       -4.4180    -7.0120     0.0750 H     1 <1>   0.0800 
 37 H       -4.9380    -5.3620    -0.0050 H     1 <1>   0.0800 
 38 H       -3.7990    -5.8250     1.2230 H     1 <1>   0.0800 
 39 H       -3.0690   -10.9000     2.0570 H     1 <1>   0.1500 
 40 H       -1.2450   -12.5410    -1.4030 H     1 <1>   0.1500 
 41 H       -2.6040   -13.2220     0.7430 H     1 <1>   0.1500 
@<TRIPOS>BOND
  1   1   2  1   
  2   1   3  1   
  3   2   4  1   
  4   2   5  2   
  5   3  21  1   
  6   3  22  1   
  7   3  23  1   
  8   4   6  2   
  9   4   7  1   
 10   5   8  1   
 11   5  24  1   
 12   7   9  2   
 13   7  25  1   
 14   8   9  1   
 15   8  26  1   
 16   9  10  1   
 17  10  11  1   
 18  10  27  1   
 19  10  28  1   
 20  11  12  1   
 21  11  13  1   
 22  11  29  1   
 23  12  14  1   
 24  12  30  1   
 25  12  31  1   
 26  13  15  1   
 27  13  32  1   
 28  13  33  1   
 29  14  16  1   
 30  14  34  1   
 31  14  35  1   
 32  15  36  1   
 33  15  37  1   
 34  15  38  1   
 35  16  17  1   
 36  16  18  1   
 37  17  19  2   
 38  18  20  2   
 39  18  39  1   
 40  19  20  1   
 41  19  40  1   
 42  20  41  1   
@<TRIPOS>SUBSTRUCTURE
  1 ****  11 GROUP 4 **** **** 0

# MOE 2024.06 (io_trps.svl 2023.06)
