@<TRIPOS>MOLECULE
NONAME
45 46 1 0 0 
SMALL
USER_CHARGES


@<TRIPOS>ATOM
  1 N        0.0280    -0.4290     0.3290 N.ar  1 <1>  -0.6200 
  2 C        0.9590     0.4700     0.0370 C.ar  1 <1>   0.7710 
  3 C        0.2900    -1.6920     0.0890 C.ar  1 <1>   0.4100 
  4 N        2.1360     0.1130    -0.5050 N.ar  1 <1>  -0.1790 
  5 N        0.7220     1.7890     0.2850 N.pl3 1 <1>  -0.8380 
  6 N       -0.6910    -2.5410     0.4210 N.pl3 1 <1>  -0.8690 
  7 C        1.5110    -2.1110    -0.4710 C.ar  1 <1>  -0.1500 
  8 C        2.4470    -1.1780    -0.7710 C.ar  1 <1>   0.2170 
  9 C       -0.6320     2.2580     0.7380 C.3   1 <1>   0.1290 
 10 C        1.7120     2.9110     0.2300 C.3   1 <1>   0.1290 
 11 C       -0.8240    -3.9910     0.2240 C.3   1 <1>   0.4330 
 12 C        3.8030    -1.5070    -1.3830 C.3   1 <1>  -0.0170 
 13 C       -2.3050    -4.3310     0.1730 C.ar  1 <1>  -0.1430 
 14 C       -0.1280    -4.7060     1.3780 C.3   1 <1>  -0.2400 
 15 C        4.9620    -1.1520    -0.4410 C.3   1 <1>  -0.2400 
 16 C       -2.8290    -4.9620    -0.9460 C.ar  1 <1>   0.1600 
 17 C       -3.1610    -4.0320     1.2170 C.ar  1 <1>  -0.1500 
 18 N       -4.0960    -5.3090    -1.1010 N.ar  1 <1>  -0.6200 
 19 C       -4.4850    -4.3840     1.0680 C.ar  1 <1>  -0.1500 
 20 C       -4.8990    -5.0130    -0.0950 C.ar  1 <1>   0.1670 
 21 C       -6.3500    -5.4060    -0.2730 C.3   1 <1>  -0.0970 
 22 H        2.7680     0.8740    -0.7120 H     1 <1>   0.4570 
 23 H       -1.5520    -2.1200     0.7800 H     1 <1>   0.4000 
 24 H        1.6750    -3.1560    -0.6450 H     1 <1>   0.1500 
 25 H       -1.4100     1.5860     0.4160 H     1 <1>   0.0800 
 26 H       -0.8480     3.2290     0.3260 H     1 <1>   0.0800 
 27 H       -0.6550     2.3210     1.8130 H     1 <1>   0.0800 
 28 H        2.7260     2.5550     0.2560 H     1 <1>   0.0800 
 29 H        1.5740     3.5590     1.0800 H     1 <1>   0.0800 
 30 H        1.5590     3.4900    -0.6660 H     1 <1>   0.0800 
 31 H       -0.3570    -4.2700    -0.7050 H     1 <1>   0.0800 
 32 H        3.9190    -0.9810    -2.3150 H     1 <1>   0.0800 
 33 H        3.8500    -2.5600    -1.6030 H     1 <1>   0.0800 
 34 H       -0.5450    -4.4020     2.3210 H     1 <1>   0.0800 
 35 H        0.9240    -4.4910     1.3740 H     1 <1>   0.0800 
 36 H       -0.2590    -5.7680     1.2750 H     1 <1>   0.0800 
 37 H        5.0060    -0.0950    -0.2480 H     1 <1>   0.0800 
 38 H        5.8960    -1.4490    -0.8870 H     1 <1>   0.0800 
 39 H        4.8600    -1.6730     0.4960 H     1 <1>   0.0800 
 40 H       -2.1750    -5.1980    -1.7670 H     1 <1>   0.1500 
 41 H       -2.8190    -3.5450     2.1140 H     1 <1>   0.1500 
 42 H       -5.1880    -4.1700     1.8520 H     1 <1>   0.1500 
 43 H       -6.7490    -4.9140    -1.1420 H     1 <1>   0.0800 
 44 H       -6.9360    -5.1310     0.5830 H     1 <1>   0.0800 
 45 H       -6.4180    -6.4690    -0.4170 H     1 <1>   0.0800 
@<TRIPOS>BOND
  1   1   2  ar  
  2   1   3  ar  
  3   2   4  ar  
  4   2   5  1   
  5   3   6  1   
  6   3   7  ar  
  7   4   8  ar  
  8   4  22  1   
  9   5   9  1   
 10   5  10  1   
 11   6  11  1   
 12   6  23  1   
 13   7   8  ar  
 14   7  24  1   
 15   8  12  1   
 16   9  25  1   
 17   9  26  1   
 18   9  27  1   
 19  10  28  1   
 20  10  29  1   
 21  10  30  1   
 22  11  13  1   
 23  11  14  1   
 24  11  31  1   
 25  12  15  1   
 26  12  32  1   
 27  12  33  1   
 28  13  16  ar  
 29  13  17  ar  
 30  14  34  1   
 31  14  35  1   
 32  14  36  1   
 33  15  37  1   
 34  15  38  1   
 35  15  39  1   
 36  16  18  ar  
 37  16  40  1   
 38  17  19  ar  
 39  17  41  1   
 40  18  20  ar  
 41  19  20  ar  
 42  19  42  1   
 43  20  21  1   
 44  21  43  1   
 45  21  44  1   
 46  21  45  1   
@<TRIPOS>SUBSTRUCTURE
  1 ****   6 GROUP 4 **** **** 0

# MOE 2024.06 (io_trps.svl 2023.06)
