@<TRIPOS>MOLECULE
NONAME
35 37 1 0 0 
SMALL
USER_CHARGES


@<TRIPOS>ATOM
  1 F        1.4170     0.5880    -1.6950 F     1 <1>  -0.1900 
  2 C        1.8970    -0.4710    -1.0980 C.ar  1 <1>   0.1900 
  3 C        1.5830    -1.7170    -1.5980 C.ar  1 <1>  -0.1500 
  4 C        2.7010    -0.2970     0.0130 C.ar  1 <1>  -0.1500 
  5 C        2.0800    -2.8610    -0.9750 C.ar  1 <1>   0.0860 
  6 C        3.2070    -1.4230     0.6350 C.ar  1 <1>  -0.1500 
  7 C        2.9030    -2.6890     0.1500 C.ar  1 <1>   0.0830 
  8 C        1.7220    -4.1630    -1.4860 C.2   1 <1>   0.5440 
  9 O        3.4620    -3.7400     0.7820 O.3   1 <1>  -0.3630 
 10 O        2.3780    -4.6630    -2.3840 O.2   1 <1>  -0.5700 
 11 N        0.6160    -4.8280    -1.0190 N.am  1 <1>  -0.6600 
 12 C        2.6900    -4.4100     1.7650 C.3   1 <1>   0.0400 
 13 C       -0.3550    -4.2050    -0.0700 C.3   1 <1>   0.2350 
 14 C        0.7110    -6.2980    -0.7920 C.3   1 <1>   0.2350 
 15 C       -0.8480    -5.3150     0.8350 C.3   1 <1>  -0.2420 
 16 C       -0.1830    -6.6000     0.3970 C.3   1 <1>  -0.2420 
 17 C       -1.1640    -4.7750     2.2320 C.2   1 <1>   0.9470 
 18 C       -1.6740    -6.4450     0.2790 C.3   1 <1>  -0.2000 
 19 C        0.4010    -7.7230     1.2540 C.2   1 <1>   0.9470 
 20 O       -2.3120    -4.8870     2.6810 O.co2 1 <1>  -0.9000 
 21 O       -0.3150    -4.0810     2.8110 O.co2 1 <1>  -0.9000 
 22 O       -0.1740    -8.8200     1.2790 O.co2 1 <1>  -0.9000 
 23 O        1.5080    -7.5620     1.7850 O.co2 1 <1>  -0.9000 
 24 H        0.9540    -1.8120    -2.4640 H     1 <1>   0.1500 
 25 H        2.9200     0.6900     0.3760 H     1 <1>   0.1500 
 26 H        3.8390    -1.3370     1.5010 H     1 <1>   0.1500 
 27 H        3.3320    -5.0670     2.3210 H     1 <1>   0.0800 
 28 H        1.9300    -4.9980     1.2900 H     1 <1>   0.0800 
 29 H        2.2330    -3.6920     2.4230 H     1 <1>   0.0800 
 30 H        0.1220    -3.4380     0.5150 H     1 <1>   0.0800 
 31 H       -1.1810    -3.7760    -0.6070 H     1 <1>   0.0800 
 32 H        0.3820    -6.8360    -1.6620 H     1 <1>   0.0800 
 33 H        1.7330    -6.5650    -0.5740 H     1 <1>   0.0800 
 34 H       -2.1210    -6.3470    -0.6910 H     1 <1>   0.1000 
 35 H       -2.2890    -7.0050     0.9650 H     1 <1>   0.1000 
@<TRIPOS>BOND
  1   1   2  1   
  2   2   3  ar  
  3   2   4  ar  
  4   3   5  ar  
  5   3  24  1   
  6   4   6  ar  
  7   4  25  1   
  8   5   7  ar  
  9   5   8  1   
 10   6   7  ar  
 11   6  26  1   
 12   7   9  1   
 13   8  10  2   
 14   8  11  am  
 15   9  12  1   
 16  11  13  1   
 17  11  14  1   
 18  12  27  1   
 19  12  28  1   
 20  12  29  1   
 21  13  15  1   
 22  13  30  1   
 23  13  31  1   
 24  14  16  1   
 25  14  32  1   
 26  14  33  1   
 27  15  16  1   
 28  15  17  1   
 29  15  18  1   
 30  16  18  1   
 31  16  19  1   
 32  17  20  ar  
 33  17  21  ar  
 34  18  34  1   
 35  18  35  1   
 36  19  22  ar  
 37  19  23  ar  
@<TRIPOS>SUBSTRUCTURE
  1 ****  13 GROUP 4 **** **** 0

# MOE 2024.06 (io_trps.svl 2023.06)
