@<TRIPOS>MOLECULE
NONAME
49 52 1 0 0 
SMALL
USER_CHARGES


@<TRIPOS>ATOM
  1 O        2.0250     0.4730    -1.8280 O.2   1 <1>  -0.5700 
  2 C        2.2290    -0.0440    -0.7440 C.2   1 <1>   0.5440 
  3 N        2.3090     0.7660     0.3750 N.am  1 <1>  -0.6600 
  4 C        2.3470    -1.4870    -0.6780 C.ar  1 <1>   0.0860 
  5 C        2.6270     0.2450     1.7470 C.3   1 <1>   0.1400 
  6 C        2.0940     2.2370     0.2640 C.3   1 <1>   0.1400 
  7 C        1.2310    -2.2890    -0.9400 C.ar  1 <1>  -0.1500 
  8 C        3.5570    -2.1240    -0.3680 C.ar  1 <1>  -0.1500 
  9 C        3.6520     1.0980     2.5170 C.3   1 <1>   0.1400 
 10 C        3.4090     2.9560    -0.0660 C.3   1 <1>  -0.1600 
 11 C        1.3360    -3.6630    -0.8750 C.ar  1 <1>  -0.1440 
 12 C        3.6570    -3.5040    -0.3030 C.ar  1 <1>  -0.1500 
 13 N        4.7100     1.6540     1.6260 N.am  1 <1>  -0.6600 
 14 C        4.4290     3.0070     1.0790 C.3   1 <1>   0.1400 
 15 C        2.5280    -4.2580    -0.5600 C.ar  1 <1>   0.0820 
 16 C        0.3140    -4.7360    -1.1050 C.3   1 <1>  -0.0170 
 17 C        5.7640     0.8750     1.1980 C.2   1 <1>   0.7160 
 18 O        2.4560    -5.5940    -0.5390 O.3   1 <1>  -0.3630 
 19 C        1.1390    -6.0140    -0.8670 C.3   1 <1>   0.1200 
 20 O        5.8520    -0.2700     1.6100 O.2   1 <1>  -0.5700 
 21 C        6.7560     1.3950     0.2830 C.2   1 <1>  -0.0860 
 22 C        6.8040     1.3620    -1.0910 C.2   1 <1>  -0.3320 
 23 C        7.9200     2.0840     0.6770 C.2   1 <1>  -0.1500 
 24 N        7.9200     1.9880    -1.5300 N.pl3 1 <1>   0.0330 
 25 C        5.8040     0.7350    -2.0470 C.3   1 <1>  -0.0600 
 26 C        8.6010     2.4320    -0.4420 C.2   1 <1>  -0.3020 
 27 H        3.0220    -0.7510     1.6880 H     1 <1>   0.0800 
 28 H        1.7180     0.1880     2.3190 H     1 <1>   0.0800 
 29 H        1.6720     2.6190     1.1770 H     1 <1>   0.0800 
 30 H        1.3840     2.4290    -0.5230 H     1 <1>   0.0800 
 31 H        0.2970    -1.8210    -1.1950 H     1 <1>   0.1500 
 32 H        4.4290    -1.5250    -0.1710 H     1 <1>   0.1500 
 33 H        4.1080     0.4910     3.2810 H     1 <1>   0.0800 
 34 H        3.1420     1.9020     3.0150 H     1 <1>   0.0800 
 35 H        3.1760     3.9670    -0.3410 H     1 <1>   0.0800 
 36 H        3.8550     2.4970    -0.9280 H     1 <1>   0.0800 
 37 H        4.5850    -3.9890    -0.0600 H     1 <1>   0.1500 
 38 H        4.0530     3.6330     1.8700 H     1 <1>   0.0800 
 39 H        5.3380     3.4580     0.7220 H     1 <1>   0.0800 
 40 H       -0.0680    -4.7040    -2.1090 H     1 <1>   0.0800 
 41 H       -0.4960    -4.6640    -0.4010 H     1 <1>   0.0800 
 42 H        1.1940    -6.6210    -1.7530 H     1 <1>   0.0800 
 43 H        0.7550    -6.5880    -0.0430 H     1 <1>   0.0800 
 44 H        8.1890     2.2770     1.7010 H     1 <1>   0.1500 
 45 H        8.2060     2.1030    -2.5090 H     1 <1>   0.2700 
 46 H        4.9590     0.3490    -1.5070 H     1 <1>   0.0800 
 47 H        6.2610    -0.0760    -2.5840 H     1 <1>   0.0800 
 48 H        5.4460     1.4650    -2.7500 H     1 <1>   0.0800 
 49 H        9.5320     2.9650    -0.5230 H     1 <1>   0.1500 
@<TRIPOS>BOND
  1   1   2  2   
  2   2   3  am  
  3   2   4  1   
  4   3   5  1   
  5   3   6  1   
  6   4   7  ar  
  7   4   8  ar  
  8   5   9  1   
  9   5  27  1   
 10   5  28  1   
 11   6  10  1   
 12   6  29  1   
 13   6  30  1   
 14   7  11  ar  
 15   7  31  1   
 16   8  12  ar  
 17   8  32  1   
 18   9  13  1   
 19   9  33  1   
 20   9  34  1   
 21  10  14  1   
 22  10  35  1   
 23  10  36  1   
 24  11  15  ar  
 25  11  16  1   
 26  12  15  ar  
 27  12  37  1   
 28  13  14  1   
 29  13  17  am  
 30  14  38  1   
 31  14  39  1   
 32  15  18  1   
 33  16  19  1   
 34  16  40  1   
 35  16  41  1   
 36  17  20  2   
 37  17  21  1   
 38  18  19  1   
 39  19  42  1   
 40  19  43  1   
 41  21  22  2   
 42  21  23  1   
 43  22  24  1   
 44  22  25  1   
 45  23  26  2   
 46  23  44  1   
 47  24  26  1   
 48  24  45  1   
 49  25  46  1   
 50  25  47  1   
 51  25  48  1   
 52  26  49  1   
@<TRIPOS>SUBSTRUCTURE
  1 ****   8 GROUP 4 **** **** 0

# MOE 2024.06 (io_trps.svl 2023.06)
