@<TRIPOS>MOLECULE
NONAME
49 52 1 0 0 
SMALL
USER_CHARGES


@<TRIPOS>ATOM
  1 O       -1.0920     1.0420    -1.9160 O.2   1 <1>  -0.5700 
  2 C       -1.9430     1.3210    -1.1010 C.2   1 <1>   0.6300 
  3 N       -3.2040     0.7790    -1.1550 N.am  1 <1>  -0.6600 
  4 C       -1.5450     2.2810     0.0050 C.3   1 <1>   0.0000 
  5 C       -4.2500     0.9450    -0.1060 C.3   1 <1>   0.1400 
  6 C       -3.6010    -0.1670    -2.2330 C.3   1 <1>   0.1400 
  7 C       -1.1040     1.4820     1.2130 C.2   1 <1>   0.6300 
  8 C       -0.7950     3.5450    -0.3380 C.3   1 <1>  -0.2000 
  9 C       -2.2070     3.6300     0.1440 C.3   1 <1>  -0.2000 
 10 C       -4.5220    -0.4140     0.5420 C.3   1 <1>  -0.1600 
 11 C       -3.8720    -1.5410    -1.6160 C.3   1 <1>  -0.1600 
 12 O       -1.8150     1.4010     2.1830 O.2   1 <1>  -0.5700 
 13 N        0.0890     0.8630     1.1930 N.am  1 <1>  -0.8000 
 14 C       -4.9260    -1.4730    -0.4990 C.3   1 <1>   0.4240 
 15 O       -6.1040    -1.0330    -1.1330 O.3   1 <1>  -0.5600 
 16 C       -5.1080    -2.8620     0.1520 C.ar  1 <1>  -0.1440 
 17 C       -7.3160    -1.3100    -0.5020 C.3   1 <1>   0.1200 
 18 C       -6.3430    -3.5030     0.1490 C.ar  1 <1>  -0.1440 
 19 C       -4.0330    -3.4990     0.7630 C.ar  1 <1>  -0.1500 
 20 C       -7.5320    -2.8190    -0.4950 C.3   1 <1>  -0.0170 
 21 C       -6.4940    -4.7530     0.7290 C.ar  1 <1>  -0.1500 
 22 C       -4.1830    -4.7440     1.3450 C.ar  1 <1>  -0.1500 
 23 C       -5.4100    -5.3820     1.3310 C.ar  1 <1>   0.0830 
 24 O       -5.4730    -6.6040     1.9190 O.3   1 <1>  -0.3630 
 25 C       -6.6710    -7.3470     1.9390 C.3   1 <1>   0.0400 
 26 H       -5.1500     1.3210    -0.5640 H     1 <1>   0.0800 
 27 H       -3.9480     1.6440     0.6510 H     1 <1>   0.0800 
 28 H       -2.8260    -0.2490    -2.9760 H     1 <1>   0.0800 
 29 H       -4.4890     0.2020    -2.7190 H     1 <1>   0.0800 
 30 H       -0.5840     3.7470    -1.3740 H     1 <1>   0.1000 
 31 H       -0.0070     3.8750     0.3160 H     1 <1>   0.1000 
 32 H       -2.4010     4.0000     1.1360 H     1 <1>   0.1000 
 33 H       -2.9770     3.9010    -0.5570 H     1 <1>   0.1000 
 34 H       -5.2860    -0.3190     1.2890 H     1 <1>   0.0800 
 35 H       -3.6280    -0.7250     1.0490 H     1 <1>   0.0800 
 36 H       -2.9450    -1.9210    -1.2300 H     1 <1>   0.0800 
 37 H       -4.2090    -2.2230    -2.3750 H     1 <1>   0.0800 
 38 H        0.3900     0.3070     1.9930 H     1 <1>   0.3700 
 39 H        0.6770     0.8380     0.3570 H     1 <1>   0.3700 
 40 H       -8.0960    -0.8200    -1.0580 H     1 <1>   0.0800 
 41 H       -7.2940    -0.9160     0.4980 H     1 <1>   0.0800 
 42 H       -3.0650    -3.0310     0.7940 H     1 <1>   0.1500 
 43 H       -7.6490    -3.1690    -1.5050 H     1 <1>   0.0800 
 44 H       -8.4320    -3.0450     0.0490 H     1 <1>   0.0800 
 45 H       -7.4580    -5.2230     0.7050 H     1 <1>   0.1500 
 46 H       -3.3480    -5.2310     1.8140 H     1 <1>   0.1500 
 47 H       -6.4780    -8.2760     2.4440 H     1 <1>   0.0800 
 48 H       -6.9790    -7.5380     0.9270 H     1 <1>   0.0800 
 49 H       -7.4190    -6.7890     2.4730 H     1 <1>   0.0800 
@<TRIPOS>BOND
  1   1   2  2   
  2   2   3  am  
  3   2   4  1   
  4   3   5  1   
  5   3   6  1   
  6   4   7  1   
  7   4   8  1   
  8   4   9  1   
  9   5  10  1   
 10   5  26  1   
 11   5  27  1   
 12   6  11  1   
 13   6  28  1   
 14   6  29  1   
 15   7  12  2   
 16   7  13  am  
 17   8   9  1   
 18   8  30  1   
 19   8  31  1   
 20   9  32  1   
 21   9  33  1   
 22  10  14  1   
 23  10  34  1   
 24  10  35  1   
 25  11  14  1   
 26  11  36  1   
 27  11  37  1   
 28  13  38  1   
 29  13  39  1   
 30  14  15  1   
 31  14  16  1   
 32  15  17  1   
 33  16  18  ar  
 34  16  19  ar  
 35  17  20  1   
 36  17  40  1   
 37  17  41  1   
 38  18  20  1   
 39  18  21  ar  
 40  19  22  ar  
 41  19  42  1   
 42  20  43  1   
 43  20  44  1   
 44  21  23  ar  
 45  21  45  1   
 46  22  23  ar  
 47  22  46  1   
 48  23  24  1   
 49  24  25  1   
 50  25  47  1   
 51  25  48  1   
 52  25  49  1   
@<TRIPOS>SUBSTRUCTURE
  1 ****  10 GROUP 4 **** **** 0

# MOE 2024.06 (io_trps.svl 2023.06)
