@<TRIPOS>MOLECULE
NONAME
54 56 1 0 0 
SMALL
USER_CHARGES


@<TRIPOS>ATOM
  1 O        1.1150     0.1960    -1.1290 O.2   1 <1>  -0.5700 
  2 C        1.8170    -0.5050    -0.4420 C.2   1 <1>   0.5690 
  3 N        2.8410     0.0350     0.2960 N.am  1 <1>  -0.6600 
  4 C        1.5590    -2.0000    -0.4370 C.3   1 <1>  -0.0990 
  5 C        3.9340    -0.7360     0.9690 C.3   1 <1>   0.1400 
  6 C        2.9150     1.5100     0.4900 C.3   1 <1>   0.1400 
  7 C        0.2500    -2.3750    -1.1480 C.3   1 <1>   0.0960 
  8 C        5.2750    -0.6620     0.2020 C.3   1 <1>   0.3430 
  9 C        3.7010     2.1680    -0.6490 C.3   1 <1>  -0.1600 
 10 N        0.0170    -3.8290    -1.0360 N.pl3 1 <1>   0.0480 
 11 N        5.6770     0.7280    -0.2030 N.4   1 <1>  -0.9590 
 12 C        4.7970     1.3000    -1.2640 C.3   1 <1>   0.3430 
 13 C       -0.8860    -4.5090    -0.2830 C.2   1 <1>   0.0070 
 14 C        0.7190    -4.7850    -1.6730 C.2   1 <1>  -0.3020 
 15 C        7.1100     0.8160    -0.5940 C.3   1 <1>   0.5230 
 16 N       -0.7900    -5.7940    -0.3970 N.2   1 <1>  -0.5650 
 17 C       -1.9300    -3.8540     0.6100 C.3   1 <1>   0.0200 
 18 C        0.2160    -5.9710    -1.2710 C.2   1 <1>   0.0770 
 19 C        7.5040     2.2760    -0.5160 C.2   1 <1>  -0.0400 
 20 C       -1.3220    -3.3280     1.9150 C.3   1 <1>  -0.2400 
 21 O        7.1940     2.9410     0.5820 O.3   1 <1>  -0.2800 
 22 C        8.1280     3.0840    -1.4000 C.2   1 <1>  -0.1500 
 23 C        7.6150     4.1800     0.4290 C.2   1 <1>  -0.0400 
 24 C        8.2020     4.3350    -0.7760 C.2   1 <1>  -0.1500 
 25 C        7.3990     5.1720     1.5520 C.3   1 <1>  -0.0600 
 26 H        1.5030    -2.3350     0.5820 H     1 <1>   0.0800 
 27 H        2.3780    -2.4920    -0.9260 H     1 <1>   0.0800 
 28 H        3.6580    -1.7700     1.0740 H     1 <1>   0.0800 
 29 H        4.0740    -0.3530     1.9650 H     1 <1>   0.0800 
 30 H        3.3830     1.7280     1.4350 H     1 <1>   0.0800 
 31 H        1.9200     1.9250     0.5250 H     1 <1>   0.0800 
 32 H        0.3010    -2.1120    -2.1900 H     1 <1>   0.0800 
 33 H       -0.5760    -1.8450    -0.7090 H     1 <1>   0.0800 
 34 H        5.2010    -1.2800    -0.6770 H     1 <1>   0.0800 
 35 H        6.0400    -1.0880     0.8310 H     1 <1>   0.0800 
 36 H        4.1190     3.0970    -0.3060 H     1 <1>   0.0800 
 37 H        3.0040     2.4160    -1.4310 H     1 <1>   0.0800 
 38 H        5.6120     1.3670     0.6030 H     1 <1>   0.4500 
 39 H        5.3730     1.9100    -1.9430 H     1 <1>   0.0800 
 40 H        4.3440     0.5040    -1.8330 H     1 <1>   0.0800 
 41 H        1.5150    -4.5830    -2.3640 H     1 <1>   0.1500 
 42 H        7.2660     0.4320    -1.5880 H     1 <1>   0.0800 
 43 H        7.7180     0.2590     0.0990 H     1 <1>   0.0800 
 44 H       -2.6780    -4.5900     0.8490 H     1 <1>   0.0800 
 45 H       -2.4200    -3.0590     0.0780 H     1 <1>   0.0800 
 46 H        0.5250    -6.9580    -1.5710 H     1 <1>   0.1500 
 47 H       -0.8090    -4.1260     2.4220 H     1 <1>   0.0800 
 48 H       -2.1000    -2.9560     2.5570 H     1 <1>   0.0800 
 49 H       -0.6280    -2.5340     1.7210 H     1 <1>   0.0800 
 50 H        8.5110     2.8690    -2.3840 H     1 <1>   0.1500 
 51 H        8.6460     5.2200    -1.1990 H     1 <1>   0.1500 
 52 H        7.8930     4.8300     2.4430 H     1 <1>   0.0800 
 53 H        6.3480     5.2780     1.7530 H     1 <1>   0.0800 
 54 H        7.7990     6.1330     1.2810 H     1 <1>   0.0800 
@<TRIPOS>BOND
  1   1   2  2   
  2   2   3  am  
  3   2   4  1   
  4   3   5  1   
  5   3   6  1   
  6   4   7  1   
  7   4  26  1   
  8   4  27  1   
  9   5   8  1   
 10   5  28  1   
 11   5  29  1   
 12   6   9  1   
 13   6  30  1   
 14   6  31  1   
 15   7  10  1   
 16   7  32  1   
 17   7  33  1   
 18   8  11  1   
 19   8  34  1   
 20   8  35  1   
 21   9  12  1   
 22   9  36  1   
 23   9  37  1   
 24  10  13  1   
 25  10  14  1   
 26  11  12  1   
 27  11  15  1   
 28  11  38  1   
 29  12  39  1   
 30  12  40  1   
 31  13  16  2   
 32  13  17  1   
 33  14  18  2   
 34  14  41  1   
 35  15  19  1   
 36  15  42  1   
 37  15  43  1   
 38  16  18  1   
 39  17  20  1   
 40  17  44  1   
 41  17  45  1   
 42  18  46  1   
 43  19  21  1   
 44  19  22  2   
 45  20  47  1   
 46  20  48  1   
 47  20  49  1   
 48  21  23  1   
 49  22  24  1   
 50  22  50  1   
 51  23  24  2   
 52  23  25  1   
 53  24  51  1   
 54  25  52  1   
 55  25  53  1   
 56  25  54  1   
@<TRIPOS>SUBSTRUCTURE
  1 ****   3 GROUP 4 **** **** 0

# MOE 2024.06 (io_trps.svl 2023.06)
