@<TRIPOS>MOLECULE
NONAME
48 50 1 0 0 
SMALL
USER_CHARGES


@<TRIPOS>ATOM
  1 N        0.0150    -0.7980     0.0490 N.ar  1 <1>  -0.1790 
  2 C        0.9560     0.2180     0.0410 C.ar  1 <1>   0.3610 
  3 C        0.2850    -2.0900    -0.1410 C.ar  1 <1>   0.4610 
  4 C        2.3030    -0.1300    -0.1770 C.ar  1 <1>   0.0000 
  5 C        0.5730     1.5580     0.2450 C.ar  1 <1>  -0.1440 
  6 N       -0.7190    -2.9740    -0.1190 N.pl3 1 <1>  -0.8690 
  7 C        1.6390    -2.4430    -0.3560 C.ar  1 <1>  -0.1500 
  8 C        2.6280    -1.5090    -0.3770 C.ar  1 <1>  -0.1430 
  9 C        3.2470     0.9040    -0.1850 C.ar  1 <1>  -0.1500 
 10 C        1.5380     2.5500     0.2290 C.ar  1 <1>  -0.1430 
 11 C       -0.9080     1.8890     0.4790 C.3   1 <1>  -0.0970 
 12 C       -0.6570    -4.4290    -0.3750 C.3   1 <1>   0.3900 
 13 C        4.0740    -1.9310    -0.6120 C.3   1 <1>  -0.0970 
 14 C        2.8720     2.2070     0.0130 C.ar  1 <1>  -0.1500 
 15 C        1.2280     4.0300     0.4380 C.3   1 <1>  -0.0970 
 16 C       -2.0680    -4.8490    -0.7070 C.2   1 <1>  -0.1810 
 17 C       -2.7230    -4.6110    -1.9090 C.2   1 <1>   0.1390 
 18 C       -2.9750    -5.4990     0.0530 C.2   1 <1>  -0.3020 
 19 N       -3.9380    -5.0610    -1.8990 N.2   1 <1>  -0.7070 
 20 N       -4.0960    -5.6210    -0.6860 N.pl3 1 <1>   0.3140 
 21 C       -5.3600    -6.2700    -0.2820 C.3   1 <1>   0.0960 
 22 C       -6.2140    -5.3230     0.5730 C.3   1 <1>  -0.1600 
 23 C       -7.5280    -5.9890     0.9980 C.3   1 <1>  -0.2400 
 24 H       -0.9490    -0.5300     0.2020 H     1 <1>   0.4570 
 25 H       -1.7000    -2.7230     0.0550 H     1 <1>   0.4000 
 26 H        1.8700    -3.4820    -0.5010 H     1 <1>   0.1500 
 27 H        4.2880     0.6860    -0.3480 H     1 <1>   0.1500 
 28 H       -1.2690     1.3890     1.3600 H     1 <1>   0.0800 
 29 H       -1.4970     1.5910    -0.3700 H     1 <1>   0.0800 
 30 H       -1.0800     2.9380     0.6240 H     1 <1>   0.0800 
 31 H       -0.3170    -4.9460     0.5070 H     1 <1>   0.0800 
 32 H       -0.0010    -4.6510    -1.1990 H     1 <1>   0.0800 
 33 H        4.4620    -1.4570    -1.4970 H     1 <1>   0.0800 
 34 H        4.1540    -2.9950    -0.7420 H     1 <1>   0.0800 
 35 H        4.6850    -1.6510     0.2290 H     1 <1>   0.0800 
 36 H        3.6260     2.9770     0.0000 H     1 <1>   0.1500 
 37 H        0.5530     4.3800    -0.3220 H     1 <1>   0.0800 
 38 H        2.1200     4.6280     0.3860 H     1 <1>   0.0800 
 39 H        0.7850     4.1850     1.4050 H     1 <1>   0.0800 
 40 H       -2.2920    -4.1090    -2.7600 H     1 <1>   0.1500 
 41 H       -2.8980    -5.8770     1.0570 H     1 <1>   0.1500 
 42 H       -5.1240    -7.1630     0.2660 H     1 <1>   0.0800 
 43 H       -5.8950    -6.5450    -1.1730 H     1 <1>   0.0800 
 44 H       -6.4370    -4.4370     0.0020 H     1 <1>   0.0800 
 45 H       -5.6650    -5.0360     1.4530 H     1 <1>   0.0800 
 46 H       -8.1060    -6.2670     0.1340 H     1 <1>   0.0800 
 47 H       -8.1110    -5.3060     1.5910 H     1 <1>   0.0800 
 48 H       -7.3340    -6.8700     1.5850 H     1 <1>   0.0800 
@<TRIPOS>BOND
  1   1   2  ar  
  2   1   3  ar  
  3   1  24  1   
  4   2   4  ar  
  5   2   5  ar  
  6   3   6  1   
  7   3   7  ar  
  8   4   8  ar  
  9   4   9  ar  
 10   5  10  ar  
 11   5  11  1   
 12   6  12  1   
 13   6  25  1   
 14   7   8  ar  
 15   7  26  1   
 16   8  13  1   
 17   9  14  ar  
 18   9  27  1   
 19  10  14  ar  
 20  10  15  1   
 21  11  28  1   
 22  11  29  1   
 23  11  30  1   
 24  12  16  1   
 25  12  31  1   
 26  12  32  1   
 27  13  33  1   
 28  13  34  1   
 29  13  35  1   
 30  14  36  1   
 31  15  37  1   
 32  15  38  1   
 33  15  39  1   
 34  16  17  1   
 35  16  18  2   
 36  17  19  2   
 37  17  40  1   
 38  18  20  1   
 39  18  41  1   
 40  19  20  1   
 41  20  21  1   
 42  21  22  1   
 43  21  42  1   
 44  21  43  1   
 45  22  23  1   
 46  22  44  1   
 47  22  45  1   
 48  23  46  1   
 49  23  47  1   
 50  23  48  1   
@<TRIPOS>SUBSTRUCTURE
  1 ****   6 GROUP 4 **** **** 0

# MOE 2024.06 (io_trps.svl 2023.06)
