@<TRIPOS>MOLECULE
NONAME
58 61 1 0 0 
SMALL
USER_CHARGES


@<TRIPOS>ATOM
  1 O        0.1790    -0.7550     0.6650 O.3   1 <1>  -0.3630 
  2 C       -0.0300    -2.0500     0.3210 C.ar  1 <1>   0.0830 
  3 C        1.2970    -0.3580     1.4270 C.3   1 <1>   0.0400 
  4 C       -1.1310    -2.3320    -0.4410 C.ar  1 <1>  -0.1500 
  5 C        0.8270    -3.0970     0.7100 C.ar  1 <1>  -0.1500 
  6 C       -1.4340    -3.6450    -0.8480 C.ar  1 <1>   0.0000 
  7 C        0.5550    -4.3820     0.3280 C.ar  1 <1>  -0.1500 
  8 C       -0.5770    -4.6930    -0.4530 C.ar  1 <1>   0.0000 
  9 C       -2.5590    -3.9530    -1.6370 C.ar  1 <1>  -0.1500 
 10 C       -0.8850    -6.0080    -0.8530 C.ar  1 <1>  -0.1500 
 11 C       -2.8360    -5.2380    -2.0110 C.ar  1 <1>  -0.1500 
 12 C       -1.9960    -6.2880    -1.6070 C.ar  1 <1>  -0.1430 
 13 C       -2.3370    -7.7090    -2.0050 C.3   1 <1>   0.4860 
 14 N       -2.9320    -8.3960    -0.8190 N.4   1 <1>  -0.9590 
 15 C       -3.0540    -9.8830    -1.0470 C.3   1 <1>   0.3430 
 16 C       -4.2450    -7.7690    -0.4670 C.3   1 <1>   0.3430 
 17 C       -3.7350   -10.6500     0.1330 C.3   1 <1>   0.4230 
 18 C       -4.8380    -8.4620     0.7630 C.3   1 <1>  -0.1600 
 19 N       -3.8400   -12.1660    -0.0390 N.4   1 <1>  -0.9590 
 20 C       -5.0700    -9.9870     0.5830 C.3   1 <1>   0.0000 
 21 C       -4.7920   -12.8220     0.9240 C.3   1 <1>   0.3430 
 22 C       -4.1700   -12.6290    -1.4310 C.3   1 <1>   0.2630 
 23 C       -5.4730   -10.5820     1.9620 C.3   1 <1>  -0.1600 
 24 C       -6.2510   -10.2140    -0.4070 C.3   1 <1>   0.1200 
 25 C       -4.9310   -12.0050     2.2100 C.3   1 <1>  -0.1600 
 26 O       -5.8840    -9.9380    -1.7170 O.3   1 <1>  -0.6800 
 27 H        1.2470     0.7070     1.5600 H     1 <1>   0.0800 
 28 H        2.1940    -0.6180     0.8930 H     1 <1>   0.0800 
 29 H        1.2590    -0.8480     2.3840 H     1 <1>   0.0800 
 30 H       -1.7820    -1.5310    -0.7390 H     1 <1>   0.1500 
 31 H        1.6970    -2.8950     1.3060 H     1 <1>   0.1500 
 32 H        1.2120    -5.1790     0.6250 H     1 <1>   0.1500 
 33 H       -3.1980    -3.1430    -1.9440 H     1 <1>   0.1500 
 34 H       -0.2060    -6.7820    -0.5440 H     1 <1>   0.1500 
 35 H       -3.7010    -5.4360    -2.6220 H     1 <1>   0.1500 
 36 H       -1.4340    -8.2110    -2.3130 H     1 <1>   0.0800 
 37 H       -3.0280    -7.7090    -2.8320 H     1 <1>   0.0800 
 38 H       -2.2890    -8.1890    -0.0420 H     1 <1>   0.4500 
 39 H       -3.6320   -10.0440    -1.9410 H     1 <1>   0.0800 
 40 H       -2.0720   -10.2950    -1.2060 H     1 <1>   0.0800 
 41 H       -4.1060    -6.7210    -0.2500 H     1 <1>   0.0800 
 42 H       -4.9280    -7.8490    -1.2980 H     1 <1>   0.0800 
 43 H       -3.0700   -10.5030     0.9670 H     1 <1>   0.0800 
 44 H       -4.1790    -8.2740     1.5930 H     1 <1>   0.0800 
 45 H       -5.7730    -7.9820     1.0010 H     1 <1>   0.0800 
 46 H       -2.9140   -12.5590     0.1940 H     1 <1>   0.4500 
 47 H       -5.7660   -12.9120     0.4710 H     1 <1>   0.0800 
 48 H       -4.4490   -13.8180     1.1600 H     1 <1>   0.0800 
 49 H       -5.1310   -12.2500    -1.7390 H     1 <1>   0.0800 
 50 H       -4.2050   -13.7070    -1.4680 H     1 <1>   0.0800 
 51 H       -3.4260   -12.2940    -2.1350 H     1 <1>   0.0800 
 52 H       -5.1160    -9.9640     2.7700 H     1 <1>   0.0800 
 53 H       -6.5470   -10.5920     2.0550 H     1 <1>   0.0800 
 54 H       -7.0810    -9.5740    -0.1530 H     1 <1>   0.0800 
 55 H       -6.6020   -11.2310    -0.3760 H     1 <1>   0.0800 
 56 H       -5.5940   -12.5210     2.8830 H     1 <1>   0.0800 
 57 H       -3.9720   -11.9580     2.6980 H     1 <1>   0.0800 
 58 H       -6.6810    -9.9320    -2.2970 H     1 <1>   0.4000 
@<TRIPOS>BOND
  1   1   2  1   
  2   1   3  1   
  3   2   4  ar  
  4   2   5  ar  
  5   3  27  1   
  6   3  28  1   
  7   3  29  1   
  8   4   6  ar  
  9   4  30  1   
 10   5   7  ar  
 11   5  31  1   
 12   6   8  ar  
 13   6   9  ar  
 14   7   8  ar  
 15   7  32  1   
 16   8  10  ar  
 17   9  11  ar  
 18   9  33  1   
 19  10  12  ar  
 20  10  34  1   
 21  11  12  ar  
 22  11  35  1   
 23  12  13  1   
 24  13  14  1   
 25  13  36  1   
 26  13  37  1   
 27  14  15  1   
 28  14  16  1   
 29  14  38  1   
 30  15  17  1   
 31  15  39  1   
 32  15  40  1   
 33  16  18  1   
 34  16  41  1   
 35  16  42  1   
 36  17  19  1   
 37  17  20  1   
 38  17  43  1   
 39  18  20  1   
 40  18  44  1   
 41  18  45  1   
 42  19  21  1   
 43  19  22  1   
 44  19  46  1   
 45  20  23  1   
 46  20  24  1   
 47  21  25  1   
 48  21  47  1   
 49  21  48  1   
 50  22  49  1   
 51  22  50  1   
 52  22  51  1   
 53  23  25  1   
 54  23  52  1   
 55  23  53  1   
 56  24  26  1   
 57  24  54  1   
 58  24  55  1   
 59  25  56  1   
 60  25  57  1   
 61  26  58  1   
@<TRIPOS>SUBSTRUCTURE
  1 ****  14 GROUP 4 **** **** 0

# MOE 2024.06 (io_trps.svl 2023.06)
