@<TRIPOS>MOLECULE
NONAME
38 40 1 0 0 
SMALL
USER_CHARGES


@<TRIPOS>ATOM
  1 S        2.2040    -0.0320     0.3720 S.3   1 <1>  -0.0800 
  2 C        0.5160    -0.2160    -0.0410 C.2   1 <1>   0.4620 
  3 C        2.3310    -1.7600     0.4730 C.2   1 <1>  -0.1100 
  4 N        0.1130    -1.4260    -0.0940 N.2   1 <1>  -0.5650 
  5 N       -0.2250     0.8940    -0.2690 N.pl3 1 <1>  -0.8840 
  6 C        1.1410    -2.3410     0.1970 C.2   1 <1>   0.1410 
  7 C        0.9440    -3.7940     0.2110 C.2   1 <1>   0.7160 
  8 O        1.8630    -4.4990     0.5950 O.2   1 <1>  -0.5700 
  9 N       -0.2120    -4.4390    -0.1910 N.am  1 <1>  -0.6600 
 10 C       -1.4000    -3.8220    -0.8340 C.3   1 <1>   0.1400 
 11 C       -0.3840    -5.9100    -0.0870 C.3   1 <1>   0.1400 
 12 C       -2.2530    -4.9990    -1.3040 C.3   1 <1>   0.2000 
 13 C       -1.8560    -6.1690    -0.4080 C.3   1 <1>  -0.0800 
 14 O       -3.6080    -4.7370    -1.1760 O.3   1 <1>  -0.6800 
 15 C       -2.1140    -7.5400    -1.0500 C.3   1 <1>   0.0210 
 16 C       -1.5790    -8.6610    -0.1800 C.2   1 <1>   0.1080 
 17 N       -1.9760    -8.8570     1.0390 N.2   1 <1>  -0.7070 
 18 C       -0.6120    -9.5800    -0.5720 C.2   1 <1>  -0.1500 
 19 N       -1.2670    -9.9200     1.4610 N.pl3 1 <1>   0.3000 
 20 C       -0.4320   -10.3760     0.5030 C.2   1 <1>  -0.3320 
 21 C        0.5000   -11.5600     0.6770 C.3   1 <1>  -0.0600 
 22 H        3.2830    -2.1880     0.7300 H     1 <1>   0.1500 
 23 H        0.1610     1.8340    -0.1790 H     1 <1>   0.4000 
 24 H       -1.2190     0.8090    -0.4840 H     1 <1>   0.4000 
 25 H       -1.9290    -3.2310    -0.1060 H     1 <1>   0.0800 
 26 H       -1.1040    -3.2090    -1.6670 H     1 <1>   0.0800 
 27 H        0.2600    -6.3880    -0.8060 H     1 <1>   0.0800 
 28 H       -0.1330    -6.2600     0.9010 H     1 <1>   0.0800 
 29 H       -2.0440    -5.2060    -2.3400 H     1 <1>   0.0800 
 30 H       -2.3930    -6.1100     0.5220 H     1 <1>   0.0800 
 31 H       -3.8450    -4.6470    -0.2330 H     1 <1>   0.4000 
 32 H       -1.6490    -7.5890    -2.0180 H     1 <1>   0.0800 
 33 H       -3.1730    -7.6810    -1.1800 H     1 <1>   0.0800 
 34 H       -0.1280    -9.6240    -1.5310 H     1 <1>   0.1500 
 35 H       -1.3750   -10.3100     2.4050 H     1 <1>   0.2700 
 36 H        1.0610   -11.7250    -0.2260 H     1 <1>   0.0800 
 37 H       -0.0640   -12.4490     0.8970 H     1 <1>   0.0800 
 38 H        1.1910   -11.3750     1.4800 H     1 <1>   0.0800 
@<TRIPOS>BOND
  1   1   2  1   
  2   1   3  1   
  3   2   4  2   
  4   2   5  1   
  5   3   6  2   
  6   3  22  1   
  7   4   6  1   
  8   5  23  1   
  9   5  24  1   
 10   6   7  1   
 11   7   8  2   
 12   7   9  am  
 13   9  10  1   
 14   9  11  1   
 15  10  12  1   
 16  10  25  1   
 17  10  26  1   
 18  11  13  1   
 19  11  27  1   
 20  11  28  1   
 21  12  13  1   
 22  12  14  1   
 23  12  29  1   
 24  13  15  1   
 25  13  30  1   
 26  14  31  1   
 27  15  16  1   
 28  15  32  1   
 29  15  33  1   
 30  16  17  2   
 31  16  18  1   
 32  17  19  1   
 33  18  20  2   
 34  18  34  1   
 35  19  20  1   
 36  19  35  1   
 37  20  21  1   
 38  21  36  1   
 39  21  37  1   
 40  21  38  1   
@<TRIPOS>SUBSTRUCTURE
  1 ****  11 GROUP 4 **** **** 0

# MOE 2024.06 (io_trps.svl 2023.06)
