@<TRIPOS>MOLECULE
NONAME
51 53 1 0 0 
SMALL
USER_CHARGES


@<TRIPOS>ATOM
  1 O        0.5600    -0.7510     1.2730 O.3   1 <1>  -0.5600 
  2 C        1.0390    -2.0090     0.8950 C.3   1 <1>   0.2000 
  3 C       -0.1400    -0.7230     2.4760 C.3   1 <1>   0.0400 
  4 C        2.0630    -1.9170    -0.2510 C.3   1 <1>   0.0000 
  5 C       -0.0840    -2.9090     0.3750 C.3   1 <1>  -0.1600 
  6 C        3.4440    -1.5200     0.3160 C.3   1 <1>   0.2090 
  7 C        1.6370    -0.9110    -1.3560 C.3   1 <1>  -0.1600 
  8 C        2.0270    -3.3610    -0.7850 C.3   1 <1>  -0.1600 
  9 C        0.5670    -3.8160    -0.6770 C.3   1 <1>  -0.1600 
 10 N        4.4590    -1.2690    -0.7470 N.pl3 1 <1>  -0.8380 
 11 C        2.7240    -0.7330    -2.4290 C.3   1 <1>  -0.1600 
 12 C        5.5150    -2.1330    -0.9280 C.ar  1 <1>   0.4100 
 13 C        4.0670    -0.3260    -1.8200 C.3   1 <1>   0.2090 
 14 N        5.2120    -3.3780    -1.2310 N.ar  1 <1>  -0.6200 
 15 C        6.8380    -1.7260    -0.8000 C.ar  1 <1>  -0.1430 
 16 C        6.2260    -4.1940    -1.4200 C.ar  1 <1>   0.4770 
 17 C        7.8010    -2.6770    -1.0200 C.ar  1 <1>   0.1600 
 18 C        7.2370    -0.3050    -0.4150 C.3   1 <1>  -0.0170 
 19 N        7.5150    -3.9240    -1.3360 N.ar  1 <1>  -0.6200 
 20 C        5.8770    -5.6190    -1.7730 C.3   1 <1>  -0.0970 
 21 C        7.1560    -0.1130     1.1040 C.3   1 <1>  -0.1600 
 22 C        7.5650     1.3050     1.5150 C.3   1 <1>  -0.2400 
 23 H        1.5080    -2.4730     1.7470 H     1 <1>   0.0800 
 24 H       -0.4250     0.2960     2.6710 H     1 <1>   0.0800 
 25 H        0.4960    -1.0790     3.2670 H     1 <1>   0.0800 
 26 H       -1.0220    -1.3340     2.3930 H     1 <1>   0.0800 
 27 H       -0.5110    -3.4890     1.1730 H     1 <1>   0.0800 
 28 H       -0.8480    -2.3110    -0.0900 H     1 <1>   0.0800 
 29 H        3.8040    -2.2900     0.9770 H     1 <1>   0.0800 
 30 H        3.3350    -0.6180     0.8940 H     1 <1>   0.0800 
 31 H        0.7190    -1.2240    -1.8200 H     1 <1>   0.0800 
 32 H        1.4570     0.0510    -0.9080 H     1 <1>   0.0800 
 33 H        2.4060    -3.4540    -1.7860 H     1 <1>   0.0800 
 34 H        2.6310    -3.9870    -0.1510 H     1 <1>   0.0800 
 35 H        0.5120    -4.8530    -0.3960 H     1 <1>   0.0800 
 36 H        0.0720    -3.6860    -1.6250 H     1 <1>   0.0800 
 37 H        2.4150     0.0240    -3.1270 H     1 <1>   0.0800 
 38 H        2.8610    -1.6430    -2.9840 H     1 <1>   0.0800 
 39 H        3.9920     0.6630    -1.4010 H     1 <1>   0.0800 
 40 H        4.8230    -0.3150    -2.5870 H     1 <1>   0.0800 
 41 H        8.8420    -2.4200    -0.9320 H     1 <1>   0.1500 
 42 H        8.2400    -0.1080    -0.7480 H     1 <1>   0.0800 
 43 H        6.5920     0.4020    -0.9040 H     1 <1>   0.0800 
 44 H        6.4390    -5.9230    -2.6350 H     1 <1>   0.0800 
 45 H        4.8280    -5.7060    -1.9900 H     1 <1>   0.0800 
 46 H        6.1210    -6.2590    -0.9470 H     1 <1>   0.0800 
 47 H        6.1470    -0.3010     1.4300 H     1 <1>   0.0800 
 48 H        7.7990    -0.8270     1.5900 H     1 <1>   0.0800 
 49 H        6.9140     2.0310     1.0590 H     1 <1>   0.0800 
 50 H        8.5780     1.5090     1.2170 H     1 <1>   0.0800 
 51 H        7.4960     1.4110     2.5840 H     1 <1>   0.0800 
@<TRIPOS>BOND
  1   1   2  1   
  2   1   3  1   
  3   2   4  1   
  4   2   5  1   
  5   2  23  1   
  6   3  24  1   
  7   3  25  1   
  8   3  26  1   
  9   4   6  1   
 10   4   7  1   
 11   4   8  1   
 12   5   9  1   
 13   5  27  1   
 14   5  28  1   
 15   6  10  1   
 16   6  29  1   
 17   6  30  1   
 18   7  11  1   
 19   7  31  1   
 20   7  32  1   
 21   8   9  1   
 22   8  33  1   
 23   8  34  1   
 24   9  35  1   
 25   9  36  1   
 26  10  12  1   
 27  10  13  1   
 28  11  13  1   
 29  11  37  1   
 30  11  38  1   
 31  12  14  ar  
 32  12  15  ar  
 33  13  39  1   
 34  13  40  1   
 35  14  16  ar  
 36  15  17  ar  
 37  15  18  1   
 38  16  19  ar  
 39  16  20  1   
 40  17  19  ar  
 41  17  41  1   
 42  18  21  1   
 43  18  42  1   
 44  18  43  1   
 45  20  44  1   
 46  20  45  1   
 47  20  46  1   
 48  21  22  1   
 49  21  47  1   
 50  21  48  1   
 51  22  49  1   
 52  22  50  1   
 53  22  51  1   
@<TRIPOS>SUBSTRUCTURE
  1 ****  10 GROUP 4 **** **** 0

# MOE 2024.06 (io_trps.svl 2023.06)
