@<TRIPOS>MOLECULE
NONAME
49 50 1 0 0 
SMALL
USER_CHARGES


@<TRIPOS>ATOM
  1 S        0.8590     1.1080    -1.5030 S.3   1 <1>  -0.0800 
  2 C        1.3120     0.0260    -0.2080 C.2   1 <1>   0.1980 
  3 C        2.3580     1.9640    -1.2800 C.2   1 <1>  -0.1400 
  4 N        2.4400     0.2810     0.3190 N.2   1 <1>  -0.5650 
  5 C        0.3430    -1.0760     0.1460 C.3   1 <1>  -0.0600 
  6 C        3.0470     1.3810    -0.2800 C.2   1 <1>   0.0460 
  7 C        2.6090     3.1460    -2.1970 C.3   1 <1>  -0.0600 
  8 C        4.4240     1.7870     0.2660 C.3   1 <1>   0.3710 
  9 N        4.5000     3.2350     0.6190 N.3   1 <1>  -0.8100 
 10 C        5.4800     1.4210    -0.7830 C.3   1 <1>  -0.2400 
 11 C        5.7770     3.5850     1.3260 C.3   1 <1>   0.1710 
 12 C        3.3610     3.6130     1.4860 C.3   1 <1>   0.0300 
 13 C        6.0910     5.0810     1.3050 C.2   1 <1>   0.5690 
 14 O        6.8340     5.5480     2.1360 O.2   1 <1>  -0.5700 
 15 N        5.4940     5.8140     0.3220 N.am  1 <1>  -0.5470 
 16 C        5.5480     7.1880     0.0110 C.ar  1 <1>   0.1170 
 17 C        6.7380     7.9370     0.0040 C.ar  1 <1>   0.1170 
 18 C        4.3580     7.8150    -0.3320 C.ar  1 <1>  -0.1500 
 19 N        7.9700     7.3380     0.3140 N.am  1 <1>  -0.5470 
 20 C        6.6880     9.2890    -0.3110 C.ar  1 <1>  -0.1500 
 21 C        4.3250     9.1590    -0.6580 C.ar  1 <1>  -0.1500 
 22 C        9.1270     7.2580    -0.3890 C.2   1 <1>   0.5690 
 23 C        5.4920     9.8990    -0.6440 C.ar  1 <1>  -0.1500 
 24 O       10.0500     6.6050     0.0240 O.2   1 <1>  -0.5700 
 25 C        9.2770     7.9610    -1.7180 C.3   1 <1>  -0.1790 
 26 H       -0.5960    -0.6510     0.4510 H     1 <1>   0.0800 
 27 H        0.7410    -1.6640     0.9530 H     1 <1>   0.0800 
 28 H        0.1870    -1.7100    -0.7060 H     1 <1>   0.0800 
 29 H        1.8230     3.8700    -2.0800 H     1 <1>   0.0800 
 30 H        2.6310     2.8160    -3.2200 H     1 <1>   0.0800 
 31 H        3.5460     3.6130    -1.9630 H     1 <1>   0.0800 
 32 H        4.6030     1.2040     1.1550 H     1 <1>   0.0800 
 33 H        5.4440     2.1070    -1.6090 H     1 <1>   0.0800 
 34 H        5.2780     0.4330    -1.1550 H     1 <1>   0.0800 
 35 H        6.4670     1.4060    -0.3640 H     1 <1>   0.0800 
 36 H        6.6150     3.1060     0.8600 H     1 <1>   0.0800 
 37 H        5.7390     3.2490     2.3480 H     1 <1>   0.0800 
 38 H        2.4320     3.5370     0.9480 H     1 <1>   0.0800 
 39 H        3.4580     4.6300     1.8240 H     1 <1>   0.0800 
 40 H        3.3120     2.9660     2.3460 H     1 <1>   0.0800 
 41 H        4.8090     5.2490    -0.1910 H     1 <1>   0.3700 
 42 H        3.4440     7.2500    -0.3380 H     1 <1>   0.1500 
 43 H        7.9340     6.7020     1.1240 H     1 <1>   0.3700 
 44 H        7.5910     9.8710    -0.2890 H     1 <1>   0.1500 
 45 H        3.3920     9.6300    -0.9180 H     1 <1>   0.1500 
 46 H        5.4700    10.9480    -0.8880 H     1 <1>   0.1500 
 47 H        8.3790     7.8570    -2.2970 H     1 <1>   0.0800 
 48 H       10.0930     7.5260    -2.2640 H     1 <1>   0.0800 
 49 H        9.4840     9.0010    -1.5540 H     1 <1>   0.0800 
@<TRIPOS>BOND
  1   1   2  1   
  2   1   3  1   
  3   2   4  2   
  4   2   5  1   
  5   3   6  2   
  6   3   7  1   
  7   4   6  1   
  8   5  26  1   
  9   5  27  1   
 10   5  28  1   
 11   6   8  1   
 12   7  29  1   
 13   7  30  1   
 14   7  31  1   
 15   8   9  1   
 16   8  10  1   
 17   8  32  1   
 18   9  11  1   
 19   9  12  1   
 20  10  33  1   
 21  10  34  1   
 22  10  35  1   
 23  11  13  1   
 24  11  36  1   
 25  11  37  1   
 26  12  38  1   
 27  12  39  1   
 28  12  40  1   
 29  13  14  2   
 30  13  15  am  
 31  15  16  1   
 32  15  41  1   
 33  16  17  ar  
 34  16  18  ar  
 35  17  19  1   
 36  17  20  ar  
 37  18  21  ar  
 38  18  42  1   
 39  19  22  am  
 40  19  43  1   
 41  20  23  ar  
 42  20  44  1   
 43  21  23  ar  
 44  21  45  1   
 45  22  24  2   
 46  22  25  1   
 47  23  46  1   
 48  25  47  1   
 49  25  48  1   
 50  25  49  1   
@<TRIPOS>SUBSTRUCTURE
  1 ****  15 GROUP 4 **** **** 0

# MOE 2024.06 (io_trps.svl 2023.06)
