@<TRIPOS>MOLECULE
NONAME
63 65 1 0 0 
SMALL
USER_CHARGES


@<TRIPOS>ATOM
  1 O        0.8090    -1.7100     1.9500 O.2   1 <1>  -0.5700 
  2 C        1.6610    -2.0070     1.1460 C.2   1 <1>   0.5690 
  3 N        1.5350    -1.7930    -0.1930 N.am  1 <1>  -0.7300 
  4 C        2.9330    -2.6740     1.6580 C.3   1 <1>   0.1810 
  5 C        0.4270    -1.1900    -0.9360 C.3   1 <1>   0.3000 
  6 O        3.2620    -3.8300     0.8950 O.3   1 <1>  -0.3620 
  7 C        0.2080     0.2480    -0.4650 C.3   1 <1>  -0.2400 
  8 C       -0.8320    -2.0370    -0.7510 C.3   1 <1>  -0.2400 
  9 C        0.8370    -1.1930    -2.4070 C.3   1 <1>  -0.2400 
 10 C        2.4860    -4.9430     0.9150 C.ar  1 <1>   0.0820 
 11 C        2.8280    -5.9550     0.0340 C.ar  1 <1>  -0.1500 
 12 C        1.3900    -5.1150     1.7560 C.ar  1 <1>  -0.1500 
 13 C        2.0840    -7.1200    -0.0250 C.ar  1 <1>  -0.1500 
 14 C        0.6460    -6.2800     1.6990 C.ar  1 <1>  -0.1500 
 15 C        0.9820    -7.2840     0.8030 C.ar  1 <1>  -0.1440 
 16 C        0.1500    -8.5480     0.7180 C.3   1 <1>   0.4860 
 17 N       -0.7510    -8.4220    -0.4560 N.4   1 <1>  -0.9590 
 18 C       -1.3910    -9.7350    -0.7900 C.3   1 <1>   0.5660 
 19 C       -1.7710    -7.3360    -0.2780 C.3   1 <1>   0.3430 
 20 C       -0.2900   -10.6930    -1.2230 C.ar  1 <1>  -0.1440 
 21 C       -2.5010    -9.6250    -1.8710 C.3   1 <1>   0.2000 
 22 C       -2.7660    -7.3030    -1.4510 C.3   1 <1>   0.1200 
 23 C       -0.1070   -11.8720    -0.5150 C.ar  1 <1>  -0.1500 
 24 C        0.5390   -10.4140    -2.3050 C.ar  1 <1>  -0.1500 
 25 O       -3.3730    -8.5520    -1.6000 O.3   1 <1>  -0.5600 
 26 C       -3.3260   -10.9210    -1.9250 C.3   1 <1>   0.1200 
 27 C        0.8980   -12.7530    -0.8700 C.ar  1 <1>  -0.1500 
 28 C        1.5440   -11.2970    -2.6580 C.ar  1 <1>  -0.1500 
 29 O       -3.6850   -11.3160    -0.6380 O.3   1 <1>  -0.6800 
 30 C        1.7250   -12.4650    -1.9400 C.ar  1 <1>  -0.1500 
 31 H        2.2770    -2.1530    -0.7930 H     1 <1>   0.3700 
 32 H        2.8300    -2.9550     2.6890 H     1 <1>   0.0800 
 33 H        3.7510    -1.9840     1.5700 H     1 <1>   0.0800 
 34 H       -0.5530     0.7200    -1.0580 H     1 <1>   0.0800 
 35 H        1.1150     0.8170    -0.5580 H     1 <1>   0.0800 
 36 H       -0.1130     0.2670     0.5610 H     1 <1>   0.0800 
 37 H       -1.6310    -1.6450    -1.3530 H     1 <1>   0.0800 
 38 H       -1.1520    -2.0170     0.2750 H     1 <1>   0.0800 
 39 H       -0.6470    -3.0540    -1.0430 H     1 <1>   0.0800 
 40 H        0.0570    -0.7600    -3.0070 H     1 <1>   0.0800 
 41 H        1.0080    -2.1960    -2.7530 H     1 <1>   0.0800 
 42 H        1.7300    -0.6110    -2.5510 H     1 <1>   0.0800 
 43 H        3.6850    -5.8220    -0.6030 H     1 <1>   0.1500 
 44 H        1.0990    -4.3580     2.4620 H     1 <1>   0.1500 
 45 H        2.3810    -7.8920    -0.7150 H     1 <1>   0.1500 
 46 H       -0.1930    -6.3880     2.3660 H     1 <1>   0.1500 
 47 H       -0.4220    -8.6810     1.6220 H     1 <1>   0.0800 
 48 H        0.8080    -9.3950     0.6000 H     1 <1>   0.0800 
 49 H       -0.1500    -8.1750    -1.2460 H     1 <1>   0.4500 
 50 H       -1.8540   -10.1270     0.1010 H     1 <1>   0.0800 
 51 H       -2.3250    -7.4990     0.6320 H     1 <1>   0.0800 
 52 H       -1.2800    -6.3790    -0.2010 H     1 <1>   0.0800 
 53 H       -2.0670    -9.4500    -2.8390 H     1 <1>   0.0800 
 54 H       -2.2800    -7.0360    -2.3730 H     1 <1>   0.0800 
 55 H       -3.5440    -6.5850    -1.2530 H     1 <1>   0.0800 
 56 H       -0.7450   -12.1230     0.3180 H     1 <1>   0.1500 
 57 H        0.4210    -9.5200    -2.8910 H     1 <1>   0.1500 
 58 H       -2.7510   -11.7190    -2.3650 H     1 <1>   0.0800 
 59 H       -4.2200   -10.7680    -2.5050 H     1 <1>   0.0800 
 60 H        1.0380   -13.6680    -0.3180 H     1 <1>   0.1500 
 61 H        2.1880   -11.0830    -3.4950 H     1 <1>   0.1500 
 62 H       -4.4010   -11.9870    -0.6710 H     1 <1>   0.4000 
 63 H        2.5070   -13.1530    -2.2170 H     1 <1>   0.1500 
@<TRIPOS>BOND
  1   1   2  2   
  2   2   3  am  
  3   2   4  1   
  4   3   5  1   
  5   3  31  1   
  6   4   6  1   
  7   4  32  1   
  8   4  33  1   
  9   5   7  1   
 10   5   8  1   
 11   5   9  1   
 12   6  10  1   
 13   7  34  1   
 14   7  35  1   
 15   7  36  1   
 16   8  37  1   
 17   8  38  1   
 18   8  39  1   
 19   9  40  1   
 20   9  41  1   
 21   9  42  1   
 22  10  11  ar  
 23  10  12  ar  
 24  11  13  ar  
 25  11  43  1   
 26  12  14  ar  
 27  12  44  1   
 28  13  15  ar  
 29  13  45  1   
 30  14  15  ar  
 31  14  46  1   
 32  15  16  1   
 33  16  17  1   
 34  16  47  1   
 35  16  48  1   
 36  17  18  1   
 37  17  19  1   
 38  17  49  1   
 39  18  20  1   
 40  18  21  1   
 41  18  50  1   
 42  19  22  1   
 43  19  51  1   
 44  19  52  1   
 45  20  23  ar  
 46  20  24  ar  
 47  21  25  1   
 48  21  26  1   
 49  21  53  1   
 50  22  25  1   
 51  22  54  1   
 52  22  55  1   
 53  23  27  ar  
 54  23  56  1   
 55  24  28  ar  
 56  24  57  1   
 57  26  29  1   
 58  26  58  1   
 59  26  59  1   
 60  27  30  ar  
 61  27  60  1   
 62  28  30  ar  
 63  28  61  1   
 64  29  62  1   
 65  30  63  1   
@<TRIPOS>SUBSTRUCTURE
  1 ****  15 GROUP 4 **** **** 0

# MOE 2024.06 (io_trps.svl 2023.06)
