@<TRIPOS>MOLECULE
NONAME
62 65 1 0 0 
SMALL
USER_CHARGES


@<TRIPOS>ATOM
  1 O        2.6320    -2.0550    -3.6160 O.2   1 <1>  -0.5700 
  2 C        2.4200    -2.1050    -2.4190 C.2   1 <1>   0.5440 
  3 N        2.4560    -0.9130    -1.7080 N.am  1 <1>  -0.6600 
  4 C        2.1610    -3.4000    -1.8020 C.ar  1 <1>   0.3960 
  5 C        2.5620     0.4110    -2.3990 C.3   1 <1>   0.1400 
  6 C        2.3010    -0.8080    -0.2240 C.3   1 <1>   0.1400 
  7 N        1.0420    -3.5950    -1.0820 N.ar  1 <1>  -0.6200 
  8 C        3.1150    -4.4030    -1.9790 C.ar  1 <1>   0.1600 
  9 C        1.3610     1.3040    -2.0340 C.3   1 <1>   0.3430 
 10 C        1.0920     0.0800     0.1230 C.3   1 <1>   0.3430 
 11 C        0.9670    -4.8030    -0.5510 C.ar  1 <1>   0.4100 
 12 N        3.0580    -5.6140    -1.4440 N.ar  1 <1>  -0.6200 
 13 N        1.1770     1.4340    -0.5410 N.4   1 <1>  -0.9590 
 14 N       -0.1800    -5.0540     0.1860 N.pl3 1 <1>  -0.8380 
 15 C        1.9660    -5.7760    -0.7290 C.ar  1 <1>   0.1600 
 16 C       -0.0210     2.2680    -0.2220 C.3   1 <1>   0.2630 
 17 C       -1.5240    -4.7890    -0.3990 C.3   1 <1>   0.2090 
 18 C       -0.1430    -5.7820     1.4840 C.3   1 <1>   0.2090 
 19 C       -2.3590    -6.0940    -0.4850 C.3   1 <1>   0.4230 
 20 C       -0.9330    -7.0850     1.3380 C.3   1 <1>  -0.1600 
 21 N       -3.7310    -5.9230    -1.1370 N.4   1 <1>  -0.9590 
 22 C       -2.4000    -6.8640     0.8700 C.3   1 <1>   0.0000 
 23 C       -4.6910    -7.0410    -0.8580 C.3   1 <1>   0.3430 
 24 C       -4.4080    -4.6090    -0.8830 C.3   1 <1>   0.2630 
 25 C       -3.0590    -8.2600     0.6610 C.3   1 <1>  -0.1600 
 26 C       -3.1940    -6.0410     1.9250 C.3   1 <1>   0.1200 
 27 C       -3.9470    -8.3470    -0.5940 C.3   1 <1>  -0.1600 
 28 O       -3.0210    -6.5470     3.2010 O.3   1 <1>  -0.6800 
 29 H        3.4800     0.8910    -2.1090 H     1 <1>   0.0800 
 30 H        2.5880     0.2880    -3.4680 H     1 <1>   0.0800 
 31 H        2.1730    -1.7750     0.2280 H     1 <1>   0.0800 
 32 H        3.1950    -0.3800     0.1940 H     1 <1>   0.0800 
 33 H        3.9720    -4.1820    -2.5940 H     1 <1>   0.1500 
 34 H        0.4770     0.8710    -2.4720 H     1 <1>   0.0800 
 35 H        1.5030     2.2780    -2.4730 H     1 <1>   0.0800 
 36 H        1.0370     0.1980     1.1930 H     1 <1>   0.0800 
 37 H        0.1970    -0.4280    -0.2000 H     1 <1>   0.0800 
 38 H        2.0130     1.9070    -0.1700 H     1 <1>   0.4500 
 39 H        1.8300    -6.7310    -0.2590 H     1 <1>   0.1500 
 40 H       -0.9160     1.7990    -0.5980 H     1 <1>   0.0800 
 41 H        0.0710     3.2440    -0.6720 H     1 <1>   0.0800 
 42 H       -0.1190     2.3930     0.8450 H     1 <1>   0.0800 
 43 H       -2.0130    -4.0540     0.2140 H     1 <1>   0.0800 
 44 H       -1.4070    -4.3830    -1.3890 H     1 <1>   0.0800 
 45 H        0.8740    -5.9960     1.7690 H     1 <1>   0.0800 
 46 H       -0.5720    -5.1660     2.2570 H     1 <1>   0.0800 
 47 H       -1.7950    -6.7330    -1.1440 H     1 <1>   0.0800 
 48 H       -0.4100    -7.7070     0.6320 H     1 <1>   0.0800 
 49 H       -0.9110    -7.6040     2.2800 H     1 <1>   0.0800 
 50 H       -3.5440    -5.9650    -2.1500 H     1 <1>   0.4500 
 51 H       -5.2840    -6.8050     0.0110 H     1 <1>   0.0800 
 52 H       -5.3620    -7.1650    -1.6940 H     1 <1>   0.0800 
 53 H       -4.6020    -4.4800     0.1700 H     1 <1>   0.0800 
 54 H       -5.3470    -4.5650    -1.4110 H     1 <1>   0.0800 
 55 H       -3.7930    -3.7920    -1.2250 H     1 <1>   0.0800 
 56 H       -2.3070    -9.0270     0.5750 H     1 <1>   0.0800 
 57 H       -3.6480    -8.5190     1.5240 H     1 <1>   0.0800 
 58 H       -4.2500    -6.0430     1.7170 H     1 <1>   0.0800 
 59 H       -2.8580    -5.0210     1.9600 H     1 <1>   0.0800 
 60 H       -4.6620    -9.1420    -0.4640 H     1 <1>   0.0800 
 61 H       -3.3530    -8.5980    -1.4560 H     1 <1>   0.0800 
 62 H       -3.4050    -7.4410     3.3030 H     1 <1>   0.4000 
@<TRIPOS>BOND
  1   1   2  2   
  2   2   3  am  
  3   2   4  1   
  4   3   5  1   
  5   3   6  1   
  6   4   7  ar  
  7   4   8  ar  
  8   5   9  1   
  9   5  29  1   
 10   5  30  1   
 11   6  10  1   
 12   6  31  1   
 13   6  32  1   
 14   7  11  ar  
 15   8  12  ar  
 16   8  33  1   
 17   9  13  1   
 18   9  34  1   
 19   9  35  1   
 20  10  13  1   
 21  10  36  1   
 22  10  37  1   
 23  11  14  1   
 24  11  15  ar  
 25  12  15  ar  
 26  13  16  1   
 27  13  38  1   
 28  14  17  1   
 29  14  18  1   
 30  15  39  1   
 31  16  40  1   
 32  16  41  1   
 33  16  42  1   
 34  17  19  1   
 35  17  43  1   
 36  17  44  1   
 37  18  20  1   
 38  18  45  1   
 39  18  46  1   
 40  19  21  1   
 41  19  22  1   
 42  19  47  1   
 43  20  22  1   
 44  20  48  1   
 45  20  49  1   
 46  21  23  1   
 47  21  24  1   
 48  21  50  1   
 49  22  25  1   
 50  22  26  1   
 51  23  27  1   
 52  23  51  1   
 53  23  52  1   
 54  24  53  1   
 55  24  54  1   
 56  24  55  1   
 57  25  27  1   
 58  25  56  1   
 59  25  57  1   
 60  26  28  1   
 61  26  58  1   
 62  26  59  1   
 63  27  60  1   
 64  27  61  1   
 65  28  62  1   
@<TRIPOS>SUBSTRUCTURE
  1 ****  14 GROUP 4 **** **** 0

# MOE 2024.06 (io_trps.svl 2023.06)
