@<TRIPOS>MOLECULE
NONAME
42 43 1 0 0 
SMALL
USER_CHARGES


@<TRIPOS>ATOM
  1 S        0.1280     0.6680    -0.4890 S.3   1 <1>  -0.4600 
  2 C        1.8760     0.8860    -0.9660 C.3   1 <1>   0.2510 
  3 C       -0.5500    -0.3550    -1.8220 C.3   1 <1>  -0.0100 
  4 C        2.5900     1.7980     0.0200 C.2   1 <1>   0.3350 
  5 N        3.4010     1.4030     0.9210 N.2   1 <1>  -0.4100 
  6 N        2.4290     3.1160    -0.0030 N.2   1 <1>  -0.5650 
  7 O        3.8100     2.4580     1.5570 O.3   1 <1>  -0.0190 
  8 C        3.1970     3.4480     0.9580 C.2   1 <1>   0.2980 
  9 C        3.4270     4.8700     1.4590 C.3   1 <1>   0.2900 
 10 N        4.6710     5.5010     0.9240 N.3   1 <1>  -0.8100 
 11 C        4.6430     6.9650     1.0350 C.3   1 <1>   0.1100 
 12 C        5.8770     4.9060     1.5310 C.3   1 <1>   0.0300 
 13 C        5.5890     7.5790    -0.0120 C.3   1 <1>   0.3430 
 14 N        5.4150     9.0580    -0.1570 N.4   1 <1>  -0.9590 
 15 C        4.1050     9.4540    -0.7840 C.3   1 <1>   0.3430 
 16 C        6.5510     9.6900    -0.9100 C.3   1 <1>   0.3430 
 17 C        4.0190    10.9820    -1.0080 C.3   1 <1>   0.1200 
 18 C        6.3620    11.2210    -1.0330 C.3   1 <1>   0.1200 
 19 O        5.1410    11.6320    -0.4750 O.3   1 <1>  -0.5600 
 20 H        1.8920     1.3140    -1.9510 H     1 <1>   0.0800 
 21 H        2.3280    -0.0880    -0.9750 H     1 <1>   0.0800 
 22 H       -1.5880    -0.5290    -1.6020 H     1 <1>   0.0800 
 23 H       -0.0040    -1.2810    -1.8440 H     1 <1>   0.0800 
 24 H       -0.4410     0.1850    -2.7460 H     1 <1>   0.0800 
 25 H        3.4430     4.8690     2.5350 H     1 <1>   0.0800 
 26 H        2.5740     5.4450     1.1450 H     1 <1>   0.0800 
 27 H        4.9250     7.2670     2.0300 H     1 <1>   0.0800 
 28 H        3.6430     7.3080     0.8380 H     1 <1>   0.0800 
 29 H        5.9210     3.8520     1.3130 H     1 <1>   0.0800 
 30 H        5.8710     5.0380     2.6000 H     1 <1>   0.0800 
 31 H        6.7680     5.3550     1.1290 H     1 <1>   0.0800 
 32 H        5.4040     7.1010    -0.9600 H     1 <1>   0.0800 
 33 H        6.6030     7.3620     0.2800 H     1 <1>   0.0800 
 34 H        5.4280     9.5130     0.7690 H     1 <1>   0.4500 
 35 H        3.2860     9.1510    -0.1530 H     1 <1>   0.0800 
 36 H        3.9840     8.9550    -1.7320 H     1 <1>   0.0800 
 37 H        6.6150     9.2670    -1.8990 H     1 <1>   0.0800 
 38 H        7.4850     9.4910    -0.4110 H     1 <1>   0.0800 
 39 H        3.1450    11.3810    -0.5230 H     1 <1>   0.0800 
 40 H        3.9540    11.2110    -2.0580 H     1 <1>   0.0800 
 41 H        6.3910    11.5280    -2.0650 H     1 <1>   0.0800 
 42 H        7.1490    11.7350    -0.5080 H     1 <1>   0.0800 
@<TRIPOS>BOND
  1   1   2  1   
  2   1   3  1   
  3   2   4  1   
  4   2  20  1   
  5   2  21  1   
  6   3  22  1   
  7   3  23  1   
  8   3  24  1   
  9   4   5  2   
 10   4   6  1   
 11   5   7  1   
 12   6   8  2   
 13   7   8  1   
 14   8   9  1   
 15   9  10  1   
 16   9  25  1   
 17   9  26  1   
 18  10  11  1   
 19  10  12  1   
 20  11  13  1   
 21  11  27  1   
 22  11  28  1   
 23  12  29  1   
 24  12  30  1   
 25  12  31  1   
 26  13  14  1   
 27  13  32  1   
 28  13  33  1   
 29  14  15  1   
 30  14  16  1   
 31  14  34  1   
 32  15  17  1   
 33  15  35  1   
 34  15  36  1   
 35  16  18  1   
 36  16  37  1   
 37  16  38  1   
 38  17  19  1   
 39  17  39  1   
 40  17  40  1   
 41  18  19  1   
 42  18  41  1   
 43  18  42  1   
@<TRIPOS>SUBSTRUCTURE
  1 ****  10 GROUP 4 **** **** 0

# MOE 2024.06 (io_trps.svl 2023.06)
