@<TRIPOS>MOLECULE
NONAME
53 55 1 0 0 
SMALL
USER_CHARGES


@<TRIPOS>ATOM
  1 O        0.4680     1.0610    -0.3670 O.2   1 <1>  -0.5700 
  2 C        0.2690     2.2200    -0.6300 C.2   1 <1>   0.5690 
  3 N       -0.3820     3.0240     0.2380 N.am  1 <1>  -0.7300 
  4 C        0.7260     2.7940    -1.9730 C.3   1 <1>   0.1810 
  5 C       -0.7180     4.4420    -0.0430 C.3   1 <1>   0.3640 
  6 O        0.8020     4.2030    -1.9580 O.3   1 <1>  -0.5600 
  7 C       -2.1930     4.6610     0.2820 C.ar  1 <1>  -0.1440 
  8 C       -0.3810     4.8510    -1.5010 C.3   1 <1>   0.2610 
  9 C       -3.1650     3.7510    -0.1160 C.ar  1 <1>  -0.1500 
 10 C       -2.5820     5.7930     0.9850 C.ar  1 <1>  -0.1500 
 11 C       -0.2140     6.3700    -1.5650 C.2   1 <1>   0.5690 
 12 C       -4.4980     3.9660     0.1890 C.ar  1 <1>  -0.1500 
 13 C       -3.9140     6.0090     1.2900 C.ar  1 <1>  -0.1500 
 14 O       -1.1900     7.0770    -1.6440 O.2   1 <1>  -0.5700 
 15 N        1.0400     6.8930    -1.5010 N.am  1 <1>  -0.7300 
 16 C       -4.8730     5.0950     0.8940 C.ar  1 <1>  -0.1500 
 17 C        1.3850     8.3350    -1.4270 C.3   1 <1>   0.1400 
 18 C        2.0680     8.7450    -0.0990 C.3   1 <1>   0.0000 
 19 C        3.2490     7.8110     0.3090 C.3   1 <1>   0.0000 
 20 C        1.3090     8.2630     1.1780 C.3   1 <1>   0.0000 
 21 C        2.3670    10.2730    -0.1400 C.3   1 <1>  -0.1600 
 22 C        2.6610     7.7540     1.7450 C.3   1 <1>   0.0000 
 23 C        2.9150    11.0230     1.1030 C.3   1 <1>  -0.0800 
 24 C        2.5790    12.5160     0.9760 C.3   1 <1>  -0.2400 
 25 C        4.4370    10.8940     1.2690 C.3   1 <1>  -0.2400 
 26 H       -0.7270     2.6290     1.1140 H     1 <1>   0.3700 
 27 H        0.0390     2.4980    -2.7450 H     1 <1>   0.0800 
 28 H        1.7020     2.4140    -2.2100 H     1 <1>   0.0800 
 29 H       -0.1270     5.0500     0.6200 H     1 <1>   0.0800 
 30 H       -1.1870     4.5720    -2.1550 H     1 <1>   0.0800 
 31 H       -2.8940     2.8660    -0.6650 H     1 <1>   0.1500 
 32 H       -1.8530     6.5220     1.2950 H     1 <1>   0.1500 
 33 H       -5.2430     3.2550    -0.1220 H     1 <1>   0.1500 
 34 H       -4.2050     6.8920     1.8330 H     1 <1>   0.1500 
 35 H        1.8250     6.2340    -1.5280 H     1 <1>   0.3700 
 36 H       -5.9090     5.2650     1.1300 H     1 <1>   0.1500 
 37 H        2.0380     8.5700    -2.2500 H     1 <1>   0.0800 
 38 H        0.4860     8.9160    -1.5510 H     1 <1>   0.0800 
 39 H        3.2280     6.8410    -0.1540 H     1 <1>   0.0000 
 40 H        4.2210     8.2580     0.2350 H     1 <1>   0.0000 
 41 H        0.8630     9.0500     1.7600 H     1 <1>   0.0000 
 42 H        0.6250     7.4510     1.0110 H     1 <1>   0.0000 
 43 H        3.0270    10.4680    -0.9670 H     1 <1>   0.0800 
 44 H        1.4300    10.7400    -0.3930 H     1 <1>   0.0800 
 45 H        3.1200     8.4490     2.4240 H     1 <1>   0.0000 
 46 H        2.6050     6.7560     2.1420 H     1 <1>   0.0000 
 47 H        2.4330    10.6690     1.9970 H     1 <1>   0.0800 
 48 H        3.0320    12.9340     0.0940 H     1 <1>   0.0800 
 49 H        2.9380    13.0560     1.8340 H     1 <1>   0.0800 
 50 H        1.5140    12.6600     0.9180 H     1 <1>   0.0800 
 51 H        4.9440    11.1580     0.3580 H     1 <1>   0.0800 
 52 H        4.7220     9.9010     1.5500 H     1 <1>   0.0800 
 53 H        4.7810    11.5510     2.0480 H     1 <1>   0.0800 
@<TRIPOS>BOND
  1   1   2  2   
  2   2   3  am  
  3   2   4  1   
  4   3   5  1   
  5   3  26  1   
  6   4   6  1   
  7   4  27  1   
  8   4  28  1   
  9   5   7  1   
 10   5   8  1   
 11   5  29  1   
 12   6   8  1   
 13   7   9  ar  
 14   7  10  ar  
 15   8  11  1   
 16   8  30  1   
 17   9  12  ar  
 18   9  31  1   
 19  10  13  ar  
 20  10  32  1   
 21  11  14  2   
 22  11  15  am  
 23  12  16  ar  
 24  12  33  1   
 25  13  16  ar  
 26  13  34  1   
 27  15  17  1   
 28  15  35  1   
 29  16  36  1   
 30  17  18  1   
 31  17  37  1   
 32  17  38  1   
 33  18  19  1   
 34  18  20  1   
 35  18  21  1   
 36  19  22  1   
 37  19  39  1   
 38  19  40  1   
 39  20  22  1   
 40  20  41  1   
 41  20  42  1   
 42  21  23  1   
 43  21  43  1   
 44  21  44  1   
 45  22  45  1   
 46  22  46  1   
 47  23  24  1   
 48  23  25  1   
 49  23  47  1   
 50  24  48  1   
 51  24  49  1   
 52  24  50  1   
 53  25  51  1   
 54  25  52  1   
 55  25  53  1   
@<TRIPOS>SUBSTRUCTURE
  1 ****  11 GROUP 4 **** **** 0

# MOE 2024.06 (io_trps.svl 2023.06)
