@<TRIPOS>MOLECULE
NONAME
57 60 1 0 0 
SMALL
USER_CHARGES


@<TRIPOS>ATOM
  1 CL      -0.9090    -0.3610     1.1710 Cl    1 <1>  -0.1770 
  2 C       -2.4600     0.2170     0.6260 C.ar  1 <1>   0.1770 
  3 C       -3.1760    -0.5210    -0.2970 C.ar  1 <1>  -0.1500 
  4 C       -2.9560     1.4070     1.1210 C.ar  1 <1>  -0.1500 
  5 C       -4.4080    -0.0600    -0.7250 C.ar  1 <1>  -0.1500 
  6 C       -4.1890     1.8590     0.6870 C.ar  1 <1>  -0.1500 
  7 C       -4.9450     1.1350    -0.2390 C.ar  1 <1>   0.0530 
  8 C       -6.2360     1.6090    -0.6690 C.2   1 <1>   0.0870 
  9 O       -6.5320     2.8850    -0.6530 O.3   1 <1>  -0.0190 
 10 C       -7.3420     0.9600    -1.1120 C.2   1 <1>  -0.0860 
 11 N       -7.7540     3.1310    -1.0540 N.2   1 <1>  -0.4100 
 12 C       -8.2540     1.9850    -1.3480 C.2   1 <1>   0.3720 
 13 C       -7.6470    -0.4230    -1.2490 C.2   1 <1>   0.7160 
 14 N       -9.5510     1.7730    -1.8060 N.pl3 1 <1>  -0.8520 
 15 O       -7.6900    -0.9480    -2.3450 O.2   1 <1>  -0.5700 
 16 N       -7.9620    -1.1860    -0.1520 N.am  1 <1>  -0.6600 
 17 C      -10.5280     2.8810    -1.6100 C.3   1 <1>   0.2090 
 18 C       -8.4150    -2.5830    -0.2610 C.3   1 <1>   0.2200 
 19 C       -8.2090    -0.6830     1.2080 C.3   1 <1>   0.2200 
 20 C      -11.9420     2.4950    -2.0740 C.3   1 <1>   0.1200 
 21 C       -9.9040    -2.6250    -0.6870 C.3   1 <1>   0.3430 
 22 C       -8.1810    -3.1480     1.1410 C.3   1 <1>  -0.1600 
 23 C       -9.5800     0.0190     1.2650 C.3   1 <1>  -0.1600 
 24 C       -8.1490    -1.9410     2.0870 C.3   1 <1>  -0.1600 
 25 O      -12.4050     1.3410    -1.4240 O.3   1 <1>  -0.5600 
 26 N      -10.8500    -1.9050     0.2490 N.4   1 <1>  -0.9590 
 27 C      -10.6260    -0.4280     0.2320 C.3   1 <1>   0.3430 
 28 C      -13.7240     1.0320    -1.7540 C.3   1 <1>   0.0400 
 29 C      -12.2620    -2.1840    -0.1380 C.3   1 <1>   0.2630 
 30 H       -2.7670    -1.4420    -0.6740 H     1 <1>   0.1500 
 31 H       -2.3800     1.9680     1.8350 H     1 <1>   0.1500 
 32 H       -4.9500    -0.6350    -1.4550 H     1 <1>   0.1500 
 33 H       -4.5740     2.7880     1.0740 H     1 <1>   0.1500 
 34 H       -9.5350     1.4830    -2.7910 H     1 <1>   0.4000 
 35 H      -10.5600     3.1510    -0.5680 H     1 <1>   0.0800 
 36 H      -10.1990     3.7450    -2.1630 H     1 <1>   0.0800 
 37 H       -7.8180    -3.1140    -0.9850 H     1 <1>   0.0800 
 38 H       -7.4300     0.0010     1.5060 H     1 <1>   0.0800 
 39 H      -11.9410     2.3170    -3.1360 H     1 <1>   0.0800 
 40 H      -12.6160     3.3060    -1.8560 H     1 <1>   0.0800 
 41 H      -10.1980    -3.6580    -0.7580 H     1 <1>   0.0800 
 42 H       -9.9810    -2.1990    -1.6750 H     1 <1>   0.0800 
 43 H       -8.9260    -3.8720     1.4220 H     1 <1>   0.0800 
 44 H       -7.2220    -3.6370     1.1570 H     1 <1>   0.0800 
 45 H       -9.9950    -0.0450     2.2540 H     1 <1>   0.0800 
 46 H       -9.4100     1.0670     1.0960 H     1 <1>   0.0800 
 47 H       -7.2240    -1.9400     2.6380 H     1 <1>   0.0800 
 48 H       -8.9500    -1.9770     2.8030 H     1 <1>   0.0800 
 49 H      -10.6770    -2.2340     1.2070 H     1 <1>   0.4500 
 50 H      -10.3170    -0.1300    -0.7550 H     1 <1>   0.0800 
 51 H      -11.5490     0.0880     0.4420 H     1 <1>   0.0800 
 52 H      -14.0140     0.1490    -1.2140 H     1 <1>   0.0800 
 53 H      -13.7940     0.8510    -2.8130 H     1 <1>   0.0800 
 54 H      -14.3640     1.8510    -1.4710 H     1 <1>   0.0800 
 55 H      -12.4540    -1.8110    -1.1310 H     1 <1>   0.0800 
 56 H      -12.9390    -1.6970     0.5470 H     1 <1>   0.0800 
 57 H      -12.4560    -3.2440    -0.1190 H     1 <1>   0.0800 
@<TRIPOS>BOND
  1   1   2  1   
  2   2   3  ar  
  3   2   4  ar  
  4   3   5  ar  
  5   3  30  1   
  6   4   6  ar  
  7   4  31  1   
  8   5   7  ar  
  9   5  32  1   
 10   6   7  ar  
 11   6  33  1   
 12   7   8  1   
 13   8   9  1   
 14   8  10  2   
 15   9  11  1   
 16  10  12  1   
 17  10  13  1   
 18  11  12  2   
 19  12  14  1   
 20  13  15  2   
 21  13  16  am  
 22  14  17  1   
 23  14  34  1   
 24  16  18  1   
 25  16  19  1   
 26  17  20  1   
 27  17  35  1   
 28  17  36  1   
 29  18  21  1   
 30  18  22  1   
 31  18  37  1   
 32  19  23  1   
 33  19  24  1   
 34  19  38  1   
 35  20  25  1   
 36  20  39  1   
 37  20  40  1   
 38  21  26  1   
 39  21  41  1   
 40  21  42  1   
 41  22  24  1   
 42  22  43  1   
 43  22  44  1   
 44  23  27  1   
 45  23  45  1   
 46  23  46  1   
 47  24  47  1   
 48  24  48  1   
 49  25  28  1   
 50  26  27  1   
 51  26  29  1   
 52  26  49  1   
 53  27  50  1   
 54  27  51  1   
 55  28  52  1   
 56  28  53  1   
 57  28  54  1   
 58  29  55  1   
 59  29  56  1   
 60  29  57  1   
@<TRIPOS>SUBSTRUCTURE
  1 ****  13 GROUP 4 **** **** 0

# MOE 2024.06 (io_trps.svl 2023.06)
