@<TRIPOS>MOLECULE
NONAME
52 55 1 0 0 
SMALL
USER_CHARGES


@<TRIPOS>ATOM
  1 O       -0.4400     0.8740    -0.0410 O.2   1 <1>  -0.5700 
  2 C       -1.5420     1.3140     0.1870 C.2   1 <1>   0.5690 
  3 N       -2.6300     0.4910     0.2620 N.am  1 <1>  -0.6600 
  4 C       -1.7220     2.8150     0.3890 C.3   1 <1>  -0.0990 
  5 C       -4.0450     0.9000     0.4450 C.3   1 <1>   0.1400 
  6 C       -2.5220    -0.9760     0.0890 C.3   1 <1>   0.1400 
  7 C       -0.4010     3.6060     0.4500 C.3   1 <1>  -0.1600 
  8 C       -4.8530    -0.3660     0.1630 C.3   1 <1>   0.2000 
  9 C       -3.9030    -1.5280     0.4470 C.3   1 <1>  -0.0800 
 10 C       -0.6400     5.1070     0.6710 C.3   1 <1>   0.0200 
 11 O       -5.9710    -0.4500     0.9770 O.3   1 <1>  -0.6800 
 12 C       -4.2720    -2.8060    -0.3200 C.3   1 <1>   0.0200 
 13 C        0.6630     5.8840     0.7030 C.2   1 <1>   0.2980 
 14 C       -3.2650    -3.9080    -0.0560 C.2   1 <1>  -0.0400 
 15 O        1.4910     5.6880     1.6950 O.3   1 <1>  -0.0190 
 16 N        1.0370     6.7340    -0.1610 N.2   1 <1>  -0.5650 
 17 O       -3.1210    -4.3860     1.1510 O.3   1 <1>  -0.0190 
 18 C       -2.4060    -4.5520    -0.8600 C.2   1 <1>  -0.1500 
 19 N        2.4820     6.4830     1.4410 N.2   1 <1>  -0.4100 
 20 C        2.2190     7.1000     0.3440 C.2   1 <1>   0.4620 
 21 N       -2.2100    -5.3130     1.1990 N.2   1 <1>  -0.4100 
 22 C       -1.7620    -5.4360     0.0020 C.2   1 <1>   0.1080 
 23 C        3.0720     8.0810    -0.2980 C.ar  1 <1>   0.0540 
 24 C       -0.6790    -6.4090    -0.4060 C.3   1 <1>  -0.0590 
 25 C        4.3010     8.4610     0.2280 C.ar  1 <1>  -0.1500 
 26 C        2.7330     8.7180    -1.4850 C.ar  1 <1>  -0.1500 
 27 C        5.0820     9.4000    -0.4170 C.ar  1 <1>   0.1600 
 28 C        3.5850     9.6460    -2.0530 C.ar  1 <1>   0.1600 
 29 N        4.7540    10.0040    -1.5470 N.ar  1 <1>  -0.6200 
 30 H       -2.3190     3.1870    -0.4230 H     1 <1>   0.0800 
 31 H       -2.2620     2.9660     1.3050 H     1 <1>   0.0800 
 32 H       -4.1890     1.2270     1.4600 H     1 <1>   0.0800 
 33 H       -4.3100     1.6810    -0.2450 H     1 <1>   0.0800 
 34 H       -2.2720    -1.1870    -0.9370 H     1 <1>   0.0800 
 35 H       -1.7560    -1.3820     0.7290 H     1 <1>   0.0800 
 36 H        0.2090     3.2170     1.2490 H     1 <1>   0.0800 
 37 H        0.1410     3.4660    -0.4710 H     1 <1>   0.0800 
 38 H       -5.1800    -0.3650    -0.8630 H     1 <1>   0.0800 
 39 H       -3.8960    -1.7360     1.5030 H     1 <1>   0.0800 
 40 H       -1.1570     5.2660     1.6010 H     1 <1>   0.0800 
 41 H       -1.2520     5.4960    -0.1240 H     1 <1>   0.0800 
 42 H       -5.7090    -0.5790     1.9090 H     1 <1>   0.4000 
 43 H       -4.3070    -2.6050    -1.3760 H     1 <1>   0.0800 
 44 H       -5.2470    -3.1430    -0.0130 H     1 <1>   0.0800 
 45 H       -2.2280    -4.4410    -1.9130 H     1 <1>   0.1500 
 46 H       -1.0500    -7.0720    -1.1650 H     1 <1>   0.0800 
 47 H       -0.3700    -6.9910     0.4440 H     1 <1>   0.0800 
 48 H        0.1700    -5.8710    -0.7860 H     1 <1>   0.0800 
 49 H        4.6490     8.0210     1.1450 H     1 <1>   0.1500 
 50 H        1.8010     8.4900    -1.9690 H     1 <1>   0.1500 
 51 H        6.0290     9.6710     0.0180 H     1 <1>   0.1500 
 52 H        3.2920    10.1210    -2.9740 H     1 <1>   0.1500 
@<TRIPOS>BOND
  1   1   2  2   
  2   2   3  am  
  3   2   4  1   
  4   3   5  1   
  5   3   6  1   
  6   4   7  1   
  7   4  30  1   
  8   4  31  1   
  9   5   8  1   
 10   5  32  1   
 11   5  33  1   
 12   6   9  1   
 13   6  34  1   
 14   6  35  1   
 15   7  10  1   
 16   7  36  1   
 17   7  37  1   
 18   8   9  1   
 19   8  11  1   
 20   8  38  1   
 21   9  12  1   
 22   9  39  1   
 23  10  13  1   
 24  10  40  1   
 25  10  41  1   
 26  11  42  1   
 27  12  14  1   
 28  12  43  1   
 29  12  44  1   
 30  13  15  1   
 31  13  16  2   
 32  14  17  1   
 33  14  18  2   
 34  15  19  1   
 35  16  20  1   
 36  17  21  1   
 37  18  22  1   
 38  18  45  1   
 39  19  20  2   
 40  20  23  1   
 41  21  22  2   
 42  22  24  1   
 43  23  25  ar  
 44  23  26  ar  
 45  24  46  1   
 46  24  47  1   
 47  24  48  1   
 48  25  27  ar  
 49  25  49  1   
 50  26  28  ar  
 51  26  50  1   
 52  27  29  ar  
 53  27  51  1   
 54  28  29  ar  
 55  28  52  1   
@<TRIPOS>SUBSTRUCTURE
  1 ****   4 GROUP 4 **** **** 0

# MOE 2024.06 (io_trps.svl 2023.06)
