@<TRIPOS>MOLECULE
NONAME
40 41 1 0 0 
SMALL
USER_CHARGES


@<TRIPOS>ATOM
  1 O        0.6540     1.3500    -1.2130 O.3   1 <1>  -0.5600 
  2 C        0.3550     2.6300    -1.6540 C.3   1 <1>   0.1200 
  3 C        1.4210     0.6050    -2.1030 C.3   1 <1>   0.0400 
  4 C       -0.4960     3.2940    -0.5750 C.3   1 <1>  -0.1600 
  5 C       -0.8540     4.7310    -0.9690 C.3   1 <1>   0.0960 
  6 N       -1.6260     5.3930     0.1070 N.pl3 1 <1>   0.0480 
  7 C       -1.2850     6.3440     0.9920 C.2   1 <1>   0.0060 
  8 C       -2.9030     5.1590     0.4130 C.2   1 <1>   0.0360 
  9 N       -2.2780     6.6480     1.7580 N.2   1 <1>  -0.3380 
 10 C        0.0830     7.0090     1.1120 C.3   1 <1>   0.4690 
 11 N       -3.3100     5.8910     1.3890 N.2   1 <1>  -0.3380 
 12 N        0.4680     7.5840    -0.1910 N.pl3 1 <1>  -0.8690 
 13 C        1.1440     6.0200     1.5930 C.3   1 <1>  -0.2400 
 14 C        1.4320     8.5390    -0.2320 C.ar  1 <1>   0.4100 
 15 N        0.9880     9.7690    -0.2890 N.ar  1 <1>  -0.6200 
 16 C        2.7810     8.2520    -0.2360 C.ar  1 <1>  -0.1500 
 17 C        1.9140    10.7090    -0.3270 C.ar  1 <1>   0.4770 
 18 C        3.6490     9.3070    -0.2810 C.ar  1 <1>   0.1600 
 19 N        3.2270    10.5550    -0.3240 N.ar  1 <1>  -0.6200 
 20 C        1.4170    12.1330    -0.3880 C.3   1 <1>  -0.0970 
 21 H       -0.1860     2.5580    -2.5830 H     1 <1>   0.0800 
 22 H        1.2780     3.1670    -1.8020 H     1 <1>   0.0800 
 23 H        1.5960    -0.3620    -1.6640 H     1 <1>   0.0800 
 24 H        2.3600     1.1030    -2.2690 H     1 <1>   0.0800 
 25 H        0.8820     0.4900    -3.0280 H     1 <1>   0.0800 
 26 H        0.0560     3.2980     0.3470 H     1 <1>   0.0800 
 27 H       -1.3970     2.7200    -0.4420 H     1 <1>   0.0800 
 28 H       -1.4490     4.7310    -1.8650 H     1 <1>   0.0800 
 29 H        0.0420     5.2900    -1.1650 H     1 <1>   0.0800 
 30 H       -3.5100     4.4380    -0.1040 H     1 <1>   0.1500 
 31 H        0.0020     7.8080     1.8330 H     1 <1>   0.0800 
 32 H       -0.3860     7.9900    -0.5840 H     1 <1>   0.4000 
 33 H        1.3810     5.3050     0.8290 H     1 <1>   0.0800 
 34 H        0.7750     5.4970     2.4570 H     1 <1>   0.0800 
 35 H        2.0340     6.5460     1.8820 H     1 <1>   0.0800 
 36 H        3.1220     7.2370    -0.2120 H     1 <1>   0.1500 
 37 H        4.7130     9.1380    -0.2850 H     1 <1>   0.1500 
 38 H        0.4000    12.1900    -0.0480 H     1 <1>   0.0800 
 39 H        1.4710    12.4840    -1.4000 H     1 <1>   0.0800 
 40 H        2.0290    12.7590     0.2360 H     1 <1>   0.0800 
@<TRIPOS>BOND
  1   1   2  1   
  2   1   3  1   
  3   2   4  1   
  4   2  21  1   
  5   2  22  1   
  6   3  23  1   
  7   3  24  1   
  8   3  25  1   
  9   4   5  1   
 10   4  26  1   
 11   4  27  1   
 12   5   6  1   
 13   5  28  1   
 14   5  29  1   
 15   6   7  1   
 16   6   8  1   
 17   7   9  2   
 18   7  10  1   
 19   8  11  2   
 20   8  30  1   
 21   9  11  1   
 22  10  12  1   
 23  10  13  1   
 24  10  31  1   
 25  12  14  1   
 26  12  32  1   
 27  13  33  1   
 28  13  34  1   
 29  13  35  1   
 30  14  15  ar  
 31  14  16  ar  
 32  15  17  ar  
 33  16  18  ar  
 34  16  36  1   
 35  17  19  ar  
 36  17  20  1   
 37  18  19  ar  
 38  18  37  1   
 39  20  38  1   
 40  20  39  1   
 41  20  40  1   
@<TRIPOS>SUBSTRUCTURE
  1 ****  12 GROUP 4 **** **** 0

# MOE 2024.06 (io_trps.svl 2023.06)
