@<TRIPOS>MOLECULE
NONAME
51 54 1 0 0 
SMALL
USER_CHARGES


@<TRIPOS>ATOM
  1 O       -0.4420     0.0240     0.0930 O.2   1 <1>  -0.5700 
  2 C       -1.4170     0.7420    -0.0760 C.2   1 <1>   0.7160 
  3 N       -2.6470     0.1060    -0.0960 N.am  1 <1>  -0.6600 
  4 C       -1.2610     2.1920    -0.2410 C.2   1 <1>   0.2030 
  5 C       -3.9670     0.7680    -0.2430 C.3   1 <1>   0.1400 
  6 C       -2.8020    -1.3680    -0.1210 C.3   1 <1>   0.1400 
  7 N       -2.1160     2.9940    -0.8580 N.2   1 <1>  -0.7070 
  8 C       -0.1670     2.9480     0.2300 C.2   1 <1>  -0.1810 
  9 C       -4.9810    -0.3390     0.0400 C.3   1 <1>   0.2000 
 10 C       -4.2790    -1.6070    -0.4630 C.3   1 <1>  -0.0800 
 11 N       -1.5810     4.2170    -0.7890 N.pl3 1 <1>   0.3000 
 12 C       -0.4040     4.2240    -0.1390 C.2   1 <1>  -0.3320 
 13 C        1.0300     2.4140     1.0030 C.3   1 <1>  -0.0590 
 14 O       -5.1620    -0.4200     1.4140 O.3   1 <1>  -0.6800 
 15 C       -4.8510    -2.9260     0.0970 C.3   1 <1>  -0.0170 
 16 C        0.4080     5.4930     0.0650 C.3   1 <1>   0.0200 
 17 C       -4.2740    -4.2250    -0.4830 C.ar  1 <1>  -0.1440 
 18 C       -0.2590     6.3900     1.1080 C.3   1 <1>  -0.2400 
 19 C       -4.5920    -5.4660     0.1240 C.ar  1 <1>   0.0000 
 20 C       -3.4620    -4.2660    -1.5830 C.ar  1 <1>  -0.1500 
 21 C       -4.0270    -6.6420    -0.4290 C.ar  1 <1>   0.3100 
 22 C       -5.4430    -5.6110     1.2460 C.ar  1 <1>  -0.1500 
 23 C       -2.9610    -5.4860    -2.0520 C.ar  1 <1>   0.1600 
 24 N       -3.2140    -6.6340    -1.5130 N.ar  1 <1>  -0.6200 
 25 C       -4.3180    -7.8820     0.1620 C.ar  1 <1>  -0.1500 
 26 C       -5.7090    -6.8350     1.7960 C.ar  1 <1>  -0.1500 
 27 C       -5.1390    -7.9880     1.2510 C.ar  1 <1>  -0.1500 
 28 H       -4.0780     1.5990     0.4330 H     1 <1>   0.0800 
 29 H       -4.0720     1.1150    -1.2560 H     1 <1>   0.0800 
 30 H       -2.1410    -1.8050    -0.8490 H     1 <1>   0.0800 
 31 H       -2.5630    -1.7620     0.8530 H     1 <1>   0.0800 
 32 H       -5.9380    -0.1650    -0.4220 H     1 <1>   0.0800 
 33 H       -4.3800    -1.6100    -1.5340 H     1 <1>   0.0800 
 34 H       -2.0380     5.0420    -1.1950 H     1 <1>   0.2700 
 35 H        0.6940     1.8280     1.8390 H     1 <1>   0.0800 
 36 H        1.6420     3.2130     1.3760 H     1 <1>   0.0800 
 37 H        1.6270     1.7900     0.3630 H     1 <1>   0.0800 
 38 H       -4.2860    -0.3640     1.8460 H     1 <1>   0.4000 
 39 H       -5.9150    -2.9320    -0.0640 H     1 <1>   0.0800 
 40 H       -4.6860    -2.9330     1.1600 H     1 <1>   0.0800 
 41 H        1.4020     5.2470     0.3930 H     1 <1>   0.0800 
 42 H        0.4980     6.0200    -0.8690 H     1 <1>   0.0800 
 43 H       -0.3510     5.8600     2.0400 H     1 <1>   0.0800 
 44 H       -1.2380     6.6890     0.7820 H     1 <1>   0.0800 
 45 H        0.3350     7.2720     1.2700 H     1 <1>   0.0800 
 46 H       -3.1750    -3.3900    -2.1300 H     1 <1>   0.1500 
 47 H       -5.9010    -4.7430     1.6820 H     1 <1>   0.1500 
 48 H       -2.3210    -5.4650    -2.9180 H     1 <1>   0.1500 
 49 H       -3.8700    -8.7540    -0.2780 H     1 <1>   0.1500 
 50 H       -6.3580    -6.9270     2.6500 H     1 <1>   0.1500 
 51 H       -5.3540    -8.9460     1.6920 H     1 <1>   0.1500 
@<TRIPOS>BOND
  1   1   2  2   
  2   2   3  am  
  3   2   4  1   
  4   3   5  1   
  5   3   6  1   
  6   4   7  2   
  7   4   8  1   
  8   5   9  1   
  9   5  28  1   
 10   5  29  1   
 11   6  10  1   
 12   6  30  1   
 13   6  31  1   
 14   7  11  1   
 15   8  12  2   
 16   8  13  1   
 17   9  10  1   
 18   9  14  1   
 19   9  32  1   
 20  10  15  1   
 21  10  33  1   
 22  11  12  1   
 23  11  34  1   
 24  12  16  1   
 25  13  35  1   
 26  13  36  1   
 27  13  37  1   
 28  14  38  1   
 29  15  17  1   
 30  15  39  1   
 31  15  40  1   
 32  16  18  1   
 33  16  41  1   
 34  16  42  1   
 35  17  19  ar  
 36  17  20  ar  
 37  18  43  1   
 38  18  44  1   
 39  18  45  1   
 40  19  21  ar  
 41  19  22  ar  
 42  20  23  ar  
 43  20  46  1   
 44  21  24  ar  
 45  21  25  ar  
 46  22  26  ar  
 47  22  47  1   
 48  23  24  ar  
 49  23  48  1   
 50  25  27  ar  
 51  25  49  1   
 52  26  27  ar  
 53  26  50  1   
 54  27  51  1   
@<TRIPOS>SUBSTRUCTURE
  1 ****   6 GROUP 4 **** **** 0

# MOE 2024.06 (io_trps.svl 2023.06)
