@<TRIPOS>MOLECULE
NONAME
50 52 1 0 0 
SMALL
USER_CHARGES


@<TRIPOS>ATOM
  1 O       -0.7710    -0.6740    -0.1400 O.3   1 <1>  -0.3630 
  2 C       -1.9570    -1.0430     0.4040 C.ar  1 <1>   0.0830 
  3 C       -0.5040     0.6750    -0.4640 C.3   1 <1>   0.1200 
  4 C       -2.0750    -2.3680     0.7920 C.ar  1 <1>  -0.1500 
  5 C       -3.0290    -0.1750     0.5880 C.ar  1 <1>  -0.1500 
  6 C        0.9390     0.7810    -0.9580 C.3   1 <1>   0.1200 
  7 C       -3.2510    -2.8370     1.3580 C.ar  1 <1>  -0.1440 
  8 C       -4.2010    -0.6380     1.1580 C.ar  1 <1>  -0.1500 
  9 O        1.1990     2.0900    -1.3410 O.3   1 <1>  -0.6800 
 10 C       -4.3130    -1.9630     1.5430 C.ar  1 <1>  -0.1500 
 11 C       -3.3820    -4.2890     1.7750 C.3   1 <1>   0.4860 
 12 N       -3.4900    -5.1410     0.5590 N.4   1 <1>  -0.9590 
 13 C       -4.7350    -4.8260    -0.2100 C.3   1 <1>   0.3430 
 14 C       -3.5730    -6.5870     0.9400 C.3   1 <1>   0.3430 
 15 C       -5.7600    -5.8790     0.2180 C.3   1 <1>   0.2000 
 16 C       -4.9080    -7.1300     0.4060 C.3   1 <1>  -0.0800 
 17 O       -6.2800    -5.5150     1.4570 O.3   1 <1>  -0.6800 
 18 C       -4.7270    -7.8960    -0.9190 C.3   1 <1>   0.0210 
 19 C       -3.8980    -9.1480    -0.7210 C.2   1 <1>   0.1080 
 20 N       -2.6190    -9.1160    -0.5070 N.2   1 <1>  -0.7070 
 21 C       -4.3970   -10.4460    -0.7470 C.2   1 <1>  -0.1500 
 22 N       -2.2600   -10.4140    -0.4020 N.pl3 1 <1>   0.3000 
 23 C       -3.3220   -11.2350    -0.5390 C.2   1 <1>  -0.3320 
 24 C       -3.2430   -12.7490    -0.4660 C.3   1 <1>  -0.0600 
 25 H       -1.1910     0.9780    -1.2330 H     1 <1>   0.0800 
 26 H       -0.6340     1.2690     0.4240 H     1 <1>   0.0800 
 27 H       -1.2280    -3.0130     0.6460 H     1 <1>   0.1500 
 28 H       -2.9710     0.8580     0.2990 H     1 <1>   0.1500 
 29 H        1.1070     0.1400    -1.8060 H     1 <1>   0.0800 
 30 H        1.6230     0.5280    -0.1660 H     1 <1>   0.0800 
 31 H       -5.0280     0.0370     1.3050 H     1 <1>   0.1500 
 32 H        0.7450     2.3080    -2.1780 H     1 <1>   0.4000 
 33 H       -5.2340    -2.3010     1.9890 H     1 <1>   0.1500 
 34 H       -4.2590    -4.4140     2.3900 H     1 <1>   0.0800 
 35 H       -2.5170    -4.5740     2.3510 H     1 <1>   0.0800 
 36 H       -2.6660    -4.9640    -0.0280 H     1 <1>   0.4500 
 37 H       -5.0980    -3.8290    -0.0230 H     1 <1>   0.0800 
 38 H       -4.5400    -4.9340    -1.2630 H     1 <1>   0.0800 
 39 H       -2.7340    -7.1310     0.5410 H     1 <1>   0.0800 
 40 H       -3.5600    -6.6860     2.0130 H     1 <1>   0.0800 
 41 H       -6.5700    -5.9870    -0.4840 H     1 <1>   0.0800 
 42 H       -5.3500    -7.8020     1.1210 H     1 <1>   0.0800 
 43 H       -7.0420    -6.0820     1.7010 H     1 <1>   0.4000 
 44 H       -4.2400    -7.2840    -1.6570 H     1 <1>   0.0800 
 45 H       -5.6880    -8.1810    -1.3090 H     1 <1>   0.0800 
 46 H       -5.4200   -10.7380    -0.9050 H     1 <1>   0.1500 
 47 H       -1.2890   -10.7100    -0.2450 H     1 <1>   0.2700 
 48 H       -4.2190   -13.1790    -0.6070 H     1 <1>   0.0800 
 49 H       -2.8690   -13.0580     0.4940 H     1 <1>   0.0800 
 50 H       -2.5900   -13.1250    -1.2340 H     1 <1>   0.0800 
@<TRIPOS>BOND
  1   1   2  1   
  2   1   3  1   
  3   2   4  ar  
  4   2   5  ar  
  5   3   6  1   
  6   3  25  1   
  7   3  26  1   
  8   4   7  ar  
  9   4  27  1   
 10   5   8  ar  
 11   5  28  1   
 12   6   9  1   
 13   6  29  1   
 14   6  30  1   
 15   7  10  ar  
 16   7  11  1   
 17   8  10  ar  
 18   8  31  1   
 19   9  32  1   
 20  10  33  1   
 21  11  12  1   
 22  11  34  1   
 23  11  35  1   
 24  12  13  1   
 25  12  14  1   
 26  12  36  1   
 27  13  15  1   
 28  13  37  1   
 29  13  38  1   
 30  14  16  1   
 31  14  39  1   
 32  14  40  1   
 33  15  16  1   
 34  15  17  1   
 35  15  41  1   
 36  16  18  1   
 37  16  42  1   
 38  17  43  1   
 39  18  19  1   
 40  18  44  1   
 41  18  45  1   
 42  19  20  2   
 43  19  21  1   
 44  20  22  1   
 45  21  23  2   
 46  21  46  1   
 47  22  23  1   
 48  22  47  1   
 49  23  24  1   
 50  24  48  1   
 51  24  49  1   
 52  24  50  1   
@<TRIPOS>SUBSTRUCTURE
  1 ****  12 GROUP 4 **** **** 0

# MOE 2024.06 (io_trps.svl 2023.06)
