@<TRIPOS>MOLECULE
NONAME
43 44 1 0 0 
SMALL
USER_CHARGES


@<TRIPOS>ATOM
  1 S        0.0860    -0.1070     0.4760 S.o2  1 <1>   1.3330 
  2 O       -0.2640     1.2380     0.8550 O.2   1 <1>  -0.6500 
  3 O        0.8450    -0.9400     1.3760 O.2   1 <1>  -0.6500 
  4 N       -1.3790    -0.8710     0.2030 N.am  1 <1>  -0.9140 
  5 C        0.8430    -0.0860    -1.1340 C.3   1 <1>  -0.1350 
  6 C       -1.3210    -2.3270     0.2520 C.3   1 <1>   0.1960 
  7 C       -2.7030    -2.8920    -0.0750 C.3   1 <1>  -0.0990 
  8 C       -2.7120    -4.4090    -0.0780 C.2   1 <1>   0.5690 
  9 O       -1.6600    -5.0010    -0.1230 O.2   1 <1>  -0.5700 
 10 N       -3.9010    -5.0800    -0.0420 N.am  1 <1>  -0.6600 
 11 C       -5.2610    -4.4880    -0.1060 C.3   1 <1>   0.1400 
 12 C       -3.9710    -6.5610    -0.0260 C.3   1 <1>   0.1400 
 13 C       -6.1920    -5.6780    -0.3400 C.3   1 <1>   0.2000 
 14 C       -5.4460    -6.8920     0.2090 C.3   1 <1>  -0.0800 
 15 O       -7.4000    -5.5190     0.3200 O.3   1 <1>  -0.6800 
 16 C       -5.8890    -8.2140    -0.4360 C.3   1 <1>   0.0200 
 17 C       -5.0630    -9.3730     0.0850 C.2   1 <1>  -0.0400 
 18 O       -5.0920    -9.6780     1.3550 O.3   1 <1>  -0.0190 
 19 C       -4.2270   -10.2260    -0.5260 C.2   1 <1>  -0.1500 
 20 N       -4.3160   -10.6860     1.6280 N.2   1 <1>  -0.4100 
 21 C       -3.7820   -11.0390     0.5140 C.2   1 <1>   0.1080 
 22 C       -2.8030   -12.1810     0.3640 C.3   1 <1>  -0.0590 
 23 H       -1.9560    -0.5440     0.9770 H     1 <1>   0.4200 
 24 H        0.2100     0.4250    -1.8310 H     1 <1>   0.0800 
 25 H        1.0070    -1.0870    -1.4820 H     1 <1>   0.0800 
 26 H        1.7860     0.4210    -1.0890 H     1 <1>   0.0800 
 27 H       -0.6040    -2.6880    -0.4680 H     1 <1>   0.0800 
 28 H       -1.0120    -2.6590     1.2320 H     1 <1>   0.0800 
 29 H       -3.0030    -2.5520    -1.0480 H     1 <1>   0.0800 
 30 H       -3.4050    -2.5410     0.6570 H     1 <1>   0.0800 
 31 H       -5.4830    -4.0090     0.8310 H     1 <1>   0.0800 
 32 H       -5.3330    -3.7840    -0.9160 H     1 <1>   0.0800 
 33 H       -3.6350    -6.9350    -0.9790 H     1 <1>   0.0800 
 34 H       -3.3460    -6.9660     0.7530 H     1 <1>   0.0800 
 35 H       -6.3920    -5.7800    -1.3930 H     1 <1>   0.0800 
 36 H       -5.5890    -6.9500     1.2740 H     1 <1>   0.0800 
 37 H       -7.2700    -5.5460     1.2880 H     1 <1>   0.4000 
 38 H       -5.7840    -8.1560    -1.5040 H     1 <1>   0.0800 
 39 H       -6.9260    -8.3940    -0.2110 H     1 <1>   0.0800 
 40 H       -3.9410   -10.2970    -1.5590 H     1 <1>   0.1500 
 41 H       -3.1900   -12.9050    -0.3280 H     1 <1>   0.0800 
 42 H       -2.6460   -12.6570     1.3150 H     1 <1>   0.0800 
 43 H       -1.8620   -11.8090     0.0020 H     1 <1>   0.0800 
@<TRIPOS>BOND
  1   1   2  2   
  2   1   3  2   
  3   1   4  am  
  4   1   5  1   
  5   4   6  1   
  6   4  23  1   
  7   5  24  1   
  8   5  25  1   
  9   5  26  1   
 10   6   7  1   
 11   6  27  1   
 12   6  28  1   
 13   7   8  1   
 14   7  29  1   
 15   7  30  1   
 16   8   9  2   
 17   8  10  am  
 18  10  11  1   
 19  10  12  1   
 20  11  13  1   
 21  11  31  1   
 22  11  32  1   
 23  12  14  1   
 24  12  33  1   
 25  12  34  1   
 26  13  14  1   
 27  13  15  1   
 28  13  35  1   
 29  14  16  1   
 30  14  36  1   
 31  15  37  1   
 32  16  17  1   
 33  16  38  1   
 34  16  39  1   
 35  17  18  1   
 36  17  19  2   
 37  18  20  1   
 38  19  21  1   
 39  19  40  1   
 40  20  21  2   
 41  21  22  1   
 42  22  41  1   
 43  22  42  1   
 44  22  43  1   
@<TRIPOS>SUBSTRUCTURE
  1 ****  10 GROUP 4 **** **** 0

# MOE 2024.06 (io_trps.svl 2023.06)
