@<TRIPOS>MOLECULE
NONAME
43 45 1 0 0 
SMALL
USER_CHARGES


@<TRIPOS>ATOM
  1 F        2.1130     1.7670    -2.3050 F     1 <1>  -0.3400 
  2 C        1.8630     1.6540    -1.0070 C.3   1 <1>   1.1640 
  3 F        0.8080     2.4220    -0.7640 F     1 <1>  -0.3400 
  4 F        1.4650     0.4020    -0.8100 F     1 <1>  -0.3400 
  5 C        3.0860     2.0390    -0.1600 C.ar  1 <1>  -0.1440 
  6 C        3.3260     3.3690     0.1680 C.ar  1 <1>  -0.1500 
  7 C        3.9820     1.0740     0.2880 C.ar  1 <1>  -0.1500 
  8 C        4.4310     3.7540     0.9260 C.ar  1 <1>   0.0860 
  9 C        5.0810     1.4330     1.0480 C.ar  1 <1>  -0.1500 
 10 C        4.6830     5.1450     1.2360 C.2   1 <1>   0.5440 
 11 C        5.3000     2.7600     1.3630 C.ar  1 <1>  -0.1500 
 12 O        4.5480     5.5310     2.3820 O.2   1 <1>  -0.5700 
 13 N        5.1010     6.0490     0.2730 N.am  1 <1>  -0.6600 
 14 C        5.3700     7.4660     0.6830 C.3   1 <1>   0.1400 
 15 C        5.6270     5.5940    -1.0540 C.3   1 <1>   0.1400 
 16 C        6.8680     7.7610     0.9620 C.3   1 <1>   0.4230 
 17 C        7.0960     5.9840    -1.3340 C.3   1 <1>  -0.0800 
 18 N        7.6200     8.2180    -0.2640 N.4   1 <1>  -0.9590 
 19 C        7.6430     6.6110     1.6630 C.3   1 <1>   0.1200 
 20 C        8.1450     5.3690    -0.3810 C.3   1 <1>   0.1200 
 21 C        7.2530     7.4950    -1.5180 C.3   1 <1>   0.3430 
 22 C        7.5090     9.6960    -0.4570 C.3   1 <1>   0.2630 
 23 O        7.7450     5.4000     0.9520 O.3   1 <1>  -0.5600 
 24 H        2.6490     4.1390    -0.1620 H     1 <1>   0.1500 
 25 H        3.8320     0.0320     0.0520 H     1 <1>   0.1500 
 26 H        5.7660     0.6780     1.3960 H     1 <1>   0.1500 
 27 H        6.1540     3.0410     1.9560 H     1 <1>   0.1500 
 28 H        4.9850     8.1350    -0.0640 H     1 <1>   0.0800 
 29 H        4.8220     7.6840     1.5840 H     1 <1>   0.0800 
 30 H        5.5560     4.5230    -1.1320 H     1 <1>   0.0800 
 31 H        4.9940     6.0020    -1.8240 H     1 <1>   0.0800 
 32 H        6.8780     8.5820     1.6590 H     1 <1>   0.0800 
 33 H        7.3110     5.5710    -2.3030 H     1 <1>   0.0800 
 34 H        8.6060     7.9910    -0.0710 H     1 <1>   0.4500 
 35 H        7.1430     6.3750     2.5870 H     1 <1>   0.0800 
 36 H        8.6390     6.9310     1.9100 H     1 <1>   0.0800 
 37 H        9.1080     5.8420    -0.4690 H     1 <1>   0.0800 
 38 H        8.2680     4.3270    -0.6270 H     1 <1>   0.0800 
 39 H        6.3300     7.8920    -1.9100 H     1 <1>   0.0800 
 40 H        8.0200     7.6740    -2.2540 H     1 <1>   0.0800 
 41 H        6.4850     9.9740    -0.6530 H     1 <1>   0.0800 
 42 H        8.1160    10.0130    -1.2910 H     1 <1>   0.0800 
 43 H        7.8440    10.2170     0.4250 H     1 <1>   0.0800 
@<TRIPOS>BOND
  1   1   2  1   
  2   2   3  1   
  3   2   4  1   
  4   2   5  1   
  5   5   6  ar  
  6   5   7  ar  
  7   6   8  ar  
  8   6  24  1   
  9   7   9  ar  
 10   7  25  1   
 11   8  10  1   
 12   8  11  ar  
 13   9  11  ar  
 14   9  26  1   
 15  10  12  2   
 16  10  13  am  
 17  11  27  1   
 18  13  14  1   
 19  13  15  1   
 20  14  16  1   
 21  14  28  1   
 22  14  29  1   
 23  15  17  1   
 24  15  30  1   
 25  15  31  1   
 26  16  18  1   
 27  16  19  1   
 28  16  32  1   
 29  17  20  1   
 30  17  21  1   
 31  17  33  1   
 32  18  21  1   
 33  18  22  1   
 34  18  34  1   
 35  19  23  1   
 36  19  35  1   
 37  19  36  1   
 38  20  23  1   
 39  20  37  1   
 40  20  38  1   
 41  21  39  1   
 42  21  40  1   
 43  22  41  1   
 44  22  42  1   
 45  22  43  1   
@<TRIPOS>SUBSTRUCTURE
  1 ****  10 GROUP 4 **** **** 0

# MOE 2024.06 (io_trps.svl 2023.06)
