@<TRIPOS>MOLECULE
NONAME
54 56 1 0 0 
SMALL
USER_CHARGES


@<TRIPOS>ATOM
  1 O       -0.1600     0.7440     0.7720 O.2   1 <1>  -0.5700 
  2 C       -0.1500     1.9430     0.6190 C.2   1 <1>   0.5690 
  3 N       -1.1050     2.7580     1.1640 N.am  1 <1>  -0.6600 
  4 C        0.9580     2.5480    -0.2460 C.3   1 <1>   0.1810 
  5 C       -1.0850     4.2400     0.9320 C.3   1 <1>   0.3640 
  6 C       -2.1250     2.2610     2.1320 C.3   1 <1>   0.0600 
  7 O        1.1660     3.9180    -0.0070 O.3   1 <1>  -0.5600 
  8 C       -2.4680     4.7610     0.5030 C.ar  1 <1>  -0.1430 
  9 C       -0.0080     4.7070    -0.0830 C.3   1 <1>   0.2610 
 10 C       -3.2530     4.2110    -0.5170 C.ar  1 <1>  -0.1430 
 11 C       -2.9480     5.8710     1.1890 C.ar  1 <1>  -0.1500 
 12 C        0.3300     6.2000     0.0880 C.2   1 <1>   0.5690 
 13 C       -4.4840     4.7800    -0.8120 C.ar  1 <1>  -0.1500 
 14 C       -2.8490     2.9900    -1.3390 C.3   1 <1>  -0.0960 
 15 C       -4.1740     6.4300     0.8850 C.ar  1 <1>  -0.1500 
 16 O        0.1490     6.7230     1.1680 O.2   1 <1>  -0.5700 
 17 N        0.8210     6.9340    -0.9710 N.am  1 <1>  -0.6600 
 18 C       -4.9450     5.8830    -0.1190 C.ar  1 <1>  -0.1500 
 19 C        1.0520     8.4010    -0.8330 C.3   1 <1>   0.1400 
 20 C        1.1400     6.3600    -2.3090 C.3   1 <1>   0.0600 
 21 C        2.3660     8.7060    -0.0900 C.3   1 <1>  -0.0800 
 22 C        2.5420    10.2220     0.0850 C.3   1 <1>  -0.1600 
 23 C        3.6090     8.1330    -0.7940 C.3   1 <1>  -0.1600 
 24 C        3.8940    10.5460     0.7290 C.3   1 <1>   0.1200 
 25 C        4.8930     8.5920    -0.0970 C.3   1 <1>   0.1200 
 26 O        4.9150     9.9850    -0.0360 O.3   1 <1>  -0.5600 
 27 H        0.7160     2.4150    -1.2840 H     1 <1>   0.0800 
 28 H        1.8820     2.0390    -0.0390 H     1 <1>   0.0800 
 29 H       -0.8410     4.6770     1.8840 H     1 <1>   0.0800 
 30 H       -3.1140     2.4200     1.7390 H     1 <1>   0.0800 
 31 H       -2.0290     2.7870     3.0650 H     1 <1>   0.0800 
 32 H       -1.9950     1.2080     2.3160 H     1 <1>   0.0800 
 33 H       -0.4060     4.5860    -1.0700 H     1 <1>   0.0800 
 34 H       -2.3610     6.3210     1.9740 H     1 <1>   0.1500 
 35 H       -5.1020     4.3650    -1.5880 H     1 <1>   0.1500 
 36 H       -3.4540     2.9050    -2.2230 H     1 <1>   0.0800 
 37 H       -2.9860     2.0960    -0.7570 H     1 <1>   0.0800 
 38 H       -1.8260     3.0460    -1.6520 H     1 <1>   0.0800 
 39 H       -4.5240     7.2910     1.4280 H     1 <1>   0.1500 
 40 H       -5.9020     6.3130    -0.3610 H     1 <1>   0.1500 
 41 H        1.0630     8.8630    -1.8050 H     1 <1>   0.0800 
 42 H        0.2310     8.8280    -0.2810 H     1 <1>   0.0800 
 43 H        1.9050     6.9430    -2.7920 H     1 <1>   0.0800 
 44 H        0.2580     6.3660    -2.9250 H     1 <1>   0.0800 
 45 H        1.5030     5.3520    -2.2110 H     1 <1>   0.0800 
 46 H        2.3030     8.2700     0.8930 H     1 <1>   0.0800 
 47 H        1.7530    10.6130     0.7040 H     1 <1>   0.0800 
 48 H        2.4920    10.7170    -0.8690 H     1 <1>   0.0800 
 49 H        3.6390     8.4590    -1.8190 H     1 <1>   0.0800 
 50 H        3.5730     7.0590    -0.7830 H     1 <1>   0.0800 
 51 H        3.9560    10.1530     1.7300 H     1 <1>   0.0800 
 52 H        4.0540    11.6100     0.7600 H     1 <1>   0.0800 
 53 H        5.7590     8.2740    -0.6510 H     1 <1>   0.0800 
 54 H        4.9550     8.2010     0.9050 H     1 <1>   0.0800 
@<TRIPOS>BOND
  1   1   2  2   
  2   2   3  am  
  3   2   4  1   
  4   3   5  1   
  5   3   6  1   
  6   4   7  1   
  7   4  27  1   
  8   4  28  1   
  9   5   8  1   
 10   5   9  1   
 11   5  29  1   
 12   6  30  1   
 13   6  31  1   
 14   6  32  1   
 15   7   9  1   
 16   8  10  ar  
 17   8  11  ar  
 18   9  12  1   
 19   9  33  1   
 20  10  13  ar  
 21  10  14  1   
 22  11  15  ar  
 23  11  34  1   
 24  12  16  2   
 25  12  17  am  
 26  13  18  ar  
 27  13  35  1   
 28  14  36  1   
 29  14  37  1   
 30  14  38  1   
 31  15  18  ar  
 32  15  39  1   
 33  17  19  1   
 34  17  20  1   
 35  18  40  1   
 36  19  21  1   
 37  19  41  1   
 38  19  42  1   
 39  20  43  1   
 40  20  44  1   
 41  20  45  1   
 42  21  22  1   
 43  21  23  1   
 44  21  46  1   
 45  22  24  1   
 46  22  47  1   
 47  22  48  1   
 48  23  25  1   
 49  23  49  1   
 50  23  50  1   
 51  24  26  1   
 52  24  51  1   
 53  24  52  1   
 54  25  26  1   
 55  25  53  1   
 56  25  54  1   
@<TRIPOS>SUBSTRUCTURE
  1 ****  12 GROUP 4 **** **** 0

# MOE 2024.06 (io_trps.svl 2023.06)
