@<TRIPOS>MOLECULE
NONAME
41 43 1 0 0 
SMALL
USER_CHARGES


@<TRIPOS>ATOM
  1 S       -0.8330     0.9810     2.2920 S.3   1 <1>  -0.0800 
  2 C       -1.3480     1.6690     0.7590 C.2   1 <1>  -0.1400 
  3 C       -2.3770     0.1600     2.4780 C.2   1 <1>  -0.1100 
  4 C       -2.5990     1.2890     0.4660 C.2   1 <1>  -0.1810 
  5 C       -0.4550     2.5740    -0.0830 C.3   1 <1>   0.4600 
  6 C       -3.1910     0.4220     1.4380 C.2   1 <1>  -0.1500 
  7 C       -3.2490     1.7820    -0.8070 C.3   1 <1>   0.0210 
  8 O       -1.1020     2.8200    -1.3170 O.3   1 <1>  -0.5600 
  9 C        0.8680     1.8790    -0.4220 C.3   1 <1>  -0.1600 
 10 C       -0.1880     3.9120     0.6190 C.3   1 <1>  -0.1600 
 11 C       -2.4950     3.0300    -1.3070 C.3   1 <1>   0.1200 
 12 C        1.7920     2.7900    -1.2310 C.3   1 <1>   0.1400 
 13 C        0.7440     4.8040    -0.2020 C.3   1 <1>   0.1400 
 14 N        2.0050     4.0650    -0.4910 N.am  1 <1>  -0.6600 
 15 C        3.2710     4.5320    -0.2140 C.2   1 <1>   0.5690 
 16 O        4.2570     3.8860    -0.4960 O.2   1 <1>  -0.5700 
 17 C        3.5090     5.8620     0.5110 C.3   1 <1>   0.1810 
 18 O        2.9610     6.9650    -0.1700 O.3   1 <1>  -0.5600 
 19 C        3.2660     8.1910     0.4010 C.3   1 <1>   0.1200 
 20 C        2.5620     9.2640    -0.4190 C.3   1 <1>  -0.2400 
 21 H       -2.5130    -0.4410     3.3600 H     1 <1>   0.1500 
 22 H       -4.1890     0.0410     1.3110 H     1 <1>   0.1500 
 23 H       -4.2770     2.0370    -0.6240 H     1 <1>   0.0800 
 24 H       -3.2160     1.0110    -1.5550 H     1 <1>   0.0800 
 25 H        0.6640     0.9790    -0.9730 H     1 <1>   0.0800 
 26 H        1.3750     1.5990     0.4830 H     1 <1>   0.0800 
 27 H        0.2740     3.7230     1.5710 H     1 <1>   0.0800 
 28 H       -1.1130     4.4210     0.8110 H     1 <1>   0.0800 
 29 H       -2.7090     3.8740    -0.6760 H     1 <1>   0.0800 
 30 H       -2.7970     3.2670    -2.3120 H     1 <1>   0.0800 
 31 H        1.3490     3.0090    -2.1880 H     1 <1>   0.0800 
 32 H        2.7280     2.2870    -1.4070 H     1 <1>   0.0800 
 33 H        0.9350     5.7100     0.3420 H     1 <1>   0.0800 
 34 H        0.2750     5.0700    -1.1350 H     1 <1>   0.0800 
 35 H        4.5700     6.0160     0.6040 H     1 <1>   0.0800 
 36 H        3.0720     5.8130     1.4910 H     1 <1>   0.0800 
 37 H        4.3340     8.3320     0.3730 H     1 <1>   0.0800 
 38 H        2.9170     8.2010     1.4200 H     1 <1>   0.0800 
 39 H        2.9090     9.2350    -1.4370 H     1 <1>   0.0800 
 40 H        2.7750    10.2350    -0.0110 H     1 <1>   0.0800 
 41 H        1.4990     9.1070    -0.3990 H     1 <1>   0.0800 
@<TRIPOS>BOND
  1   1   2  1   
  2   1   3  1   
  3   2   4  2   
  4   2   5  1   
  5   3   6  2   
  6   3  21  1   
  7   4   6  1   
  8   4   7  1   
  9   5   8  1   
 10   5   9  1   
 11   5  10  1   
 12   6  22  1   
 13   7  11  1   
 14   7  23  1   
 15   7  24  1   
 16   8  11  1   
 17   9  12  1   
 18   9  25  1   
 19   9  26  1   
 20  10  13  1   
 21  10  27  1   
 22  10  28  1   
 23  11  29  1   
 24  11  30  1   
 25  12  14  1   
 26  12  31  1   
 27  12  32  1   
 28  13  14  1   
 29  13  33  1   
 30  13  34  1   
 31  14  15  am  
 32  15  16  2   
 33  15  17  1   
 34  17  18  1   
 35  17  35  1   
 36  17  36  1   
 37  18  19  1   
 38  19  20  1   
 39  19  37  1   
 40  19  38  1   
 41  20  39  1   
 42  20  40  1   
 43  20  41  1   
@<TRIPOS>SUBSTRUCTURE
  1 ****  10 GROUP 4 **** **** 0

# MOE 2024.06 (io_trps.svl 2023.06)
