@<TRIPOS>MOLECULE
NONAME
55 57 1 0 0 
SMALL
USER_CHARGES


@<TRIPOS>ATOM
  1 O        4.4680    -1.6020    -0.4300 O.2   1 <1>  -0.5700 
  2 C        3.3470    -1.5050    -0.8710 C.2   1 <1>   0.5690 
  3 N        3.1830    -1.0570    -2.1570 N.am  1 <1>  -0.6600 
  4 C        2.1710    -1.8430     0.0370 C.3   1 <1>  -0.0990 
  5 C        4.2860    -1.2690    -3.1630 C.3   1 <1>   0.1400 
  6 C        2.1860    -0.0270    -2.5530 C.3   1 <1>   0.1400 
  7 C        2.2990    -1.2700     1.4650 C.3   1 <1>  -0.0800 
  8 C        5.4820    -0.3120    -2.9490 C.3   1 <1>   0.3430 
  9 C        2.6870     1.3780    -2.1750 C.3   1 <1>  -0.1600 
 10 C        1.1610    -1.7840     2.3630 C.3   1 <1>   0.1200 
 11 C        2.3170     0.2680     1.4790 C.3   1 <1>  -0.1600 
 12 N        5.1020     0.8020    -2.0280 N.4   1 <1>  -0.9590 
 13 C        4.1090     1.7360    -2.6330 C.3   1 <1>   0.3430 
 14 O        1.3040    -1.2610     3.6480 O.3   1 <1>  -0.5600 
 15 C        2.3260     0.7760     2.9250 C.3   1 <1>  -0.1600 
 16 C        6.2530     1.4450    -1.3520 C.3   1 <1>   0.3430 
 17 C        1.2000     0.1280     3.7380 C.3   1 <1>   0.1200 
 18 C        5.7940     1.8490     0.0470 C.3   1 <1>  -0.1600 
 19 C        6.9160     2.4570     0.8980 C.3   1 <1>   0.0960 
 20 N        6.3730     2.7790     2.2310 N.pl3 1 <1>   0.0480 
 21 C        5.9400     3.9750     2.6880 C.2   1 <1>   0.0360 
 22 C        6.1130     1.9180     3.2320 C.2   1 <1>  -0.3020 
 23 N        5.4340     3.9320     3.8760 N.2   1 <1>  -0.5650 
 24 C        5.5450     2.6370     4.2240 C.2   1 <1>   0.0770 
 25 H        2.1340    -2.9150     0.1050 H     1 <1>   0.0800 
 26 H        1.2450    -1.5250    -0.3980 H     1 <1>   0.0800 
 27 H        3.9000    -1.1450    -4.1600 H     1 <1>   0.0800 
 28 H        4.6400    -2.2840    -3.0900 H     1 <1>   0.0800 
 29 H        1.2400    -0.2130    -2.0750 H     1 <1>   0.0800 
 30 H        2.0170    -0.0830    -3.6150 H     1 <1>   0.0800 
 31 H        3.2220    -1.6300     1.8900 H     1 <1>   0.0800 
 32 H        5.8360     0.0680    -3.8930 H     1 <1>   0.0800 
 33 H        6.2790    -0.8830    -2.5000 H     1 <1>   0.0800 
 34 H        2.6170     1.5110    -1.1120 H     1 <1>   0.0800 
 35 H        2.0110     2.0930    -2.6100 H     1 <1>   0.0800 
 36 H        1.2000    -2.8560     2.4460 H     1 <1>   0.0800 
 37 H        0.1950    -1.4970     1.9830 H     1 <1>   0.0800 
 38 H        1.4410     0.6470     0.9810 H     1 <1>   0.0800 
 39 H        3.1890     0.6370     0.9760 H     1 <1>   0.0800 
 40 H        4.5960     0.2710    -1.2920 H     1 <1>   0.4500 
 41 H        4.3270     2.7460    -2.3260 H     1 <1>   0.0800 
 42 H        4.1700     1.6950    -3.7090 H     1 <1>   0.0800 
 43 H        2.2150     1.8460     2.9450 H     1 <1>   0.0800 
 44 H        3.2660     0.5370     3.3920 H     1 <1>   0.0800 
 45 H        6.5960     2.3000    -1.9120 H     1 <1>   0.0800 
 46 H        7.0650     0.7390    -1.2630 H     1 <1>   0.0800 
 47 H        1.2810     0.3970     4.7770 H     1 <1>   0.0800 
 48 H        0.2310     0.4240     3.3730 H     1 <1>   0.0800 
 49 H        5.4400     0.9680     0.5550 H     1 <1>   0.0800 
 50 H        4.9920     2.5630    -0.0240 H     1 <1>   0.0800 
 51 H        7.2950     3.3580     0.4500 H     1 <1>   0.0800 
 52 H        7.7260     1.7590     1.0190 H     1 <1>   0.0800 
 53 H        6.0100     4.8750     2.1010 H     1 <1>   0.1500 
 54 H        6.3360     0.8670     3.1940 H     1 <1>   0.1500 
 55 H        5.2050     2.2850     5.1840 H     1 <1>   0.1500 
@<TRIPOS>BOND
  1   1   2  2   
  2   2   3  am  
  3   2   4  1   
  4   3   5  1   
  5   3   6  1   
  6   4   7  1   
  7   4  25  1   
  8   4  26  1   
  9   5   8  1   
 10   5  27  1   
 11   5  28  1   
 12   6   9  1   
 13   6  29  1   
 14   6  30  1   
 15   7  10  1   
 16   7  11  1   
 17   7  31  1   
 18   8  12  1   
 19   8  32  1   
 20   8  33  1   
 21   9  13  1   
 22   9  34  1   
 23   9  35  1   
 24  10  14  1   
 25  10  36  1   
 26  10  37  1   
 27  11  15  1   
 28  11  38  1   
 29  11  39  1   
 30  12  13  1   
 31  12  16  1   
 32  12  40  1   
 33  13  41  1   
 34  13  42  1   
 35  14  17  1   
 36  15  17  1   
 37  15  43  1   
 38  15  44  1   
 39  16  18  1   
 40  16  45  1   
 41  16  46  1   
 42  17  47  1   
 43  17  48  1   
 44  18  19  1   
 45  18  49  1   
 46  18  50  1   
 47  19  20  1   
 48  19  51  1   
 49  19  52  1   
 50  20  21  1   
 51  20  22  1   
 52  21  23  2   
 53  21  53  1   
 54  22  24  2   
 55  22  54  1   
 56  23  24  1   
 57  24  55  1   
@<TRIPOS>SUBSTRUCTURE
  1 ****  11 GROUP 4 **** **** 0

# MOE 2024.06 (io_trps.svl 2023.06)
