@<TRIPOS>MOLECULE
NONAME
51 54 1 0 0 
SMALL
USER_CHARGES


@<TRIPOS>ATOM
  1 O        3.6850    -1.2030    -2.2100 O.2   1 <1>  -0.5700 
  2 C        3.1450    -1.4120    -1.1370 C.2   1 <1>   0.5440 
  3 N        3.1610    -0.3690    -0.2470 N.am  1 <1>  -0.6600 
  4 C        2.5990    -2.7130    -0.7900 C.ar  1 <1>   0.0860 
  5 C        4.2420    -0.3870     0.8000 C.3   1 <1>   0.2200 
  6 C        2.5970     0.9460    -0.6880 C.3   1 <1>   0.1400 
  7 C        2.8830    -3.8450    -1.5550 C.ar  1 <1>  -0.1500 
  8 C        1.7740    -2.8960     0.3230 C.ar  1 <1>  -0.1500 
  9 C        3.9200     0.5020     2.0130 C.3   1 <1>   0.1200 
 10 C        5.6180    -0.0100     0.1900 C.3   1 <1>   0.3430 
 11 C        3.5070     2.1640    -0.4450 C.3   1 <1>  -0.0800 
 12 C        2.3850    -5.0900    -1.2190 C.ar  1 <1>  -0.1500 
 13 C        1.2770    -4.1400     0.6580 C.ar  1 <1>  -0.1500 
 14 O        4.3530     1.8100     1.7920 O.3   1 <1>  -0.5600 
 15 N        5.4990     0.6960    -1.1340 N.4   1 <1>  -0.9590 
 16 C        3.5110     2.6050     1.0270 C.3   1 <1>   0.1200 
 17 C        4.9310     2.0770    -1.0380 C.3   1 <1>   0.3430 
 18 C        1.5750    -5.2650    -0.1030 C.ar  1 <1>   0.0000 
 19 C        6.7820     0.6760    -1.8890 C.3   1 <1>   0.2630 
 20 C        1.0600    -6.5660     0.2510 C.ar  1 <1>   0.0000 
 21 C        0.2860    -7.3010    -0.6470 C.ar  1 <1>  -0.1500 
 22 C        1.3230    -7.1250     1.5010 C.ar  1 <1>  -0.1500 
 23 C       -0.2070    -8.5480    -0.3100 C.ar  1 <1>  -0.1500 
 24 C        0.8330    -8.3710     1.8470 C.ar  1 <1>  -0.1500 
 25 C        0.0670    -9.0810     0.9360 C.ar  1 <1>   0.0820 
 26 O       -0.4140   -10.2900     1.2530 O.3   1 <1>  -0.5330 
 27 H        4.3150    -1.3930     1.1760 H     1 <1>   0.0800 
 28 H        2.3680     0.8930    -1.7400 H     1 <1>   0.0800 
 29 H        1.6600     1.0980    -0.1780 H     1 <1>   0.0800 
 30 H        3.5040    -3.7470    -2.4290 H     1 <1>   0.1500 
 31 H        1.5100    -2.0510     0.9340 H     1 <1>   0.1500 
 32 H        4.4660     0.1420     2.8680 H     1 <1>   0.0800 
 33 H        2.8710     0.4900     2.2550 H     1 <1>   0.0800 
 34 H        6.1730    -0.9220     0.0490 H     1 <1>   0.0800 
 35 H        6.1700     0.5980     0.8880 H     1 <1>   0.0800 
 36 H        3.0310     2.9790    -0.9600 H     1 <1>   0.0800 
 37 H        2.6270    -5.9450    -1.8270 H     1 <1>   0.1500 
 38 H        0.6390    -4.2500     1.5190 H     1 <1>   0.1500 
 39 H        4.8000     0.1250    -1.6630 H     1 <1>   0.4500 
 40 H        2.5210     2.5830     1.4550 H     1 <1>   0.0800 
 41 H        3.8820     3.6130     1.1050 H     1 <1>   0.0800 
 42 H        5.5900     2.6970    -0.4520 H     1 <1>   0.0800 
 43 H        4.8960     2.4920    -2.0320 H     1 <1>   0.0800 
 44 H        7.5370     1.2360    -1.3620 H     1 <1>   0.0800 
 45 H        6.6440     1.1100    -2.8660 H     1 <1>   0.0800 
 46 H        7.1240    -0.3390    -2.0140 H     1 <1>   0.0800 
 47 H        0.0670    -6.8870    -1.6150 H     1 <1>   0.1500 
 48 H        1.9210    -6.5740     2.2040 H     1 <1>   0.1500 
 49 H       -0.8030    -9.1110    -1.0050 H     1 <1>   0.1500 
 50 H        1.0490    -8.7830     2.8150 H     1 <1>   0.1500 
 51 H       -0.1680   -10.5820     2.1470 H     1 <1>   0.4500 
@<TRIPOS>BOND
  1   1   2  2   
  2   2   3  am  
  3   2   4  1   
  4   3   5  1   
  5   3   6  1   
  6   4   7  ar  
  7   4   8  ar  
  8   5   9  1   
  9   5  10  1   
 10   5  27  1   
 11   6  11  1   
 12   6  28  1   
 13   6  29  1   
 14   7  12  ar  
 15   7  30  1   
 16   8  13  ar  
 17   8  31  1   
 18   9  14  1   
 19   9  32  1   
 20   9  33  1   
 21  10  15  1   
 22  10  34  1   
 23  10  35  1   
 24  11  16  1   
 25  11  17  1   
 26  11  36  1   
 27  12  18  ar  
 28  12  37  1   
 29  13  18  ar  
 30  13  38  1   
 31  14  16  1   
 32  15  17  1   
 33  15  19  1   
 34  15  39  1   
 35  16  40  1   
 36  16  41  1   
 37  17  42  1   
 38  17  43  1   
 39  18  20  1   
 40  19  44  1   
 41  19  45  1   
 42  19  46  1   
 43  20  21  ar  
 44  20  22  ar  
 45  21  23  ar  
 46  21  47  1   
 47  22  24  ar  
 48  22  48  1   
 49  23  25  ar  
 50  23  49  1   
 51  24  25  ar  
 52  24  50  1   
 53  25  26  1   
 54  26  51  1   
@<TRIPOS>SUBSTRUCTURE
  1 ****   4 GROUP 4 **** **** 0

# MOE 2024.06 (io_trps.svl 2023.06)
