@<TRIPOS>MOLECULE
NONAME
54 56 1 0 0 
SMALL
USER_CHARGES


@<TRIPOS>ATOM
  1 O       -3.2850    -1.2570    -0.8400 O.2   1 <1>  -0.5700 
  2 C       -3.2670    -0.0670    -0.6140 C.2   1 <1>   0.5690 
  3 N       -3.4700     0.8380    -1.6290 N.am  1 <1>  -0.6600 
  4 C       -3.0080     0.3950     0.8230 C.3   1 <1>  -0.0190 
  5 C       -4.1290     0.3850    -2.8840 C.3   1 <1>   0.1400 
  6 C       -3.2130     2.3000    -1.5600 C.3   1 <1>   0.1400 
  7 C       -1.5060     0.3260     1.1520 C.3   1 <1>  -0.0220 
  8 C       -3.8210    -0.4110     1.8550 C.3   1 <1>  -0.1600 
  9 C       -5.6560     0.3140    -2.7040 C.3   1 <1>   0.1400 
 10 C       -4.4990     3.0990    -1.3140 C.3   1 <1>  -0.1600 
 11 C       -1.2530     0.5770     2.6310 C.2   1 <1>  -0.2880 
 12 C       -3.6580     0.1570     3.2720 C.3   1 <1>  -0.0220 
 13 N       -6.2680     1.5310    -2.0650 N.am  1 <1>  -0.6600 
 14 C       -5.6150     2.8440    -2.3350 C.3   1 <1>   0.1400 
 15 C       -2.2080     0.5120     3.5640 C.2   1 <1>  -0.2880 
 16 C       -7.3200     1.4690    -1.1750 C.2   1 <1>   0.5690 
 17 O       -7.7730     2.4700    -0.6650 O.2   1 <1>  -0.5700 
 18 C       -8.0100     0.1480    -0.8230 C.3   1 <1>   0.1810 
 19 O       -7.2010    -0.6790    -0.0270 O.3   1 <1>  -0.5600 
 20 C       -7.8280    -1.8460     0.4020 C.3   1 <1>   0.2630 
 21 C       -6.8440    -2.6670     1.2190 C.ar  1 <1>  -0.1440 
 22 C       -7.1180    -2.9900     2.5410 C.ar  1 <1>  -0.1500 
 23 C       -5.6610    -3.1080     0.6460 C.ar  1 <1>  -0.1500 
 24 C       -6.2220    -3.7490     3.2750 C.ar  1 <1>  -0.1500 
 25 C       -4.7660    -3.8680     1.3780 C.ar  1 <1>  -0.1500 
 26 C       -5.0470    -4.1900     2.6940 C.ar  1 <1>  -0.1500 
 27 H       -3.3290     1.4130     0.9250 H     1 <1>   0.0800 
 28 H       -3.7630    -0.5910    -3.1530 H     1 <1>   0.0800 
 29 H       -3.8830     1.0480    -3.6930 H     1 <1>   0.0800 
 30 H       -2.7680     2.6170    -2.4870 H     1 <1>   0.0800 
 31 H       -2.5000     2.5150    -0.7830 H     1 <1>   0.0800 
 32 H       -0.9820     1.0600     0.5660 H     1 <1>   0.0800 
 33 H       -1.1210    -0.6460     0.8940 H     1 <1>   0.0800 
 34 H       -3.4780    -1.4300     1.8470 H     1 <1>   0.0800 
 35 H       -4.8630    -0.4120     1.5840 H     1 <1>   0.0800 
 36 H       -5.8590    -0.5550    -2.1060 H     1 <1>   0.0800 
 37 H       -6.1120     0.1600    -3.6660 H     1 <1>   0.0800 
 38 H       -4.2460     4.1430    -1.3520 H     1 <1>   0.0800 
 39 H       -4.8700     2.9030    -0.3230 H     1 <1>   0.0800 
 40 H       -0.2260     0.8070     2.8570 H     1 <1>   0.1500 
 41 H       -4.0050    -0.5750     3.9800 H     1 <1>   0.0800 
 42 H       -4.2630     1.0410     3.3800 H     1 <1>   0.0800 
 43 H       -5.2340     2.8740    -3.3400 H     1 <1>   0.0800 
 44 H       -6.3500     3.6270    -2.2490 H     1 <1>   0.0800 
 45 H       -2.0210     0.7060     4.6070 H     1 <1>   0.1500 
 46 H       -8.2590    -0.3780    -1.7250 H     1 <1>   0.0800 
 47 H       -8.9100     0.3670    -0.2780 H     1 <1>   0.0800 
 48 H       -8.1430    -2.4080    -0.4600 H     1 <1>   0.0800 
 49 H       -8.6840    -1.5770     0.9960 H     1 <1>   0.0800 
 50 H       -8.0260    -2.6510     3.0050 H     1 <1>   0.1500 
 51 H       -5.4250    -2.8480    -0.3720 H     1 <1>   0.1500 
 52 H       -6.4390    -3.9950     4.3000 H     1 <1>   0.1500 
 53 H       -3.8490    -4.1960     0.9200 H     1 <1>   0.1500 
 54 H       -4.3480    -4.7780     3.2630 H     1 <1>   0.1500 
@<TRIPOS>BOND
  1   1   2  2   
  2   2   3  am  
  3   2   4  1   
  4   3   5  1   
  5   3   6  1   
  6   4   7  1   
  7   4   8  1   
  8   4  27  1   
  9   5   9  1   
 10   5  28  1   
 11   5  29  1   
 12   6  10  1   
 13   6  30  1   
 14   6  31  1   
 15   7  11  1   
 16   7  32  1   
 17   7  33  1   
 18   8  12  1   
 19   8  34  1   
 20   8  35  1   
 21   9  13  1   
 22   9  36  1   
 23   9  37  1   
 24  10  14  1   
 25  10  38  1   
 26  10  39  1   
 27  11  15  2   
 28  11  40  1   
 29  12  15  1   
 30  12  41  1   
 31  12  42  1   
 32  13  14  1   
 33  13  16  am  
 34  14  43  1   
 35  14  44  1   
 36  15  45  1   
 37  16  17  2   
 38  16  18  1   
 39  18  19  1   
 40  18  46  1   
 41  18  47  1   
 42  19  20  1   
 43  20  21  1   
 44  20  48  1   
 45  20  49  1   
 46  21  22  ar  
 47  21  23  ar  
 48  22  24  ar  
 49  22  50  1   
 50  23  25  ar  
 51  23  51  1   
 52  24  26  ar  
 53  24  52  1   
 54  25  26  ar  
 55  25  53  1   
 56  26  54  1   
@<TRIPOS>SUBSTRUCTURE
  1 ****   2 GROUP 4 **** **** 0

# MOE 2024.06 (io_trps.svl 2023.06)
