@<TRIPOS>MOLECULE
NONAME
46 49 1 0 0 
SMALL
USER_CHARGES


@<TRIPOS>ATOM
  1 O        0.3770     0.4730     0.5940 O.3   1 <1>  -0.0190 
  2 N        1.5730     0.2350     0.1530 N.2   1 <1>  -0.4100 
  3 C       -0.0760    -0.7020     0.9510 C.2   1 <1>   0.2980 
  4 C        1.7870    -1.0290     0.2620 C.2   1 <1>   0.5150 
  5 N        0.7360    -1.6660     0.7900 N.2   1 <1>  -0.5650 
  6 C       -1.4780    -0.8010     1.5500 C.3   1 <1>   0.2900 
  7 C        3.0110    -1.6960    -0.1280 C.2   1 <1>   0.1410 
  8 N       -2.5830    -0.7290     0.5610 N.3   1 <1>  -0.8100 
  9 O        3.1760    -3.0060     0.0440 O.3   1 <1>  -0.2800 
 10 C        4.1420    -1.1910    -0.6920 C.2   1 <1>  -0.1500 
 11 C       -3.8530    -1.1590     1.1810 C.3   1 <1>   0.1100 
 12 C       -2.7230     0.6150    -0.0270 C.3   1 <1>   0.1100 
 13 C        4.3710    -3.3420    -0.3950 C.2   1 <1>  -0.0100 
 14 C        5.0240    -2.2600    -0.8650 C.2   1 <1>  -0.1500 
 15 C       -4.9870    -1.2690     0.1440 C.3   1 <1>   0.0000 
 16 C       -3.8060     0.6190    -1.1100 C.3   1 <1>  -0.1600 
 17 C       -6.2880    -1.7480     0.8150 C.3   1 <1>   0.2000 
 18 C       -5.1490     0.0940    -0.5780 C.3   1 <1>  -0.1600 
 19 C       -4.7420    -2.4020    -0.8690 C.3   1 <1>  -0.1600 
 20 O       -6.9550    -0.7090     1.4700 O.3   1 <1>  -0.5600 
 21 C       -7.1320    -2.3450    -0.3140 C.3   1 <1>  -0.1600 
 22 C       -6.1290    -2.8170    -1.3770 C.3   1 <1>  -0.1600 
 23 C       -7.9920    -1.1080     2.3090 C.3   1 <1>   0.0400 
 24 H       -1.6010    -0.0310     2.2900 H     1 <1>   0.0800 
 25 H       -1.5320    -1.7500     2.0530 H     1 <1>   0.0800 
 26 H        4.3350    -0.1670    -0.9600 H     1 <1>   0.1500 
 27 H       -3.7150    -2.1190     1.6480 H     1 <1>   0.0800 
 28 H       -4.1420    -0.4540     1.9430 H     1 <1>   0.0800 
 29 H       -2.9770     1.3270     0.7420 H     1 <1>   0.0800 
 30 H       -1.7970     0.9190    -0.4820 H     1 <1>   0.0800 
 31 H        4.6760    -4.3730    -0.3340 H     1 <1>   0.1500 
 32 H        6.0110    -2.2000    -1.2880 H     1 <1>   0.1500 
 33 H       -3.9350     1.6220    -1.4750 H     1 <1>   0.0800 
 34 H       -3.4690     0.0200    -1.9370 H     1 <1>   0.0800 
 35 H       -6.0510    -2.5150     1.5330 H     1 <1>   0.0800 
 36 H       -5.8560     0.0200    -1.3840 H     1 <1>   0.0800 
 37 H       -5.5310     0.8200     0.1190 H     1 <1>   0.0800 
 38 H       -4.0880    -2.1180    -1.6730 H     1 <1>   0.0800 
 39 H       -4.2940    -3.2400    -0.3630 H     1 <1>   0.0800 
 40 H       -7.7280    -3.1640     0.0440 H     1 <1>   0.0800 
 41 H       -7.7690    -1.5860    -0.7350 H     1 <1>   0.0800 
 42 H       -6.1790    -3.8820    -1.5210 H     1 <1>   0.0800 
 43 H       -6.3380    -2.3290    -2.3130 H     1 <1>   0.0800 
 44 H       -8.3970    -0.2300     2.7780 H     1 <1>   0.0800 
 45 H       -7.6060    -1.7750     3.0600 H     1 <1>   0.0800 
 46 H       -8.7580    -1.5920     1.7290 H     1 <1>   0.0800 
@<TRIPOS>BOND
  1   1   2  1   
  2   1   3  1   
  3   2   4  2   
  4   3   5  2   
  5   3   6  1   
  6   4   5  1   
  7   4   7  1   
  8   6   8  1   
  9   6  24  1   
 10   6  25  1   
 11   7   9  1   
 12   7  10  2   
 13   8  11  1   
 14   8  12  1   
 15   9  13  1   
 16  10  14  1   
 17  10  26  1   
 18  11  15  1   
 19  11  27  1   
 20  11  28  1   
 21  12  16  1   
 22  12  29  1   
 23  12  30  1   
 24  13  14  2   
 25  13  31  1   
 26  14  32  1   
 27  15  17  1   
 28  15  18  1   
 29  15  19  1   
 30  16  18  1   
 31  16  33  1   
 32  16  34  1   
 33  17  20  1   
 34  17  21  1   
 35  17  35  1   
 36  18  36  1   
 37  18  37  1   
 38  19  22  1   
 39  19  38  1   
 40  19  39  1   
 41  20  23  1   
 42  21  22  1   
 43  21  40  1   
 44  21  41  1   
 45  22  42  1   
 46  22  43  1   
 47  23  44  1   
 48  23  45  1   
 49  23  46  1   
@<TRIPOS>SUBSTRUCTURE
  1 ****   8 GROUP 4 **** **** 0

# MOE 2024.06 (io_trps.svl 2023.06)
