@<TRIPOS>MOLECULE
NONAME
52 54 1 0 0 
SMALL
USER_CHARGES


@<TRIPOS>ATOM
  1 F       -0.8210     2.4760     2.7350 F     1 <1>  -0.1900 
  2 C       -0.4080     3.5810     2.1790 C.ar  1 <1>   0.1900 
  3 C        0.7680     4.1520     2.6240 C.ar  1 <1>  -0.1500 
  4 C       -1.1610     4.1400     1.1650 C.ar  1 <1>  -0.1500 
  5 C        1.2060     5.3230     2.0280 C.ar  1 <1>  -0.1500 
  6 C       -0.7150     5.3110     0.5740 C.ar  1 <1>  -0.1500 
  7 C        0.4710     5.9020     0.9980 C.ar  1 <1>  -0.1430 
  8 C        0.9660     7.1750     0.3360 C.3   1 <1>   0.4870 
  9 N        2.1020     6.8300    -0.5610 N.4   1 <1>  -0.9590 
 10 C        2.7990     8.0780    -1.0320 C.3   1 <1>   0.3430 
 11 C        1.6720     5.9600    -1.6960 C.3   1 <1>   0.3430 
 12 C        4.0040     7.7890    -1.9600 C.3   1 <1>   0.2890 
 13 C        2.8810     5.6010    -2.5650 C.3   1 <1>  -0.1600 
 14 N        4.5320     9.0340    -2.5480 N.pl3 1 <1>  -0.8690 
 15 C        3.6040     6.8490    -3.1010 C.3   1 <1>  -0.1600 
 16 C        4.9720    10.0150    -1.7160 C.ar  1 <1>   0.4100 
 17 N        4.0250    10.8080    -1.2460 N.ar  1 <1>  -0.6200 
 18 C        6.3180    10.1430    -1.3950 C.ar  1 <1>  -0.1500 
 19 C        4.4400    11.7740    -0.4390 C.ar  1 <1>   0.1600 
 20 C        6.7260    11.1470    -0.5510 C.ar  1 <1>  -0.1500 
 21 C        5.7570    12.0130    -0.0460 C.ar  1 <1>   0.0860 
 22 C        6.0620    13.1060     0.8490 C.2   1 <1>   0.5440 
 23 O        5.2080    13.5350     1.5990 O.2   1 <1>  -0.5700 
 24 N        7.3030    13.6830     0.8670 N.am  1 <1>  -0.7300 
 25 C        7.7140    14.7820     1.7610 C.3   1 <1>   0.1400 
 26 C        9.1650    14.5600     2.1700 C.3   1 <1>  -0.2400 
 27 H        1.3200     3.6860     3.4220 H     1 <1>   0.1500 
 28 H       -2.0750     3.6650     0.8540 H     1 <1>   0.1500 
 29 H        2.1180     5.7720     2.3840 H     1 <1>   0.1500 
 30 H       -1.3070     5.7500    -0.2120 H     1 <1>   0.1500 
 31 H        1.2890     7.8670     1.0970 H     1 <1>   0.0800 
 32 H        0.1690     7.6350    -0.2270 H     1 <1>   0.0800 
 33 H        2.7590     6.2810     0.0070 H     1 <1>   0.4500 
 34 H        3.1500     8.6450    -0.1850 H     1 <1>   0.0800 
 35 H        2.1010     8.6930    -1.5750 H     1 <1>   0.0800 
 36 H        0.9400     6.4760    -2.2970 H     1 <1>   0.0800 
 37 H        1.2220     5.0540    -1.3190 H     1 <1>   0.0800 
 38 H        4.7870     7.3310    -1.3780 H     1 <1>   0.0800 
 39 H        2.5450     5.0050    -3.3970 H     1 <1>   0.0800 
 40 H        3.5640     4.9940    -1.9960 H     1 <1>   0.0800 
 41 H        3.9020     9.4210    -3.2570 H     1 <1>   0.4000 
 42 H        4.4850     6.5510    -3.6440 H     1 <1>   0.0800 
 43 H        2.9500     7.3670    -3.7820 H     1 <1>   0.0800 
 44 H        7.0210     9.4520    -1.8210 H     1 <1>   0.1500 
 45 H        3.6840    12.4390    -0.0530 H     1 <1>   0.1500 
 46 H        7.7620    11.2580    -0.2840 H     1 <1>   0.1500 
 47 H        7.9860    13.4270     0.1540 H     1 <1>   0.3700 
 48 H        7.0840    14.8020     2.6360 H     1 <1>   0.0800 
 49 H        7.6100    15.7210     1.2440 H     1 <1>   0.0800 
 50 H        9.2650    13.6230     2.6880 H     1 <1>   0.0800 
 51 H        9.4760    15.3480     2.8320 H     1 <1>   0.0800 
 52 H        9.8070    14.5670     1.3070 H     1 <1>   0.0800 
@<TRIPOS>BOND
  1   1   2  1   
  2   2   3  ar  
  3   2   4  ar  
  4   3   5  ar  
  5   3  27  1   
  6   4   6  ar  
  7   4  28  1   
  8   5   7  ar  
  9   5  29  1   
 10   6   7  ar  
 11   6  30  1   
 12   7   8  1   
 13   8   9  1   
 14   8  31  1   
 15   8  32  1   
 16   9  10  1   
 17   9  11  1   
 18   9  33  1   
 19  10  12  1   
 20  10  34  1   
 21  10  35  1   
 22  11  13  1   
 23  11  36  1   
 24  11  37  1   
 25  12  14  1   
 26  12  15  1   
 27  12  38  1   
 28  13  15  1   
 29  13  39  1   
 30  13  40  1   
 31  14  16  1   
 32  14  41  1   
 33  15  42  1   
 34  15  43  1   
 35  16  17  ar  
 36  16  18  ar  
 37  17  19  ar  
 38  18  20  ar  
 39  18  44  1   
 40  19  21  ar  
 41  19  45  1   
 42  20  21  ar  
 43  20  46  1   
 44  21  22  1   
 45  22  23  2   
 46  22  24  am  
 47  24  25  1   
 48  24  47  1   
 49  25  26  1   
 50  25  48  1   
 51  25  49  1   
 52  26  50  1   
 53  26  51  1   
 54  26  52  1   
@<TRIPOS>SUBSTRUCTURE
  1 ****  10 GROUP 4 **** **** 0

# MOE 2024.06 (io_trps.svl 2023.06)
