@<TRIPOS>MOLECULE
NONAME
48 49 1 0 0 
SMALL
USER_CHARGES


@<TRIPOS>ATOM
  1 S        0.0050     0.4310     1.2840 S.o2  1 <1>   1.3330 
  2 O        1.3420     0.9750     1.3080 O.2   1 <1>  -0.6500 
  3 O       -0.8630     0.5540     2.4330 O.2   1 <1>  -0.6500 
  4 N       -0.8070     1.0570    -0.0710 N.am  1 <1>  -0.8490 
  5 C        0.1000    -1.3210     0.8960 C.3   1 <1>  -0.0550 
  6 C        0.0990     1.4190    -1.1690 C.3   1 <1>   0.1160 
  7 C       -1.6380     2.2170     0.2740 C.3   1 <1>   0.1160 
  8 C       -1.2830    -1.9890     0.7550 C.3   1 <1>  -0.1600 
  9 C       -1.1600    -3.4840     0.4660 C.3   1 <1>   0.3430 
 10 N       -2.5060    -4.1120     0.4490 N.4   1 <1>  -0.9590 
 11 C       -3.4260    -3.6750    -0.6420 C.3   1 <1>   0.3430 
 12 C       -2.4720    -5.6050     0.3820 C.3   1 <1>   0.3430 
 13 C       -4.4870    -4.7740    -0.6880 C.3   1 <1>   0.2000 
 14 C       -3.6490    -6.0420    -0.5040 C.3   1 <1>  -0.0800 
 15 O       -5.3210    -4.6020     0.4130 O.3   1 <1>  -0.6800 
 16 C       -4.3960    -7.2780     0.0370 C.3   1 <1>   0.0200 
 17 C       -3.4690    -8.4770     0.1000 C.2   1 <1>  -0.0400 
 18 O       -2.4510    -8.4720     0.9190 O.3   1 <1>  -0.0190 
 19 C       -3.4580    -9.6450    -0.5600 C.2   1 <1>  -0.1500 
 20 N       -1.7500    -9.5600     0.8310 N.2   1 <1>  -0.4100 
 21 C       -2.3360   -10.2920    -0.0480 C.2   1 <1>   0.1080 
 22 C       -1.8630   -11.6680    -0.4620 C.3   1 <1>  -0.0590 
 23 H        0.6540    -1.4440    -0.0140 H     1 <1>   0.0800 
 24 H        0.6480    -1.8080     1.6800 H     1 <1>   0.0800 
 25 H       -0.4680     1.7290    -2.0310 H     1 <1>   0.0800 
 26 H        0.7060     0.5750    -1.4460 H     1 <1>   0.0800 
 27 H        0.7490     2.2270    -0.8710 H     1 <1>   0.0800 
 28 H       -2.1420     2.5910    -0.6010 H     1 <1>   0.0800 
 29 H       -1.0310     3.0020     0.6940 H     1 <1>   0.0800 
 30 H       -2.3850     1.9360     0.9970 H     1 <1>   0.0800 
 31 H       -1.8270    -1.8440     1.6740 H     1 <1>   0.0800 
 32 H       -1.8190    -1.5000    -0.0400 H     1 <1>   0.0800 
 33 H       -0.5620    -3.9430     1.2370 H     1 <1>   0.0800 
 34 H       -0.6680    -3.6380    -0.4800 H     1 <1>   0.0800 
 35 H       -3.0090    -3.8820     1.3220 H     1 <1>   0.4500 
 36 H       -3.8680    -2.7130    -0.4390 H     1 <1>   0.0800 
 37 H       -2.8970    -3.6420    -1.5800 H     1 <1>   0.0800 
 38 H       -1.5450    -5.9570    -0.0430 H     1 <1>   0.0800 
 39 H       -2.5750    -6.0170     1.3740 H     1 <1>   0.0800 
 40 H       -5.0750    -4.7550    -1.5900 H     1 <1>   0.0800 
 41 H       -3.2370    -6.3050    -1.4640 H     1 <1>   0.0800 
 42 H       -6.1660    -5.0900     0.3050 H     1 <1>   0.4000 
 43 H       -5.2240    -7.5120    -0.6070 H     1 <1>   0.0800 
 44 H       -4.7820    -7.0920     1.0250 H     1 <1>   0.0800 
 45 H       -4.1270   -10.0290    -1.3080 H     1 <1>   0.1500 
 46 H       -1.6240   -11.6740    -1.5100 H     1 <1>   0.0800 
 47 H       -2.6320   -12.3920    -0.2690 H     1 <1>   0.0800 
 48 H       -0.9840   -11.9390     0.0960 H     1 <1>   0.0800 
@<TRIPOS>BOND
  1   1   2  2   
  2   1   3  2   
  3   1   4  am  
  4   1   5  1   
  5   4   6  1   
  6   4   7  1   
  7   5   8  1   
  8   5  23  1   
  9   5  24  1   
 10   6  25  1   
 11   6  26  1   
 12   6  27  1   
 13   7  28  1   
 14   7  29  1   
 15   7  30  1   
 16   8   9  1   
 17   8  31  1   
 18   8  32  1   
 19   9  10  1   
 20   9  33  1   
 21   9  34  1   
 22  10  11  1   
 23  10  12  1   
 24  10  35  1   
 25  11  13  1   
 26  11  36  1   
 27  11  37  1   
 28  12  14  1   
 29  12  38  1   
 30  12  39  1   
 31  13  14  1   
 32  13  15  1   
 33  13  40  1   
 34  14  16  1   
 35  14  41  1   
 36  15  42  1   
 37  16  17  1   
 38  16  43  1   
 39  16  44  1   
 40  17  18  1   
 41  17  19  2   
 42  18  20  1   
 43  19  21  1   
 44  19  45  1   
 45  20  21  2   
 46  21  22  1   
 47  22  46  1   
 48  22  47  1   
 49  22  48  1   
@<TRIPOS>SUBSTRUCTURE
  1 ****  10 GROUP 4 **** **** 0

# MOE 2024.06 (io_trps.svl 2023.06)
