@<TRIPOS>MOLECULE
NONAME
51 53 1 0 0 
SMALL
USER_CHARGES


@<TRIPOS>ATOM
  1 O       -0.4660     0.9650    -0.5300 O.2   1 <1>  -0.5700 
  2 C       -0.6220     2.1630    -0.5610 C.2   1 <1>   0.5690 
  3 N       -1.4810     2.8440     0.2640 N.am  1 <1>  -0.6600 
  4 C        0.1840     2.9510    -1.5880 C.3   1 <1>   0.1810 
  5 C       -1.6280     4.3350     0.1510 C.3   1 <1>   0.3640 
  6 C       -2.2640     2.2250     1.3710 C.3   1 <1>   0.2200 
  7 O        0.5130     4.2320    -1.1170 O.3   1 <1>  -0.5600 
  8 C       -3.0550     4.6690    -0.2940 C.ar  1 <1>  -0.1440 
  9 C       -0.6140     5.0360    -0.7990 C.3   1 <1>   0.2610 
 10 C       -1.3190     1.6710     2.4360 C.3   1 <1>  -0.2400 
 11 C       -3.2250     1.1560     0.8470 C.3   1 <1>  -0.2400 
 12 C       -3.6540     4.0000    -1.3550 C.ar  1 <1>  -0.1500 
 13 C       -3.7690     5.6630     0.3600 C.ar  1 <1>  -0.1500 
 14 C       -0.1550     6.3610    -0.1750 C.2   1 <1>   0.5690 
 15 C       -4.9420     4.3170    -1.7500 C.ar  1 <1>  -0.1500 
 16 C       -5.0560     5.9810    -0.0340 C.ar  1 <1>  -0.1500 
 17 O       -0.9740     7.1590     0.2160 O.2   1 <1>  -0.5700 
 18 N        1.1760     6.6200    -0.0690 N.am  1 <1>  -0.7300 
 19 C       -5.6450     5.3080    -1.0890 C.ar  1 <1>  -0.1500 
 20 C        1.7720     7.8170     0.5730 C.3   1 <1>   0.1400 
 21 C        1.6240     9.0380    -0.3350 C.3   1 <1>   0.0960 
 22 N        2.2690    10.2030     0.2960 N.pl3 1 <1>   0.0480 
 23 C        3.5550    10.6090     0.1210 C.2   1 <1>  -0.3020 
 24 C        1.6980    11.0550     1.1870 C.2   1 <1>  -0.3020 
 25 C        3.7940    11.7040     0.8890 C.2   1 <1>  -0.1500 
 26 C        2.6070    11.9890     1.5710 C.2   1 <1>  -0.1500 
 27 H       -0.3760     3.0470    -2.5010 H     1 <1>   0.0800 
 28 H        1.1020     2.4310    -1.7940 H     1 <1>   0.0800 
 29 H       -1.4810     4.7400     1.1380 H     1 <1>   0.0800 
 30 H       -2.8650     2.9880     1.8370 H     1 <1>   0.0800 
 31 H       -1.1040     5.2710    -1.7260 H     1 <1>   0.0800 
 32 H       -0.7410     0.8520     2.0470 H     1 <1>   0.0800 
 33 H       -1.8870     1.3110     3.2750 H     1 <1>   0.0800 
 34 H       -0.6550     2.4420     2.7810 H     1 <1>   0.0800 
 35 H       -2.6920     0.3160     0.4430 H     1 <1>   0.0800 
 36 H       -3.8650     1.5700     0.0900 H     1 <1>   0.0800 
 37 H       -3.8430     0.8020     1.6510 H     1 <1>   0.0800 
 38 H       -3.1260     3.2220    -1.8760 H     1 <1>   0.1500 
 39 H       -3.3240     6.2050     1.1780 H     1 <1>   0.1500 
 40 H       -5.3980     3.7910    -2.5700 H     1 <1>   0.1500 
 41 H       -5.5990     6.7550     0.4800 H     1 <1>   0.1500 
 42 H        1.8170     5.8890    -0.4000 H     1 <1>   0.3700 
 43 H       -6.6460     5.5560    -1.3950 H     1 <1>   0.1500 
 44 H        1.2670     8.0040     1.5070 H     1 <1>   0.0800 
 45 H        2.8140     7.6320     0.7730 H     1 <1>   0.0800 
 46 H        0.5830     9.2610    -0.4860 H     1 <1>   0.0800 
 47 H        2.0910     8.8560    -1.2840 H     1 <1>   0.0800 
 48 H        4.2360    10.1030    -0.5400 H     1 <1>   0.1500 
 49 H        0.6740    10.9540     1.5030 H     1 <1>   0.1500 
 50 H        4.7080    12.2650     0.9770 H     1 <1>   0.1500 
 51 H        2.4690    12.8020     2.2630 H     1 <1>   0.1500 
@<TRIPOS>BOND
  1   1   2  2   
  2   2   3  am  
  3   2   4  1   
  4   3   5  1   
  5   3   6  1   
  6   4   7  1   
  7   4  27  1   
  8   4  28  1   
  9   5   8  1   
 10   5   9  1   
 11   5  29  1   
 12   6  10  1   
 13   6  11  1   
 14   6  30  1   
 15   7   9  1   
 16   8  12  ar  
 17   8  13  ar  
 18   9  14  1   
 19   9  31  1   
 20  10  32  1   
 21  10  33  1   
 22  10  34  1   
 23  11  35  1   
 24  11  36  1   
 25  11  37  1   
 26  12  15  ar  
 27  12  38  1   
 28  13  16  ar  
 29  13  39  1   
 30  14  17  2   
 31  14  18  am  
 32  15  19  ar  
 33  15  40  1   
 34  16  19  ar  
 35  16  41  1   
 36  18  20  1   
 37  18  42  1   
 38  19  43  1   
 39  20  21  1   
 40  20  44  1   
 41  20  45  1   
 42  21  22  1   
 43  21  46  1   
 44  21  47  1   
 45  22  23  1   
 46  22  24  1   
 47  23  25  2   
 48  23  48  1   
 49  24  26  2   
 50  24  49  1   
 51  25  26  1   
 52  25  50  1   
 53  26  51  1   
@<TRIPOS>SUBSTRUCTURE
  1 ****  14 GROUP 4 **** **** 0

# MOE 2024.06 (io_trps.svl 2023.06)
