@<TRIPOS>MOLECULE
Untitled Document
60 62 1 0 0 
SMALL
USER_CHARGES


@<TRIPOS>ATOM
  1 O        0.7120    -1.4340     1.1070 O.2   1 <1>  -0.5700 
  2 C        0.4330    -2.1380     0.1590 C.2   1 <1>   0.5690 
  3 N       -0.8690    -2.1910    -0.2950 N.am  1 <1>  -0.6600 
  4 C        1.6050    -2.8960    -0.5350 C.3   1 <1>   0.2510 
  5 C       -1.9150    -1.4080     0.4350 C.3   1 <1>   0.2840 
  6 C       -1.3540    -2.8700    -1.5320 C.3   1 <1>   0.1400 
  7 N        2.8330    -2.0640    -0.6340 N.3   1 <1>  -0.9000 
  8 C        1.9460    -4.2580     0.1580 C.3   1 <1>   0.0000 
  9 C       -3.3270    -1.9790     0.3030 C.ar  1 <1>  -0.1430 
 10 C       -2.4940    -3.8300    -1.1920 C.3   1 <1>  -0.0170 
 11 C        2.6700    -0.8760    -1.4610 C.3   1 <1>   0.2530 
 12 C        2.4840    -4.0670     1.5900 C.3   1 <1>  -0.2400 
 13 C        0.7060    -5.1680     0.2380 C.3   1 <1>  -0.2400 
 14 C        3.0130    -5.0160    -0.6570 C.3   1 <1>  -0.2400 
 15 C       -3.6070    -3.1110    -0.4540 C.ar  1 <1>  -0.1430 
 16 C       -4.3620    -1.3330     0.9640 C.ar  1 <1>  -0.1500 
 17 C        3.6170     0.1830    -0.9350 C.ar  1 <1>  -0.1430 
 18 C       -4.9040    -3.5930    -0.5290 C.ar  1 <1>  -0.1500 
 19 C       -5.6620    -1.7980     0.8780 C.ar  1 <1>   0.0820 
 20 C        4.8380     0.4410    -1.5220 C.ar  1 <1>  -0.1500 
 21 C        3.2980     0.9400     0.1740 C.ar  1 <1>  -0.1500 
 22 C       -5.9330    -2.9570     0.1430 C.ar  1 <1>   0.0820 
 23 O       -6.6220    -1.0880     1.5200 O.3   1 <1>  -0.3630 
 24 C        5.6550     1.4270    -0.9930 C.ar  1 <1>   0.1600 
 25 C        4.1880     1.9010     0.6240 C.ar  1 <1>   0.1600 
 26 O       -7.1690    -3.5060     0.0570 O.3   1 <1>  -0.3620 
 27 C       -7.5990    -0.4760     0.7060 C.3   1 <1>   0.0400 
 28 N        5.3580     2.1670     0.0640 N.ar  1 <1>  -0.6200 
 29 C       -7.7050    -4.0250     1.2540 C.3   1 <1>   0.0400 
 30 H        1.3200    -3.1220    -1.5420 H     1 <1>   0.0800 
 31 H       -1.6690    -1.3690     1.4830 H     1 <1>   0.0800 
 32 H       -1.9100    -0.4000     0.0590 H     1 <1>   0.0800 
 33 H       -1.7150    -2.1220    -2.2170 H     1 <1>   0.0800 
 34 H       -0.5760    -3.4210    -2.0220 H     1 <1>   0.0800 
 35 H        3.0040    -1.7230     0.3220 H     1 <1>   0.3600 
 36 H       -2.8760    -4.2540    -2.1030 H     1 <1>   0.0800 
 37 H       -2.1250    -4.6320    -0.5800 H     1 <1>   0.0800 
 38 H        2.8920    -1.1150    -2.4860 H     1 <1>   0.0800 
 39 H        1.6640    -0.4950    -1.4070 H     1 <1>   0.0800 
 40 H        2.7240    -5.0160     2.0340 H     1 <1>   0.0800 
 41 H        1.7560    -3.5810     2.2150 H     1 <1>   0.0800 
 42 H        3.3780    -3.4690     1.5850 H     1 <1>   0.0800 
 43 H        0.9630    -6.1170     0.6750 H     1 <1>   0.0800 
 44 H        0.3050    -5.3510    -0.7420 H     1 <1>   0.0800 
 45 H       -0.0590    -4.7240     0.8510 H     1 <1>   0.0800 
 46 H        3.2250    -5.9730    -0.2150 H     1 <1>   0.0800 
 47 H        3.9320    -4.4570    -0.6910 H     1 <1>   0.0800 
 48 H        2.6790    -5.1730    -1.6670 H     1 <1>   0.0800 
 49 H       -4.1710    -0.4540     1.5520 H     1 <1>   0.1500 
 50 H       -5.1310    -4.4720    -1.1030 H     1 <1>   0.1500 
 51 H        5.1610    -0.1180    -2.3810 H     1 <1>   0.1500 
 52 H        2.3680     0.7850     0.6930 H     1 <1>   0.1500 
 53 H        6.6040     1.6150    -1.4630 H     1 <1>   0.1500 
 54 H        3.9230     2.4820     1.4900 H     1 <1>   0.1500 
 55 H       -8.2150     0.1460     1.3300 H     1 <1>   0.0800 
 56 H       -8.2010    -1.2350     0.2390 H     1 <1>   0.0800 
 57 H       -7.1060     0.1210    -0.0400 H     1 <1>   0.0800 
 58 H       -8.6310    -4.5200     1.0220 H     1 <1>   0.0800 
 59 H       -7.8820    -3.2210     1.9450 H     1 <1>   0.0800 
 60 H       -7.0050    -4.7280     1.6710 H     1 <1>   0.0800 
@<TRIPOS>BOND
  1   1   2  2   
  2   2   3  am  
  3   2   4  1   
  4   3   5  1   
  5   3   6  1   
  6   4   7  1   
  7   4   8  1   
  8   4  30  1   
  9   5   9  1   
 10   5  31  1   
 11   5  32  1   
 12   6  10  1   
 13   6  33  1   
 14   6  34  1   
 15   7  11  1   
 16   7  35  1   
 17   8  12  1   
 18   8  13  1   
 19   8  14  1   
 20   9  15  ar  
 21   9  16  ar  
 22  10  15  1   
 23  10  36  1   
 24  10  37  1   
 25  11  17  1   
 26  11  38  1   
 27  11  39  1   
 28  12  40  1   
 29  12  41  1   
 30  12  42  1   
 31  13  43  1   
 32  13  44  1   
 33  13  45  1   
 34  14  46  1   
 35  14  47  1   
 36  14  48  1   
 37  15  18  ar  
 38  16  19  ar  
 39  16  49  1   
 40  17  20  ar  
 41  17  21  ar  
 42  18  22  ar  
 43  18  50  1   
 44  19  22  ar  
 45  19  23  1   
 46  20  24  ar  
 47  20  51  1   
 48  21  25  ar  
 49  21  52  1   
 50  22  26  1   
 51  23  27  1   
 52  24  28  ar  
 53  24  53  1   
 54  25  28  ar  
 55  25  54  1   
 56  26  29  1   
 57  27  55  1   
 58  27  56  1   
 59  27  57  1   
 60  29  58  1   
 61  29  59  1   
 62  29  60  1   
@<TRIPOS>SUBSTRUCTURE
  1 ****   3 GROUP 4 **** **** 0

# MOE 2024.06 (io_trps.svl 2023.06)
