@<TRIPOS>MOLECULE
NONAME
51 54 1 0 0 
SMALL
USER_CHARGES


@<TRIPOS>ATOM
  1 S        2.0250     3.7540     3.1170 S.3   1 <1>  -0.0800 
  2 C        0.9530     3.0700     1.9150 C.2   1 <1>  -0.0450 
  3 C        0.7080     3.8020     4.2560 C.2   1 <1>   0.2280 
  4 C       -0.2640     2.9370     2.4950 C.2   1 <1>   0.0460 
  5 C        1.4880     2.7990     0.6080 C.2   1 <1>   0.7150 
  6 N       -0.3940     3.3590     3.7990 N.2   1 <1>  -0.5650 
  7 C       -1.5180     2.3570     1.8720 C.3   1 <1>  -0.0590 
  8 O        2.6460     2.4530     0.4530 O.2   1 <1>  -0.5700 
  9 N        0.7710     3.0480    -0.5410 N.am  1 <1>  -0.6600 
 10 C        1.0560     2.2970    -1.8130 C.3   1 <1>   0.1400 
 11 C        0.0780     4.3510    -0.7160 C.3   1 <1>   0.1400 
 12 C        2.3490     2.7630    -2.5270 C.3   1 <1>   0.3430 
 13 C        1.1020     5.4640    -0.9860 C.3   1 <1>  -0.1600 
 14 N        2.8940     4.0170    -1.9190 N.4   1 <1>  -0.9590 
 15 C        2.0440     5.2190    -2.1720 C.3   1 <1>   0.3430 
 16 C        4.3480     4.2140    -2.1600 C.3   1 <1>   0.4860 
 17 C        4.8390     5.2920    -1.2230 C.ar  1 <1>  -0.1440 
 18 C        5.2100     6.5290    -1.6890 C.ar  1 <1>   0.1600 
 19 C        4.9120     5.0910     0.1360 C.ar  1 <1>   0.1600 
 20 N        5.5730     7.4920    -0.8850 N.ar  1 <1>  -0.6200 
 21 N        5.2730     6.0420     0.9600 N.ar  1 <1>  -0.6200 
 22 C        5.5770     7.2370     0.4320 C.ar  1 <1>   0.6200 
 23 C        5.9400     8.3130     1.3540 C.ar  1 <1>   0.3100 
 24 N        5.3630     9.5220     1.2320 N.ar  1 <1>  -0.6200 
 25 C        6.8800     8.0600     2.3580 C.ar  1 <1>  -0.1500 
 26 C        5.7300    10.4550     2.0900 C.ar  1 <1>   0.1600 
 27 C        7.2520     9.0410     3.2490 C.ar  1 <1>  -0.1500 
 28 C        6.6540    10.2720     3.1020 C.ar  1 <1>  -0.1500 
 29 H        0.9160     4.1930     5.2370 H     1 <1>   0.1500 
 30 H       -1.3320     1.9890     0.8810 H     1 <1>   0.0800 
 31 H       -2.2840     3.1100     1.8310 H     1 <1>   0.0800 
 32 H       -1.8730     1.5430     2.4780 H     1 <1>   0.0800 
 33 H        0.2210     2.3960    -2.4850 H     1 <1>   0.0800 
 34 H        1.1490     1.2480    -1.5870 H     1 <1>   0.0800 
 35 H       -0.4820     4.5900     0.1740 H     1 <1>   0.0800 
 36 H       -0.6250     4.2850    -1.5290 H     1 <1>   0.0800 
 37 H        2.1610     2.8990    -3.5790 H     1 <1>   0.0800 
 38 H        3.0770     1.9750    -2.4250 H     1 <1>   0.0800 
 39 H        1.6830     5.6490    -0.0990 H     1 <1>   0.0800 
 40 H        0.5560     6.3710    -1.1810 H     1 <1>   0.0800 
 41 H        2.8130     3.8190    -0.9030 H     1 <1>   0.4500 
 42 H        2.6660     6.0910    -2.2950 H     1 <1>   0.0800 
 43 H        1.4730     5.0890    -3.0770 H     1 <1>   0.0800 
 44 H        4.5230     4.4980    -3.1850 H     1 <1>   0.0800 
 45 H        4.8820     3.2990    -1.9590 H     1 <1>   0.0800 
 46 H        5.2040     6.7510    -2.7440 H     1 <1>   0.1500 
 47 H        4.6620     4.1340     0.5690 H     1 <1>   0.1500 
 48 H        7.3160     7.0800     2.4320 H     1 <1>   0.1500 
 49 H        5.2680    11.4220     1.9830 H     1 <1>   0.1500 
 50 H        7.9760     8.8560     4.0250 H     1 <1>   0.1500 
 51 H        6.9000    11.0840     3.7630 H     1 <1>   0.1500 
@<TRIPOS>BOND
  1   1   2  1   
  2   1   3  1   
  3   2   4  2   
  4   2   5  1   
  5   3   6  2   
  6   3  29  1   
  7   4   6  1   
  8   4   7  1   
  9   5   8  2   
 10   5   9  am  
 11   7  30  1   
 12   7  31  1   
 13   7  32  1   
 14   9  10  1   
 15   9  11  1   
 16  10  12  1   
 17  10  33  1   
 18  10  34  1   
 19  11  13  1   
 20  11  35  1   
 21  11  36  1   
 22  12  14  1   
 23  12  37  1   
 24  12  38  1   
 25  13  15  1   
 26  13  39  1   
 27  13  40  1   
 28  14  15  1   
 29  14  16  1   
 30  14  41  1   
 31  15  42  1   
 32  15  43  1   
 33  16  17  1   
 34  16  44  1   
 35  16  45  1   
 36  17  18  ar  
 37  17  19  ar  
 38  18  20  ar  
 39  18  46  1   
 40  19  21  ar  
 41  19  47  1   
 42  20  22  ar  
 43  21  22  ar  
 44  22  23  1   
 45  23  24  ar  
 46  23  25  ar  
 47  24  26  ar  
 48  25  27  ar  
 49  25  48  1   
 50  26  28  ar  
 51  26  49  1   
 52  27  28  ar  
 53  27  50  1   
 54  28  51  1   
@<TRIPOS>SUBSTRUCTURE
  1 ****  19 GROUP 4 **** **** 0

# MOE 2024.06 (io_trps.svl 2023.06)
