@<TRIPOS>MOLECULE
NONAME
46 47 1 0 0 
SMALL
USER_CHARGES


@<TRIPOS>ATOM
  1 O        0.2030     1.3590     1.4000 O.2   1 <1>  -0.5700 
  2 C        0.1580     2.4300     0.8410 C.2   1 <1>   0.5690 
  3 N       -0.9680     3.2150     0.8800 N.am  1 <1>  -0.6600 
  4 C        1.3910     2.8960     0.0720 C.3   1 <1>  -0.0990 
  5 C       -2.1910     2.7720     1.6160 C.3   1 <1>   0.1400 
  6 C       -1.1610     4.5010     0.1570 C.3   1 <1>   0.1400 
  7 C        2.6010     1.9450     0.1650 C.3   1 <1>  -0.1600 
  8 C       -3.3540     2.5370     0.6330 C.3   1 <1>   0.0000 
  9 C       -2.2950     4.3490    -0.8630 C.3   1 <1>  -0.1600 
 10 C        3.7930     2.4720    -0.6350 C.3   1 <1>   0.1400 
 11 C       -4.6100     2.0650     1.3920 C.3   1 <1>   0.2000 
 12 C       -3.5880     3.8250    -0.2090 C.3   1 <1>  -0.1600 
 13 C       -3.0930     1.3250    -0.2810 C.3   1 <1>  -0.1600 
 14 N        4.9190     1.5250    -0.5030 N.am  1 <1>  -0.7300 
 15 O       -5.3480     3.1080     1.9210 O.3   1 <1>  -0.6800 
 16 C       -5.4510     1.2770     0.3880 C.3   1 <1>  -0.1600 
 17 C       -4.4740     0.8110    -0.7000 C.3   1 <1>  -0.1600 
 18 C        6.2100     1.7660    -0.1830 C.2   1 <1>   0.5690 
 19 O        6.9980     0.8580    -0.1340 O.2   1 <1>  -0.5700 
 20 C        6.6870     3.1660     0.1130 C.3   1 <1>  -0.1790 
 21 H        1.1140     3.0070    -0.9600 H     1 <1>   0.0800 
 22 H        1.6770     3.8580     0.4560 H     1 <1>   0.0800 
 23 H       -1.9950     1.8730     2.1740 H     1 <1>   0.0800 
 24 H       -2.4680     3.5350     2.3230 H     1 <1>   0.0800 
 25 H       -1.4180     5.2640     0.8730 H     1 <1>   0.0800 
 26 H       -0.2630     4.8120    -0.3460 H     1 <1>   0.0800 
 27 H        2.3170     0.9770    -0.2110 H     1 <1>   0.0800 
 28 H        2.8840     1.8370     1.1980 H     1 <1>   0.0800 
 29 H       -2.4880     5.3040    -1.3170 H     1 <1>   0.0800 
 30 H       -1.9750     3.6850    -1.6450 H     1 <1>   0.0800 
 31 H        4.0760     3.4440    -0.2710 H     1 <1>   0.0800 
 32 H        3.5290     2.5580    -1.6750 H     1 <1>   0.0800 
 33 H       -4.3260     1.4160     2.2040 H     1 <1>   0.0800 
 34 H       -4.3300     3.6530    -0.9680 H     1 <1>   0.0800 
 35 H       -3.9540     4.6070     0.4340 H     1 <1>   0.0800 
 36 H       -2.4750     1.5530    -1.1300 H     1 <1>   0.0800 
 37 H       -2.5970     0.5550     0.2870 H     1 <1>   0.0800 
 38 H        4.6950     0.5420    -0.6720 H     1 <1>   0.3700 
 39 H       -5.6720     3.6750     1.1970 H     1 <1>   0.4000 
 40 H       -5.9110     0.4350     0.8740 H     1 <1>   0.0800 
 41 H       -6.2130     1.8960    -0.0530 H     1 <1>   0.0800 
 42 H       -4.4710    -0.2610    -0.7970 H     1 <1>   0.0800 
 43 H       -4.7530     1.2430    -1.6460 H     1 <1>   0.0800 
 44 H        6.4980     3.8010    -0.7310 H     1 <1>   0.0800 
 45 H        7.7430     3.1530     0.3090 H     1 <1>   0.0800 
 46 H        6.1780     3.5460     0.9780 H     1 <1>   0.0800 
@<TRIPOS>BOND
  1   1   2  2   
  2   2   3  am  
  3   2   4  1   
  4   3   5  1   
  5   3   6  1   
  6   4   7  1   
  7   4  21  1   
  8   4  22  1   
  9   5   8  1   
 10   5  23  1   
 11   5  24  1   
 12   6   9  1   
 13   6  25  1   
 14   6  26  1   
 15   7  10  1   
 16   7  27  1   
 17   7  28  1   
 18   8  11  1   
 19   8  12  1   
 20   8  13  1   
 21   9  12  1   
 22   9  29  1   
 23   9  30  1   
 24  10  14  1   
 25  10  31  1   
 26  10  32  1   
 27  11  15  1   
 28  11  16  1   
 29  11  33  1   
 30  12  34  1   
 31  12  35  1   
 32  13  17  1   
 33  13  36  1   
 34  13  37  1   
 35  14  18  am  
 36  14  38  1   
 37  15  39  1   
 38  16  17  1   
 39  16  40  1   
 40  16  41  1   
 41  17  42  1   
 42  17  43  1   
 43  18  19  2   
 44  18  20  1   
 45  20  44  1   
 46  20  45  1   
 47  20  46  1   
@<TRIPOS>SUBSTRUCTURE
  1 ****   2 GROUP 4 **** **** 0

# MOE 2024.06 (io_trps.svl 2023.06)
