@<TRIPOS>MOLECULE
NONAME
57 59 1 0 0 
SMALL
USER_CHARGES


@<TRIPOS>ATOM
  1 O       -0.2210     0.9030    -1.4990 O.2   1 <1>  -0.5700 
  2 C       -0.2810     2.0670    -1.1800 C.2   1 <1>   0.5690 
  3 N       -1.2190     2.5470    -0.3030 N.am  1 <1>  -0.6600 
  4 C        0.7360     3.0200    -1.8060 C.3   1 <1>   0.1810 
  5 C       -1.3130     4.0310    -0.0280 C.3   1 <1>   0.3640 
  6 C       -2.0140     1.5810     0.5210 C.3   1 <1>   0.2200 
  7 O        0.9240     4.1860    -1.0460 O.3   1 <1>  -0.5600 
  8 C       -2.7080     4.5570    -0.3760 C.ar  1 <1>  -0.1440 
  9 C       -0.2750     4.8950    -0.8000 C.3   1 <1>   0.2610 
 10 C       -3.4100     1.3780    -0.0640 C.3   1 <1>  -0.2400 
 11 C       -2.0840     1.9890     1.9950 C.3   1 <1>  -0.2400 
 12 C       -3.2930     4.2800    -1.6050 C.ar  1 <1>  -0.1500 
 13 C       -3.3990     5.3420     0.5360 C.ar  1 <1>  -0.1500 
 14 C        0.0210     6.2330    -0.0910 C.2   1 <1>   0.5690 
 15 C       -4.5480     4.7750    -1.9140 C.ar  1 <1>  -0.1500 
 16 C       -4.6540     5.8380     0.2280 C.ar  1 <1>  -0.1500 
 17 O       -0.4080     6.4140     1.0290 O.2   1 <1>  -0.5700 
 18 N        0.7760     7.2100    -0.7100 N.am  1 <1>  -0.6600 
 19 C       -5.2290     5.5550    -0.9970 C.ar  1 <1>  -0.1500 
 20 C        1.0770     8.5030    -0.0140 C.3   1 <1>   0.1400 
 21 C        1.3620     7.0550    -2.0720 C.3   1 <1>   0.0600 
 22 C        2.4370     8.4930     0.7280 C.3   1 <1>   0.0000 
 23 C        2.7380     9.8930     1.3490 C.3   1 <1>   0.0000 
 24 C        3.6780     8.7180    -0.1930 C.3   1 <1>   0.0000 
 25 C        2.5460     7.3170     1.7260 C.3   1 <1>   0.1200 
 26 C        3.5190    10.2410     0.0540 C.3   1 <1>   0.0000 
 27 O        3.7400     7.3410     2.4380 O.3   1 <1>  -0.6800 
 28 H        0.4140     3.2970    -2.7930 H     1 <1>   0.0800 
 29 H        1.6860     2.5230    -1.8780 H     1 <1>   0.0800 
 30 H       -1.1350     4.1720     1.0220 H     1 <1>   0.0800 
 31 H       -1.5160     0.6260     0.4900 H     1 <1>   0.0800 
 32 H       -0.6960     5.1370    -1.7570 H     1 <1>   0.0800 
 33 H       -4.0250     2.2470     0.0790 H     1 <1>   0.0800 
 34 H       -3.8880     0.5500     0.4260 H     1 <1>   0.0800 
 35 H       -3.3390     1.1530    -1.1130 H     1 <1>   0.0800 
 36 H       -2.6830     2.8710     2.1270 H     1 <1>   0.0800 
 37 H       -1.0950     2.1550     2.3820 H     1 <1>   0.0800 
 38 H       -2.5360     1.1960     2.5620 H     1 <1>   0.0800 
 39 H       -2.7790     3.6660    -2.3240 H     1 <1>   0.1500 
 40 H       -2.9600     5.5790     1.4910 H     1 <1>   0.1500 
 41 H       -4.9950     4.5520    -2.8670 H     1 <1>   0.1500 
 42 H       -5.1800     6.4460     0.9430 H     1 <1>   0.1500 
 43 H       -6.2050     5.9400    -1.2360 H     1 <1>   0.1500 
 44 H        1.0440     9.3040    -0.7310 H     1 <1>   0.0800 
 45 H        0.3010     8.7030     0.7050 H     1 <1>   0.0800 
 46 H        1.5630     8.0190    -2.5060 H     1 <1>   0.0800 
 47 H        0.6850     6.5320    -2.7220 H     1 <1>   0.0800 
 48 H        2.2820     6.5000    -2.0050 H     1 <1>   0.0800 
 49 H        1.8690    10.5090     1.5020 H     1 <1>   0.0000 
 50 H        3.3870     9.8700     2.2070 H     1 <1>   0.0000 
 51 H        4.6010     8.3460     0.2160 H     1 <1>   0.0000 
 52 H        3.5440     8.4460    -1.2220 H     1 <1>   0.0000 
 53 H        2.4950     6.3750     1.2070 H     1 <1>   0.0800 
 54 H        1.7400     7.3600     2.4380 H     1 <1>   0.0800 
 55 H        4.4500    10.7490     0.2340 H     1 <1>   0.0000 
 56 H        2.9050    10.7230    -0.6880 H     1 <1>   0.0000 
 57 H        4.4990     7.2660     1.8290 H     1 <1>   0.4000 
@<TRIPOS>BOND
  1   1   2  2   
  2   2   3  am  
  3   2   4  1   
  4   3   5  1   
  5   3   6  1   
  6   4   7  1   
  7   4  28  1   
  8   4  29  1   
  9   5   8  1   
 10   5   9  1   
 11   5  30  1   
 12   6  10  1   
 13   6  11  1   
 14   6  31  1   
 15   7   9  1   
 16   8  12  ar  
 17   8  13  ar  
 18   9  14  1   
 19   9  32  1   
 20  10  33  1   
 21  10  34  1   
 22  10  35  1   
 23  11  36  1   
 24  11  37  1   
 25  11  38  1   
 26  12  15  ar  
 27  12  39  1   
 28  13  16  ar  
 29  13  40  1   
 30  14  17  2   
 31  14  18  am  
 32  15  19  ar  
 33  15  41  1   
 34  16  19  ar  
 35  16  42  1   
 36  18  20  1   
 37  18  21  1   
 38  19  43  1   
 39  20  22  1   
 40  20  44  1   
 41  20  45  1   
 42  21  46  1   
 43  21  47  1   
 44  21  48  1   
 45  22  23  1   
 46  22  24  1   
 47  22  25  1   
 48  23  26  1   
 49  23  49  1   
 50  23  50  1   
 51  24  26  1   
 52  24  51  1   
 53  24  52  1   
 54  25  27  1   
 55  25  53  1   
 56  25  54  1   
 57  26  55  1   
 58  26  56  1   
 59  27  57  1   
@<TRIPOS>SUBSTRUCTURE
  1 ****   9 GROUP 4 **** **** 0

# MOE 2024.06 (io_trps.svl 2023.06)
