@<TRIPOS>MOLECULE
NONAME
53 55 1 0 0 
SMALL
USER_CHARGES


@<TRIPOS>ATOM
  1 O        0.6790    -0.0170     0.1220 O.3   1 <1>  -0.5600 
  2 C        0.3560    -1.2260     0.7410 C.3   1 <1>   0.2640 
  3 C        1.9780     0.4230     0.3160 C.3   1 <1>   0.1200 
  4 C       -1.1020    -1.5320     0.4470 C.ar  1 <1>  -0.1440 
  5 C        2.1010     1.7600    -0.4270 C.3   1 <1>   0.3430 
  6 C       -2.0810    -1.2680     1.3940 C.ar  1 <1>  -0.1500 
  7 C       -1.4680    -2.0790    -0.7730 C.ar  1 <1>  -0.1500 
  8 N        3.4440     2.4160    -0.2570 N.4   1 <1>  -0.9590 
  9 C       -3.4080    -1.5530     1.1250 C.ar  1 <1>  -0.1500 
 10 C       -2.7950    -2.3640    -1.0430 C.ar  1 <1>  -0.1500 
 11 C        3.3870     3.8140    -0.7910 C.3   1 <1>   0.3430 
 12 C        4.5270     1.6210    -0.9240 C.3   1 <1>   0.2630 
 13 C       -3.7660    -2.1020    -0.0940 C.ar  1 <1>  -0.1500 
 14 C        4.2520     4.7750     0.0360 C.3   1 <1>  -0.0800 
 15 C        4.1170     6.2100    -0.4790 C.3   1 <1>   0.2090 
 16 C        5.7600     4.5020     0.0030 C.3   1 <1>  -0.1600 
 17 N        5.4520     6.8210    -0.3130 N.pl3 1 <1>  -0.8380 
 18 C        6.3890     5.8550     0.2970 C.3   1 <1>   0.2090 
 19 C        5.5490     8.2020    -0.0840 C.ar  1 <1>   0.1000 
 20 C        6.4030     8.7520     0.8720 C.ar  1 <1>  -0.1500 
 21 C        4.7760     9.0820    -0.8390 C.ar  1 <1>  -0.1500 
 22 C        6.4670    10.1180     1.0760 C.ar  1 <1>  -0.1500 
 23 C        4.8340    10.4490    -0.6380 C.ar  1 <1>  -0.1500 
 24 C        5.6790    10.9710     0.3240 C.ar  1 <1>  -0.1500 
 25 H        0.5160    -1.1330     1.8010 H     1 <1>   0.0800 
 26 H        0.9870    -2.0030     0.3440 H     1 <1>   0.0800 
 27 H        2.6480    -0.3160    -0.0890 H     1 <1>   0.0800 
 28 H        2.1380     0.5530     1.3720 H     1 <1>   0.0800 
 29 H        1.3340     2.4150    -0.0480 H     1 <1>   0.0800 
 30 H        1.9090     1.5920    -1.4740 H     1 <1>   0.0800 
 31 H       -1.8170    -0.8390     2.3440 H     1 <1>   0.1500 
 32 H       -0.7210    -2.2820    -1.5200 H     1 <1>   0.1500 
 33 H        3.6410     2.4820     0.7520 H     1 <1>   0.4500 
 34 H       -4.1630    -1.3460     1.8630 H     1 <1>   0.1500 
 35 H       -3.0720    -2.7880    -1.9930 H     1 <1>   0.1500 
 36 H        2.3700     4.1700    -0.7550 H     1 <1>   0.0800 
 37 H        3.7050     3.8320    -1.8220 H     1 <1>   0.0800 
 38 H        4.3340     1.5410    -1.9820 H     1 <1>   0.0800 
 39 H        4.5770     0.6280    -0.5090 H     1 <1>   0.0800 
 40 H        5.4850     2.0930    -0.7850 H     1 <1>   0.0800 
 41 H       -4.7980    -2.3240    -0.3030 H     1 <1>   0.1500 
 42 H        3.9110     4.7770     1.0570 H     1 <1>   0.0800 
 43 H        3.3770     6.7620     0.0780 H     1 <1>   0.0800 
 44 H        3.8660     6.2310    -1.5260 H     1 <1>   0.0800 
 45 H        6.0730     4.2040    -0.9820 H     1 <1>   0.0800 
 46 H        6.0720     3.7670     0.7220 H     1 <1>   0.0800 
 47 H        7.3710     5.9480    -0.1360 H     1 <1>   0.0800 
 48 H        6.4370     6.0150     1.3610 H     1 <1>   0.0800 
 49 H        7.0290     8.1200     1.4680 H     1 <1>   0.1500 
 50 H        4.1290     8.6940    -1.6010 H     1 <1>   0.1500 
 51 H        7.1300    10.5210     1.8220 H     1 <1>   0.1500 
 52 H        4.2250    11.1070    -1.2320 H     1 <1>   0.1500 
 53 H        5.7270    12.0340     0.4830 H     1 <1>   0.1500 
@<TRIPOS>BOND
  1   1   2  1   
  2   1   3  1   
  3   2   4  1   
  4   2  25  1   
  5   2  26  1   
  6   3   5  1   
  7   3  27  1   
  8   3  28  1   
  9   4   6  ar  
 10   4   7  ar  
 11   5   8  1   
 12   5  29  1   
 13   5  30  1   
 14   6   9  ar  
 15   6  31  1   
 16   7  10  ar  
 17   7  32  1   
 18   8  11  1   
 19   8  12  1   
 20   8  33  1   
 21   9  13  ar  
 22   9  34  1   
 23  10  13  ar  
 24  10  35  1   
 25  11  14  1   
 26  11  36  1   
 27  11  37  1   
 28  12  38  1   
 29  12  39  1   
 30  12  40  1   
 31  13  41  1   
 32  14  15  1   
 33  14  16  1   
 34  14  42  1   
 35  15  17  1   
 36  15  43  1   
 37  15  44  1   
 38  16  18  1   
 39  16  45  1   
 40  16  46  1   
 41  17  18  1   
 42  17  19  1   
 43  18  47  1   
 44  18  48  1   
 45  19  20  ar  
 46  19  21  ar  
 47  20  22  ar  
 48  20  49  1   
 49  21  23  ar  
 50  21  50  1   
 51  22  24  ar  
 52  22  51  1   
 53  23  24  ar  
 54  23  52  1   
 55  24  53  1   
@<TRIPOS>SUBSTRUCTURE
  1 ****  11 GROUP 4 **** **** 0

# MOE 2024.06 (io_trps.svl 2023.06)
