@<TRIPOS>MOLECULE
NONAME
56 58 1 0 0 
SMALL
USER_CHARGES


@<TRIPOS>ATOM
  1 O        0.0290    -0.1790    -0.0480 O.2   1 <1>  -0.5700 
  2 C        0.2150    -1.2690     0.4540 C.2   1 <1>   0.5440 
  3 N       -0.1320    -1.3840     1.7540 N.am  1 <1>  -0.8000 
  4 C        0.7980    -2.3630    -0.2910 C.ar  1 <1>   0.0860 
  5 C        0.5070    -3.7200    -0.0330 C.ar  1 <1>   0.4100 
  6 C        1.7070    -2.0860    -1.3030 C.ar  1 <1>  -0.1500 
  7 N        1.1090    -4.7240    -0.6680 N.ar  1 <1>  -0.6200 
  8 N       -0.4590    -4.1170     0.8850 N.pl3 1 <1>  -0.8380 
  9 C        2.3080    -3.1270    -1.9770 C.ar  1 <1>  -0.1430 
 10 C        1.9780    -4.4260    -1.6090 C.ar  1 <1>   0.1670 
 11 C       -1.8850    -3.8410     0.5620 C.3   1 <1>   0.2090 
 12 C       -0.2330    -5.3140     1.7440 C.3   1 <1>   0.2090 
 13 C        3.3040    -2.8180    -3.0860 C.3   1 <1>  -0.0970 
 14 C        2.6140    -5.6190    -2.2990 C.3   1 <1>  -0.0970 
 15 C       -2.5300    -5.0780    -0.0670 C.3   1 <1>  -0.1600 
 16 C       -0.9130    -6.5560     1.1540 C.3   1 <1>  -0.1600 
 17 C       -2.4000    -6.3190     0.8310 C.3   1 <1>  -0.0800 
 18 C       -3.0450    -7.5330     0.1320 C.3   1 <1>  -0.1600 
 19 C       -3.0990    -8.7980     1.0100 C.3   1 <1>  -0.0990 
 20 C       -3.8180    -9.9400     0.3170 C.2   1 <1>   0.5690 
 21 O       -3.1560   -10.8320    -0.1510 O.2   1 <1>  -0.5700 
 22 N       -5.1840    -9.8910     0.2740 N.am  1 <1>  -0.5470 
 23 C       -6.1270   -10.7570    -0.3030 C.ar  1 <1>   0.1170 
 24 C       -5.8080   -11.6780    -1.2960 C.ar  1 <1>  -0.1500 
 25 C       -7.4480   -10.6800     0.1240 C.ar  1 <1>  -0.1500 
 26 C       -6.7790   -12.5000    -1.8410 C.ar  1 <1>  -0.1500 
 27 C       -8.4220   -11.4990    -0.4180 C.ar  1 <1>  -0.1500 
 28 C       -8.0880   -12.4120    -1.4030 C.ar  1 <1>  -0.1500 
 29 H       -0.5930    -0.6100     2.2290 H     1 <1>   0.3700 
 30 H       -0.2100    -2.3220     2.1620 H     1 <1>   0.3700 
 31 H        1.9360    -1.0620    -1.5420 H     1 <1>   0.1500 
 32 H       -1.9540    -3.0150    -0.1250 H     1 <1>   0.0800 
 33 H       -2.4060    -3.5720     1.4640 H     1 <1>   0.0800 
 34 H       -0.6270    -5.1170     2.7250 H     1 <1>   0.0800 
 35 H        0.8250    -5.4950     1.8410 H     1 <1>   0.0800 
 36 H        3.3380    -1.7620    -3.2900 H     1 <1>   0.0800 
 37 H        3.0210    -3.3240    -3.9920 H     1 <1>   0.0800 
 38 H        4.2890    -3.1380    -2.7970 H     1 <1>   0.0800 
 39 H        2.3810    -6.5250    -1.7690 H     1 <1>   0.0800 
 40 H        3.6820    -5.5110    -2.3260 H     1 <1>   0.0800 
 41 H        2.2350    -5.7030    -3.3000 H     1 <1>   0.0800 
 42 H       -2.0520    -5.2610    -1.0150 H     1 <1>   0.0800 
 43 H       -3.5670    -4.8680    -0.2570 H     1 <1>   0.0800 
 44 H       -0.8030    -7.3600     1.8570 H     1 <1>   0.0800 
 45 H       -0.3880    -6.8350     0.2570 H     1 <1>   0.0800 
 46 H       -2.9260    -6.1270     1.7510 H     1 <1>   0.0800 
 47 H       -2.4980    -7.7580    -0.7690 H     1 <1>   0.0800 
 48 H       -4.0470    -7.2720    -0.1590 H     1 <1>   0.0800 
 49 H       -3.5940    -8.5850     1.9390 H     1 <1>   0.0800 
 50 H       -2.1020    -9.1300     1.2360 H     1 <1>   0.0800 
 51 H       -5.5930    -9.1000     0.7640 H     1 <1>   0.3700 
 52 H       -4.7990   -11.7590    -1.6540 H     1 <1>   0.1500 
 53 H       -7.7220    -9.9790     0.8900 H     1 <1>   0.1500 
 54 H       -6.5130   -13.2080    -2.6060 H     1 <1>   0.1500 
 55 H       -9.4400   -11.4290    -0.0760 H     1 <1>   0.1500 
 56 H       -8.8430   -13.0520    -1.8260 H     1 <1>   0.1500 
@<TRIPOS>BOND
  1   1   2  2   
  2   2   3  am  
  3   2   4  1   
  4   3  29  1   
  5   3  30  1   
  6   4   5  ar  
  7   4   6  ar  
  8   5   7  ar  
  9   5   8  1   
 10   6   9  ar  
 11   6  31  1   
 12   7  10  ar  
 13   8  11  1   
 14   8  12  1   
 15   9  10  ar  
 16   9  13  1   
 17  10  14  1   
 18  11  15  1   
 19  11  32  1   
 20  11  33  1   
 21  12  16  1   
 22  12  34  1   
 23  12  35  1   
 24  13  36  1   
 25  13  37  1   
 26  13  38  1   
 27  14  39  1   
 28  14  40  1   
 29  14  41  1   
 30  15  17  1   
 31  15  42  1   
 32  15  43  1   
 33  16  17  1   
 34  16  44  1   
 35  16  45  1   
 36  17  18  1   
 37  17  46  1   
 38  18  19  1   
 39  18  47  1   
 40  18  48  1   
 41  19  20  1   
 42  19  49  1   
 43  19  50  1   
 44  20  21  2   
 45  20  22  am  
 46  22  23  1   
 47  22  51  1   
 48  23  24  ar  
 49  23  25  ar  
 50  24  26  ar  
 51  24  52  1   
 52  25  27  ar  
 53  25  53  1   
 54  26  28  ar  
 55  26  54  1   
 56  27  28  ar  
 57  27  55  1   
 58  28  56  1   
@<TRIPOS>SUBSTRUCTURE
  1 ****  17 GROUP 4 **** **** 0

# MOE 2024.06 (io_trps.svl 2023.06)
