@<TRIPOS>MOLECULE
NONAME
45 47 1 0 0 
SMALL
USER_CHARGES


@<TRIPOS>ATOM
  1 F        0.7100     0.1820     1.7990 F     1 <1>  -0.1900 
  2 C        1.4840    -0.6850     1.2030 C.ar  1 <1>   0.1900 
  3 C        1.2390    -2.0310     1.3910 C.ar  1 <1>  -0.1500 
  4 C        2.5140    -0.2240     0.4080 C.ar  1 <1>  -0.1500 
  5 C        2.0570    -2.9540     0.7560 C.ar  1 <1>  -0.1440 
  6 C        3.3290    -1.1470    -0.2250 C.ar  1 <1>  -0.1500 
  7 C        3.1030    -2.5140    -0.0550 C.ar  1 <1>   0.0830 
  8 C        1.8100    -4.4380     0.9500 C.3   1 <1>   0.4870 
  9 O        3.8650    -3.4660    -0.6610 O.3   1 <1>  -0.3620 
 10 N        1.4900    -5.0400    -0.3690 N.4   1 <1>  -0.9590 
 11 C        5.0770    -3.1300    -1.3070 C.3   1 <1>   0.0400 
 12 C        0.1690    -4.5560    -0.8770 C.3   1 <1>   0.3430 
 13 C        1.4130    -6.5290    -0.2820 C.3   1 <1>   0.3430 
 14 C       -0.8320    -5.6590    -0.5230 C.3   1 <1>   0.2000 
 15 C        0.0010    -6.9230    -0.7320 C.3   1 <1>  -0.0800 
 16 O       -1.1690    -5.5330     0.8230 O.3   1 <1>  -0.6800 
 17 C       -0.5110    -8.2110    -0.0570 C.3   1 <1>   0.0200 
 18 C        0.5160    -9.3180    -0.1950 C.2   1 <1>  -0.0400 
 19 O        1.0520    -9.5660    -1.3600 O.3   1 <1>  -0.0190 
 20 C        1.0580   -10.1620     0.6960 C.2   1 <1>  -0.1500 
 21 N        1.9350   -10.5160    -1.2940 N.2   1 <1>  -0.4100 
 22 C        1.9550   -10.9030    -0.0690 C.2   1 <1>   0.1080 
 23 C        2.8360   -12.0150     0.4570 C.3   1 <1>  -0.0590 
 24 H        0.4230    -2.3300     2.0260 H     1 <1>   0.1500 
 25 H        2.6700     0.8340     0.2900 H     1 <1>   0.1500 
 26 H        4.1270    -0.7790    -0.8450 H     1 <1>   0.1500 
 27 H        0.9960    -4.5970     1.6390 H     1 <1>   0.0800 
 28 H        2.7000    -4.8910     1.3540 H     1 <1>   0.0800 
 29 H        2.2560    -4.7290    -0.9900 H     1 <1>   0.4500 
 30 H        5.5570    -4.0390    -1.6230 H     1 <1>   0.0800 
 31 H        5.7130    -2.6080    -0.6120 H     1 <1>   0.0800 
 32 H        4.8630    -2.5160    -2.1640 H     1 <1>   0.0800 
 33 H       -0.1190    -3.6110    -0.4440 H     1 <1>   0.0800 
 34 H        0.2150    -4.4530    -1.9480 H     1 <1>   0.0800 
 35 H        2.1550    -6.9990    -0.9080 H     1 <1>   0.0800 
 36 H        1.5660    -6.8470     0.7360 H     1 <1>   0.0800 
 37 H       -1.7280    -5.6150    -1.1200 H     1 <1>   0.0800 
 38 H        0.0540    -7.1080    -1.7920 H     1 <1>   0.0800 
 39 H       -2.0190    -5.9830     1.0190 H     1 <1>   0.4000 
 40 H       -1.4290    -8.5250    -0.5220 H     1 <1>   0.0800 
 41 H       -0.7000    -8.0540     0.9900 H     1 <1>   0.0800 
 42 H        0.8780   -10.2740     1.7500 H     1 <1>   0.1500 
 43 H        3.4630   -11.6450     1.2470 H     1 <1>   0.0800 
 44 H        3.4590   -12.3950    -0.3330 H     1 <1>   0.0800 
 45 H        2.2270   -12.8160     0.8330 H     1 <1>   0.0800 
@<TRIPOS>BOND
  1   1   2  1   
  2   2   3  ar  
  3   2   4  ar  
  4   3   5  ar  
  5   3  24  1   
  6   4   6  ar  
  7   4  25  1   
  8   5   7  ar  
  9   5   8  1   
 10   6   7  ar  
 11   6  26  1   
 12   7   9  1   
 13   8  10  1   
 14   8  27  1   
 15   8  28  1   
 16   9  11  1   
 17  10  12  1   
 18  10  13  1   
 19  10  29  1   
 20  11  30  1   
 21  11  31  1   
 22  11  32  1   
 23  12  14  1   
 24  12  33  1   
 25  12  34  1   
 26  13  15  1   
 27  13  35  1   
 28  13  36  1   
 29  14  15  1   
 30  14  16  1   
 31  14  37  1   
 32  15  17  1   
 33  15  38  1   
 34  16  39  1   
 35  17  18  1   
 36  17  40  1   
 37  17  41  1   
 38  18  19  1   
 39  18  20  2   
 40  19  21  1   
 41  20  22  1   
 42  20  42  1   
 43  21  22  2   
 44  22  23  1   
 45  23  43  1   
 46  23  44  1   
 47  23  45  1   
@<TRIPOS>SUBSTRUCTURE
  1 ****  10 GROUP 4 **** **** 0

# MOE 2024.06 (io_trps.svl 2023.06)
