@<TRIPOS>MOLECULE
Untitled Document
45 48 1 0 0 
SMALL
USER_CHARGES


@<TRIPOS>ATOM
  1 BR      -0.2440    -0.4210    -0.7630 Br    1 <1>  -0.1110 
  2 C        1.4090     0.5370    -0.4250 C.ar  1 <1>   0.1110 
  3 C        2.6550    -0.1390    -0.4260 C.ar  1 <1>   0.1000 
  4 C        1.2630     1.8830    -0.2400 C.ar  1 <1>   0.2110 
  5 N        2.7020    -1.5110    -0.2460 N.pl3 1 <1>  -0.8380 
  6 C        3.7860     0.7340    -0.5090 C.ar  1 <1>   0.0000 
  7 N        2.3590     2.6620    -0.0900 N.ar  1 <1>  -0.1260 
  8 C        3.8130    -2.3380    -0.7860 C.3   1 <1>   0.2090 
  9 C        1.8990    -2.1550     0.8590 C.3   1 <1>   0.2090 
 10 C        3.6000     2.1010    -0.2400 C.ar  1 <1>   0.1560 
 11 C        5.1980     0.6500    -0.7830 C.2   1 <1>   0.0630 
 12 C        3.6580    -3.8760    -0.8660 C.3   1 <1>   0.4230 
 13 C        2.5290    -3.4550     1.3760 C.3   1 <1>  -0.1600 
 14 N        4.7900     2.7530    -0.2060 N.pl3 1 <1>   0.0330 
 15 N        5.9320    -0.4180    -1.3360 N.am  1 <1>  -0.4930 
 16 C        5.7580     1.8570    -0.5520 C.2   1 <1>  -0.3020 
 17 N        5.0000    -4.4980    -0.7000 N.4   1 <1>  -0.8530 
 18 C        2.7230    -4.4400     0.2130 C.3   1 <1>  -0.1600 
 19 C        6.8120    -1.2580    -0.7360 C.2   1 <1>   0.6300 
 20 O        6.8800    -2.4070    -1.1210 O.2   1 <1>  -0.5700 
 21 C        7.6010    -0.8060     0.4860 C.3   1 <1>  -0.1000 
 22 C        8.7810     0.1100     0.3350 C.3   1 <1>  -0.2000 
 23 C        8.9900    -1.3130     0.7470 C.3   1 <1>  -0.2000 
 24 H        0.2850     2.3380    -0.2160 H     1 <1>   0.1500 
 25 H        2.2550     3.6700     0.0770 H     1 <1>   0.4570 
 26 H        4.0570    -1.9830    -1.7700 H     1 <1>   0.0800 
 27 H        4.6190    -2.1630    -0.1050 H     1 <1>   0.0800 
 28 H        1.7820    -1.4620     1.6760 H     1 <1>   0.0800 
 29 H        0.9190    -2.4020     0.4900 H     1 <1>   0.0800 
 30 H        3.2670    -4.1280    -1.8390 H     1 <1>   0.0800 
 31 H        3.4580    -3.2410     1.8760 H     1 <1>   0.0800 
 32 H        1.8640    -3.8890     2.1050 H     1 <1>   0.0800 
 33 H        4.9720     3.7480    -0.0200 H     1 <1>   0.2700 
 34 H        5.6450    -0.7120    -2.2690 H     1 <1>   0.3700 
 35 H        6.7930     2.1460    -0.6530 H     1 <1>   0.1500 
 36 H        5.2320    -4.5930     0.2930 H     1 <1>   0.4500 
 37 H        5.7500    -3.9080    -1.1130 H     1 <1>   0.4500 
 38 H        5.0470    -5.4260    -1.1320 H     1 <1>   0.4500 
 39 H        1.7590    -4.6000    -0.2410 H     1 <1>   0.0800 
 40 H        3.0580    -5.3960     0.5770 H     1 <1>   0.0800 
 41 H        6.9660    -0.6550     1.3400 H     1 <1>   0.1000 
 42 H        9.1050     0.4030    -0.6490 H     1 <1>   0.1000 
 43 H        8.9430     0.8820     1.0680 H     1 <1>   0.1000 
 44 H        9.2920    -1.5140     1.7610 H     1 <1>   0.1000 
 45 H        9.4480    -1.9860     0.0420 H     1 <1>   0.1000 
@<TRIPOS>BOND
  1   1   2  1   
  2   2   3  ar  
  3   2   4  ar  
  4   3   5  1   
  5   3   6  ar  
  6   4   7  ar  
  7   4  24  1   
  8   5   8  1   
  9   5   9  1   
 10   6  10  ar  
 11   6  11  1   
 12   7  10  ar  
 13   7  25  1   
 14   8  12  1   
 15   8  26  1   
 16   8  27  1   
 17   9  13  1   
 18   9  28  1   
 19   9  29  1   
 20  10  14  1   
 21  11  15  1   
 22  11  16  2   
 23  12  17  1   
 24  12  18  1   
 25  12  30  1   
 26  13  18  1   
 27  13  31  1   
 28  13  32  1   
 29  14  16  1   
 30  14  33  1   
 31  15  19  am  
 32  15  34  1   
 33  16  35  1   
 34  17  36  1   
 35  17  37  1   
 36  17  38  1   
 37  18  39  1   
 38  18  40  1   
 39  19  20  2   
 40  19  21  1   
 41  21  22  1   
 42  21  23  1   
 43  21  41  1   
 44  22  23  1   
 45  22  42  1   
 46  22  43  1   
 47  23  44  1   
 48  23  45  1   
@<TRIPOS>SUBSTRUCTURE
  1 ****   6 GROUP 4 **** **** 0

# MOE 2024.06 (io_trps.svl 2023.06)
