@<TRIPOS>MOLECULE
NONAME
47 49 1 0 0 
SMALL
USER_CHARGES


@<TRIPOS>ATOM
  1 O       -0.4050     1.5390     2.2390 O.2   1 <1>  -0.5700 
  2 C       -0.1930     2.3000     1.3220 C.2   1 <1>   0.5690 
  3 N       -1.2250     3.0070     0.7410 N.am  1 <1>  -0.6600 
  4 C        1.2710     2.4210     0.8790 C.3   1 <1>  -0.0190 
  5 C       -2.6190     2.8850     1.2690 C.3   1 <1>   0.1400 
  6 C       -1.1550     3.8940    -0.4530 C.3   1 <1>   0.1400 
  7 C        1.8800     3.8190     1.1090 C.3   1 <1>  -0.1600 
  8 C        1.5490     1.8930    -0.5460 C.3   1 <1>  -0.1600 
  9 C       -3.5430     2.2470     0.2160 C.3   1 <1>   0.0000 
 10 C       -2.0480     3.3390    -1.5700 C.3   1 <1>  -0.1600 
 11 C        3.3600     3.8750     0.6880 C.3   1 <1>   0.1200 
 12 C        2.7200     2.6220    -1.2150 C.3   1 <1>   0.1200 
 13 C       -4.9690     2.1020     0.7760 C.3   1 <1>   0.2000 
 14 C       -3.4890     3.0890    -1.0880 C.3   1 <1>  -0.1600 
 15 C       -3.1800     0.7760    -0.0600 C.3   1 <1>  -0.1600 
 16 O        3.6870     2.8890    -0.2510 O.3   1 <1>  -0.5600 
 17 O       -5.6840     3.3000     0.6960 O.3   1 <1>  -0.5600 
 18 C       -5.6240     0.9960    -0.0550 C.3   1 <1>  -0.1600 
 19 C       -4.4720     0.1130    -0.5540 C.3   1 <1>  -0.1600 
 20 C       -6.8610     3.3330     1.4390 C.3   1 <1>   0.0400 
 21 H        1.8280     1.7720     1.5340 H     1 <1>   0.0800 
 22 H       -2.6370     2.3000     2.1720 H     1 <1>   0.0800 
 23 H       -2.9860     3.8660     1.5150 H     1 <1>   0.0800 
 24 H       -1.4980     4.8760    -0.1740 H     1 <1>   0.0800 
 25 H       -0.1530     3.9870    -0.8210 H     1 <1>   0.0800 
 26 H        1.8000     4.0820     2.1490 H     1 <1>   0.0800 
 27 H        1.3450     4.5680     0.5600 H     1 <1>   0.0800 
 28 H        0.6840     1.9720    -1.1760 H     1 <1>   0.0800 
 29 H        1.7840     0.8450    -0.4840 H     1 <1>   0.0800 
 30 H       -2.0660     4.0390    -2.3860 H     1 <1>   0.0800 
 31 H       -1.6190     2.4270    -1.9430 H     1 <1>   0.0800 
 32 H        3.9940     3.7090     1.5420 H     1 <1>   0.0800 
 33 H        3.6000     4.8360     0.2650 H     1 <1>   0.0800 
 34 H        2.4080     3.5550    -1.6540 H     1 <1>   0.0800 
 35 H        3.1670     2.0080    -1.9770 H     1 <1>   0.0800 
 36 H       -4.9140     1.7960     1.8080 H     1 <1>   0.0800 
 37 H       -4.0550     2.6150    -1.8700 H     1 <1>   0.0800 
 38 H       -3.9420     4.0480    -0.9050 H     1 <1>   0.0800 
 39 H       -2.3750     0.6610    -0.7620 H     1 <1>   0.0800 
 40 H       -2.8810     0.3060     0.8620 H     1 <1>   0.0800 
 41 H       -6.3140     0.4270     0.5430 H     1 <1>   0.0800 
 42 H       -6.1390     1.4250    -0.8970 H     1 <1>   0.0800 
 43 H       -4.5520    -0.8920    -0.1770 H     1 <1>   0.0800 
 44 H       -4.4810     0.0820    -1.6310 H     1 <1>   0.0800 
 45 H       -7.3030     4.3070     1.3190 H     1 <1>   0.0800 
 46 H       -6.6320     3.1660     2.4770 H     1 <1>   0.0800 
 47 H       -7.5380     2.5820     1.0730 H     1 <1>   0.0800 
@<TRIPOS>BOND
  1   1   2  2   
  2   2   3  am  
  3   2   4  1   
  4   3   5  1   
  5   3   6  1   
  6   4   7  1   
  7   4   8  1   
  8   4  21  1   
  9   5   9  1   
 10   5  22  1   
 11   5  23  1   
 12   6  10  1   
 13   6  24  1   
 14   6  25  1   
 15   7  11  1   
 16   7  26  1   
 17   7  27  1   
 18   8  12  1   
 19   8  28  1   
 20   8  29  1   
 21   9  13  1   
 22   9  14  1   
 23   9  15  1   
 24  10  14  1   
 25  10  30  1   
 26  10  31  1   
 27  11  16  1   
 28  11  32  1   
 29  11  33  1   
 30  12  16  1   
 31  12  34  1   
 32  12  35  1   
 33  13  17  1   
 34  13  18  1   
 35  13  36  1   
 36  14  37  1   
 37  14  38  1   
 38  15  19  1   
 39  15  39  1   
 40  15  40  1   
 41  17  20  1   
 42  18  19  1   
 43  18  41  1   
 44  18  42  1   
 45  19  43  1   
 46  19  44  1   
 47  20  45  1   
 48  20  46  1   
 49  20  47  1   
@<TRIPOS>SUBSTRUCTURE
  1 ****   3 GROUP 4 **** **** 0

# MOE 2024.06 (io_trps.svl 2023.06)
