@<TRIPOS>MOLECULE
NONAME
55 58 1 0 0 
SMALL
USER_CHARGES


@<TRIPOS>ATOM
  1 O       -0.5550    -1.6590     0.0670 O.2   1 <1>  -0.5700 
  2 C        0.5050    -2.2110    -0.1050 C.2   1 <1>   0.5690 
  3 N        0.9600    -2.6040    -1.3340 N.am  1 <1>  -0.6600 
  4 C        1.3870    -2.4960     1.0930 C.3   1 <1>  -0.0990 
  5 C        2.2700    -3.2900    -1.4660 C.3   1 <1>   0.1400 
  6 C        0.1740    -2.4090    -2.5810 C.3   1 <1>   0.0600 
  7 C        2.8440    -2.1090     0.7880 C.3   1 <1>  -0.0800 
  8 C        3.3330    -2.5850    -0.6000 C.3   1 <1>  -0.0800 
  9 C        3.8420    -2.6530     1.8200 C.3   1 <1>  -0.1600 
 10 C        4.5620    -3.4650    -0.3370 C.3   1 <1>  -0.1600 
 11 C        5.0920    -2.9700     1.0070 C.3   1 <1>   0.2200 
 12 N        6.0130    -3.9340     1.6900 N.am  1 <1>  -0.6600 
 13 C        7.2850    -3.6030     2.1090 C.2   1 <1>   0.5690 
 14 C        5.5490    -5.3490     1.8480 C.3   1 <1>   0.0600 
 15 O        8.0140    -4.4250     2.6140 O.2   1 <1>  -0.5700 
 16 C        7.8410    -2.1900     1.9670 C.3   1 <1>   0.0820 
 17 C        8.0970    -1.7870     0.5180 C.2   1 <1>  -0.1810 
 18 C        8.2640    -0.4660     0.0310 C.ar  1 <1>   0.0000 
 19 C        8.1870    -2.6010    -0.5520 C.2   1 <1>  -0.0100 
 20 C        8.2990     0.8320     0.5630 C.ar  1 <1>  -0.1440 
 21 C        8.4260    -0.6280    -1.3360 C.ar  1 <1>   0.1400 
 22 O        8.3790    -1.9180    -1.6700 O.3   1 <1>  -0.2800 
 23 C        8.4800     1.8980    -0.2990 C.ar  1 <1>  -0.1500 
 24 C        8.1490     1.0840     2.0540 C.3   1 <1>  -0.0970 
 25 C        8.6090     0.4410    -2.2010 C.ar  1 <1>  -0.1500 
 26 C        8.6340     1.7160    -1.6760 C.ar  1 <1>  -0.1440 
 27 C        8.8300     2.9250    -2.5720 C.3   1 <1>  -0.0970 
 28 H        1.0270    -1.9440     1.9430 H     1 <1>   0.0800 
 29 H        1.3100    -3.5440     1.3130 H     1 <1>   0.0800 
 30 H        2.1470    -4.3100    -1.1480 H     1 <1>   0.0800 
 31 H        2.5870    -3.2930    -2.4950 H     1 <1>   0.0800 
 32 H       -0.0210    -3.3610    -3.0410 H     1 <1>   0.0800 
 33 H        0.7250    -1.7870    -3.2650 H     1 <1>   0.0800 
 34 H       -0.7660    -1.9320    -2.3640 H     1 <1>   0.0800 
 35 H        2.9030    -1.0320     0.7930 H     1 <1>   0.0800 
 36 H        3.6640    -1.7140    -1.1420 H     1 <1>   0.0800 
 37 H        3.4510    -3.5440     2.2760 H     1 <1>   0.0800 
 38 H        4.0490    -1.9270     2.5860 H     1 <1>   0.0800 
 39 H        5.3000    -3.3540    -1.1120 H     1 <1>   0.0800 
 40 H        4.2600    -4.4930    -0.2700 H     1 <1>   0.0800 
 41 H        5.5870    -2.0360     0.8190 H     1 <1>   0.0800 
 42 H        4.4800    -5.4050     1.9300 H     1 <1>   0.0800 
 43 H        5.9770    -5.7840     2.7350 H     1 <1>   0.0800 
 44 H        5.8670    -5.9260     0.9970 H     1 <1>   0.0800 
 45 H        7.1410    -1.5160     2.4200 H     1 <1>   0.0800 
 46 H        8.7630    -2.1200     2.5140 H     1 <1>   0.0800 
 47 H        8.1220    -3.6740    -0.6190 H     1 <1>   0.1500 
 48 H        8.5070     2.9020     0.0890 H     1 <1>   0.1500 
 49 H        8.3460     2.1140     2.2890 H     1 <1>   0.0800 
 50 H        8.8460     0.4780     2.6030 H     1 <1>   0.0800 
 51 H        7.1470     0.8530     2.3660 H     1 <1>   0.0800 
 52 H        8.7260     0.2500    -3.2510 H     1 <1>   0.1500 
 53 H        9.7180     3.4580    -2.2790 H     1 <1>   0.0800 
 54 H        7.9850     3.5850    -2.4880 H     1 <1>   0.0800 
 55 H        8.9320     2.6290    -3.6000 H     1 <1>   0.0800 
@<TRIPOS>BOND
  1   1   2  2   
  2   2   3  am  
  3   2   4  1   
  4   3   5  1   
  5   3   6  1   
  6   4   7  1   
  7   4  28  1   
  8   4  29  1   
  9   5   8  1   
 10   5  30  1   
 11   5  31  1   
 12   6  32  1   
 13   6  33  1   
 14   6  34  1   
 15   7   8  1   
 16   7   9  1   
 17   7  35  1   
 18   8  10  1   
 19   8  36  1   
 20   9  11  1   
 21   9  37  1   
 22   9  38  1   
 23  10  11  1   
 24  10  39  1   
 25  10  40  1   
 26  11  12  1   
 27  11  41  1   
 28  12  13  am  
 29  12  14  1   
 30  13  15  2   
 31  13  16  1   
 32  14  42  1   
 33  14  43  1   
 34  14  44  1   
 35  16  17  1   
 36  16  45  1   
 37  16  46  1   
 38  17  18  1   
 39  17  19  2   
 40  18  20  ar  
 41  18  21  ar  
 42  19  22  1   
 43  19  47  1   
 44  20  23  ar  
 45  20  24  1   
 46  21  22  1   
 47  21  25  ar  
 48  23  26  ar  
 49  23  48  1   
 50  24  49  1   
 51  24  50  1   
 52  24  51  1   
 53  25  26  ar  
 54  25  52  1   
 55  26  27  1   
 56  27  53  1   
 57  27  54  1   
 58  27  55  1   
@<TRIPOS>SUBSTRUCTURE
  1 ****  11 GROUP 4 **** **** 0

# MOE 2024.06 (io_trps.svl 2023.06)
