@<TRIPOS>MOLECULE
NONAME
39 39 1 0 0 
SMALL
USER_CHARGES


@<TRIPOS>ATOM
  1 O       -0.1190     0.1900    -0.5870 O.2   1 <1>  -0.5700 
  2 C       -0.0710     1.2520     0.0050 C.2   1 <1>   0.7800 
  3 O       -1.1860     1.9650     0.2060 O.3   1 <1>  -0.4300 
  4 N        1.0910     1.7690     0.5010 N.am  1 <1>  -0.6600 
  5 C       -2.4930     1.6560    -0.2230 C.3   1 <1>   0.2800 
  6 C        2.4070     1.1410     0.2000 C.3   1 <1>   0.2780 
  7 C        1.1780     3.0070     1.2990 C.3   1 <1>   0.1400 
  8 C       -2.9760     0.3570     0.4330 C.3   1 <1>  -0.2400 
  9 C       -2.5490     1.5970    -1.7550 C.3   1 <1>  -0.2400 
 10 C       -3.3570     2.8190     0.2670 C.3   1 <1>  -0.2400 
 11 C        3.5610     2.1420     0.1150 C.2   1 <1>  -0.2880 
 12 C        1.9930     4.0320     0.5200 C.3   1 <1>  -0.0220 
 13 O        4.6510     1.6030    -0.0720 O.3   1 <1>  -0.8500 
 14 C        3.4090     3.5280     0.2330 C.2   1 <1>  -0.1240 
 15 C        4.3990     4.5260     0.1130 C.2   1 <1>   0.7060 
 16 O        4.1450     5.7410     0.2210 O.2   1 <1>  -0.5700 
 17 O        5.6970     4.2320    -0.1330 O.3   1 <1>  -0.4300 
 18 C        6.6680     5.2390    -0.2690 C.3   1 <1>   0.1200 
 19 C        8.0070     4.5610    -0.5440 C.3   1 <1>  -0.2400 
 20 H        2.3560     0.6110    -0.7350 H     1 <1>   0.0800 
 21 H        2.6380     0.4270     0.9690 H     1 <1>   0.0800 
 22 H        1.6740     2.7870     2.2290 H     1 <1>   0.0800 
 23 H        0.2020     3.4010     1.5160 H     1 <1>   0.0800 
 24 H       -2.4360    -0.4920     0.0560 H     1 <1>   0.0800 
 25 H       -4.0170     0.2020     0.2180 H     1 <1>   0.0800 
 26 H       -2.8500     0.4090     1.4990 H     1 <1>   0.0800 
 27 H       -2.0080     0.7480    -2.1290 H     1 <1>   0.0800 
 28 H       -2.1330     2.4930    -2.1770 H     1 <1>   0.0800 
 29 H       -3.5680     1.5030    -2.0820 H     1 <1>   0.0800 
 30 H       -3.3090     2.8910     1.3380 H     1 <1>   0.0800 
 31 H       -4.3830     2.6700    -0.0190 H     1 <1>   0.0800 
 32 H       -3.0140     3.7430    -0.1630 H     1 <1>   0.0800 
 33 H        2.0220     4.9310     1.1060 H     1 <1>   0.0800 
 34 H        1.5010     4.2540    -0.4090 H     1 <1>   0.0800 
 35 H        6.7000     5.8040     0.6470 H     1 <1>   0.0800 
 36 H        6.3810     5.8770    -1.0870 H     1 <1>   0.0800 
 37 H        8.2590     3.9110     0.2750 H     1 <1>   0.0800 
 38 H        8.7780     5.3000    -0.6560 H     1 <1>   0.0800 
 39 H        7.9410     3.9820    -1.4470 H     1 <1>   0.0800 
@<TRIPOS>BOND
  1   1   2  2   
  2   2   3  1   
  3   2   4  am  
  4   3   5  1   
  5   4   6  1   
  6   4   7  1   
  7   5   8  1   
  8   5   9  1   
  9   5  10  1   
 10   6  11  1   
 11   6  20  1   
 12   6  21  1   
 13   7  12  1   
 14   7  22  1   
 15   7  23  1   
 16   8  24  1   
 17   8  25  1   
 18   8  26  1   
 19   9  27  1   
 20   9  28  1   
 21   9  29  1   
 22  10  30  1   
 23  10  31  1   
 24  10  32  1   
 25  11  13  1   
 26  11  14  2   
 27  12  14  1   
 28  12  33  1   
 29  12  34  1   
 30  14  15  1   
 31  15  16  2   
 32  15  17  1   
 33  17  18  1   
 34  18  19  1   
 35  18  35  1   
 36  18  36  1   
 37  19  37  1   
 38  19  38  1   
 39  19  39  1   
@<TRIPOS>SUBSTRUCTURE
  1 ****   4 GROUP 4 **** **** 0

# MOE 2024.06 (io_trps.svl 2023.06)
