@<TRIPOS>MOLECULE
NONAME
51 54 1 0 0 
SMALL
USER_CHARGES


@<TRIPOS>ATOM
  1 O        1.2710     0.5500     0.9450 O.3   1 <1>  -0.3630 
  2 C        1.6880    -0.5040     0.1960 C.ar  1 <1>   0.0820 
  3 C        0.3220     1.3940     0.3200 C.3   1 <1>   0.1200 
  4 C        0.8430    -1.6100     0.0500 C.ar  1 <1>   0.0820 
  5 C        2.9380    -0.4710    -0.4260 C.ar  1 <1>  -0.1440 
  6 C        1.0090     2.6720    -0.1850 C.3   1 <1>  -0.1600 
  7 O       -0.3620    -1.5860     0.6870 O.3   1 <1>  -0.3620 
  8 C        1.2520    -2.6800    -0.7370 C.ar  1 <1>  -0.1500 
  9 C        3.3170    -1.5550    -1.2070 C.ar  1 <1>  -0.1500 
 10 C        3.9510     0.6640    -0.3000 C.3   1 <1>   0.4860 
 11 C        2.3480     2.4430    -0.9000 C.3   1 <1>   0.3430 
 12 C       -1.1850    -2.7310     0.7530 C.3   1 <1>   0.0400 
 13 C        2.4840    -2.6470    -1.3640 C.ar  1 <1>  -0.1500 
 14 N        3.3560     1.9680     0.0970 N.4   1 <1>  -0.9590 
 15 C        4.4230     2.9720     0.4510 C.3   1 <1>   0.3430 
 16 C        3.9340     4.2640     1.1420 C.3   1 <1>   0.2000 
 17 O        3.1370     4.9790     0.2320 O.3   1 <1>  -0.2170 
 18 C        5.0640     5.2480     1.4350 C.3   1 <1>  -0.0990 
 19 N        3.7400     6.0310    -0.2580 N.2   1 <1>  -0.5130 
 20 C        4.8210     6.2740     0.3580 C.2   1 <1>   0.3030 
 21 C        5.7500     7.3570     0.1090 C.ar  1 <1>   0.0860 
 22 C        5.5570     8.2170    -0.9750 C.ar  1 <1>  -0.1500 
 23 C        6.8670     7.5960     0.9160 C.ar  1 <1>  -0.1500 
 24 C        6.4310     9.2530    -1.2470 C.ar  1 <1>  -0.1500 
 25 C        7.7450     8.6310     0.6480 C.ar  1 <1>  -0.1500 
 26 C        7.5300     9.4620    -0.4350 C.ar  1 <1>  -0.1500 
 27 H       -0.4370     1.6290     1.0450 H     1 <1>   0.0800 
 28 H       -0.1430     0.8620    -0.4950 H     1 <1>   0.0800 
 29 H        1.1370     3.3530     0.6360 H     1 <1>   0.0800 
 30 H        0.3390     3.1550    -0.8740 H     1 <1>   0.0800 
 31 H        0.6290    -3.5430    -0.8780 H     1 <1>   0.1500 
 32 H        4.2730    -1.5700    -1.7050 H     1 <1>   0.1500 
 33 H        4.4620     0.7800    -1.2420 H     1 <1>   0.0800 
 34 H        4.6820     0.3710     0.4350 H     1 <1>   0.0800 
 35 H        2.6810     3.3600    -1.3610 H     1 <1>   0.0800 
 36 H        2.2100     1.7070    -1.6760 H     1 <1>   0.0800 
 37 H       -2.0330    -2.4970     1.3720 H     1 <1>   0.0800 
 38 H       -0.6270    -3.5390     1.1910 H     1 <1>   0.0800 
 39 H       -1.5170    -2.9820    -0.2380 H     1 <1>   0.0800 
 40 H        2.7940    -3.4800    -1.9730 H     1 <1>   0.1500 
 41 H        2.7870     1.7260     0.9280 H     1 <1>   0.4500 
 42 H        4.9580     3.2540    -0.4400 H     1 <1>   0.0800 
 43 H        5.1290     2.5000     1.1140 H     1 <1>   0.0800 
 44 H        3.3540     4.0530     2.0230 H     1 <1>   0.0800 
 45 H        6.0360     4.7970     1.3540 H     1 <1>   0.0800 
 46 H        4.9390     5.6910     2.4060 H     1 <1>   0.0800 
 47 H        4.7040     8.0710    -1.6160 H     1 <1>   0.1500 
 48 H        7.0650     6.9770     1.7710 H     1 <1>   0.1500 
 49 H        6.2550     9.8980    -2.0910 H     1 <1>   0.1500 
 50 H        8.5990     8.7950     1.2840 H     1 <1>   0.1500 
 51 H        8.2120    10.2680    -0.6450 H     1 <1>   0.1500 
@<TRIPOS>BOND
  1   1   2  1   
  2   1   3  1   
  3   2   4  ar  
  4   2   5  ar  
  5   3   6  1   
  6   3  27  1   
  7   3  28  1   
  8   4   7  1   
  9   4   8  ar  
 10   5   9  ar  
 11   5  10  1   
 12   6  11  1   
 13   6  29  1   
 14   6  30  1   
 15   7  12  1   
 16   8  13  ar  
 17   8  31  1   
 18   9  13  ar  
 19   9  32  1   
 20  10  14  1   
 21  10  33  1   
 22  10  34  1   
 23  11  14  1   
 24  11  35  1   
 25  11  36  1   
 26  12  37  1   
 27  12  38  1   
 28  12  39  1   
 29  13  40  1   
 30  14  15  1   
 31  14  41  1   
 32  15  16  1   
 33  15  42  1   
 34  15  43  1   
 35  16  17  1   
 36  16  18  1   
 37  16  44  1   
 38  17  19  1   
 39  18  20  1   
 40  18  45  1   
 41  18  46  1   
 42  19  20  2   
 43  20  21  1   
 44  21  22  ar  
 45  21  23  ar  
 46  22  24  ar  
 47  22  47  1   
 48  23  25  ar  
 49  23  48  1   
 50  24  26  ar  
 51  24  49  1   
 52  25  26  ar  
 53  25  50  1   
 54  26  51  1   
@<TRIPOS>SUBSTRUCTURE
  1 ****  14 GROUP 4 **** **** 0

# MOE 2024.06 (io_trps.svl 2023.06)
