@<TRIPOS>MOLECULE
NONAME
44 46 1 0 0 
SMALL
USER_CHARGES


@<TRIPOS>ATOM
  1 O        0.7540    -0.4380     0.2760 O.3   1 <1>  -0.5600 
  2 C        0.4650    -1.2440     1.3860 C.3   1 <1>   0.1200 
  3 C        1.8520    -0.7610    -0.5160 C.3   1 <1>   0.1200 
  4 C        0.4770    -2.7700     1.1230 C.3   1 <1>   0.1900 
  5 C        1.5510    -1.9640    -1.4400 C.3   1 <1>  -0.0800 
  6 N       -0.1960    -3.1720    -0.1480 N.3   1 <1>  -0.8100 
  7 C        1.9160    -3.3440     1.1850 C.3   1 <1>   0.3430 
  8 C        0.0830    -2.4400    -1.3890 C.3   1 <1>   0.1100 
  9 C        2.5690    -3.1080    -1.2470 C.3   1 <1>   0.3430 
 10 C       -1.4300    -3.9640    -0.0560 C.3   1 <1>   0.2900 
 11 N        2.2750    -4.0200    -0.0990 N.4   1 <1>  -0.9590 
 12 C       -1.1270    -5.4030     0.3750 C.2   1 <1>   0.0060 
 13 C        3.2580    -5.1210     0.0690 C.3   1 <1>   0.2630 
 14 N        0.0600    -5.9370     0.4380 N.2   1 <1>  -0.5650 
 15 N       -2.1200    -6.2630     0.7220 N.pl3 1 <1>   0.0480 
 16 C       -0.1720    -7.1990     0.8440 C.2   1 <1>   0.0770 
 17 C       -1.4910    -7.4130     1.0210 C.2   1 <1>  -0.3020 
 18 C       -3.5850    -6.0500     0.7680 C.3   1 <1>   0.0960 
 19 C       -4.2090    -6.2900    -0.6090 C.3   1 <1>  -0.2400 
 20 H        1.1580    -0.9910     2.1690 H     1 <1>   0.0800 
 21 H       -0.5170    -0.9600     1.7200 H     1 <1>   0.0800 
 22 H        2.0530     0.1070    -1.1200 H     1 <1>   0.0800 
 23 H        2.7050    -0.9220     0.1190 H     1 <1>   0.0800 
 24 H       -0.0510    -3.2240     1.9440 H     1 <1>   0.0800 
 25 H        1.7160    -1.5980    -2.4370 H     1 <1>   0.0800 
 26 H        1.9430    -4.0670     1.9830 H     1 <1>   0.0800 
 27 H        2.6250    -2.5680     1.4180 H     1 <1>   0.0800 
 28 H       -0.1070    -3.0910    -2.2270 H     1 <1>   0.0800 
 29 H       -0.5840    -1.5970    -1.4700 H     1 <1>   0.0800 
 30 H        3.5530    -2.6850    -1.1280 H     1 <1>   0.0800 
 31 H        2.5780    -3.6990    -2.1490 H     1 <1>   0.0800 
 32 H       -2.0980    -3.4960     0.6470 H     1 <1>   0.0800 
 33 H       -1.9160    -3.9880    -1.0150 H     1 <1>   0.0800 
 34 H        1.3450    -4.4580    -0.3220 H     1 <1>   0.4500 
 35 H        4.2160    -4.7290     0.3700 H     1 <1>   0.0800 
 36 H        3.3730    -5.6590    -0.8570 H     1 <1>   0.0800 
 37 H        2.9080    -5.8110     0.8200 H     1 <1>   0.0800 
 38 H        0.6280    -7.9060     0.9890 H     1 <1>   0.1500 
 39 H       -2.0030    -8.3050     1.3350 H     1 <1>   0.1500 
 40 H       -4.0070    -6.7340     1.4830 H     1 <1>   0.0800 
 41 H       -3.7880    -5.0490     1.1020 H     1 <1>   0.0800 
 42 H       -4.0190    -7.2980    -0.9340 H     1 <1>   0.0800 
 43 H       -3.8110    -5.6030    -1.3350 H     1 <1>   0.0800 
 44 H       -5.2740    -6.1480    -0.5560 H     1 <1>   0.0800 
@<TRIPOS>BOND
  1   1   2  1   
  2   1   3  1   
  3   2   4  1   
  4   2  20  1   
  5   2  21  1   
  6   3   5  1   
  7   3  22  1   
  8   3  23  1   
  9   4   6  1   
 10   4   7  1   
 11   4  24  1   
 12   5   8  1   
 13   5   9  1   
 14   5  25  1   
 15   6   8  1   
 16   6  10  1   
 17   7  11  1   
 18   7  26  1   
 19   7  27  1   
 20   8  28  1   
 21   8  29  1   
 22   9  11  1   
 23   9  30  1   
 24   9  31  1   
 25  10  12  1   
 26  10  32  1   
 27  10  33  1   
 28  11  13  1   
 29  11  34  1   
 30  12  14  2   
 31  12  15  1   
 32  13  35  1   
 33  13  36  1   
 34  13  37  1   
 35  14  16  1   
 36  15  17  1   
 37  15  18  1   
 38  16  17  2   
 39  16  38  1   
 40  17  39  1   
 41  18  19  1   
 42  18  40  1   
 43  18  41  1   
 44  19  42  1   
 45  19  43  1   
 46  19  44  1   
@<TRIPOS>SUBSTRUCTURE
  1 ****   6 GROUP 4 **** **** 0

# MOE 2024.06 (io_trps.svl 2023.06)
