@<TRIPOS>MOLECULE
NONAME
39 40 1 0 0 
SMALL
USER_CHARGES


@<TRIPOS>ATOM
  1 S       -1.8520    -0.9390     0.7190 S.3   1 <1>  -0.0800 
  2 C       -1.8200    -1.3900    -0.9530 C.2   1 <1>   0.4420 
  3 C       -0.9030     0.4440     0.2880 C.2   1 <1>   0.1980 
  4 N       -1.1670    -0.5500    -1.6720 N.2   1 <1>  -0.3380 
  5 N       -2.4750    -2.5520    -1.2910 N.am  1 <1>  -0.4940 
  6 N       -0.6470     0.4940    -0.9580 N.2   1 <1>  -0.3380 
  7 C       -0.5050     1.4250     1.3770 C.3   1 <1>   0.3000 
  8 C       -2.6920    -3.1370    -2.5020 C.2   1 <1>   0.5690 
  9 O        0.0490     0.7480     2.4690 O.3   1 <1>  -0.5600 
 10 O       -2.3450    -2.6760    -3.5590 O.2   1 <1>  -0.5700 
 11 C       -3.4350    -4.4740    -2.4760 C.3   1 <1>   0.1710 
 12 C        0.5030     1.5820     3.4870 C.3   1 <1>   0.0400 
 13 N       -4.2410    -4.6800    -1.2330 N.3   1 <1>  -0.8100 
 14 C       -4.5430    -6.1170    -1.0380 C.3   1 <1>   0.2900 
 15 C       -5.4900    -3.8960    -1.2920 C.3   1 <1>   0.0300 
 16 C       -5.0100    -6.4200     0.3780 C.2   1 <1>  -0.0400 
 17 O       -5.5470    -7.6030     0.6130 O.3   1 <1>  -0.2800 
 18 C       -4.9790    -5.6880     1.5130 C.2   1 <1>  -0.1500 
 19 C       -5.8710    -7.6520     1.8890 C.2   1 <1>  -0.0400 
 20 C       -5.5470    -6.4960     2.5050 C.2   1 <1>  -0.1500 
 21 C       -6.5130    -8.9120     2.4250 C.3   1 <1>  -0.0600 
 22 H       -2.9120    -3.0760    -0.5300 H     1 <1>   0.3700 
 23 H       -1.3720     1.9650     1.7130 H     1 <1>   0.0800 
 24 H        0.2250     2.1130     0.9890 H     1 <1>   0.0800 
 25 H       -2.6850    -5.2410    -2.5510 H     1 <1>   0.0800 
 26 H       -4.0650    -4.5430    -3.3460 H     1 <1>   0.0800 
 27 H        0.9020     0.9640     4.2720 H     1 <1>   0.0800 
 28 H       -0.3190     2.1640     3.8670 H     1 <1>   0.0800 
 29 H        1.2790     2.2230     3.1040 H     1 <1>   0.0800 
 30 H       -3.6600    -6.7060    -1.2160 H     1 <1>   0.0800 
 31 H       -5.3000    -6.4320    -1.7370 H     1 <1>   0.0800 
 32 H       -5.2730    -2.8480    -1.4130 H     1 <1>   0.0800 
 33 H       -6.0530    -4.0170    -0.3820 H     1 <1>   0.0800 
 34 H       -6.1020    -4.2190    -2.1180 H     1 <1>   0.0800 
 35 H       -4.6010    -4.6920     1.6550 H     1 <1>   0.1500 
 36 H       -5.6790    -6.2200     3.5350 H     1 <1>   0.1500 
 37 H       -7.4330    -9.1010     1.9020 H     1 <1>   0.0800 
 38 H       -6.7200    -8.8070     3.4740 H     1 <1>   0.0800 
 39 H       -5.8500    -9.7460     2.2790 H     1 <1>   0.0800 
@<TRIPOS>BOND
  1   1   2  1   
  2   1   3  1   
  3   2   4  2   
  4   2   5  1   
  5   3   6  2   
  6   3   7  1   
  7   4   6  1   
  8   5   8  am  
  9   5  22  1   
 10   7   9  1   
 11   7  23  1   
 12   7  24  1   
 13   8  10  2   
 14   8  11  1   
 15   9  12  1   
 16  11  13  1   
 17  11  25  1   
 18  11  26  1   
 19  12  27  1   
 20  12  28  1   
 21  12  29  1   
 22  13  14  1   
 23  13  15  1   
 24  14  16  1   
 25  14  30  1   
 26  14  31  1   
 27  15  32  1   
 28  15  33  1   
 29  15  34  1   
 30  16  17  1   
 31  16  18  2   
 32  17  19  1   
 33  18  20  1   
 34  18  35  1   
 35  19  20  2   
 36  19  21  1   
 37  20  36  1   
 38  21  37  1   
 39  21  38  1   
 40  21  39  1   
@<TRIPOS>SUBSTRUCTURE
  1 ****   5 GROUP 4 **** **** 0

# MOE 2024.06 (io_trps.svl 2023.06)
