@<TRIPOS>MOLECULE
NONAME
51 53 1 0 0 
SMALL
USER_CHARGES


@<TRIPOS>ATOM
  1 O        1.3580     0.2210    -1.3450 O.2   1 <1>  -0.5700 
  2 C        1.9770    -0.4660    -0.5550 C.2   1 <1>   0.7160 
  3 N        3.0580     0.0710     0.1080 N.am  1 <1>  -0.6600 
  4 C        1.5920    -1.8350    -0.3500 C.2   1 <1>  -0.0860 
  5 C        4.0000    -0.7330     0.9510 C.3   1 <1>   0.1400 
  6 C        3.4700     1.4850    -0.0940 C.3   1 <1>   0.1400 
  7 C        1.7800    -2.9330    -1.1080 C.2   1 <1>  -0.0400 
  8 C        0.9230    -2.3680     0.7390 C.2   1 <1>   0.1080 
  9 C        5.2600    -1.1440     0.1770 C.3   1 <1>   0.1400 
 10 C        4.2920     1.6560    -1.3800 C.3   1 <1>  -0.1600 
 11 O        1.3050    -4.0150    -0.5400 O.3   1 <1>  -0.0190 
 12 C        2.4390    -3.0570    -2.4670 C.3   1 <1>  -0.0600 
 13 N        0.7830    -3.6320     0.6040 N.2   1 <1>  -0.4100 
 14 C        0.4130    -1.5780     1.9260 C.3   1 <1>  -0.0590 
 15 N        5.9530     0.0340    -0.4360 N.am  1 <1>  -0.6600 
 16 C        5.3070     0.5420    -1.6780 C.3   1 <1>   0.1400 
 17 C        7.0470     0.5930     0.1720 C.2   1 <1>   0.5690 
 18 O        7.4310     0.2000     1.2490 O.2   1 <1>  -0.5700 
 19 C        7.7990     1.7370    -0.5050 C.3   1 <1>  -0.0990 
 20 C        8.9990     2.2710     0.3010 C.3   1 <1>  -0.1600 
 21 C        9.7220     3.4130    -0.4270 C.3   1 <1>   0.0210 
 22 C       10.9000     3.9480     0.3700 C.2   1 <1>  -0.1810 
 23 C       11.7470     4.9760    -0.0340 C.2   1 <1>   0.1390 
 24 C       11.3730     3.5780     1.5800 C.2   1 <1>  -0.3020 
 25 N       12.6710     5.2320     0.8420 N.2   1 <1>  -0.7070 
 26 N       12.4360     4.3620     1.8430 N.pl3 1 <1>   0.3000 
 27 H        3.5170    -1.6210     1.3180 H     1 <1>   0.0800 
 28 H        4.2940    -0.1560     1.8110 H     1 <1>   0.0800 
 29 H        4.0580     1.8060     0.7490 H     1 <1>   0.0800 
 30 H        2.5960     2.1140    -0.1380 H     1 <1>   0.0800 
 31 H        4.9940    -1.8470    -0.5920 H     1 <1>   0.0800 
 32 H        5.9290    -1.6520     0.8500 H     1 <1>   0.0800 
 33 H        4.8030     2.6000    -1.3300 H     1 <1>   0.0800 
 34 H        3.6120     1.7220    -2.2110 H     1 <1>   0.0800 
 35 H        2.7610    -2.0940    -2.8200 H     1 <1>   0.0800 
 36 H        1.7370    -3.4650    -3.1720 H     1 <1>   0.0800 
 37 H        3.2890    -3.7110    -2.4030 H     1 <1>   0.0800 
 38 H       -0.2540    -0.8060     1.5890 H     1 <1>   0.0800 
 39 H        1.2350    -1.1300     2.4530 H     1 <1>   0.0800 
 40 H       -0.1190    -2.2270     2.5970 H     1 <1>   0.0800 
 41 H        6.0500     0.8990    -2.3700 H     1 <1>   0.0800 
 42 H        4.7930    -0.2720    -2.1600 H     1 <1>   0.0800 
 43 H        7.1100     2.5420    -0.6710 H     1 <1>   0.0800 
 44 H        8.1500     1.3850    -1.4570 H     1 <1>   0.0800 
 45 H        9.6940     1.4670     0.4760 H     1 <1>   0.0800 
 46 H        8.6530     2.6230     1.2580 H     1 <1>   0.0800 
 47 H        9.0330     4.2200    -0.6050 H     1 <1>   0.0800 
 48 H       10.0820     3.0620    -1.3780 H     1 <1>   0.0800 
 49 H       11.6580     5.5080    -0.9660 H     1 <1>   0.1500 
 50 H       11.0230     2.8190     2.2560 H     1 <1>   0.1500 
 51 H       13.0180     4.3300     2.6880 H     1 <1>   0.2700 
@<TRIPOS>BOND
  1   1   2  2   
  2   2   3  am  
  3   2   4  1   
  4   3   5  1   
  5   3   6  1   
  6   4   7  2   
  7   4   8  1   
  8   5   9  1   
  9   5  27  1   
 10   5  28  1   
 11   6  10  1   
 12   6  29  1   
 13   6  30  1   
 14   7  11  1   
 15   7  12  1   
 16   8  13  2   
 17   8  14  1   
 18   9  15  1   
 19   9  31  1   
 20   9  32  1   
 21  10  16  1   
 22  10  33  1   
 23  10  34  1   
 24  11  13  1   
 25  12  35  1   
 26  12  36  1   
 27  12  37  1   
 28  14  38  1   
 29  14  39  1   
 30  14  40  1   
 31  15  16  1   
 32  15  17  am  
 33  16  41  1   
 34  16  42  1   
 35  17  18  2   
 36  17  19  1   
 37  19  20  1   
 38  19  43  1   
 39  19  44  1   
 40  20  21  1   
 41  20  45  1   
 42  20  46  1   
 43  21  22  1   
 44  21  47  1   
 45  21  48  1   
 46  22  23  1   
 47  22  24  2   
 48  23  25  2   
 49  23  49  1   
 50  24  26  1   
 51  24  50  1   
 52  25  26  1   
 53  26  51  1   
@<TRIPOS>SUBSTRUCTURE
  1 ****  15 GROUP 4 **** **** 0

# MOE 2024.06 (io_trps.svl 2023.06)
