@<TRIPOS>MOLECULE
NONAME
44 45 1 0 0 
SMALL
USER_CHARGES


@<TRIPOS>ATOM
  1 S       -0.1320     0.1690    -0.0070 S.o2  1 <1>   1.3330 
  2 O       -0.3730     1.5830     0.1120 O.2   1 <1>  -0.6500 
  3 O        0.7600    -0.3470    -1.0130 O.2   1 <1>  -0.6500 
  4 N        0.6150    -0.2320     1.4120 N.am  1 <1>  -0.9780 
  5 C       -1.6830    -0.7360     0.0170 C.3   1 <1>  -0.0550 
  6 C       -1.5220    -2.2660     0.0910 C.3   1 <1>  -0.1600 
  7 C       -2.8850    -2.9830     0.0530 C.3   1 <1>  -0.0990 
  8 C       -2.7850    -4.5030     0.1230 C.2   1 <1>   0.5690 
  9 O       -1.7710    -5.0060     0.5440 O.2   1 <1>  -0.5700 
 10 N       -3.8460    -5.2680    -0.2690 N.am  1 <1>  -0.6600 
 11 C       -5.2170    -4.8020    -0.6010 C.3   1 <1>   0.1400 
 12 C       -3.8240    -6.7530    -0.1970 C.3   1 <1>   0.1400 
 13 C       -6.1140    -5.9490    -0.1440 C.3   1 <1>   0.2000 
 14 C       -5.2730    -7.1930    -0.4440 C.3   1 <1>  -0.0800 
 15 O       -6.2910    -5.8250     1.2260 O.3   1 <1>  -0.6800 
 16 C       -5.6740    -8.4680     0.3200 C.3   1 <1>   0.0210 
 17 C       -4.7770    -9.6280    -0.0650 C.2   1 <1>   0.1080 
 18 N       -4.7290   -10.1120    -1.2670 N.2   1 <1>  -0.7070 
 19 C       -3.9120   -10.2870     0.8020 C.2   1 <1>  -0.1500 
 20 N       -3.8230   -11.1050    -1.1980 N.pl3 1 <1>   0.3000 
 21 C       -3.3120   -11.2290     0.0450 C.2   1 <1>  -0.3320 
 22 C       -2.2660   -12.2560     0.4380 C.3   1 <1>  -0.0600 
 23 H        1.0190     0.6480     1.7270 H     1 <1>   0.4200 
 24 H        1.4010    -0.8080     1.1160 H     1 <1>   0.4200 
 25 H       -2.2600    -0.4070     0.8590 H     1 <1>   0.0800 
 26 H       -2.2330    -0.4890    -0.8700 H     1 <1>   0.0800 
 27 H       -0.9200    -2.6060    -0.7360 H     1 <1>   0.0800 
 28 H       -1.0070    -2.5260     1.0010 H     1 <1>   0.0800 
 29 H       -3.3890    -2.7170    -0.8580 H     1 <1>   0.0800 
 30 H       -3.4840    -2.6550     0.8820 H     1 <1>   0.0800 
 31 H       -5.4730    -3.8820    -0.1040 H     1 <1>   0.0800 
 32 H       -5.2960    -4.6770    -1.6670 H     1 <1>   0.0800 
 33 H       -3.1610    -7.1620    -0.9410 H     1 <1>   0.0800 
 34 H       -3.4870    -7.0570     0.7800 H     1 <1>   0.0800 
 35 H       -7.0800    -5.9560    -0.6200 H     1 <1>   0.0800 
 36 H       -5.3630    -7.4000    -1.4970 H     1 <1>   0.0800 
 37 H       -5.4100    -5.7270     1.6420 H     1 <1>   0.4000 
 38 H       -6.6900    -8.7250     0.0820 H     1 <1>   0.0800 
 39 H       -5.6100    -8.3120     1.3810 H     1 <1>   0.0800 
 40 H       -3.7700   -10.0690     1.8450 H     1 <1>   0.1500 
 41 H       -3.5760   -11.6760    -2.0150 H     1 <1>   0.2700 
 42 H       -2.0220   -12.1530     1.4810 H     1 <1>   0.0800 
 43 H       -1.3690   -12.1130    -0.1380 H     1 <1>   0.0800 
 44 H       -2.6390   -13.2500     0.2700 H     1 <1>   0.0800 
@<TRIPOS>BOND
  1   1   2  2   
  2   1   3  2   
  3   1   4  am  
  4   1   5  1   
  5   4  23  1   
  6   4  24  1   
  7   5   6  1   
  8   5  25  1   
  9   5  26  1   
 10   6   7  1   
 11   6  27  1   
 12   6  28  1   
 13   7   8  1   
 14   7  29  1   
 15   7  30  1   
 16   8   9  2   
 17   8  10  am  
 18  10  11  1   
 19  10  12  1   
 20  11  13  1   
 21  11  31  1   
 22  11  32  1   
 23  12  14  1   
 24  12  33  1   
 25  12  34  1   
 26  13  14  1   
 27  13  15  1   
 28  13  35  1   
 29  14  16  1   
 30  14  36  1   
 31  15  37  1   
 32  16  17  1   
 33  16  38  1   
 34  16  39  1   
 35  17  18  2   
 36  17  19  1   
 37  18  20  1   
 38  19  21  2   
 39  19  40  1   
 40  20  21  1   
 41  20  41  1   
 42  21  22  1   
 43  22  42  1   
 44  22  43  1   
 45  22  44  1   
@<TRIPOS>SUBSTRUCTURE
  1 ****  10 GROUP 4 **** **** 0

# MOE 2024.06 (io_trps.svl 2023.06)
