@<TRIPOS>MOLECULE
NONAME
42 43 1 0 0 
SMALL
USER_CHARGES


@<TRIPOS>ATOM
  1 F       -3.1760    -2.3590     3.1740 F     1 <1>  -0.3400 
  2 C       -3.1860    -1.6370     2.0610 C.3   1 <1>   1.1640 
  3 F       -1.9210    -1.5480     1.6640 F     1 <1>  -0.3400 
  4 F       -3.5480    -0.4100     2.4160 F     1 <1>  -0.3400 
  5 C       -4.1060    -2.2470     0.9920 C.ar  1 <1>  -0.1440 
  6 C       -5.4440    -1.8740     0.9020 C.ar  1 <1>  -0.1500 
  7 C       -3.6230    -3.1950     0.0950 C.ar  1 <1>  -0.1500 
  8 C       -6.2720    -2.4280    -0.0580 C.ar  1 <1>  -0.1500 
  9 C       -4.4520    -3.7490    -0.8640 C.ar  1 <1>  -0.1500 
 10 C       -5.7820    -3.3720    -0.9460 C.ar  1 <1>  -0.1430 
 11 C       -6.6890    -3.9890    -2.0070 C.3   1 <1>   0.0440 
 12 C       -6.6940    -5.5150    -1.9790 C.2   1 <1>   0.5690 
 13 O       -6.0210    -6.0760    -2.8130 O.2   1 <1>  -0.5700 
 14 N       -7.4260    -6.2280    -1.0590 N.am  1 <1>  -0.6600 
 15 C       -7.3830    -7.7200    -1.1050 C.3   1 <1>   0.3200 
 16 C       -8.1240    -5.5950     0.1050 C.3   1 <1>   0.1400 
 17 C       -8.7190    -8.3240    -0.7170 C.2   1 <1>  -0.3320 
 18 C       -9.5630    -5.1980    -0.2510 C.3   1 <1>   0.1200 
 19 N       -8.9990    -8.8470     0.4930 N.pl3 1 <1>   0.0330 
 20 C       -9.8390    -8.4660    -1.4580 C.2   1 <1>   0.0770 
 21 O      -10.0690    -4.3820     0.7510 O.3   1 <1>  -0.6800 
 22 C      -10.2810    -9.2600     0.4120 C.2   1 <1>   0.0060 
 23 N      -10.8210    -9.0440    -0.7410 N.2   1 <1>  -0.5650 
 24 C      -11.0080    -9.9180     1.5660 C.3   1 <1>  -0.0600 
 25 H       -5.8530    -1.1440     1.5820 H     1 <1>   0.1500 
 26 H       -2.5940    -3.5110     0.1360 H     1 <1>   0.1500 
 27 H       -7.3030    -2.1190    -0.1050 H     1 <1>   0.1500 
 28 H       -4.0550    -4.4800    -1.5510 H     1 <1>   0.1500 
 29 H       -6.3420    -3.6710    -2.9730 H     1 <1>   0.0800 
 30 H       -7.6930    -3.6280    -1.9020 H     1 <1>   0.0800 
 31 H       -6.6060    -8.0730    -0.4500 H     1 <1>   0.0800 
 32 H       -7.1450    -8.0500    -2.1030 H     1 <1>   0.0800 
 33 H       -7.5840    -4.7200     0.4130 H     1 <1>   0.0800 
 34 H       -8.1310    -6.2740     0.9380 H     1 <1>   0.0800 
 35 H      -10.2040    -6.0570    -0.3430 H     1 <1>   0.0800 
 36 H       -9.5860    -4.6360    -1.1660 H     1 <1>   0.0800 
 37 H       -8.3800    -8.9320     1.3030 H     1 <1>   0.2700 
 38 H       -9.9940    -8.1720    -2.4830 H     1 <1>   0.1500 
 39 H      -10.4330    -4.9190     1.4820 H     1 <1>   0.4000 
 40 H      -11.0420    -9.2540     2.4100 H     1 <1>   0.0800 
 41 H      -10.5100   -10.8280     1.8440 H     1 <1>   0.0800 
 42 H      -12.0150   -10.1540     1.2720 H     1 <1>   0.0800 
@<TRIPOS>BOND
  1   1   2  1   
  2   2   3  1   
  3   2   4  1   
  4   2   5  1   
  5   5   6  ar  
  6   5   7  ar  
  7   6   8  ar  
  8   6  25  1   
  9   7   9  ar  
 10   7  26  1   
 11   8  10  ar  
 12   8  27  1   
 13   9  10  ar  
 14   9  28  1   
 15  10  11  1   
 16  11  12  1   
 17  11  29  1   
 18  11  30  1   
 19  12  13  2   
 20  12  14  am  
 21  14  15  1   
 22  14  16  1   
 23  15  17  1   
 24  15  31  1   
 25  15  32  1   
 26  16  18  1   
 27  16  33  1   
 28  16  34  1   
 29  17  19  1   
 30  17  20  2   
 31  18  21  1   
 32  18  35  1   
 33  18  36  1   
 34  19  22  1   
 35  19  37  1   
 36  20  23  1   
 37  20  38  1   
 38  21  39  1   
 39  22  23  2   
 40  22  24  1   
 41  24  40  1   
 42  24  41  1   
 43  24  42  1   
@<TRIPOS>SUBSTRUCTURE
  1 ****  16 GROUP 4 **** **** 0

# MOE 2024.06 (io_trps.svl 2023.06)
