@<TRIPOS>MOLECULE
NONAME
44 45 1 0 0 
SMALL
USER_CHARGES


@<TRIPOS>ATOM
  1 O       -0.0030     1.2710    -1.3480 O.2   1 <1>  -0.5700 
  2 C       -0.1920     2.4520    -1.1730 C.2   1 <1>   0.5690 
  3 N       -1.1240     2.9530    -0.2970 N.am  1 <1>  -0.6600 
  4 C        0.6600     3.4230    -1.9870 C.3   1 <1>   0.1810 
  5 C       -1.3150     4.4370    -0.1470 C.3   1 <1>   0.3640 
  6 C       -1.9120     2.1230     0.6590 C.3   1 <1>   0.2200 
  7 O        0.8460     4.6460    -1.3220 O.3   1 <1>  -0.5600 
  8 C       -2.7700     4.7950    -0.4530 C.ar  1 <1>  -0.1440 
  9 C       -0.3680     5.3100    -1.0140 C.3   1 <1>   0.2610 
 10 C       -0.9780     1.4270     1.6490 C.3   1 <1>  -0.2400 
 11 C       -2.8120     1.1290    -0.0750 C.3   1 <1>  -0.2400 
 12 C       -3.3850     4.3520    -1.6170 C.ar  1 <1>  -0.1500 
 13 C       -3.4970     5.5740     0.4360 C.ar  1 <1>  -0.1500 
 14 C       -0.0780     6.6230    -0.2800 C.2   1 <1>   0.5690 
 15 C       -4.7020     4.6800    -1.8870 C.ar  1 <1>  -0.1500 
 16 C       -4.8150     5.9030     0.1680 C.ar  1 <1>  -0.1500 
 17 O       -0.9460     7.4590    -0.1720 O.2   1 <1>  -0.5700 
 18 N        1.1520     6.8180     0.2650 N.am  1 <1>  -0.7300 
 19 C       -5.4180     5.4560    -0.9940 C.ar  1 <1>  -0.1500 
 20 C        1.6020     8.0370     1.0120 C.3   1 <1>   0.2010 
 21 C        0.9640     8.1910     2.3960 C.2   1 <1>   0.5690 
 22 O        1.6600     8.2480     3.3780 O.2   1 <1>  -0.5700 
 23 N       -0.3760     8.2710     2.5070 N.am  1 <1>  -0.8000 
 24 H        0.1950     3.6100    -2.9380 H     1 <1>   0.0800 
 25 H        1.6290     2.9900    -2.1530 H     1 <1>   0.0800 
 26 H       -1.1160     4.6750     0.8840 H     1 <1>   0.0800 
 27 H       -2.5570     2.7710     1.2300 H     1 <1>   0.0800 
 28 H       -0.8490     5.5520    -1.9450 H     1 <1>   0.0800 
 29 H       -0.3580     0.7050     1.1480 H     1 <1>   0.0800 
 30 H       -1.5560     0.9120     2.3930 H     1 <1>   0.0800 
 31 H       -0.3540     2.1490     2.1420 H     1 <1>   0.0800 
 32 H       -2.2330     0.3890    -0.5960 H     1 <1>   0.0800 
 33 H       -3.4440     1.6430    -0.7740 H     1 <1>   0.0800 
 34 H       -3.4400     0.6200     0.6330 H     1 <1>   0.0800 
 35 H       -2.8440     3.7410    -2.3190 H     1 <1>   0.1500 
 36 H       -3.0430     5.9360     1.3420 H     1 <1>   0.1500 
 37 H       -5.1710     4.3310    -2.7910 H     1 <1>   0.1500 
 38 H       -5.3700     6.5100     0.8620 H     1 <1>   0.1500 
 39 H        1.8520     6.0820     0.1190 H     1 <1>   0.3700 
 40 H       -6.4420     5.7130    -1.2030 H     1 <1>   0.1500 
 41 H        2.6700     8.0040     1.1290 H     1 <1>   0.0800 
 42 H        1.3590     8.9100     0.4320 H     1 <1>   0.0800 
 43 H       -0.8240     8.3860     3.4150 H     1 <1>   0.3700 
 44 H       -0.9790     8.1850     1.6770 H     1 <1>   0.3700 
@<TRIPOS>BOND
  1   1   2  2   
  2   2   3  am  
  3   2   4  1   
  4   3   5  1   
  5   3   6  1   
  6   4   7  1   
  7   4  24  1   
  8   4  25  1   
  9   5   8  1   
 10   5   9  1   
 11   5  26  1   
 12   6  10  1   
 13   6  11  1   
 14   6  27  1   
 15   7   9  1   
 16   8  12  ar  
 17   8  13  ar  
 18   9  14  1   
 19   9  28  1   
 20  10  29  1   
 21  10  30  1   
 22  10  31  1   
 23  11  32  1   
 24  11  33  1   
 25  11  34  1   
 26  12  15  ar  
 27  12  35  1   
 28  13  16  ar  
 29  13  36  1   
 30  14  17  2   
 31  14  18  am  
 32  15  19  ar  
 33  15  37  1   
 34  16  19  ar  
 35  16  38  1   
 36  18  20  1   
 37  18  39  1   
 38  19  40  1   
 39  20  21  1   
 40  20  41  1   
 41  20  42  1   
 42  21  22  2   
 43  21  23  am  
 44  23  43  1   
 45  23  44  1   
@<TRIPOS>SUBSTRUCTURE
  1 ****   5 GROUP 4 **** **** 0

# MOE 2024.06 (io_trps.svl 2023.06)
