@<TRIPOS>MOLECULE
NONAME
53 56 1 0 0 
SMALL
USER_CHARGES


@<TRIPOS>ATOM
  1 O        1.0240     0.6880     0.3330 O.3   1 <1>  -0.4300 
  2 C       -0.1450     0.5230     0.9560 C.2   1 <1>   0.5390 
  3 C        1.3910    -0.5280    -0.2650 C.3   1 <1>   0.1200 
  4 N       -0.6630    -0.6190     0.8410 N.2   1 <1>  -0.6960 
  5 C       -0.6970     1.7230     1.7300 C.3   1 <1>   0.1220 
  6 C        0.1880    -1.4400    -0.0010 C.3   1 <1>   0.1660 
  7 C       -0.8490     2.8470     0.7020 C.2   1 <1>   0.5390 
  8 C       -2.0690     1.4140     2.3750 C.3   1 <1>  -0.2400 
  9 C        0.2810     2.1080     2.8660 C.3   1 <1>  -0.2400 
 10 C       -0.5430    -1.8330    -1.2950 C.3   1 <1>  -0.0170 
 11 O       -1.6500     2.6110    -0.3400 O.3   1 <1>  -0.4300 
 12 N       -0.3100     3.9850     0.7240 N.2   1 <1>  -0.6960 
 13 C       -1.6170    -2.8880    -1.0620 C.ar  1 <1>  -0.1440 
 14 C       -1.7090     3.7690    -1.1330 C.3   1 <1>   0.1200 
 15 C       -0.7120     4.7200    -0.4620 C.3   1 <1>   0.1660 
 16 C       -2.8510    -2.5240    -0.5490 C.ar  1 <1>  -0.1500 
 17 C       -1.3760    -4.2200    -1.3640 C.ar  1 <1>  -0.1500 
 18 C        0.5020     5.0210    -1.3550 C.3   1 <1>  -0.0170 
 19 C       -3.8350    -3.4750    -0.3410 C.ar  1 <1>  -0.1500 
 20 C       -2.3580    -5.1740    -1.1580 C.ar  1 <1>  -0.1500 
 21 C        1.3970     6.1090    -0.7770 C.ar  1 <1>  -0.1440 
 22 C       -3.5890    -4.8020    -0.6470 C.ar  1 <1>  -0.1500 
 23 C        2.2940     5.8090     0.2370 C.ar  1 <1>  -0.1500 
 24 C        1.3300     7.4080    -1.2590 C.ar  1 <1>  -0.1500 
 25 C        3.1160     6.7910     0.7610 C.ar  1 <1>  -0.1500 
 26 C        2.1520     8.3920    -0.7350 C.ar  1 <1>  -0.1500 
 27 C        3.0460     8.0840     0.2750 C.ar  1 <1>  -0.1500 
 28 H        1.5740    -0.3630    -1.3120 H     1 <1>   0.0800 
 29 H        2.2770    -0.8960     0.2200 H     1 <1>   0.0800 
 30 H        0.4960    -2.3230     0.5320 H     1 <1>   0.0800 
 31 H       -1.9770     0.6120     3.0860 H     1 <1>   0.0800 
 32 H       -2.7760     1.1150     1.6220 H     1 <1>   0.0800 
 33 H       -2.4520     2.2840     2.8780 H     1 <1>   0.0800 
 34 H        0.4020     1.2880     3.5520 H     1 <1>   0.0800 
 35 H       -0.0870     2.9630     3.4050 H     1 <1>   0.0800 
 36 H        1.2460     2.3580     2.4600 H     1 <1>   0.0800 
 37 H       -0.9830    -0.9590    -1.7420 H     1 <1>   0.0800 
 38 H        0.1740    -2.2240    -1.9950 H     1 <1>   0.0800 
 39 H       -1.4370     3.5170    -2.1420 H     1 <1>   0.0800 
 40 H       -2.7100     4.1590    -1.0980 H     1 <1>   0.0800 
 41 H       -1.2000     5.6380    -0.1810 H     1 <1>   0.0800 
 42 H       -3.0450    -1.4940    -0.3020 H     1 <1>   0.1500 
 43 H       -0.4240    -4.5240    -1.7620 H     1 <1>   0.1500 
 44 H        1.0730     4.1210    -1.5020 H     1 <1>   0.0800 
 45 H        0.1550     5.3410    -2.3200 H     1 <1>   0.0800 
 46 H       -4.7890    -3.1800     0.0590 H     1 <1>   0.1500 
 47 H       -2.1650    -6.2050    -1.3940 H     1 <1>   0.1500 
 48 H       -4.3530    -5.5410    -0.4860 H     1 <1>   0.1500 
 49 H        2.3470     4.8060     0.6240 H     1 <1>   0.1500 
 50 H        0.6400     7.6620    -2.0430 H     1 <1>   0.1500 
 51 H        3.8070     6.5470     1.5490 H     1 <1>   0.1500 
 52 H        2.0950     9.3980    -1.1140 H     1 <1>   0.1500 
 53 H        3.6840     8.8480     0.6820 H     1 <1>   0.1500 
@<TRIPOS>BOND
  1   1   2  1   
  2   1   3  1   
  3   2   4  2   
  4   2   5  1   
  5   3   6  1   
  6   3  28  1   
  7   3  29  1   
  8   4   6  1   
  9   5   7  1   
 10   5   8  1   
 11   5   9  1   
 12   6  10  1   
 13   6  30  1   
 14   7  11  1   
 15   7  12  2   
 16   8  31  1   
 17   8  32  1   
 18   8  33  1   
 19   9  34  1   
 20   9  35  1   
 21   9  36  1   
 22  10  13  1   
 23  10  37  1   
 24  10  38  1   
 25  11  14  1   
 26  12  15  1   
 27  13  16  ar  
 28  13  17  ar  
 29  14  15  1   
 30  14  39  1   
 31  14  40  1   
 32  15  18  1   
 33  15  41  1   
 34  16  19  ar  
 35  16  42  1   
 36  17  20  ar  
 37  17  43  1   
 38  18  21  1   
 39  18  44  1   
 40  18  45  1   
 41  19  22  ar  
 42  19  46  1   
 43  20  22  ar  
 44  20  47  1   
 45  21  23  ar  
 46  21  24  ar  
 47  22  48  1   
 48  23  25  ar  
 49  23  49  1   
 50  24  26  ar  
 51  24  50  1   
 52  25  27  ar  
 53  25  51  1   
 54  26  27  ar  
 55  26  52  1   
 56  27  53  1   
@<TRIPOS>SUBSTRUCTURE
  1 ****   2 GROUP 4 **** **** 0

# MOE 2024.06 (io_trps.svl 2023.06)
