@<TRIPOS>MOLECULE
NONAME
60 64 1 0 0 
SMALL
USER_CHARGES


@<TRIPOS>ATOM
  1 O        1.1790    -1.7850    -0.5830 O.2   1 <1>  -0.5700 
  2 C        1.1830    -1.5070     0.5940 C.2   1 <1>   0.5690 
  3 N        1.1690    -2.4740     1.5590 N.am  1 <1>  -0.7300 
  4 C        1.2430    -0.0450     0.9990 C.3   1 <1>   0.0440 
  5 C        1.3250    -3.9560     1.4070 C.3   1 <1>   0.2200 
  6 C        2.5200     0.6000     0.4770 C.ar  1 <1>  -0.1440 
  7 C        2.6770    -4.3000     0.7750 C.3   1 <1>   0.3430 
  8 C        0.3140    -4.5350     0.4100 C.3   1 <1>  -0.1600 
  9 C        2.5040     1.2690    -0.7390 C.ar  1 <1>  -0.1500 
 10 C        3.7060     0.5130     1.1930 C.ar  1 <1>  -0.1500 
 11 N        2.4170    -4.1990    -0.6820 N.4   1 <1>  -0.9590 
 12 C        1.0730    -4.7780    -0.9020 C.3   1 <1>   0.3430 
 13 C        3.6560     1.8580    -1.2270 C.ar  1 <1>  -0.1500 
 14 C        4.8620     1.0970     0.7040 C.ar  1 <1>  -0.1500 
 15 C        3.5150    -4.6320    -1.5820 C.3   1 <1>   0.4860 
 16 C        4.8320     1.7860    -0.5020 C.ar  1 <1>   0.0820 
 17 C        4.8230    -4.0870    -1.0370 C.ar  1 <1>  -0.1440 
 18 O        5.9280     2.3910    -1.0060 O.3   1 <1>  -0.3620 
 19 C        5.0910    -2.7230    -1.0560 C.ar  1 <1>  -0.1500 
 20 C        5.7460    -4.9570    -0.4730 C.ar  1 <1>  -0.1500 
 21 C        6.6300     3.3060    -0.1860 C.3   1 <1>   0.1200 
 22 C        6.2630    -2.2340    -0.5050 C.ar  1 <1>  -0.1500 
 23 C        6.9150    -4.4680     0.0800 C.ar  1 <1>  -0.1500 
 24 C        8.1290     3.0630    -0.3330 C.3   1 <1>   0.0960 
 25 C        7.1780    -3.1100     0.0650 C.ar  1 <1>   0.0820 
 26 N        8.4730     1.7010     0.1020 N.pl3 1 <1>   0.3140 
 27 O        8.3290    -2.6920     0.6320 O.3   1 <1>  -0.3620 
 28 N        8.7310     1.3970     1.3760 N.2   1 <1>  -0.4180 
 29 C        8.5830     0.6050    -0.6490 C.2   1 <1>  -0.3020 
 30 C        9.1920    -1.8340    -0.0910 C.3   1 <1>   0.3010 
 31 N        9.0020     0.1400     1.4470 N.2   1 <1>  -0.2270 
 32 C        8.9160    -0.3690     0.2120 C.2   1 <1>   0.0460 
 33 H        1.1270    -2.1600     2.5330 H     1 <1>   0.3700 
 34 H        1.2000     0.0480     2.0680 H     1 <1>   0.0800 
 35 H        0.3850     0.4580     0.5910 H     1 <1>   0.0800 
 36 H        1.2310    -4.4190     2.3750 H     1 <1>   0.0800 
 37 H        2.9570    -5.3090     1.0270 H     1 <1>   0.0800 
 38 H        3.4480    -3.6170     1.0960 H     1 <1>   0.0800 
 39 H       -0.5220    -3.8740     0.2560 H     1 <1>   0.0800 
 40 H       -0.0640    -5.4760     0.7670 H     1 <1>   0.0800 
 41 H        1.5960     1.3340    -1.3140 H     1 <1>   0.1500 
 42 H        3.7440    -0.0100     2.1320 H     1 <1>   0.1500 
 43 H        2.2770    -3.1780    -0.8390 H     1 <1>   0.4500 
 44 H        0.5790    -4.2920    -1.7290 H     1 <1>   0.0800 
 45 H        1.1460    -5.8360    -1.0950 H     1 <1>   0.0800 
 46 H        3.6470     2.3780    -2.1680 H     1 <1>   0.1500 
 47 H        5.7820     1.0110     1.2580 H     1 <1>   0.1500 
 48 H        3.3480    -4.2590    -2.5790 H     1 <1>   0.0800 
 49 H        3.5610    -5.7080    -1.6170 H     1 <1>   0.0800 
 50 H        4.3920    -2.0230    -1.4850 H     1 <1>   0.1500 
 51 H        5.5670    -6.0190    -0.4500 H     1 <1>   0.1500 
 52 H        6.3310     3.1970     0.8420 H     1 <1>   0.0800 
 53 H        6.3740     4.2970    -0.5150 H     1 <1>   0.0800 
 54 H        6.4490    -1.1750    -0.5060 H     1 <1>   0.1500 
 55 H        7.6320    -5.1340     0.5280 H     1 <1>   0.1500 
 56 H        8.6720     3.7600     0.2780 H     1 <1>   0.0800 
 57 H        8.4280     3.1950    -1.3560 H     1 <1>   0.0800 
 58 H        8.4190     0.5900    -1.7100 H     1 <1>   0.1500 
 59 H        9.0820    -2.0370    -1.1410 H     1 <1>   0.0800 
 60 H       10.1970    -2.0710     0.2060 H     1 <1>   0.0800 
@<TRIPOS>BOND
  1   1   2  2   
  2   2   3  am  
  3   2   4  1   
  4   3   5  1   
  5   3  33  1   
  6   4   6  1   
  7   4  34  1   
  8   4  35  1   
  9   5   7  1   
 10   5   8  1   
 11   5  36  1   
 12   6   9  ar  
 13   6  10  ar  
 14   7  11  1   
 15   7  37  1   
 16   7  38  1   
 17   8  12  1   
 18   8  39  1   
 19   8  40  1   
 20   9  13  ar  
 21   9  41  1   
 22  10  14  ar  
 23  10  42  1   
 24  11  12  1   
 25  11  15  1   
 26  11  43  1   
 27  12  44  1   
 28  12  45  1   
 29  13  16  ar  
 30  13  46  1   
 31  14  16  ar  
 32  14  47  1   
 33  15  17  1   
 34  15  48  1   
 35  15  49  1   
 36  16  18  1   
 37  17  19  ar  
 38  17  20  ar  
 39  18  21  1   
 40  19  22  ar  
 41  19  50  1   
 42  20  23  ar  
 43  20  51  1   
 44  21  24  1   
 45  21  52  1   
 46  21  53  1   
 47  22  25  ar  
 48  22  54  1   
 49  23  25  ar  
 50  23  55  1   
 51  24  26  1   
 52  24  56  1   
 53  24  57  1   
 54  25  27  1   
 55  26  28  1   
 56  26  29  1   
 57  27  30  1   
 58  28  31  2   
 59  29  32  2   
 60  29  58  1   
 61  30  32  1   
 62  30  59  1   
 63  30  60  1   
 64  31  32  1   
@<TRIPOS>SUBSTRUCTURE
  1 ****  22 GROUP 4 **** **** 0

# MOE 2024.06 (io_trps.svl 2023.06)
