@<TRIPOS>MOLECULE
NONAME
51 54 1 0 0 
SMALL
USER_CHARGES


@<TRIPOS>ATOM
  1 S       -2.1250    -0.0980    -1.6730 S.3   1 <1>  -0.0800 
  2 C       -1.9460     0.1030     0.0650 C.2   1 <1>  -0.1400 
  3 C       -0.4900     0.4720    -1.9520 C.2   1 <1>  -0.1100 
  4 C       -0.7200     0.5720     0.3600 C.2   1 <1>  -0.1500 
  5 C       -3.1310    -0.2540     0.9410 C.3   1 <1>   0.0200 
  6 C        0.1100     0.7810    -0.7880 C.2   1 <1>  -0.1500 
  7 C       -3.3450    -1.7720     0.9740 C.3   1 <1>  -0.1600 
  8 C       -4.5730    -2.1590     1.8130 C.3   1 <1>  -0.0990 
  9 C       -4.7770    -3.6640     1.8650 C.2   1 <1>   0.5690 
 10 O       -4.4130    -4.2490     2.8560 O.2   1 <1>  -0.5700 
 11 N       -5.3520    -4.3300     0.8180 N.am  1 <1>  -0.6600 
 12 C       -5.8460    -3.7550    -0.4600 C.3   1 <1>   0.1400 
 13 C       -5.5250    -5.8040     0.8190 C.3   1 <1>   0.1400 
 14 C       -6.7310    -4.8520    -1.0470 C.3   1 <1>   0.2000 
 15 C       -6.0580    -6.1490    -0.5790 C.3   1 <1>  -0.0800 
 16 O       -7.9880    -4.7420    -0.4690 O.3   1 <1>  -0.6800 
 17 C       -6.9680    -7.3950    -0.6180 C.3   1 <1>  -0.0170 
 18 C       -6.3070    -8.7440    -0.3080 C.ar  1 <1>  -0.1430 
 19 C       -7.1130    -9.8990    -0.1470 C.ar  1 <1>   0.0000 
 20 C       -4.9550    -8.9140    -0.1860 C.ar  1 <1>  -0.1500 
 21 C       -6.4700   -11.1250     0.1520 C.ar  1 <1>   0.3100 
 22 C       -8.5240    -9.9100    -0.2700 C.ar  1 <1>  -0.1500 
 23 C       -4.4200   -10.1740     0.1080 C.ar  1 <1>   0.1600 
 24 N       -5.1260   -11.2460     0.2770 N.ar  1 <1>  -0.6200 
 25 C       -7.2490   -12.2810     0.3250 C.ar  1 <1>  -0.1500 
 26 C       -9.2540   -11.0550    -0.0980 C.ar  1 <1>  -0.1500 
 27 C       -8.6110   -12.2570     0.2060 C.ar  1 <1>  -0.1500 
 28 H       -0.1470     0.5140    -2.9700 H     1 <1>   0.1500 
 29 H       -0.3530     0.7850     1.3490 H     1 <1>   0.1500 
 30 H       -2.9510     0.1050     1.9390 H     1 <1>   0.0800 
 31 H       -4.0090     0.2390     0.5610 H     1 <1>   0.0800 
 32 H        1.1140     1.1520    -0.6810 H     1 <1>   0.1500 
 33 H       -3.4650    -2.1360    -0.0310 H     1 <1>   0.0800 
 34 H       -2.4690    -2.2420     1.3890 H     1 <1>   0.0800 
 35 H       -5.4580    -1.6910     1.4250 H     1 <1>   0.0800 
 36 H       -4.4390    -1.8070     2.8210 H     1 <1>   0.0800 
 37 H       -6.3950    -2.8410    -0.3140 H     1 <1>   0.0800 
 38 H       -5.0090    -3.5770    -1.1120 H     1 <1>   0.0800 
 39 H       -4.5870    -6.2900     1.0270 H     1 <1>   0.0800 
 40 H       -6.2360    -6.0720     1.5820 H     1 <1>   0.0800 
 41 H       -6.8380    -4.7850    -2.1160 H     1 <1>   0.0800 
 42 H       -5.2170    -6.3120    -1.2290 H     1 <1>   0.0800 
 43 H       -7.8810    -4.6650     0.5010 H     1 <1>   0.4000 
 44 H       -7.4120    -7.4600    -1.5970 H     1 <1>   0.0800 
 45 H       -7.7670    -7.2460     0.0870 H     1 <1>   0.0800 
 46 H       -4.2520    -8.1140    -0.3060 H     1 <1>   0.1500 
 47 H       -9.0440    -9.0020    -0.5090 H     1 <1>   0.1500 
 48 H       -3.3510   -10.2560     0.2000 H     1 <1>   0.1500 
 49 H       -6.7310   -13.1940     0.5550 H     1 <1>   0.1500 
 50 H      -10.3260   -11.0460    -0.1940 H     1 <1>   0.1500 
 51 H       -9.1950   -13.1510     0.3400 H     1 <1>   0.1500 
@<TRIPOS>BOND
  1   1   2  1   
  2   1   3  1   
  3   2   4  2   
  4   2   5  1   
  5   3   6  2   
  6   3  28  1   
  7   4   6  1   
  8   4  29  1   
  9   5   7  1   
 10   5  30  1   
 11   5  31  1   
 12   6  32  1   
 13   7   8  1   
 14   7  33  1   
 15   7  34  1   
 16   8   9  1   
 17   8  35  1   
 18   8  36  1   
 19   9  10  2   
 20   9  11  am  
 21  11  12  1   
 22  11  13  1   
 23  12  14  1   
 24  12  37  1   
 25  12  38  1   
 26  13  15  1   
 27  13  39  1   
 28  13  40  1   
 29  14  15  1   
 30  14  16  1   
 31  14  41  1   
 32  15  17  1   
 33  15  42  1   
 34  16  43  1   
 35  17  18  1   
 36  17  44  1   
 37  17  45  1   
 38  18  19  ar  
 39  18  20  ar  
 40  19  21  ar  
 41  19  22  ar  
 42  20  23  ar  
 43  20  46  1   
 44  21  24  ar  
 45  21  25  ar  
 46  22  26  ar  
 47  22  47  1   
 48  23  24  ar  
 49  23  48  1   
 50  25  27  ar  
 51  25  49  1   
 52  26  27  ar  
 53  26  50  1   
 54  27  51  1   
@<TRIPOS>SUBSTRUCTURE
  1 ****  13 GROUP 4 **** **** 0

# MOE 2024.06 (io_trps.svl 2023.06)
