@<TRIPOS>MOLECULE
NONAME
45 48 1 0 0 
SMALL
USER_CHARGES


@<TRIPOS>ATOM
  1 O       -0.4950     0.5390     1.8900 O.3   1 <1>  -0.5600 
  2 C        0.3460     0.3440     0.8040 C.3   1 <1>   0.1200 
  3 C       -1.7580     0.9190     1.4260 C.3   1 <1>   0.1200 
  4 C       -0.0100     1.5120    -0.1080 C.3   1 <1>   0.4230 
  5 C       -1.5290     1.5280     0.0300 C.3   1 <1>  -0.0800 
  6 N        0.5180     2.7620     0.4980 N.4   1 <1>  -0.9060 
  7 C       -2.2140     0.7070    -1.0800 C.3   1 <1>  -0.0170 
  8 C        1.9670     3.0440     0.3180 C.3   1 <1>   0.4230 
  9 C       -3.7260     0.7650    -0.9390 C.ar  1 <1>  -0.1440 
 10 C        2.2760     4.3140     1.1290 C.3   1 <1>  -0.0170 
 11 C        2.2100     3.4710    -1.1420 C.3   1 <1>  -0.0170 
 12 C       -4.4480     1.8830    -1.3090 C.ar  1 <1>  -0.1500 
 13 C       -4.4580    -0.2920    -0.4340 C.ar  1 <1>  -0.1500 
 14 C        1.8210     5.3970     0.1800 C.ar  1 <1>  -0.1440 
 15 C        1.7850     4.9190    -1.1090 C.ar  1 <1>  -0.1440 
 16 C       -5.8240     1.8940    -1.1510 C.ar  1 <1>   0.1600 
 17 C       -5.8330    -0.1790    -0.3170 C.ar  1 <1>   0.1600 
 18 C        1.4610     6.7000     0.4620 C.ar  1 <1>  -0.1500 
 19 C        1.3900     5.7300    -2.1550 C.ar  1 <1>  -0.1500 
 20 N       -6.5310     0.8910    -0.6590 N.ar  1 <1>  -0.6200 
 21 C        1.0590     7.5200    -0.5800 C.ar  1 <1>  -0.1500 
 22 C        1.0240     7.0380    -1.8810 C.ar  1 <1>  -0.1500 
 23 H        1.3700     0.3420     1.1330 H     1 <1>   0.0800 
 24 H        0.1040    -0.6030     0.3530 H     1 <1>   0.0800 
 25 H       -2.3830     0.0430     1.3990 H     1 <1>   0.0800 
 26 H       -2.1770     1.6310     2.1180 H     1 <1>   0.0800 
 27 H        0.3220     1.3820    -1.1250 H     1 <1>   0.0800 
 28 H       -1.9200     2.5310    -0.0090 H     1 <1>   0.0800 
 29 H        0.0160     3.5870     0.1410 H     1 <1>   0.4500 
 30 H        0.3030     2.6900     1.5040 H     1 <1>   0.4500 
 31 H       -1.8910    -0.3200    -1.0510 H     1 <1>   0.0800 
 32 H       -1.9480     1.1020    -2.0460 H     1 <1>   0.0800 
 33 H        2.5750     2.2060     0.6210 H     1 <1>   0.0800 
 34 H        1.7700     4.3480     2.0770 H     1 <1>   0.0800 
 35 H        3.3370     4.4080     1.2860 H     1 <1>   0.0800 
 36 H        3.2600     3.4230    -1.3730 H     1 <1>   0.0800 
 37 H        1.6610     2.8960    -1.8640 H     1 <1>   0.0800 
 38 H       -3.9630     2.7480    -1.7230 H     1 <1>   0.1500 
 39 H       -3.9810    -1.2060    -0.1310 H     1 <1>   0.1500 
 40 H       -6.3720     2.7730    -1.4450 H     1 <1>   0.1500 
 41 H       -6.3890    -1.0120     0.0790 H     1 <1>   0.1500 
 42 H        1.4930     7.0810     1.4690 H     1 <1>   0.1500 
 43 H        1.3670     5.3640    -3.1680 H     1 <1>   0.1500 
 44 H        0.7760     8.5400    -0.3810 H     1 <1>   0.1500 
 45 H        0.7150     7.6890    -2.6820 H     1 <1>   0.1500 
@<TRIPOS>BOND
  1   1   2  1   
  2   1   3  1   
  3   2   4  1   
  4   2  23  1   
  5   2  24  1   
  6   3   5  1   
  7   3  25  1   
  8   3  26  1   
  9   4   5  1   
 10   4   6  1   
 11   4  27  1   
 12   5   7  1   
 13   5  28  1   
 14   6   8  1   
 15   6  29  1   
 16   6  30  1   
 17   7   9  1   
 18   7  31  1   
 19   7  32  1   
 20   8  10  1   
 21   8  11  1   
 22   8  33  1   
 23   9  12  ar  
 24   9  13  ar  
 25  10  14  1   
 26  10  34  1   
 27  10  35  1   
 28  11  15  1   
 29  11  36  1   
 30  11  37  1   
 31  12  16  ar  
 32  12  38  1   
 33  13  17  ar  
 34  13  39  1   
 35  14  15  ar  
 36  14  18  ar  
 37  15  19  ar  
 38  16  20  ar  
 39  16  40  1   
 40  17  20  ar  
 41  17  41  1   
 42  18  21  ar  
 43  18  42  1   
 44  19  22  ar  
 45  19  43  1   
 46  21  22  ar  
 47  21  44  1   
 48  22  45  1   
@<TRIPOS>SUBSTRUCTURE
  1 ****   5 GROUP 4 **** **** 0

# MOE 2024.06 (io_trps.svl 2023.06)
