@<TRIPOS>MOLECULE
NONAME
50 52 1 0 0 
SMALL
USER_CHARGES


@<TRIPOS>ATOM
  1 N        0.9930    -0.7450    -1.6150 N.ar  1 <1>  -0.6200 
  2 C        1.2840    -0.6130    -0.3240 C.ar  1 <1>   0.4100 
  3 C       -0.2490    -1.1240    -1.8360 C.ar  1 <1>   0.1660 
  4 N        2.5780    -0.1730    -0.0460 N.pl3 1 <1>  -0.8380 
  5 C        0.3350    -0.8940     0.6910 C.ar  1 <1>   0.1660 
  6 C       -1.1740    -1.3660    -0.8290 C.ar  1 <1>   0.1600 
  7 C       -0.6350    -1.2880    -3.2920 C.3   1 <1>  -0.0960 
  8 C        2.8390     1.1380     0.6110 C.3   1 <1>   0.4330 
  9 C        3.7030    -0.5220    -0.9470 C.3   1 <1>   0.2090 
 10 N       -0.9130    -1.2580     0.4630 N.ar  1 <1>  -0.6200 
 11 C        0.7020    -0.8140     2.1630 C.3   1 <1>  -0.0960 
 12 C        1.7040     2.1580     0.4690 C.ar  1 <1>  -0.1440 
 13 C        4.1430     1.6400    -0.0080 C.3   1 <1>  -0.1600 
 14 C        4.8460     0.3830    -0.5090 C.3   1 <1>  -0.1600 
 15 C        1.2110     2.8080     1.5910 C.ar  1 <1>  -0.1500 
 16 C        1.1440     2.4460    -0.7670 C.ar  1 <1>  -0.1500 
 17 C        0.1740     3.7170     1.4820 C.ar  1 <1>  -0.1500 
 18 C        0.1060     3.3510    -0.8830 C.ar  1 <1>  -0.1500 
 19 C       -0.3850     3.9950     0.2430 C.ar  1 <1>  -0.1440 
 20 C       -1.5230     4.9860     0.1180 C.3   1 <1>   0.4860 
 21 N       -0.9980     6.2340    -0.5070 N.4   1 <1>  -0.9590 
 22 C        0.0030     6.9100     0.3770 C.3   1 <1>   0.2630 
 23 C       -2.1020     7.1620    -0.8940 C.3   1 <1>   0.2630 
 24 H       -2.1710    -1.6660    -1.0950 H     1 <1>   0.1500 
 25 H       -0.4820    -0.3590    -3.8110 H     1 <1>   0.0800 
 26 H       -1.6650    -1.5770    -3.3920 H     1 <1>   0.0800 
 27 H       -0.0150    -2.0410    -3.7430 H     1 <1>   0.0800 
 28 H        3.0160     0.9430     1.6540 H     1 <1>   0.0800 
 29 H        3.4380    -0.3060    -1.9690 H     1 <1>   0.0800 
 30 H        3.9570    -1.5640    -0.8530 H     1 <1>   0.0800 
 31 H        1.7450    -1.0220     2.3090 H     1 <1>   0.0800 
 32 H        0.1370    -1.5390     2.7200 H     1 <1>   0.0800 
 33 H        0.4710     0.1630     2.5390 H     1 <1>   0.0800 
 34 H        4.7340     2.1830     0.7060 H     1 <1>   0.0800 
 35 H        3.9250     2.2840    -0.8410 H     1 <1>   0.0800 
 36 H        5.5260     0.5840    -1.3170 H     1 <1>   0.0800 
 37 H        5.3790    -0.0920     0.2950 H     1 <1>   0.0800 
 38 H        1.6310     2.6000     2.5610 H     1 <1>   0.1500 
 39 H        1.5140     1.9400    -1.6450 H     1 <1>   0.1500 
 40 H       -0.1930     4.1940     2.3750 H     1 <1>   0.1500 
 41 H       -0.3120     3.5290    -1.8580 H     1 <1>   0.1500 
 42 H       -1.9380     5.1970     1.0900 H     1 <1>   0.0800 
 43 H       -2.2960     4.5570    -0.4990 H     1 <1>   0.0800 
 44 H       -0.4970     5.9270    -1.3540 H     1 <1>   0.4500 
 45 H       -0.4550     7.2100     1.3050 H     1 <1>   0.0800 
 46 H        0.4030     7.7850    -0.1100 H     1 <1>   0.0800 
 47 H        0.8200     6.2410     0.5970 H     1 <1>   0.0800 
 48 H       -2.6460     7.4850    -0.0210 H     1 <1>   0.0800 
 49 H       -2.7870     6.6700    -1.5660 H     1 <1>   0.0800 
 50 H       -1.7020     8.0310    -1.3910 H     1 <1>   0.0800 
@<TRIPOS>BOND
  1   1   2  ar  
  2   1   3  ar  
  3   2   4  1   
  4   2   5  ar  
  5   3   6  ar  
  6   3   7  1   
  7   4   8  1   
  8   4   9  1   
  9   5  10  ar  
 10   5  11  1   
 11   6  10  ar  
 12   6  24  1   
 13   7  25  1   
 14   7  26  1   
 15   7  27  1   
 16   8  12  1   
 17   8  13  1   
 18   8  28  1   
 19   9  14  1   
 20   9  29  1   
 21   9  30  1   
 22  11  31  1   
 23  11  32  1   
 24  11  33  1   
 25  12  15  ar  
 26  12  16  ar  
 27  13  14  1   
 28  13  34  1   
 29  13  35  1   
 30  14  36  1   
 31  14  37  1   
 32  15  17  ar  
 33  15  38  1   
 34  16  18  ar  
 35  16  39  1   
 36  17  19  ar  
 37  17  40  1   
 38  18  19  ar  
 39  18  41  1   
 40  19  20  1   
 41  20  21  1   
 42  20  42  1   
 43  20  43  1   
 44  21  22  1   
 45  21  23  1   
 46  21  44  1   
 47  22  45  1   
 48  22  46  1   
 49  22  47  1   
 50  23  48  1   
 51  23  49  1   
 52  23  50  1   
@<TRIPOS>SUBSTRUCTURE
  1 ****  16 GROUP 4 **** **** 0

# MOE 2024.06 (io_trps.svl 2023.06)
