@<TRIPOS>MOLECULE
NONAME
48 49 1 0 0 
SMALL
USER_CHARGES


@<TRIPOS>ATOM
  1 S        1.7500     0.2590    -1.6970 S.o2  1 <1>   1.3330 
  2 O        2.0930    -1.1350    -1.8720 O.2   1 <1>  -0.6500 
  3 O        1.6750     1.1250    -2.8520 O.2   1 <1>  -0.6500 
  4 N        0.2380     0.3270    -0.9230 N.am  1 <1>  -0.8490 
  5 C        2.8840     0.9640    -0.5020 C.3   1 <1>  -0.0550 
  6 C       -0.6960    -0.6680    -1.4570 C.3   1 <1>   0.1160 
  7 C       -0.3770     1.6580    -0.9680 C.3   1 <1>   0.1160 
  8 C        3.0950     0.1070     0.7650 C.3   1 <1>  -0.0800 
  9 C        4.1710     0.6220     1.7060 C.3   1 <1>   0.2890 
 10 C        1.8760    -0.0080     1.6860 C.3   1 <1>   0.1200 
 11 N        4.0650     2.0980     1.8670 N.pl3 1 <1>  -0.8690 
 12 C        3.7550    -0.0550     3.0050 C.3   1 <1>   0.1200 
 13 O        2.3580    -0.0610     2.9980 O.3   1 <1>  -0.5600 
 14 C        4.9110     3.0220     1.2830 C.ar  1 <1>   0.4100 
 15 N        5.6910     2.5470     0.3190 N.ar  1 <1>  -0.6200 
 16 C        4.9110     4.3670     1.6800 C.ar  1 <1>   0.0730 
 17 C        6.4960     3.4010    -0.2900 C.ar  1 <1>   0.1670 
 18 C        4.0460     4.8170     2.7240 C.1   1 <1>   0.4840 
 19 C        5.7600     5.2460     1.0380 C.ar  1 <1>  -0.1500 
 20 C        6.5620     4.7470     0.0350 C.ar  1 <1>  -0.1500 
 21 C        7.3740     2.8280    -1.4050 C.3   1 <1>   0.0630 
 22 N        3.3480     5.1720     3.5540 N.1   1 <1>  -0.5570 
 23 C        8.8680     3.0470    -1.1280 C.3   1 <1>  -0.2400 
 24 C        6.9840     3.4080    -2.7710 C.3   1 <1>  -0.2400 
 25 H        3.8370     1.0830    -0.9800 H     1 <1>   0.0800 
 26 H        2.5480     1.9440    -0.2260 H     1 <1>   0.0800 
 27 H       -1.6380    -0.6120    -0.9390 H     1 <1>   0.0800 
 28 H       -0.2970    -1.6600    -1.3200 H     1 <1>   0.0800 
 29 H       -0.8580    -0.5030    -2.5100 H     1 <1>   0.0800 
 30 H       -1.2870     1.6630    -0.3930 H     1 <1>   0.0800 
 31 H       -0.6030     1.9360    -1.9840 H     1 <1>   0.0800 
 32 H        0.2910     2.3910    -0.5500 H     1 <1>   0.0800 
 33 H        3.3700    -0.8880     0.4620 H     1 <1>   0.0800 
 34 H        5.1640     0.3330     1.4050 H     1 <1>   0.0800 
 35 H        1.3000    -0.8950     1.4840 H     1 <1>   0.0800 
 36 H        1.2430     0.8590     1.6110 H     1 <1>   0.0800 
 37 H        3.4160     2.3800     2.6110 H     1 <1>   0.4000 
 38 H        4.1130     0.4610     3.8780 H     1 <1>   0.0800 
 39 H        4.0860    -1.0790     3.0210 H     1 <1>   0.0800 
 40 H        5.7950     6.2880     1.3070 H     1 <1>   0.1500 
 41 H        7.2320     5.4010    -0.4930 H     1 <1>   0.1500 
 42 H        7.2060     1.7640    -1.4440 H     1 <1>   0.0800 
 43 H        9.1160     4.0920    -1.1380 H     1 <1>   0.0800 
 44 H        9.4590     2.5470    -1.8740 H     1 <1>   0.0800 
 45 H        9.1230     2.6410    -0.1650 H     1 <1>   0.0800 
 46 H        7.1630     4.4670    -2.8050 H     1 <1>   0.0800 
 47 H        5.9390     3.2290    -2.9570 H     1 <1>   0.0800 
 48 H        7.5530     2.9360    -3.5520 H     1 <1>   0.0800 
@<TRIPOS>BOND
  1   1   2  2   
  2   1   3  2   
  3   1   4  am  
  4   1   5  1   
  5   4   6  1   
  6   4   7  1   
  7   5   8  1   
  8   5  25  1   
  9   5  26  1   
 10   6  27  1   
 11   6  28  1   
 12   6  29  1   
 13   7  30  1   
 14   7  31  1   
 15   7  32  1   
 16   8   9  1   
 17   8  10  1   
 18   8  33  1   
 19   9  11  1   
 20   9  12  1   
 21   9  34  1   
 22  10  13  1   
 23  10  35  1   
 24  10  36  1   
 25  11  14  1   
 26  11  37  1   
 27  12  13  1   
 28  12  38  1   
 29  12  39  1   
 30  14  15  ar  
 31  14  16  ar  
 32  15  17  ar  
 33  16  18  1   
 34  16  19  ar  
 35  17  20  ar  
 36  17  21  1   
 37  18  22  3   
 38  19  20  ar  
 39  19  40  1   
 40  20  41  1   
 41  21  23  1   
 42  21  24  1   
 43  21  42  1   
 44  23  43  1   
 45  23  44  1   
 46  23  45  1   
 47  24  46  1   
 48  24  47  1   
 49  24  48  1   
@<TRIPOS>SUBSTRUCTURE
  1 ****   5 GROUP 4 **** **** 0

# MOE 2024.06 (io_trps.svl 2023.06)
