@<TRIPOS>MOLECULE
NONAME
57 59 1 0 0 
SMALL
USER_CHARGES


@<TRIPOS>ATOM
  1 O       -1.0260     0.5350     0.3280 O.2   1 <1>  -0.5700 
  2 C       -0.7380     1.6500     0.6960 C.2   1 <1>   0.5690 
  3 N       -1.5760     2.7320     0.5520 N.am  1 <1>  -0.6600 
  4 C        0.6440     1.8260     1.3340 C.3   1 <1>   0.1810 
  5 C       -1.1570     4.0790     1.0720 C.3   1 <1>   0.3640 
  6 C       -3.0080     2.6320     0.1430 C.3   1 <1>   0.2200 
  7 O        0.7590     2.9870     2.1200 O.3   1 <1>  -0.5600 
  8 C       -1.4400     5.1790     0.0450 C.ar  1 <1>  -0.1440 
  9 C        0.3400     4.1510     1.4430 C.3   1 <1>   0.2610 
 10 C       -3.7900     1.7770     1.1400 C.3   1 <1>  -0.2400 
 11 C       -3.1390     2.1090    -1.2870 C.3   1 <1>  -0.2400 
 12 C       -2.1080     6.3310     0.4350 C.ar  1 <1>  -0.1500 
 13 C       -1.0150     5.0590    -1.2720 C.ar  1 <1>  -0.1500 
 14 C        0.6350     5.4230     2.2590 C.2   1 <1>   0.5690 
 15 C       -2.3490     7.3450    -0.4750 C.ar  1 <1>  -0.1500 
 16 C       -1.2530     6.0730    -2.1820 C.ar  1 <1>  -0.1500 
 17 O       -0.1840     5.7840     3.0780 O.2   1 <1>  -0.5700 
 18 N        1.7820     6.1550     2.0440 N.am  1 <1>  -0.6600 
 19 C       -1.9200     7.2180    -1.7840 C.ar  1 <1>  -0.1500 
 20 C        1.9880     7.4680     2.7230 C.3   1 <1>   0.2840 
 21 C        2.8890     5.7110     1.1460 C.3   1 <1>   0.1400 
 22 C        2.0780     8.5800     1.6890 C.ar  1 <1>  -0.1440 
 23 C        2.6270     6.1340    -0.3080 C.3   1 <1>   0.1200 
 24 C        3.2430     9.3170     1.5370 C.ar  1 <1>  -0.1500 
 25 C        0.9880     8.8570     0.8770 C.ar  1 <1>  -0.1500 
 26 O        3.3240     5.2890    -1.1600 O.3   1 <1>  -0.6800 
 27 C        3.3180    10.3150     0.5800 C.ar  1 <1>  -0.1500 
 28 C        1.0620     9.8520    -0.0810 C.ar  1 <1>  -0.1500 
 29 C        2.2280    10.5820    -0.2300 C.ar  1 <1>  -0.1500 
 30 H        1.3910     1.8630     0.5620 H     1 <1>   0.0800 
 31 H        0.8480     0.9840     1.9700 H     1 <1>   0.0800 
 32 H       -1.7370     4.2710     1.9590 H     1 <1>   0.0800 
 33 H       -3.4460     3.6160     0.1610 H     1 <1>   0.0800 
 34 H        0.8940     4.1940     0.5270 H     1 <1>   0.0800 
 35 H       -3.4620     0.7540     1.1100 H     1 <1>   0.0800 
 36 H       -4.8360     1.8000     0.8960 H     1 <1>   0.0800 
 37 H       -3.6640     2.1610     2.1360 H     1 <1>   0.0800 
 38 H       -2.8080     1.0890    -1.3610 H     1 <1>   0.0800 
 39 H       -2.5650     2.7180    -1.9600 H     1 <1>   0.0800 
 40 H       -4.1680     2.1480    -1.5930 H     1 <1>   0.0800 
 41 H       -2.4390     6.4480     1.4540 H     1 <1>   0.1500 
 42 H       -0.4970     4.1720    -1.5970 H     1 <1>   0.1500 
 43 H       -2.8690     8.2350    -0.1630 H     1 <1>   0.1500 
 44 H       -0.9180     5.9710    -3.2000 H     1 <1>   0.1500 
 45 H       -2.1060     8.0070    -2.4920 H     1 <1>   0.1500 
 46 H        1.1770     7.6860     3.3970 H     1 <1>   0.0800 
 47 H        2.8900     7.4240     3.3080 H     1 <1>   0.0800 
 48 H        3.8190     6.1340     1.4820 H     1 <1>   0.0800 
 49 H        2.9750     4.6390     1.2020 H     1 <1>   0.0800 
 50 H        2.9470     7.1460    -0.4880 H     1 <1>   0.0800 
 51 H        1.5830     6.0470    -0.5500 H     1 <1>   0.0800 
 52 H        4.0970     9.1210     2.1610 H     1 <1>   0.1500 
 53 H        0.0790     8.2900     0.9870 H     1 <1>   0.1500 
 54 H        4.2700     5.5310    -1.1940 H     1 <1>   0.4000 
 55 H        4.2230    10.8860     0.4660 H     1 <1>   0.1500 
 56 H        0.2120    10.0570    -0.7090 H     1 <1>   0.1500 
 57 H        2.2860    11.3580    -0.9740 H     1 <1>   0.1500 
@<TRIPOS>BOND
  1   1   2  2   
  2   2   3  am  
  3   2   4  1   
  4   3   5  1   
  5   3   6  1   
  6   4   7  1   
  7   4  30  1   
  8   4  31  1   
  9   5   8  1   
 10   5   9  1   
 11   5  32  1   
 12   6  10  1   
 13   6  11  1   
 14   6  33  1   
 15   7   9  1   
 16   8  12  ar  
 17   8  13  ar  
 18   9  14  1   
 19   9  34  1   
 20  10  35  1   
 21  10  36  1   
 22  10  37  1   
 23  11  38  1   
 24  11  39  1   
 25  11  40  1   
 26  12  15  ar  
 27  12  41  1   
 28  13  16  ar  
 29  13  42  1   
 30  14  17  2   
 31  14  18  am  
 32  15  19  ar  
 33  15  43  1   
 34  16  19  ar  
 35  16  44  1   
 36  18  20  1   
 37  18  21  1   
 38  19  45  1   
 39  20  22  1   
 40  20  46  1   
 41  20  47  1   
 42  21  23  1   
 43  21  48  1   
 44  21  49  1   
 45  22  24  ar  
 46  22  25  ar  
 47  23  26  1   
 48  23  50  1   
 49  23  51  1   
 50  24  27  ar  
 51  24  52  1   
 52  25  28  ar  
 53  25  53  1   
 54  26  54  1   
 55  27  29  ar  
 56  27  55  1   
 57  28  29  ar  
 58  28  56  1   
 59  29  57  1   
@<TRIPOS>SUBSTRUCTURE
  1 ****   9 GROUP 4 **** **** 0

# MOE 2024.06 (io_trps.svl 2023.06)
