@<TRIPOS>MOLECULE
NONAME
54 57 1 0 0 
SMALL
USER_CHARGES


@<TRIPOS>ATOM
  1 O        0.2650     0.7940    -0.7390 O.2   1 <1>  -0.5700 
  2 C        0.2410     1.9440    -0.3810 C.2   1 <1>   0.5690 
  3 N       -0.8720     2.4710     0.1730 N.am  1 <1>  -0.7300 
  4 C        1.4680     2.8370    -0.5890 C.3   1 <1>   0.1810 
  5 C       -0.9740     3.8750     0.6400 C.3   1 <1>   0.3640 
  6 O        1.4380     4.0160     0.1870 O.3   1 <1>  -0.5600 
  7 C       -2.2970     4.4620     0.1500 C.ar  1 <1>  -0.1440 
  8 C        0.2140     4.7360     0.1380 C.3   1 <1>   0.2610 
  9 C       -3.0560     5.2500     1.0040 C.ar  1 <1>  -0.1500 
 10 C       -2.7570     4.2380    -1.1430 C.ar  1 <1>  -0.1500 
 11 C        0.3280     6.0590     0.9140 C.2   1 <1>   0.5690 
 12 C       -4.2500     5.8040     0.5770 C.ar  1 <1>  -0.1500 
 13 C       -3.9510     4.7910    -1.5710 C.ar  1 <1>  -0.1500 
 14 O       -0.1500     6.1120     2.0280 O.2   1 <1>  -0.5700 
 15 N        0.9440     7.1540     0.3480 N.am  1 <1>  -0.5090 
 16 C       -4.6990     5.5750    -0.7110 C.ar  1 <1>  -0.1500 
 17 C        0.9040     8.4830     1.0040 C.3   1 <1>   0.0490 
 18 C        1.8930     7.0730    -0.7980 C.3   1 <1>   0.2840 
 19 C       -0.4200     9.0980     1.3350 C.3   1 <1>  -0.2000 
 20 C        0.4040     9.6560     0.2200 C.3   1 <1>  -0.2000 
 21 C        3.3150     7.3620    -0.3420 C.ar  1 <1>  -0.1430 
 22 C        3.9680     8.5130    -0.7540 C.ar  1 <1>  -0.1500 
 23 C        3.9750     6.4720     0.4920 C.ar  1 <1>  -0.1500 
 24 C        5.2640     8.7680    -0.3410 C.ar  1 <1>  -0.1500 
 25 C        5.2710     6.7280     0.9040 C.ar  1 <1>  -0.1500 
 26 C        5.9240     7.8780     0.4910 C.ar  1 <1>  -0.1430 
 27 C        7.3470     8.1580     0.9450 C.3   1 <1>  -0.0170 
 28 C        8.3530     7.5600    -0.0410 C.3   1 <1>  -0.2400 
 29 H       -1.6900     1.8740     0.3100 H     1 <1>   0.3700 
 30 H        1.5360     3.1130    -1.6250 H     1 <1>   0.0800 
 31 H        2.3530     2.2910    -0.3180 H     1 <1>   0.0800 
 32 H       -0.9710     3.8570     1.7170 H     1 <1>   0.0800 
 33 H        0.0270     4.9780    -0.8910 H     1 <1>   0.0800 
 34 H       -2.7190     5.4440     2.0100 H     1 <1>   0.1500 
 35 H       -2.1910     3.6290    -1.8270 H     1 <1>   0.1500 
 36 H       -4.8280     6.4150     1.2480 H     1 <1>   0.1500 
 37 H       -4.3010     4.6100    -2.5720 H     1 <1>   0.1500 
 38 H       -5.6280     6.0050    -1.0420 H     1 <1>   0.1500 
 39 H        1.7210     8.6280     1.6930 H     1 <1>   0.1000 
 40 H        1.8750     6.1020    -1.2540 H     1 <1>   0.0800 
 41 H        1.5960     7.7860    -1.5470 H     1 <1>   0.0800 
 42 H       -1.3120     8.5410     1.1090 H     1 <1>   0.1000 
 43 H       -0.5040     9.6610     2.2480 H     1 <1>   0.1000 
 44 H        0.8730    10.6130     0.3670 H     1 <1>   0.1000 
 45 H        0.0460     9.5180    -0.7840 H     1 <1>   0.1000 
 46 H        3.4720     9.2200    -1.3960 H     1 <1>   0.1500 
 47 H        3.4810     5.5770     0.8280 H     1 <1>   0.1500 
 48 H        5.7600     9.6650    -0.6700 H     1 <1>   0.1500 
 49 H        5.7680     6.0270     1.5500 H     1 <1>   0.1500 
 50 H        7.5010     9.2200     1.0200 H     1 <1>   0.0800 
 51 H        7.5050     7.7360     1.9220 H     1 <1>   0.0800 
 52 H        8.2150     7.9900    -1.0180 H     1 <1>   0.0800 
 53 H        8.2140     6.4960    -0.1120 H     1 <1>   0.0800 
 54 H        9.3570     7.7580     0.2870 H     1 <1>   0.0800 
@<TRIPOS>BOND
  1   1   2  2   
  2   2   3  am  
  3   2   4  1   
  4   3   5  1   
  5   3  29  1   
  6   4   6  1   
  7   4  30  1   
  8   4  31  1   
  9   5   7  1   
 10   5   8  1   
 11   5  32  1   
 12   6   8  1   
 13   7   9  ar  
 14   7  10  ar  
 15   8  11  1   
 16   8  33  1   
 17   9  12  ar  
 18   9  34  1   
 19  10  13  ar  
 20  10  35  1   
 21  11  14  2   
 22  11  15  am  
 23  12  16  ar  
 24  12  36  1   
 25  13  16  ar  
 26  13  37  1   
 27  15  17  1   
 28  15  18  1   
 29  16  38  1   
 30  17  19  1   
 31  17  20  1   
 32  17  39  1   
 33  18  21  1   
 34  18  40  1   
 35  18  41  1   
 36  19  20  1   
 37  19  42  1   
 38  19  43  1   
 39  20  44  1   
 40  20  45  1   
 41  21  22  ar  
 42  21  23  ar  
 43  22  24  ar  
 44  22  46  1   
 45  23  25  ar  
 46  23  47  1   
 47  24  26  ar  
 48  24  48  1   
 49  25  26  ar  
 50  25  49  1   
 51  26  27  1   
 52  27  28  1   
 53  27  50  1   
 54  27  51  1   
 55  28  52  1   
 56  28  53  1   
 57  28  54  1   
@<TRIPOS>SUBSTRUCTURE
  1 ****  11 GROUP 4 **** **** 0

# MOE 2024.06 (io_trps.svl 2023.06)
