@<TRIPOS>MOLECULE
NONAME
39 40 1 0 0 
SMALL
USER_CHARGES


@<TRIPOS>ATOM
  1 S       -0.5550     0.3210     0.0390 S.3   1 <1>  -0.4600 
  2 C       -0.2730    -1.4680    -0.0160 C.3   1 <1>   0.0700 
  3 C        1.1220     0.9950     0.1740 C.3   1 <1>  -0.0100 
  4 C       -1.6350    -2.1520    -0.1440 C.3   1 <1>  -0.0990 
  5 C       -1.5300    -3.6660    -0.1770 C.2   1 <1>   0.5690 
  6 O       -0.4390    -4.1830    -0.2270 O.2   1 <1>  -0.5700 
  7 N       -2.6710    -4.4180    -0.1560 N.am  1 <1>  -0.6600 
  8 C       -4.0660    -3.9110    -0.1650 C.3   1 <1>   0.1400 
  9 C       -2.6460    -5.8990    -0.1600 C.3   1 <1>   0.1400 
 10 C       -4.9290    -5.1550    -0.3710 C.3   1 <1>   0.2000 
 11 C       -4.0850    -6.3250     0.1330 C.3   1 <1>  -0.0800 
 12 O       -6.1150    -5.0790     0.3410 O.3   1 <1>  -0.6800 
 13 C       -4.4730    -7.6660    -0.5070 C.3   1 <1>   0.0200 
 14 C       -3.5580    -8.7770    -0.0330 C.2   1 <1>  -0.0400 
 15 O       -3.5260    -9.1020     1.2320 O.3   1 <1>  -0.0190 
 16 C       -2.6900    -9.5670    -0.6830 C.2   1 <1>  -0.1500 
 17 N       -2.6800   -10.0630     1.4640 N.2   1 <1>  -0.4100 
 18 C       -2.1620   -10.3650     0.3280 C.2   1 <1>   0.1080 
 19 C       -1.1180   -11.4400     0.1280 C.3   1 <1>  -0.0590 
 20 H        0.3560    -1.6770    -0.8640 H     1 <1>   0.0800 
 21 H        0.2260    -1.7500     0.8950 H     1 <1>   0.0800 
 22 H        1.0410     2.0660     0.2120 H     1 <1>   0.0800 
 23 H        1.6770     0.6820    -0.6920 H     1 <1>   0.0800 
 24 H        1.5630     0.6110     1.0760 H     1 <1>   0.0800 
 25 H       -2.2450    -1.8650     0.6920 H     1 <1>   0.0800 
 26 H       -2.1080    -1.8200    -1.0490 H     1 <1>   0.0800 
 27 H       -4.2800    -3.4470     0.7820 H     1 <1>   0.0800 
 28 H       -4.2100    -3.2100    -0.9680 H     1 <1>   0.0800 
 29 H       -2.3280    -6.2380    -1.1310 H     1 <1>   0.0800 
 30 H       -1.9630    -6.2740     0.5860 H     1 <1>   0.0800 
 31 H       -5.1670    -5.2620    -1.4160 H     1 <1>   0.0800 
 32 H       -4.1800    -6.4000     1.2020 H     1 <1>   0.0800 
 33 H       -5.9380    -5.0670     1.3020 H     1 <1>   0.4000 
 34 H       -4.4140    -7.5930    -1.5790 H     1 <1>   0.0800 
 35 H       -5.4870    -7.9110    -0.2450 H     1 <1>   0.0800 
 36 H       -2.4350    -9.6040    -1.7260 H     1 <1>   0.1500 
 37 H       -1.4780   -12.1740    -0.5700 H     1 <1>   0.0800 
 38 H       -0.9070   -11.9250     1.0640 H     1 <1>   0.0800 
 39 H       -0.2130   -11.0030    -0.2490 H     1 <1>   0.0800 
@<TRIPOS>BOND
  1   1   2  1   
  2   1   3  1   
  3   2   4  1   
  4   2  20  1   
  5   2  21  1   
  6   3  22  1   
  7   3  23  1   
  8   3  24  1   
  9   4   5  1   
 10   4  25  1   
 11   4  26  1   
 12   5   6  2   
 13   5   7  am  
 14   7   8  1   
 15   7   9  1   
 16   8  10  1   
 17   8  27  1   
 18   8  28  1   
 19   9  11  1   
 20   9  29  1   
 21   9  30  1   
 22  10  11  1   
 23  10  12  1   
 24  10  31  1   
 25  11  13  1   
 26  11  32  1   
 27  12  33  1   
 28  13  14  1   
 29  13  34  1   
 30  13  35  1   
 31  14  15  1   
 32  14  16  2   
 33  15  17  1   
 34  16  18  1   
 35  16  36  1   
 36  17  18  2   
 37  18  19  1   
 38  19  37  1   
 39  19  38  1   
 40  19  39  1   
@<TRIPOS>SUBSTRUCTURE
  1 ****   9 GROUP 4 **** **** 0

# MOE 2024.06 (io_trps.svl 2023.06)
