@<TRIPOS>MOLECULE
NONAME
47 51 1 0 0 
SMALL
USER_CHARGES


@<TRIPOS>ATOM
  1 S       -0.7800     1.1800    -0.2410 S.3   1 <1>  -0.0800 
  2 C        0.3700     2.3460     0.3760 C.2   1 <1>  -0.1400 
  3 C       -0.3320     1.5820    -1.8920 C.2   1 <1>  -0.1100 
  4 C        1.0340     2.9650    -0.6100 C.2   1 <1>  -0.1810 
  5 C        0.5590     2.6000     1.8470 C.3   1 <1>   0.0200 
  6 C        0.6260     2.5310    -1.9160 C.2   1 <1>  -0.1500 
  7 C        2.1030     4.0150    -0.3010 C.3   1 <1>   0.4610 
  8 C        1.2900     3.9450     1.9870 C.3   1 <1>   0.1200 
  9 O        2.3720     4.0340     1.0900 O.3   1 <1>  -0.5600 
 10 C        3.4260     3.6500    -0.9820 C.3   1 <1>  -0.1600 
 11 C        1.6490     5.4130    -0.7440 C.3   1 <1>  -0.1600 
 12 C        4.4960     4.7160    -0.7430 C.3   1 <1>   0.1400 
 13 C        2.7340     6.4630    -0.5060 C.3   1 <1>   0.1400 
 14 N        3.9870     6.0410    -1.1960 N.am  1 <1>  -0.6600 
 15 C        4.6970     6.8120    -2.0880 C.2   1 <1>   0.5690 
 16 O        5.6970     6.3920    -2.6260 O.2   1 <1>  -0.5700 
 17 C        4.2660     8.2220    -2.4550 C.3   1 <1>   0.0820 
 18 C        4.3320     9.1670    -1.2700 C.2   1 <1>   0.1080 
 19 N        3.3320     9.8970    -0.9000 N.2   1 <1>  -0.7070 
 20 C        5.4700     9.3460    -0.4590 C.ar  1 <1>   0.0000 
 21 N        3.7850    10.5890     0.1720 N.pl3 1 <1>   0.3000 
 22 C        5.0770    10.2810     0.4750 C.ar  1 <1>  -0.1520 
 23 C        6.7730     8.8290    -0.4090 C.ar  1 <1>  -0.1500 
 24 C        5.9470    10.7240     1.4770 C.ar  1 <1>  -0.1500 
 25 C        7.6340     9.2600     0.5720 C.ar  1 <1>  -0.1500 
 26 C        7.2210    10.2090     1.5180 C.ar  1 <1>  -0.1500 
 27 H       -0.8400     1.0580    -2.6820 H     1 <1>   0.1500 
 28 H        1.1440     1.8100     2.2830 H     1 <1>   0.0800 
 29 H       -0.3910     2.6460     2.3470 H     1 <1>   0.0800 
 30 H        1.0650     2.9450    -2.8060 H     1 <1>   0.1500 
 31 H        1.6800     4.0540     2.9840 H     1 <1>   0.0800 
 32 H        0.6160     4.7600     1.7910 H     1 <1>   0.0800 
 33 H        3.2790     3.5500    -2.0400 H     1 <1>   0.0800 
 34 H        3.7650     2.7010    -0.6080 H     1 <1>   0.0800 
 35 H        0.7470     5.6900    -0.2330 H     1 <1>   0.0800 
 36 H        1.4210     5.3920    -1.7940 H     1 <1>   0.0800 
 37 H        5.3950     4.4480    -1.2720 H     1 <1>   0.0800 
 38 H        4.7330     4.7710     0.3060 H     1 <1>   0.0800 
 39 H        2.9310     6.5600     0.5480 H     1 <1>   0.0800 
 40 H        2.3840     7.4120    -0.8670 H     1 <1>   0.0800 
 41 H        3.2680     8.1940    -2.8480 H     1 <1>   0.0800 
 42 H        4.9110     8.5980    -3.2260 H     1 <1>   0.0800 
 43 H        3.2070    11.2680     0.6780 H     1 <1>   0.2700 
 44 H        7.0820     8.1010    -1.1380 H     1 <1>   0.1500 
 45 H        5.6200    11.4540     2.1960 H     1 <1>   0.1500 
 46 H        8.6360     8.8710     0.6240 H     1 <1>   0.1500 
 47 H        7.9150    10.5270     2.2750 H     1 <1>   0.1500 
@<TRIPOS>BOND
  1   1   2  1   
  2   1   3  1   
  3   2   4  2   
  4   2   5  1   
  5   3   6  2   
  6   3  27  1   
  7   4   6  1   
  8   4   7  1   
  9   5   8  1   
 10   5  28  1   
 11   5  29  1   
 12   6  30  1   
 13   7   9  1   
 14   7  10  1   
 15   7  11  1   
 16   8   9  1   
 17   8  31  1   
 18   8  32  1   
 19  10  12  1   
 20  10  33  1   
 21  10  34  1   
 22  11  13  1   
 23  11  35  1   
 24  11  36  1   
 25  12  14  1   
 26  12  37  1   
 27  12  38  1   
 28  13  14  1   
 29  13  39  1   
 30  13  40  1   
 31  14  15  am  
 32  15  16  2   
 33  15  17  1   
 34  17  18  1   
 35  17  41  1   
 36  17  42  1   
 37  18  19  2   
 38  18  20  1   
 39  19  21  1   
 40  20  22  ar  
 41  20  23  ar  
 42  21  22  1   
 43  21  43  1   
 44  22  24  ar  
 45  23  25  ar  
 46  23  44  1   
 47  24  26  ar  
 48  24  45  1   
 49  25  26  ar  
 50  25  46  1   
 51  26  47  1   
@<TRIPOS>SUBSTRUCTURE
  1 ****  13 GROUP 4 **** **** 0

# MOE 2024.06 (io_trps.svl 2023.06)
