@<TRIPOS>MOLECULE
NONAME
50 52 1 0 0 
SMALL
USER_CHARGES


@<TRIPOS>ATOM
  1 O       -1.5090     0.9440     2.5350 O.2   1 <1>  -0.5700 
  2 C       -2.1710     1.2820     1.5810 C.2   1 <1>   0.5690 
  3 N       -3.3250     0.6020     1.2470 N.am  1 <1>  -0.6600 
  4 C       -1.6450     2.5030     0.8120 C.3   1 <1>  -0.0190 
  5 C       -4.2360     0.9070     0.1050 C.3   1 <1>   0.1400 
  6 C       -3.7790    -0.5560     2.0740 C.3   1 <1>   0.1400 
  7 C       -2.5560     3.7440     0.9470 C.3   1 <1>  -0.1600 
  8 C       -1.2220     2.1900    -0.6460 C.3   1 <1>  -0.1600 
  9 C       -4.3780    -0.3260    -0.7900 C.3   1 <1>  -0.1600 
 10 C       -3.9050    -1.8020     1.1960 C.3   1 <1>  -0.1600 
 11 C       -1.9300     5.0060     0.3170 C.3   1 <1>   0.2000 
 12 C       -1.3630     3.3950    -1.5930 C.3   1 <1>  -0.1600 
 13 C       -4.8480    -1.5380     0.0170 C.3   1 <1>   0.2000 
 14 O       -2.9810     5.8310    -0.1240 O.3   1 <1>  -0.5600 
 15 C       -0.9860     4.6940    -0.8760 C.3   1 <1>   0.2000 
 16 O       -4.8400    -2.6520    -0.8490 O.3   1 <1>  -0.3630 
 17 C       -3.5590     6.6310     0.8610 C.3   1 <1>   0.0400 
 18 O       -1.0570     5.7210    -1.7940 O.3   1 <1>  -0.6800 
 19 C       -5.5180    -3.7940    -0.5940 C.ar  1 <1>   0.0820 
 20 C       -6.3850    -3.9940     0.4680 C.ar  1 <1>  -0.1500 
 21 C       -5.3410    -4.8540    -1.4570 C.ar  1 <1>  -0.1500 
 22 C       -7.0090    -5.2200     0.6020 C.ar  1 <1>   0.1600 
 23 C       -6.0160    -6.0380    -1.2280 C.ar  1 <1>   0.1600 
 24 N       -6.8460    -6.2470    -0.2170 N.ar  1 <1>  -0.6200 
 25 H       -0.7330     2.7800     1.3160 H     1 <1>   0.0800 
 26 H       -5.2000     1.1900     0.4940 H     1 <1>   0.0800 
 27 H       -3.8710     1.7210    -0.4890 H     1 <1>   0.0800 
 28 H       -3.0860    -0.7580     2.8730 H     1 <1>   0.0800 
 29 H       -4.7300    -0.3180     2.5170 H     1 <1>   0.0800 
 30 H       -2.7400     3.9280     1.9900 H     1 <1>   0.0800 
 31 H       -3.5000     3.5570     0.4740 H     1 <1>   0.0800 
 32 H       -0.1920     1.8770    -0.6310 H     1 <1>   0.0800 
 33 H       -1.7800     1.3650    -1.0480 H     1 <1>   0.0800 
 34 H       -3.4260    -0.5400    -1.2430 H     1 <1>   0.0800 
 35 H       -5.0880    -0.1190    -1.5700 H     1 <1>   0.0800 
 36 H       -4.2730    -2.6140     1.7940 H     1 <1>   0.0800 
 37 H       -2.9280    -2.0660     0.8310 H     1 <1>   0.0800 
 38 H       -1.3540     5.5390     1.0550 H     1 <1>   0.0800 
 39 H       -2.3820     3.4680    -1.9310 H     1 <1>   0.0800 
 40 H       -0.7290     3.2540    -2.4510 H     1 <1>   0.0800 
 41 H       -5.8550    -1.3650     0.3530 H     1 <1>   0.0800 
 42 H        0.0330     4.6260    -0.5360 H     1 <1>   0.0800 
 43 H       -4.3380     7.2150     0.4040 H     1 <1>   0.0800 
 44 H       -2.8110     7.2870     1.2710 H     1 <1>   0.0800 
 45 H       -3.9810     6.0080     1.6310 H     1 <1>   0.0800 
 46 H       -1.9450     6.1280    -1.6670 H     1 <1>   0.4000 
 47 H       -6.5880    -3.2270     1.1880 H     1 <1>   0.1500 
 48 H       -4.6810    -4.7540    -2.2980 H     1 <1>   0.1500 
 49 H       -7.6810    -5.3690     1.4300 H     1 <1>   0.1500 
 50 H       -5.8670    -6.8580    -1.9100 H     1 <1>   0.1500 
@<TRIPOS>BOND
  1   1   2  2   
  2   2   3  am  
  3   2   4  1   
  4   3   5  1   
  5   3   6  1   
  6   4   7  1   
  7   4   8  1   
  8   4  25  1   
  9   5   9  1   
 10   5  26  1   
 11   5  27  1   
 12   6  10  1   
 13   6  28  1   
 14   6  29  1   
 15   7  11  1   
 16   7  30  1   
 17   7  31  1   
 18   8  12  1   
 19   8  32  1   
 20   8  33  1   
 21   9  13  1   
 22   9  34  1   
 23   9  35  1   
 24  10  13  1   
 25  10  36  1   
 26  10  37  1   
 27  11  14  1   
 28  11  15  1   
 29  11  38  1   
 30  12  15  1   
 31  12  39  1   
 32  12  40  1   
 33  13  16  1   
 34  13  41  1   
 35  14  17  1   
 36  15  18  1   
 37  15  42  1   
 38  16  19  1   
 39  17  43  1   
 40  17  44  1   
 41  17  45  1   
 42  18  46  1   
 43  19  20  ar  
 44  19  21  ar  
 45  20  22  ar  
 46  20  47  1   
 47  21  23  ar  
 48  21  48  1   
 49  22  24  ar  
 50  22  49  1   
 51  23  24  ar  
 52  23  50  1   
@<TRIPOS>SUBSTRUCTURE
  1 ****   5 GROUP 4 **** **** 0

# MOE 2024.06 (io_trps.svl 2023.06)
