@<TRIPOS>MOLECULE
NONAME
51 54 1 0 0 
SMALL
USER_CHARGES


@<TRIPOS>ATOM
  1 S       -4.7030    -3.0330     1.3820 S.3   1 <1>  -0.0880 
  2 C       -3.7990    -3.2200    -0.1170 C.2   1 <1>  -0.1480 
  3 C       -6.2160    -2.8880     0.5080 C.2   1 <1>  -0.1180 
  4 C       -4.6330    -3.1660    -1.1740 C.2   1 <1>  -0.1570 
  5 C       -2.3040    -3.4410    -0.0240 C.3   1 <1>   0.5180 
  6 C       -6.0070    -2.9820    -0.8160 C.2   1 <1>  -0.1570 
  7 N       -2.1850    -4.8690     0.3500 N.4   1 <1>  -0.9610 
  8 C       -2.1710    -5.0890     1.8330 C.3   1 <1>   0.3370 
  9 C       -1.1040    -5.6200    -0.3360 C.3   1 <1>   0.3370 
 10 C       -3.1000    -6.2600     2.2330 C.3   1 <1>   0.1600 
 11 C       -1.5910    -7.0480    -0.6370 C.3   1 <1>  -0.1670 
 12 N       -3.4090    -7.1790     1.0750 N.pl3 1 <1>  -0.5960 
 13 C       -2.1630    -7.8330     0.5590 C.3   1 <1>   0.1600 
 14 C       -4.6520    -7.2810     0.5260 C.cat 1 <1>   1.0690 
 15 N       -5.6040    -6.3890     0.8060 N.pl3 1 <1>  -0.7040 
 16 N       -5.1030    -8.1580    -0.3930 N.pl3 1 <1>  -0.7670 
 17 C       -6.7080    -6.6710     0.0360 C.ar  1 <1>   0.3030 
 18 C       -6.3940    -7.7850    -0.7140 C.ar  1 <1>   0.6150 
 19 C       -4.5580    -9.4230    -0.9410 C.3   1 <1>   0.3480 
 20 C       -7.9380    -6.0730    -0.1100 C.ar  1 <1>  -0.1170 
 21 N       -7.1830    -8.3760    -1.5990 N.ar  1 <1>  -0.5840 
 22 C       -4.6250   -10.5050     0.1330 C.3   1 <1>  -0.2470 
 23 C       -8.7960    -6.6510    -1.0320 C.ar  1 <1>  -0.1860 
 24 C       -8.3640    -7.7910    -1.7310 C.ar  1 <1>   0.1530 
 25 C      -10.1050    -6.0970    -1.2840 C.2   1 <1>   0.9770 
 26 O      -10.4340    -5.0440    -0.7170 O.co2 1 <1>  -0.9030 
 27 O      -10.8840    -6.6610    -2.0620 O.co2 1 <1>  -0.9030 
 28 H       -7.1210    -2.7360     1.0750 H     1 <1>   0.1430 
 29 H       -4.3590    -3.2470    -2.2140 H     1 <1>   0.1430 
 30 H       -1.8500    -2.7940     0.7100 H     1 <1>   0.0720 
 31 H       -1.8540    -3.2640    -0.9880 H     1 <1>   0.0720 
 32 H       -6.7780    -2.9200    -1.5700 H     1 <1>   0.1430 
 33 H       -3.0640    -5.2570    -0.0060 H     1 <1>   0.4450 
 34 H       -2.4900    -4.1980     2.3500 H     1 <1>   0.0720 
 35 H       -1.1650    -5.3000     2.1590 H     1 <1>   0.0720 
 36 H       -0.2210    -5.6440     0.2820 H     1 <1>   0.0720 
 37 H       -0.8490    -5.1360    -1.2660 H     1 <1>   0.0720 
 38 H       -4.0020    -5.8540     2.6550 H     1 <1>   0.0720 
 39 H       -2.6300    -6.8230     3.0220 H     1 <1>   0.0720 
 40 H       -0.7480    -7.5970    -1.0180 H     1 <1>   0.0720 
 41 H       -2.3150    -7.0180    -1.4320 H     1 <1>   0.0720 
 42 H       -1.4220    -7.8770     1.3410 H     1 <1>   0.0720 
 43 H       -2.3510    -8.8520     0.2840 H     1 <1>   0.0720 
 44 H       -5.5710    -5.5830     1.4250 H     1 <1>   0.4450 
 45 H       -3.5530    -9.2840    -1.2930 H     1 <1>   0.0720 
 46 H       -5.1350    -9.7450    -1.7930 H     1 <1>   0.0720 
 47 H       -8.2300    -5.2000     0.4500 H     1 <1>   0.1430 
 48 H       -4.0610   -10.2340     1.0060 H     1 <1>   0.0720 
 49 H       -4.2250   -11.4230    -0.2590 H     1 <1>   0.0720 
 50 H       -5.6500   -10.6830     0.4110 H     1 <1>   0.0720 
 51 H       -9.0570    -8.2260    -2.4390 H     1 <1>   0.1430 
@<TRIPOS>BOND
  1   1   2  1   
  2   1   3  1   
  3   2   4  2   
  4   2   5  1   
  5   3   6  2   
  6   3  28  1   
  7   4   6  1   
  8   4  29  1   
  9   5   7  1   
 10   5  30  1   
 11   5  31  1   
 12   6  32  1   
 13   7   8  1   
 14   7   9  1   
 15   7  33  1   
 16   8  10  1   
 17   8  34  1   
 18   8  35  1   
 19   9  11  1   
 20   9  36  1   
 21   9  37  1   
 22  10  12  1   
 23  10  38  1   
 24  10  39  1   
 25  11  13  1   
 26  11  40  1   
 27  11  41  1   
 28  12  13  1   
 29  12  14  ar  
 30  13  42  1   
 31  13  43  1   
 32  14  15  ar  
 33  14  16  ar  
 34  15  17  1   
 35  15  44  1   
 36  16  18  1   
 37  16  19  1   
 38  17  18  ar  
 39  17  20  ar  
 40  18  21  ar  
 41  19  22  1   
 42  19  45  1   
 43  19  46  1   
 44  20  23  ar  
 45  20  47  1   
 46  21  24  ar  
 47  22  48  1   
 48  22  49  1   
 49  22  50  1   
 50  23  24  ar  
 51  23  25  1   
 52  24  51  1   
 53  25  26  ar  
 54  25  27  ar  
@<TRIPOS>SUBSTRUCTURE
  1 ****  15 GROUP 4 **** **** 0

# MOE 2024.06 (io_trps.svl 2023.06)
