@<TRIPOS>MOLECULE
NONAME
53 55 1 0 0 
SMALL
USER_CHARGES


@<TRIPOS>ATOM
  1 S       -2.1080     0.1830     1.9510 S.3   1 <1>  -0.3320 
  2 C       -2.3620     1.4900     0.7440 C.ar  1 <1>   0.4120 
  3 C       -1.2260     0.9910     3.3600 C.3   1 <1>  -0.0100 
  4 N       -1.9420     2.6870     1.1300 N.ar  1 <1>  -0.6200 
  5 C       -2.9660     1.1820    -0.4760 C.ar  1 <1>   0.0860 
  6 C       -2.1080     3.6530     0.2420 C.ar  1 <1>   0.1600 
  7 C       -3.4220    -0.1450    -0.8110 C.2   1 <1>   0.5440 
  8 C       -3.1130     2.2240    -1.3820 C.ar  1 <1>  -0.1500 
  9 C       -2.6760     3.4770    -1.0080 C.ar  1 <1>  -0.1500 
 10 O       -2.8380    -0.7680    -1.6770 O.2   1 <1>  -0.5700 
 11 N       -4.5440    -0.6990    -0.2350 N.am  1 <1>  -0.6600 
 12 C       -4.9630    -2.1020    -0.5380 C.3   1 <1>   0.1400 
 13 C       -5.4920     0.0530     0.6330 C.3   1 <1>   0.1400 
 14 C       -6.0780    -2.1570    -1.5960 C.3   1 <1>   0.1400 
 15 C       -6.4990     0.8570    -0.2010 C.3   1 <1>  -0.1600 
 16 N       -7.2460    -1.2850    -1.2410 N.am  1 <1>  -0.6600 
 17 C       -6.9990     0.1640    -1.4760 C.3   1 <1>   0.1400 
 18 C       -8.4700    -1.7310    -0.7820 C.2   1 <1>   0.5690 
 19 O       -9.3590    -0.9320    -0.5720 O.2   1 <1>  -0.5700 
 20 C       -8.7100    -3.2350    -0.4820 C.3   1 <1>   0.4040 
 21 O       -8.6920    -3.9980    -1.6740 O.3   1 <1>  -0.5600 
 22 C       -9.9950    -3.5360     0.3030 C.ar  1 <1>  -0.1430 
 23 C       -8.7000    -5.3830    -1.5070 C.3   1 <1>   0.0400 
 24 C      -11.2400    -3.3850    -0.2930 C.ar  1 <1>  -0.1500 
 25 C       -9.9290    -3.9770     1.6190 C.ar  1 <1>  -0.1500 
 26 C      -12.3970    -3.6730     0.4080 C.ar  1 <1>  -0.1500 
 27 C      -11.0860    -4.2650     2.3220 C.ar  1 <1>  -0.1500 
 28 C      -12.3210    -4.1140     1.7170 C.ar  1 <1>  -0.1500 
 29 H       -1.0390     0.2410     4.1060 H     1 <1>   0.0800 
 30 H       -1.8610     1.7700     3.7440 H     1 <1>   0.0800 
 31 H       -0.3060     1.3980     2.9810 H     1 <1>   0.0800 
 32 H       -1.7720     4.6370     0.5240 H     1 <1>   0.1500 
 33 H       -3.5530     2.0450    -2.3480 H     1 <1>   0.1500 
 34 H       -2.7710     4.3120    -1.6790 H     1 <1>   0.1500 
 35 H       -4.1180    -2.6660    -0.8940 H     1 <1>   0.0800 
 36 H       -5.3010    -2.5770     0.3650 H     1 <1>   0.0800 
 37 H       -6.0300    -0.6450     1.2500 H     1 <1>   0.0800 
 38 H       -4.9570     0.7120     1.2940 H     1 <1>   0.0800 
 39 H       -6.3860    -3.1770    -1.7240 H     1 <1>   0.0800 
 40 H       -5.6710    -1.8380    -2.5400 H     1 <1>   0.0800 
 41 H       -6.0600     1.7980    -0.4750 H     1 <1>   0.0800 
 42 H       -7.3490     1.0810     0.4200 H     1 <1>   0.0800 
 43 H       -6.2650     0.2770    -2.2550 H     1 <1>   0.0800 
 44 H       -7.9040     0.6390    -1.8150 H     1 <1>   0.0800 
 45 H       -7.8740    -3.5620     0.1070 H     1 <1>   0.0800 
 46 H       -8.5870    -5.8360    -2.4760 H     1 <1>   0.0800 
 47 H       -9.6390    -5.6910    -1.0790 H     1 <1>   0.0800 
 48 H       -7.8820    -5.6750    -0.8720 H     1 <1>   0.0800 
 49 H      -11.3020    -3.0370    -1.3110 H     1 <1>   0.1500 
 50 H       -8.9780    -4.0990     2.1060 H     1 <1>   0.1500 
 51 H      -13.3550    -3.5490    -0.0650 H     1 <1>   0.1500 
 52 H      -11.0270    -4.6050     3.3410 H     1 <1>   0.1500 
 53 H      -13.2210    -4.3360     2.2630 H     1 <1>   0.1500 
@<TRIPOS>BOND
  1   1   2  1   
  2   1   3  1   
  3   2   4  ar  
  4   2   5  ar  
  5   3  29  1   
  6   3  30  1   
  7   3  31  1   
  8   4   6  ar  
  9   5   7  1   
 10   5   8  ar  
 11   6   9  ar  
 12   6  32  1   
 13   7  10  2   
 14   7  11  am  
 15   8   9  ar  
 16   8  33  1   
 17   9  34  1   
 18  11  12  1   
 19  11  13  1   
 20  12  14  1   
 21  12  35  1   
 22  12  36  1   
 23  13  15  1   
 24  13  37  1   
 25  13  38  1   
 26  14  16  1   
 27  14  39  1   
 28  14  40  1   
 29  15  17  1   
 30  15  41  1   
 31  15  42  1   
 32  16  17  1   
 33  16  18  am  
 34  17  43  1   
 35  17  44  1   
 36  18  19  2   
 37  18  20  1   
 38  20  21  1   
 39  20  22  1   
 40  20  45  1   
 41  21  23  1   
 42  22  24  ar  
 43  22  25  ar  
 44  23  46  1   
 45  23  47  1   
 46  23  48  1   
 47  24  26  ar  
 48  24  49  1   
 49  25  27  ar  
 50  25  50  1   
 51  26  28  ar  
 52  26  51  1   
 53  27  28  ar  
 54  27  52  1   
 55  28  53  1   
@<TRIPOS>SUBSTRUCTURE
  1 ****  16 GROUP 4 **** **** 0

# MOE 2024.06 (io_trps.svl 2023.06)
