@<TRIPOS>MOLECULE
NONAME
61 63 1 0 0 
SMALL
USER_CHARGES


@<TRIPOS>ATOM
  1 O       -0.4840     1.0500     0.1500 O.2   1 <1>  -0.5700 
  2 C       -1.5320     1.4070    -0.3550 C.2   1 <1>   0.5440 
  3 N       -1.5760     2.6160    -1.0240 N.am  1 <1>  -0.6600 
  4 C       -2.7020     0.5580    -0.2290 C.ar  1 <1>   0.0860 
  5 C       -2.8410     3.3360    -1.3350 C.3   1 <1>   0.1400 
  6 C       -0.3410     3.3990    -1.2940 C.3   1 <1>   0.1400 
  7 C       -3.3930     0.0920    -1.3440 C.ar  1 <1>  -0.1500 
  8 C       -3.1800     0.1760     1.0200 C.ar  1 <1>  -0.1500 
  9 C       -2.8930     4.6390    -0.5330 C.3   1 <1>  -0.1600 
 10 C       -0.3700     4.6930    -0.4770 C.3   1 <1>  -0.1600 
 11 C       -4.5190    -0.7010    -1.2190 C.ar  1 <1>  -0.1500 
 12 C       -4.3050    -0.6170     1.1480 C.ar  1 <1>  -0.1500 
 13 C       -1.6430     5.5170    -0.7610 C.3   1 <1>  -0.0190 
 14 C       -5.0030    -1.0710     0.0330 C.ar  1 <1>  -0.1430 
 15 C       -1.6650     6.8110     0.0590 C.2   1 <1>   0.5690 
 16 C       -6.2560    -1.9520     0.2280 C.3   1 <1>   0.1430 
 17 O       -2.5090     6.9710     0.9090 O.2   1 <1>  -0.5700 
 18 N       -0.7010     7.7430    -0.2160 N.am  1 <1>  -0.4940 
 19 C       -5.8710    -3.2360     0.9760 C.3   1 <1>  -0.2400 
 20 C       -7.3040    -1.1800     1.0450 C.3   1 <1>  -0.2400 
 21 C       -6.9170    -2.3670    -1.0980 C.3   1 <1>  -0.2400 
 22 C       -0.5130     9.0270     0.3510 C.2   1 <1>  -0.0880 
 23 N        0.6910     9.5230     0.7490 N.pl3 1 <1>   0.3140 
 24 C       -1.4220    10.0000     0.6040 C.2   1 <1>  -0.1810 
 25 N        0.5790    10.7780     1.2350 N.2   1 <1>  -0.7070 
 26 C        1.9890     8.8180     0.7570 C.3   1 <1>   0.0960 
 27 C       -0.6870    11.0470     1.1480 C.2   1 <1>   0.1390 
 28 C       -2.9200    10.0050     0.3670 C.3   1 <1>  -0.0590 
 29 C        2.6840     8.9110    -0.6080 C.3   1 <1>  -0.2400 
 30 H       -3.7010     2.7390    -1.0860 H     1 <1>   0.0800 
 31 H       -2.8750     3.5490    -2.3900 H     1 <1>   0.0800 
 32 H       -0.2940     3.6230    -2.3460 H     1 <1>   0.0800 
 33 H        0.5360     2.8280    -1.0410 H     1 <1>   0.0800 
 34 H       -3.0340     0.3580    -2.3220 H     1 <1>   0.1500 
 35 H       -2.6530     0.5090     1.8980 H     1 <1>   0.1500 
 36 H       -2.9780     4.3940     0.5120 H     1 <1>   0.0800 
 37 H       -3.7760     5.1890    -0.8080 H     1 <1>   0.0800 
 38 H        0.5090     5.2650    -0.7090 H     1 <1>   0.0800 
 39 H       -0.3290     4.4380     0.5690 H     1 <1>   0.0800 
 40 H       -5.0020    -1.0220    -2.1220 H     1 <1>   0.1500 
 41 H       -4.6320    -0.8810     2.1370 H     1 <1>   0.1500 
 42 H       -1.6350     5.8030    -1.7980 H     1 <1>   0.0800 
 43 H       -0.0100     7.4660    -0.9100 H     1 <1>   0.3700 
 44 H       -5.4870    -3.0160     1.9540 H     1 <1>   0.0800 
 45 H       -5.1120    -3.7660     0.4280 H     1 <1>   0.0800 
 46 H       -6.7240    -3.8810     1.0900 H     1 <1>   0.0800 
 47 H       -6.9340    -0.9410     2.0240 H     1 <1>   0.0800 
 48 H       -8.2000    -1.7630     1.1610 H     1 <1>   0.0800 
 49 H       -7.5550    -0.2610     0.5460 H     1 <1>   0.0800 
 50 H       -6.2320    -2.9390    -1.6980 H     1 <1>   0.0800 
 51 H       -7.2300    -1.5000    -1.6520 H     1 <1>   0.0800 
 52 H       -7.7850    -2.9750    -0.9140 H     1 <1>   0.0800 
 53 H        1.8200     7.7920     1.0280 H     1 <1>   0.0800 
 54 H        2.6070     9.2700     1.5120 H     1 <1>   0.0800 
 55 H       -1.1110    11.9850     1.4660 H     1 <1>   0.1500 
 56 H       -3.1790     9.2990    -0.4010 H     1 <1>   0.0800 
 57 H       -3.2460    10.9820     0.0610 H     1 <1>   0.0800 
 58 H       -3.4290     9.7300     1.2730 H     1 <1>   0.0800 
 59 H        2.0830     8.4580    -1.3750 H     1 <1>   0.0800 
 60 H        3.6320     8.4050    -0.5690 H     1 <1>   0.0800 
 61 H        2.8600     9.9430    -0.8570 H     1 <1>   0.0800 
@<TRIPOS>BOND
  1   1   2  2   
  2   2   3  am  
  3   2   4  1   
  4   3   5  1   
  5   3   6  1   
  6   4   7  ar  
  7   4   8  ar  
  8   5   9  1   
  9   5  30  1   
 10   5  31  1   
 11   6  10  1   
 12   6  32  1   
 13   6  33  1   
 14   7  11  ar  
 15   7  34  1   
 16   8  12  ar  
 17   8  35  1   
 18   9  13  1   
 19   9  36  1   
 20   9  37  1   
 21  10  13  1   
 22  10  38  1   
 23  10  39  1   
 24  11  14  ar  
 25  11  40  1   
 26  12  14  ar  
 27  12  41  1   
 28  13  15  1   
 29  13  42  1   
 30  14  16  1   
 31  15  17  2   
 32  15  18  am  
 33  16  19  1   
 34  16  20  1   
 35  16  21  1   
 36  18  22  1   
 37  18  43  1   
 38  19  44  1   
 39  19  45  1   
 40  19  46  1   
 41  20  47  1   
 42  20  48  1   
 43  20  49  1   
 44  21  50  1   
 45  21  51  1   
 46  21  52  1   
 47  22  23  1   
 48  22  24  2   
 49  23  25  1   
 50  23  26  1   
 51  24  27  1   
 52  24  28  1   
 53  25  27  2   
 54  26  29  1   
 55  26  53  1   
 56  26  54  1   
 57  27  55  1   
 58  28  56  1   
 59  28  57  1   
 60  28  58  1   
 61  29  59  1   
 62  29  60  1   
 63  29  61  1   
@<TRIPOS>SUBSTRUCTURE
  1 ****   9 GROUP 4 **** **** 0

# MOE 2024.06 (io_trps.svl 2023.06)
