@<TRIPOS>MOLECULE
NONAME
49 51 1 0 0 
SMALL
USER_CHARGES


@<TRIPOS>ATOM
  1 O        2.9510    -0.9780     2.2970 O.2   1 <1>  -0.5700 
  2 C        2.8380    -1.1100     1.0910 C.2   1 <1>   0.6160 
  3 N        3.2120    -0.0360     0.3020 N.am  1 <1>  -0.6600 
  4 C        2.3860    -2.3610     0.5450 C.2   1 <1>   0.0290 
  5 C        3.1830     1.3500     0.8670 C.3   1 <1>   0.1400 
  6 C        3.5440    -0.1820    -1.1370 C.3   1 <1>   0.1400 
  7 C        1.1960    -2.3000    -0.2410 C.2   1 <1>   0.6160 
  8 C        3.0080    -3.5820     0.7290 C.2   1 <1>  -0.1380 
  9 C        4.5840     1.9890     0.9930 C.3   1 <1>   0.4230 
 10 C        4.8870     0.4720    -1.5010 C.3   1 <1>  -0.0800 
 11 O        0.5960    -1.2700    -0.5170 O.2   1 <1>  -0.5700 
 12 N        0.7020    -3.4550    -0.7660 N.am  1 <1>  -0.5390 
 13 C        2.4350    -4.7620     0.1700 C.2   1 <1>  -0.1380 
 14 C        4.3110    -3.6920     1.5290 C.3   1 <1>  -0.1020 
 15 N        5.0410     2.7020    -0.2550 N.4   1 <1>  -0.9590 
 16 C        5.6890     0.9750     1.3870 C.3   1 <1>   0.1200 
 17 C        6.0860    -0.1060    -0.7040 C.3   1 <1>   0.1200 
 18 C        4.7580     2.0060    -1.5480 C.3   1 <1>   0.3430 
 19 C        1.2950    -4.6710    -0.5860 C.2   1 <1>  -0.0290 
 20 C        3.1050    -6.1100     0.4470 C.3   1 <1>  -0.1020 
 21 C        4.6640     4.1440    -0.2860 C.3   1 <1>   0.2630 
 22 O        6.5600     0.7440     0.3040 O.3   1 <1>  -0.5600 
 23 C        0.5850    -5.8270    -1.2740 C.3   1 <1>  -0.1020 
 24 H        2.5400     1.9710     0.2690 H     1 <1>   0.0800 
 25 H        2.7470     1.3220     1.8500 H     1 <1>   0.0800 
 26 H        3.5990    -1.2270    -1.3920 H     1 <1>   0.0800 
 27 H        2.7450     0.2440    -1.7220 H     1 <1>   0.0800 
 28 H        4.5190     2.7090     1.7900 H     1 <1>   0.0800 
 29 H        5.0460     0.1700    -2.5210 H     1 <1>   0.0800 
 30 H       -0.1610    -3.3450    -1.2990 H     1 <1>   0.3700 
 31 H        5.0360    -4.2770     0.9930 H     1 <1>   0.0800 
 32 H        4.1160    -4.1590     2.4780 H     1 <1>   0.0800 
 33 H        4.7590    -2.7350     1.7210 H     1 <1>   0.0800 
 34 H        6.0700     2.6070    -0.1630 H     1 <1>   0.4500 
 35 H        5.2990     0.0400     1.7490 H     1 <1>   0.0800 
 36 H        6.2800     1.4000     2.1780 H     1 <1>   0.0800 
 37 H        6.9140    -0.2640    -1.3750 H     1 <1>   0.0800 
 38 H        5.8410    -1.0580    -0.2620 H     1 <1>   0.0800 
 39 H        3.7620     2.2550    -1.8790 H     1 <1>   0.0800 
 40 H        5.4460     2.3790    -2.2900 H     1 <1>   0.0800 
 41 H        3.3440    -6.2040     1.4900 H     1 <1>   0.0800 
 42 H        4.0090    -6.1980    -0.1290 H     1 <1>   0.0800 
 43 H        2.4690    -6.9400     0.2070 H     1 <1>   0.0800 
 44 H        3.5940     4.2510    -0.3670 H     1 <1>   0.0800 
 45 H        5.1240     4.6320    -1.1300 H     1 <1>   0.0800 
 46 H        4.9940     4.6370     0.6140 H     1 <1>   0.0800 
 47 H        0.0550    -5.4810    -2.1430 H     1 <1>   0.0800 
 48 H       -0.1200    -6.2750    -0.5970 H     1 <1>   0.0800 
 49 H        1.2830    -6.5740    -1.6030 H     1 <1>   0.0800 
@<TRIPOS>BOND
  1   1   2  2   
  2   2   3  am  
  3   2   4  1   
  4   3   5  1   
  5   3   6  1   
  6   4   7  1   
  7   4   8  2   
  8   5   9  1   
  9   5  24  1   
 10   5  25  1   
 11   6  10  1   
 12   6  26  1   
 13   6  27  1   
 14   7  11  2   
 15   7  12  am  
 16   8  13  1   
 17   8  14  1   
 18   9  15  1   
 19   9  16  1   
 20   9  28  1   
 21  10  17  1   
 22  10  18  1   
 23  10  29  1   
 24  12  19  1   
 25  12  30  1   
 26  13  19  2   
 27  13  20  1   
 28  14  31  1   
 29  14  32  1   
 30  14  33  1   
 31  15  18  1   
 32  15  21  1   
 33  15  34  1   
 34  16  22  1   
 35  16  35  1   
 36  16  36  1   
 37  17  22  1   
 38  17  37  1   
 39  17  38  1   
 40  18  39  1   
 41  18  40  1   
 42  19  23  1   
 43  20  41  1   
 44  20  42  1   
 45  20  43  1   
 46  21  44  1   
 47  21  45  1   
 48  21  46  1   
 49  23  47  1   
 50  23  48  1   
 51  23  49  1   
@<TRIPOS>SUBSTRUCTURE
  1 ****   3 GROUP 4 **** **** 0

# MOE 2024.06 (io_trps.svl 2023.06)
