@<TRIPOS>MOLECULE
NONAME
53 55 1 0 0 
SMALL
USER_CHARGES


@<TRIPOS>ATOM
  1 N        0.0010    -0.4410    -0.5220 N.ar  1 <1>  -0.6200 
  2 C       -0.3530    -1.7130    -0.5740 C.ar  1 <1>   0.7200 
  3 C        0.9280    -0.1450     0.3530 C.ar  1 <1>   0.1660 
  4 N        0.1210    -2.7190     0.1530 N.ar  1 <1>  -0.6200 
  5 N       -1.3120    -1.9750    -1.4920 N.pl3 1 <1>  -0.8690 
  6 C        1.4930    -1.1050     1.1600 C.ar  1 <1>  -0.1500 
  7 C        1.3550     1.3050     0.4390 C.3   1 <1>  -0.0970 
  8 C        1.0490    -2.4000     1.0200 C.ar  1 <1>   0.1670 
  9 C       -1.5260    -3.3020    -2.1040 C.3   1 <1>   0.2090 
 10 C        1.6180    -3.5190     1.8650 C.3   1 <1>  -0.0970 
 11 C       -2.4720    -4.1390    -1.2240 C.3   1 <1>  -0.0800 
 12 C       -2.7170    -5.5290    -1.8300 C.3   1 <1>  -0.1600 
 13 C       -3.8210    -3.4400    -0.9730 C.3   1 <1>  -0.1600 
 14 C       -3.6590    -6.3550    -0.9530 C.3   1 <1>   0.3430 
 15 C       -4.7370    -4.3030    -0.1110 C.3   1 <1>   0.3430 
 16 N       -4.9520    -5.6280    -0.7670 N.4   1 <1>  -0.9590 
 17 C       -5.9440    -6.4230     0.0200 C.3   1 <1>   0.3430 
 18 C       -6.4550    -7.6430    -0.7510 C.3   1 <1>  -0.0170 
 19 C       -7.5290    -8.3170     0.0790 C.ar  1 <1>  -0.1430 
 20 C       -7.1890    -9.2920     1.0050 C.ar  1 <1>  -0.1500 
 21 C       -8.8600    -7.9570    -0.0740 C.ar  1 <1>  -0.1500 
 22 C       -8.1680    -9.8950     1.7750 C.ar  1 <1>  -0.1500 
 23 C       -9.8390    -8.5600     0.6970 C.ar  1 <1>  -0.1500 
 24 C       -9.4930    -9.5280     1.6230 C.ar  1 <1>  -0.1500 
 25 H       -1.4440    -1.1690    -2.1020 H     1 <1>   0.4000 
 26 H        2.2540    -0.8530     1.8740 H     1 <1>   0.1500 
 27 H        1.7400     1.6230    -0.5130 H     1 <1>   0.0800 
 28 H        2.1140     1.4420     1.1860 H     1 <1>   0.0800 
 29 H        0.5050     1.9140     0.6890 H     1 <1>   0.0800 
 30 H       -0.5760    -3.8030    -2.2060 H     1 <1>   0.0800 
 31 H       -1.9450    -3.1720    -3.0870 H     1 <1>   0.0800 
 32 H        0.8300    -3.9740     2.4380 H     1 <1>   0.0800 
 33 H        2.3700    -3.1520     2.5380 H     1 <1>   0.0800 
 34 H        2.0570    -4.2640     1.2260 H     1 <1>   0.0800 
 35 H       -1.9840    -4.2790    -0.2740 H     1 <1>   0.0800 
 36 H       -1.7780    -6.0500    -1.9130 H     1 <1>   0.0800 
 37 H       -3.1290    -5.4420    -2.8200 H     1 <1>   0.0800 
 38 H       -4.3050    -3.2060    -1.9050 H     1 <1>   0.0800 
 39 H       -3.6540    -2.5120    -0.4550 H     1 <1>   0.0800 
 40 H       -3.1960    -6.5250     0.0060 H     1 <1>   0.0800 
 41 H       -3.8310    -7.3110    -1.4210 H     1 <1>   0.0800 
 42 H       -5.6800    -3.7980     0.0250 H     1 <1>   0.0800 
 43 H       -4.2850    -4.4430     0.8580 H     1 <1>   0.0800 
 44 H       -5.3450    -5.4390    -1.6980 H     1 <1>   0.4500 
 45 H       -6.7920    -5.8020     0.2600 H     1 <1>   0.0800 
 46 H       -5.5040    -6.7480     0.9490 H     1 <1>   0.0800 
 47 H       -5.6610    -8.3440    -0.9320 H     1 <1>   0.0800 
 48 H       -6.8720    -7.3400    -1.6940 H     1 <1>   0.0800 
 49 H       -6.1660    -9.5970     1.1380 H     1 <1>   0.1500 
 50 H       -9.1530    -7.2100    -0.7910 H     1 <1>   0.1500 
 51 H       -7.9020   -10.6520     2.4930 H     1 <1>   0.1500 
 52 H      -10.8710    -8.2800     0.5760 H     1 <1>   0.1500 
 53 H      -10.2550    -9.9980     2.2210 H     1 <1>   0.1500 
@<TRIPOS>BOND
  1   1   2  ar  
  2   1   3  ar  
  3   2   4  ar  
  4   2   5  1   
  5   3   6  ar  
  6   3   7  1   
  7   4   8  ar  
  8   5   9  1   
  9   5  25  1   
 10   6   8  ar  
 11   6  26  1   
 12   7  27  1   
 13   7  28  1   
 14   7  29  1   
 15   8  10  1   
 16   9  11  1   
 17   9  30  1   
 18   9  31  1   
 19  10  32  1   
 20  10  33  1   
 21  10  34  1   
 22  11  12  1   
 23  11  13  1   
 24  11  35  1   
 25  12  14  1   
 26  12  36  1   
 27  12  37  1   
 28  13  15  1   
 29  13  38  1   
 30  13  39  1   
 31  14  16  1   
 32  14  40  1   
 33  14  41  1   
 34  15  16  1   
 35  15  42  1   
 36  15  43  1   
 37  16  17  1   
 38  16  44  1   
 39  17  18  1   
 40  17  45  1   
 41  17  46  1   
 42  18  19  1   
 43  18  47  1   
 44  18  48  1   
 45  19  20  ar  
 46  19  21  ar  
 47  20  22  ar  
 48  20  49  1   
 49  21  23  ar  
 50  21  50  1   
 51  22  24  ar  
 52  22  51  1   
 53  23  24  ar  
 54  23  52  1   
 55  24  53  1   
@<TRIPOS>SUBSTRUCTURE
  1 ****  15 GROUP 4 **** **** 0

# MOE 2024.06 (io_trps.svl 2023.06)
