@<TRIPOS>MOLECULE
NONAME
56 59 1 0 0 
SMALL
USER_CHARGES


@<TRIPOS>ATOM
  1 O       -2.8190    -0.8000     1.6540 O.3   1 <1>  -0.5600 
  2 C       -4.2040    -0.9920     1.5650 C.3   1 <1>   0.1200 
  3 C       -2.4160     0.5300     1.5450 C.3   1 <1>   0.1200 
  4 C       -4.7720    -0.4470     0.2410 C.3   1 <1>   0.2090 
  5 C       -2.8510     1.1060     0.1860 C.3   1 <1>   0.2090 
  6 N       -4.3380     0.9710    -0.0230 N.pl3 1 <1>  -0.8380 
  7 C       -5.1600     1.9540    -0.4560 C.ar  1 <1>   0.4610 
  8 N       -4.9060     3.1750     0.0210 N.ar  1 <1>  -0.1790 
  9 C       -6.2550     1.8390    -1.3780 C.ar  1 <1>  -0.1430 
 10 C       -5.6030     4.3260    -0.2880 C.ar  1 <1>   0.3610 
 11 C       -6.9620     2.9510    -1.7350 C.ar  1 <1>  -0.1500 
 12 C       -6.6170     0.5240    -2.0740 C.3   1 <1>   0.2530 
 13 C       -6.6680     4.2280    -1.1920 C.ar  1 <1>   0.0000 
 14 C       -5.2770     5.5640     0.2750 C.ar  1 <1>  -0.1500 
 15 N       -7.6050    -0.2790    -1.3240 N.3   1 <1>  -0.8100 
 16 C       -7.3810     5.3890    -1.5170 C.ar  1 <1>  -0.1500 
 17 C       -5.9900     6.6940    -0.0530 C.ar  1 <1>  -0.1430 
 18 C       -7.6590    -1.6570    -1.8780 C.3   1 <1>   0.2900 
 19 C       -8.9510     0.3220    -1.1700 C.3   1 <1>   0.1100 
 20 C       -7.0470     6.5970    -0.9570 C.ar  1 <1>  -0.1500 
 21 C       -5.6530     8.0500     0.5450 C.3   1 <1>  -0.0970 
 22 C       -6.9720    -2.6240    -0.9330 C.2   1 <1>   0.0060 
 23 C       -9.6570    -0.1320     0.1240 C.3   1 <1>   0.1200 
 24 N       -5.8460    -3.2240    -1.1580 N.2   1 <1>  -0.5650 
 25 N       -7.5200    -2.9310     0.2600 N.pl3 1 <1>   0.0330 
 26 O      -10.0100    -1.4800     0.0940 O.3   1 <1>  -0.6800 
 27 C       -5.6550    -3.9720    -0.0530 C.2   1 <1>   0.0770 
 28 C       -6.6660    -3.8020     0.8280 C.2   1 <1>  -0.3020 
 29 H       -4.6720    -0.5080     2.4030 H     1 <1>   0.0800 
 30 H       -4.3920    -2.0490     1.6340 H     1 <1>   0.0800 
 31 H       -1.3440     0.5490     1.6310 H     1 <1>   0.0800 
 32 H       -2.8410     1.0870     2.3610 H     1 <1>   0.0800 
 33 H       -5.8390    -0.4990     0.3200 H     1 <1>   0.0800 
 34 H       -4.4520    -1.0830    -0.5660 H     1 <1>   0.0800 
 35 H       -2.3430     0.5530    -0.5880 H     1 <1>   0.0800 
 36 H       -2.5310     2.1280     0.1060 H     1 <1>   0.0800 
 37 H       -4.1720     3.2270     0.7150 H     1 <1>   0.4570 
 38 H       -7.7660     2.8990    -2.4510 H     1 <1>   0.1500 
 39 H       -5.7170    -0.0510    -2.2190 H     1 <1>   0.0800 
 40 H       -7.0130     0.7330    -3.0540 H     1 <1>   0.0800 
 41 H       -4.4610     5.6360     0.9710 H     1 <1>   0.1500 
 42 H       -8.2010     5.3300    -2.2140 H     1 <1>   0.1500 
 43 H       -7.1750    -1.7080    -2.8390 H     1 <1>   0.0800 
 44 H       -8.6750    -1.9800    -2.0180 H     1 <1>   0.0800 
 45 H       -9.5650     0.1160    -2.0310 H     1 <1>   0.0800 
 46 H       -8.8600     1.3880    -1.0940 H     1 <1>   0.0800 
 47 H       -7.6050     7.4840    -1.2150 H     1 <1>   0.1500 
 48 H       -4.8220     7.9840     1.2240 H     1 <1>   0.0800 
 49 H       -6.5020     8.4360     1.0820 H     1 <1>   0.0800 
 50 H       -5.3980     8.7440    -0.2370 H     1 <1>   0.0800 
 51 H      -10.5550     0.4400     0.2810 H     1 <1>   0.0800 
 52 H       -9.0020     0.0220     0.9650 H     1 <1>   0.0800 
 53 H       -8.4140    -2.5520     0.6070 H     1 <1>   0.2700 
 54 H      -10.7960    -1.6150    -0.4740 H     1 <1>   0.4000 
 55 H       -4.7870    -4.6030     0.0520 H     1 <1>   0.1500 
 56 H       -6.8250    -4.2430     1.7950 H     1 <1>   0.1500 
@<TRIPOS>BOND
  1   1   2  1   
  2   1   3  1   
  3   2   4  1   
  4   2  29  1   
  5   2  30  1   
  6   3   5  1   
  7   3  31  1   
  8   3  32  1   
  9   4   6  1   
 10   4  33  1   
 11   4  34  1   
 12   5   6  1   
 13   5  35  1   
 14   5  36  1   
 15   6   7  1   
 16   7   8  ar  
 17   7   9  ar  
 18   8  10  ar  
 19   8  37  1   
 20   9  11  ar  
 21   9  12  1   
 22  10  13  ar  
 23  10  14  ar  
 24  11  13  ar  
 25  11  38  1   
 26  12  15  1   
 27  12  39  1   
 28  12  40  1   
 29  13  16  ar  
 30  14  17  ar  
 31  14  41  1   
 32  15  18  1   
 33  15  19  1   
 34  16  20  ar  
 35  16  42  1   
 36  17  20  ar  
 37  17  21  1   
 38  18  22  1   
 39  18  43  1   
 40  18  44  1   
 41  19  23  1   
 42  19  45  1   
 43  19  46  1   
 44  20  47  1   
 45  21  48  1   
 46  21  49  1   
 47  21  50  1   
 48  22  24  2   
 49  22  25  1   
 50  23  26  1   
 51  23  51  1   
 52  23  52  1   
 53  24  27  1   
 54  25  28  1   
 55  25  53  1   
 56  26  54  1   
 57  27  28  2   
 58  27  55  1   
 59  28  56  1   
@<TRIPOS>SUBSTRUCTURE
  1 ****   7 GROUP 4 **** **** 0

# MOE 2024.06 (io_trps.svl 2023.06)
