@<TRIPOS>MOLECULE
NONAME
60 63 1 0 0 
SMALL
USER_CHARGES


@<TRIPOS>ATOM
  1 O       -0.6370    -1.0350    -1.7660 O.3   1 <1>  -0.3630 
  2 C       -0.5230    -2.1890    -1.0520 C.ar  1 <1>   0.0830 
  3 C       -1.7870    -0.7410    -2.5280 C.3   1 <1>   0.0400 
  4 C        0.7160    -2.4960    -0.4420 C.ar  1 <1>   0.0830 
  5 C       -1.5650    -3.0780    -0.9150 C.ar  1 <1>  -0.1500 
  6 O        1.8010    -1.6800    -0.5060 O.3   1 <1>  -0.3630 
  7 C        0.8680    -3.6720     0.2420 C.ar  1 <1>  -0.1500 
  8 C       -1.4350    -4.2800    -0.2050 C.ar  1 <1>   0.3100 
  9 C        1.6560    -0.3270    -0.1340 C.3   1 <1>   0.0400 
 10 C       -0.1870    -4.5940     0.3850 C.ar  1 <1>   0.0000 
 11 N       -2.5240    -5.0820    -0.1270 N.ar  1 <1>  -0.6200 
 12 C       -0.0810    -5.8170     1.0850 C.ar  1 <1>  -0.1430 
 13 C       -2.3870    -6.2000     0.5270 C.ar  1 <1>   0.4100 
 14 C       -1.1900    -6.6020     1.1420 C.ar  1 <1>  -0.1500 
 15 C        1.2190    -6.2490     1.7490 C.3   1 <1>  -0.0970 
 16 N       -3.4880    -7.0180     0.6170 N.pl3 1 <1>  -0.8380 
 17 C       -4.0280    -7.4780    -0.6830 C.3   1 <1>   0.2090 
 18 C       -4.5050    -6.5590     1.5890 C.3   1 <1>   0.2090 
 19 C       -5.0030    -8.6300    -0.4450 C.3   1 <1>  -0.1600 
 20 C       -5.4910    -7.6960     1.8570 C.3   1 <1>  -0.1600 
 21 C       -6.1000    -8.2640     0.5670 C.3   1 <1>   0.2800 
 22 O       -6.8820    -7.2650    -0.0080 O.3   1 <1>  -0.6800 
 23 C       -7.0230    -9.4730     0.8880 C.3   1 <1>   0.3430 
 24 N       -8.1470    -9.5890    -0.0940 N.4   1 <1>  -0.9590 
 25 C       -9.4180   -10.0730     0.4830 C.3   1 <1>   0.3430 
 26 C       -7.8690   -10.4170    -1.2900 C.3   1 <1>   0.3430 
 27 C      -10.2500   -10.4540    -0.7320 C.3   1 <1>  -0.1600 
 28 C       -9.2450   -10.7660    -1.8450 C.3   1 <1>  -0.1600 
 29 H       -1.6160     0.1850    -3.0470 H     1 <1>   0.0800 
 30 H       -2.6290    -0.6380    -1.8660 H     1 <1>   0.0800 
 31 H       -1.9480    -1.5330    -3.2380 H     1 <1>   0.0800 
 32 H       -2.5280    -2.8940    -1.3460 H     1 <1>   0.1500 
 33 H        1.8230    -3.8870     0.6810 H     1 <1>   0.1500 
 34 H        2.6170     0.0410     0.1740 H     1 <1>   0.0800 
 35 H        0.9530    -0.2550     0.6780 H     1 <1>   0.0800 
 36 H        1.3110     0.2330    -0.9840 H     1 <1>   0.0800 
 37 H       -1.1960    -7.5450     1.6520 H     1 <1>   0.1500 
 38 H        1.5080    -5.5300     2.4950 H     1 <1>   0.0800 
 39 H        2.0000    -6.3270     1.0140 H     1 <1>   0.0800 
 40 H        1.1060    -7.2060     2.2250 H     1 <1>   0.0800 
 41 H       -3.2140    -7.8070    -1.3090 H     1 <1>   0.0800 
 42 H       -4.5160    -6.6560    -1.1810 H     1 <1>   0.0800 
 43 H       -5.0100    -5.6920     1.1980 H     1 <1>   0.0800 
 44 H       -4.0180    -6.2720     2.5070 H     1 <1>   0.0800 
 45 H       -4.4350    -9.4640    -0.0720 H     1 <1>   0.0800 
 46 H       -5.4330    -8.9230    -1.3830 H     1 <1>   0.0800 
 47 H       -6.2670    -7.3470     2.5140 H     1 <1>   0.0800 
 48 H       -4.9560    -8.4740     2.3730 H     1 <1>   0.0800 
 49 H       -6.3270    -6.4690    -0.1560 H     1 <1>   0.4000 
 50 H       -7.4350    -9.3100     1.8700 H     1 <1>   0.0800 
 51 H       -6.4470   -10.3820     0.9260 H     1 <1>   0.0800 
 52 H       -8.2880    -8.6120    -0.4170 H     1 <1>   0.4500 
 53 H       -9.9020    -9.3160     1.0790 H     1 <1>   0.0800 
 54 H       -9.2370   -10.9490     1.0850 H     1 <1>   0.0800 
 55 H       -7.3580   -11.3210    -1.0000 H     1 <1>   0.0800 
 56 H       -7.2760    -9.8810    -2.0130 H     1 <1>   0.0800 
 57 H      -10.8720    -9.6210    -1.0150 H     1 <1>   0.0800 
 58 H      -10.8850   -11.2950    -0.5130 H     1 <1>   0.0800 
 59 H       -9.2750   -11.8050    -2.1250 H     1 <1>   0.0800 
 60 H       -9.4520   -10.1720    -2.7190 H     1 <1>   0.0800 
@<TRIPOS>BOND
  1   1   2  1   
  2   1   3  1   
  3   2   4  ar  
  4   2   5  ar  
  5   3  29  1   
  6   3  30  1   
  7   3  31  1   
  8   4   6  1   
  9   4   7  ar  
 10   5   8  ar  
 11   5  32  1   
 12   6   9  1   
 13   7  10  ar  
 14   7  33  1   
 15   8  10  ar  
 16   8  11  ar  
 17   9  34  1   
 18   9  35  1   
 19   9  36  1   
 20  10  12  ar  
 21  11  13  ar  
 22  12  14  ar  
 23  12  15  1   
 24  13  14  ar  
 25  13  16  1   
 26  14  37  1   
 27  15  38  1   
 28  15  39  1   
 29  15  40  1   
 30  16  17  1   
 31  16  18  1   
 32  17  19  1   
 33  17  41  1   
 34  17  42  1   
 35  18  20  1   
 36  18  43  1   
 37  18  44  1   
 38  19  21  1   
 39  19  45  1   
 40  19  46  1   
 41  20  21  1   
 42  20  47  1   
 43  20  48  1   
 44  21  22  1   
 45  21  23  1   
 46  22  49  1   
 47  23  24  1   
 48  23  50  1   
 49  23  51  1   
 50  24  25  1   
 51  24  26  1   
 52  24  52  1   
 53  25  27  1   
 54  25  53  1   
 55  25  54  1   
 56  26  28  1   
 57  26  55  1   
 58  26  56  1   
 59  27  28  1   
 60  27  57  1   
 61  27  58  1   
 62  28  59  1   
 63  28  60  1   
@<TRIPOS>SUBSTRUCTURE
  1 ****  13 GROUP 4 **** **** 0

# MOE 2024.06 (io_trps.svl 2023.06)
