@<TRIPOS>MOLECULE
NONAME
52 54 1 0 0 
SMALL
USER_CHARGES


@<TRIPOS>ATOM
  1 S        0.1710    -1.6480     1.0670 S.o2  1 <1>   1.0900 
  2 O        1.5110    -1.1160     1.0120 O.2   1 <1>  -0.6500 
  3 O       -0.1670    -2.6380     2.0650 O.2   1 <1>  -0.6500 
  4 C       -0.2220    -2.3150    -0.5540 C.3   1 <1>   0.0890 
  5 C       -0.9520    -0.2750     1.2560 C.3   1 <1>  -0.1350 
  6 C       -1.6940    -2.6740    -0.7330 C.ar  1 <1>  -0.1440 
  7 C       -2.2890    -3.6520     0.0530 C.ar  1 <1>   0.1600 
  8 C       -2.4640    -2.0280    -1.6820 C.ar  1 <1>  -0.1500 
  9 N       -3.5580    -4.0230    -0.0220 N.ar  1 <1>  -0.6200 
 10 C       -3.7820    -2.4020    -1.7730 C.ar  1 <1>  -0.1500 
 11 C       -4.2860    -3.3900    -0.9360 C.ar  1 <1>   0.4100 
 12 N       -5.6170    -3.7420    -1.0160 N.pl3 1 <1>  -0.8380 
 13 C       -5.8960    -5.1960    -1.0960 C.3   1 <1>   0.2090 
 14 C       -6.4890    -3.0250    -0.0510 C.3   1 <1>   0.2090 
 15 C       -6.4830    -5.6420     0.2650 C.3   1 <1>   0.4230 
 16 C       -7.8100    -3.7950     0.2500 C.3   1 <1>  -0.1600 
 17 N       -5.8740    -6.9330     0.7830 N.4   1 <1>  -0.9590 
 18 C       -8.0650    -5.4020     0.2450 C.3   1 <1>   0.0000 
 19 C       -6.0950    -8.0500    -0.1550 C.3   1 <1>   0.3430 
 20 C       -4.4240    -6.7600     1.1170 C.3   1 <1>   0.2630 
 21 C       -8.3990    -6.9880     0.1810 C.3   1 <1>  -0.1600 
 22 C       -9.6400    -5.1010     0.2940 C.3   1 <1>   0.1200 
 23 C       -7.5170    -7.9290    -0.6760 C.3   1 <1>  -0.1600 
 24 O      -10.1760    -5.1110    -0.9950 O.3   1 <1>  -0.6800 
 25 H        0.0600    -1.6030    -1.3040 H     1 <1>   0.0800 
 26 H        0.3680    -3.1960    -0.7210 H     1 <1>   0.0800 
 27 H       -0.8000     0.4490     0.4780 H     1 <1>   0.0800 
 28 H       -0.7840     0.2060     2.2010 H     1 <1>   0.0800 
 29 H       -1.9700    -0.6100     1.2250 H     1 <1>   0.0800 
 30 H       -1.6870    -4.1580     0.7910 H     1 <1>   0.1500 
 31 H       -2.0610    -1.2660    -2.3280 H     1 <1>   0.1500 
 32 H       -4.4420    -1.9460    -2.4880 H     1 <1>   0.1500 
 33 H       -6.6050    -5.3690    -1.8860 H     1 <1>   0.0800 
 34 H       -4.9920    -5.7280    -1.3350 H     1 <1>   0.0800 
 35 H       -5.9430    -2.8780     0.8680 H     1 <1>   0.0800 
 36 H       -6.7140    -2.0470    -0.4430 H     1 <1>   0.0800 
 37 H       -6.0960    -4.9420     0.9830 H     1 <1>   0.0800 
 38 H       -8.1040    -3.4100     1.2140 H     1 <1>   0.0800 
 39 H       -8.4510    -3.3230    -0.4800 H     1 <1>   0.0800 
 40 H       -6.3810    -7.1550     1.6490 H     1 <1>   0.4500 
 41 H       -5.3990    -8.0040    -0.9770 H     1 <1>   0.0800 
 42 H       -5.9640    -8.9890     0.3580 H     1 <1>   0.0800 
 43 H       -3.8530    -6.5500     0.2270 H     1 <1>   0.0800 
 44 H       -4.0320    -7.6520     1.5770 H     1 <1>   0.0800 
 45 H       -4.2930    -5.9330     1.7980 H     1 <1>   0.0800 
 46 H       -8.4290    -7.3670     1.1900 H     1 <1>   0.0800 
 47 H       -9.3660    -7.2520    -0.2260 H     1 <1>   0.0800 
 48 H       -9.9500    -4.1690     0.7430 H     1 <1>   0.0800 
 49 H      -10.2000    -5.8110     0.8850 H     1 <1>   0.0800 
 50 H       -7.5010    -7.5810    -1.6950 H     1 <1>   0.0800 
 51 H       -7.9510    -8.9150    -0.6990 H     1 <1>   0.0800 
 52 H       -9.8980    -4.3280    -1.5100 H     1 <1>   0.4000 
@<TRIPOS>BOND
  1   1   2  2   
  2   1   3  2   
  3   1   4  1   
  4   1   5  1   
  5   4   6  1   
  6   4  25  1   
  7   4  26  1   
  8   5  27  1   
  9   5  28  1   
 10   5  29  1   
 11   6   7  ar  
 12   6   8  ar  
 13   7   9  ar  
 14   7  30  1   
 15   8  10  ar  
 16   8  31  1   
 17   9  11  ar  
 18  10  11  ar  
 19  10  32  1   
 20  11  12  1   
 21  12  13  1   
 22  12  14  1   
 23  13  15  1   
 24  13  33  1   
 25  13  34  1   
 26  14  16  1   
 27  14  35  1   
 28  14  36  1   
 29  15  17  1   
 30  15  18  1   
 31  15  37  1   
 32  16  18  1   
 33  16  38  1   
 34  16  39  1   
 35  17  19  1   
 36  17  20  1   
 37  17  40  1   
 38  18  21  1   
 39  18  22  1   
 40  19  23  1   
 41  19  41  1   
 42  19  42  1   
 43  20  43  1   
 44  20  44  1   
 45  20  45  1   
 46  21  23  1   
 47  21  46  1   
 48  21  47  1   
 49  22  24  1   
 50  22  48  1   
 51  22  49  1   
 52  23  50  1   
 53  23  51  1   
 54  24  52  1   
@<TRIPOS>SUBSTRUCTURE
  1 ****   9 GROUP 4 **** **** 0

# MOE 2024.06 (io_trps.svl 2023.06)
