@<TRIPOS>MOLECULE
NONAME
42 44 1 0 0 
SMALL
USER_CHARGES


@<TRIPOS>ATOM
  1 O        0.3150     0.3150    -0.8470 O.3   1 <1>  -0.5600 
  2 C        1.4950    -0.4370    -0.9890 C.3   1 <1>   0.2000 
  3 C        0.4820     1.6950    -0.9540 C.3   1 <1>   0.1200 
  4 C        2.6220     0.0540    -0.0230 C.3   1 <1>   0.3340 
  5 C        1.0640    -1.9020    -0.7820 C.3   1 <1>   0.1200 
  6 C        1.4290     2.1810     0.1460 C.3   1 <1>   0.1100 
  7 N        2.7490     1.5360     0.0160 N.3   1 <1>  -0.8100 
  8 C        3.9800    -0.5120    -0.4530 C.ar  1 <1>  -0.1440 
  9 O        2.1310    -2.7880    -0.6800 O.3   1 <1>  -0.6800 
 10 C        3.6330     1.9650     1.1260 C.3   1 <1>   0.2900 
 11 C        4.5640    -0.1160    -1.6500 C.ar  1 <1>  -0.1500 
 12 C        4.6490    -1.4240     0.3510 C.ar  1 <1>  -0.1500 
 13 C        3.9680     3.4420     1.0120 C.2   1 <1>   0.0070 
 14 C        5.7890    -0.6290    -2.0400 C.ar  1 <1>  -0.1500 
 15 C        5.8740    -1.9370    -0.0370 C.ar  1 <1>  -0.1500 
 16 N        4.4270     3.9620    -0.1430 N.pl3 1 <1>   0.0330 
 17 N        3.8490     4.3130     1.9630 N.2   1 <1>  -0.5650 
 18 C        6.4450    -1.5410    -1.2330 C.ar  1 <1>  -0.1500 
 19 C        4.6140     5.2710     0.1030 C.2   1 <1>  -0.3320 
 20 C        4.2570     5.4640     1.3930 C.2   1 <1>   0.0770 
 21 C        5.1290     6.2560    -0.9300 C.3   1 <1>  -0.0600 
 22 H        1.8230    -0.3150    -2.0060 H     1 <1>   0.0800 
 23 H        0.8730     1.9290    -1.9290 H     1 <1>   0.0800 
 24 H       -0.4850     2.1520    -0.8420 H     1 <1>   0.0800 
 25 H        2.3800    -0.3040     0.9640 H     1 <1>   0.0800 
 26 H        0.4540    -2.2180    -1.6100 H     1 <1>   0.0800 
 27 H        0.4930    -1.9900     0.1260 H     1 <1>   0.0800 
 28 H        0.9960     1.9630     1.1080 H     1 <1>   0.0800 
 29 H        1.5360     3.2500     0.0640 H     1 <1>   0.0800 
 30 H        2.8580    -2.5470    -1.2930 H     1 <1>   0.4000 
 31 H        3.1600     1.7770     2.0750 H     1 <1>   0.0800 
 32 H        4.5590     1.4180     1.1010 H     1 <1>   0.0800 
 33 H        4.0640     0.6010    -2.2770 H     1 <1>   0.1500 
 34 H        4.2140    -1.7470     1.2810 H     1 <1>   0.1500 
 35 H        6.2330    -0.3170    -2.9690 H     1 <1>   0.1500 
 36 H        6.3830    -2.6470     0.5920 H     1 <1>   0.1500 
 37 H        4.5650     3.4350    -1.0100 H     1 <1>   0.2700 
 38 H        7.3980    -1.9400    -1.5340 H     1 <1>   0.1500 
 39 H        4.2710     6.3850     1.9510 H     1 <1>   0.1500 
 40 H        5.1940     7.2400    -0.5010 H     1 <1>   0.0800 
 41 H        4.4620     6.2920    -1.7730 H     1 <1>   0.0800 
 42 H        6.1070     5.9630    -1.2670 H     1 <1>   0.0800 
@<TRIPOS>BOND
  1   1   2  1   
  2   1   3  1   
  3   2   4  1   
  4   2   5  1   
  5   2  22  1   
  6   3   6  1   
  7   3  23  1   
  8   3  24  1   
  9   4   7  1   
 10   4   8  1   
 11   4  25  1   
 12   5   9  1   
 13   5  26  1   
 14   5  27  1   
 15   6   7  1   
 16   6  28  1   
 17   6  29  1   
 18   7  10  1   
 19   8  11  ar  
 20   8  12  ar  
 21   9  30  1   
 22  10  13  1   
 23  10  31  1   
 24  10  32  1   
 25  11  14  ar  
 26  11  33  1   
 27  12  15  ar  
 28  12  34  1   
 29  13  16  1   
 30  13  17  2   
 31  14  18  ar  
 32  14  35  1   
 33  15  18  ar  
 34  15  36  1   
 35  16  19  1   
 36  16  37  1   
 37  17  20  1   
 38  18  38  1   
 39  19  20  2   
 40  19  21  1   
 41  20  39  1   
 42  21  40  1   
 43  21  41  1   
 44  21  42  1   
@<TRIPOS>SUBSTRUCTURE
  1 ****   7 GROUP 4 **** **** 0

# MOE 2024.06 (io_trps.svl 2023.06)
