@<TRIPOS>MOLECULE
NONAME
47 49 1 0 0 
SMALL
USER_CHARGES


@<TRIPOS>ATOM
  1 CL      -0.6010    -0.0020     0.9530 Cl    1 <1>  -0.1230 
  2 C       -0.3890    -1.6630     0.4310 C.2   1 <1>   0.1230 
  3 C        0.5190    -2.1220    -0.4620 C.2   1 <1>  -0.3020 
  4 C       -1.1440    -2.7330     0.8860 C.2   1 <1>  -0.1500 
  5 N        0.3550    -3.4640    -0.5830 N.pl3 1 <1>   0.0480 
  6 C       -0.6820    -3.8530     0.2360 C.2   1 <1>  -0.2370 
  7 C        1.1710    -4.3480    -1.4380 C.3   1 <1>   0.0160 
  8 C       -1.1270    -5.2160     0.3460 C.2   1 <1>   0.7150 
  9 O       -0.3150    -6.0830     0.6180 O.2   1 <1>  -0.5700 
 10 N       -2.4400    -5.5740     0.1270 N.am  1 <1>  -0.6600 
 11 C       -2.8970    -6.9960     0.2580 C.3   1 <1>   0.1400 
 12 C       -3.4400    -4.6740    -0.5160 C.3   1 <1>   0.1400 
 13 C       -3.8480    -7.1930     1.4450 C.3   1 <1>   0.1400 
 14 C       -4.4070    -4.0350     0.4920 C.3   1 <1>  -0.1600 
 15 N       -5.0390    -6.2920     1.3650 N.am  1 <1>  -0.6600 
 16 C       -4.7570    -4.8770     1.7270 C.3   1 <1>   0.1400 
 17 C       -6.2560    -6.6650     0.8270 C.2   1 <1>   0.7150 
 18 O       -7.0740    -5.7980     0.5750 O.2   1 <1>  -0.5700 
 19 C       -6.5720    -8.0440     0.5530 C.2   1 <1>  -0.0450 
 20 S       -7.1130    -8.4680    -1.0710 S.3   1 <1>  -0.0800 
 21 C       -6.5470    -9.1720     1.3080 C.2   1 <1>  -0.1500 
 22 C       -7.2740   -10.1640    -0.6620 C.2   1 <1>  -0.1400 
 23 C       -6.9370   -10.3610     0.6260 C.2   1 <1>  -0.1500 
 24 C       -7.7480   -11.0850    -1.7730 C.3   1 <1>   0.0200 
 25 C       -7.8550   -12.5420    -1.3120 C.3   1 <1>  -0.2400 
 26 H        1.2620    -1.5630    -1.0000 H     1 <1>   0.1500 
 27 H       -1.9260    -2.6650     1.6190 H     1 <1>   0.1500 
 28 H        1.8450    -3.7580    -2.0320 H     1 <1>   0.0800 
 29 H        0.5260    -4.9170    -2.0820 H     1 <1>   0.0800 
 30 H        1.7340    -5.0180    -0.8150 H     1 <1>   0.0800 
 31 H       -2.0540    -7.6520     0.3870 H     1 <1>   0.0800 
 32 H       -3.3930    -7.3000    -0.6470 H     1 <1>   0.0800 
 33 H       -4.0160    -5.2490    -1.2210 H     1 <1>   0.0800 
 34 H       -2.9420    -3.9010    -1.0760 H     1 <1>   0.0800 
 35 H       -3.3130    -7.0000     2.3590 H     1 <1>   0.0800 
 36 H       -4.1520    -8.2220     1.4700 H     1 <1>   0.0800 
 37 H       -5.3190    -3.7960    -0.0260 H     1 <1>   0.0800 
 38 H       -4.0040    -3.0990     0.8250 H     1 <1>   0.0800 
 39 H       -5.6180    -4.4540     2.2160 H     1 <1>   0.0800 
 40 H       -3.9370    -4.8440     2.4240 H     1 <1>   0.0800 
 41 H       -6.2660    -9.2030     2.3460 H     1 <1>   0.1500 
 42 H       -6.9510   -11.3090     1.1360 H     1 <1>   0.1500 
 43 H       -7.0600   -11.0220    -2.5970 H     1 <1>   0.0800 
 44 H       -8.7110   -10.7480    -2.1160 H     1 <1>   0.0800 
 45 H       -6.8960   -12.8990    -0.9820 H     1 <1>   0.0800 
 46 H       -8.1930   -13.1600    -2.1240 H     1 <1>   0.0800 
 47 H       -8.5570   -12.6240    -0.5010 H     1 <1>   0.0800 
@<TRIPOS>BOND
  1   1   2  1   
  2   2   3  2   
  3   2   4  1   
  4   3   5  1   
  5   3  26  1   
  6   4   6  2   
  7   4  27  1   
  8   5   6  1   
  9   5   7  1   
 10   6   8  1   
 11   7  28  1   
 12   7  29  1   
 13   7  30  1   
 14   8   9  2   
 15   8  10  am  
 16  10  11  1   
 17  10  12  1   
 18  11  13  1   
 19  11  31  1   
 20  11  32  1   
 21  12  14  1   
 22  12  33  1   
 23  12  34  1   
 24  13  15  1   
 25  13  35  1   
 26  13  36  1   
 27  14  16  1   
 28  14  37  1   
 29  14  38  1   
 30  15  16  1   
 31  15  17  am  
 32  16  39  1   
 33  16  40  1   
 34  17  18  2   
 35  17  19  1   
 36  19  20  1   
 37  19  21  2   
 38  20  22  1   
 39  21  23  1   
 40  21  41  1   
 41  22  23  2   
 42  22  24  1   
 43  23  42  1   
 44  24  25  1   
 45  24  43  1   
 46  24  44  1   
 47  25  45  1   
 48  25  46  1   
 49  25  47  1   
@<TRIPOS>SUBSTRUCTURE
  1 ****  11 GROUP 4 **** **** 0

# MOE 2024.06 (io_trps.svl 2023.06)
