@<TRIPOS>MOLECULE
NONAME
45 47 1 0 0 
SMALL
USER_CHARGES


@<TRIPOS>ATOM
  1 O        0.6830    -2.2600     1.8500 O.3   1 <1>  -0.5600 
  2 C        0.5420    -1.6800     0.5810 C.3   1 <1>   0.2000 
  3 C       -0.3560    -1.9810     2.7400 C.3   1 <1>   0.0400 
  4 C        1.9280    -1.6340    -0.0900 C.3   1 <1>   0.0000 
  5 C       -0.2960    -2.6120    -0.3030 C.3   1 <1>  -0.1600 
  6 C        3.0330    -1.2300     0.9080 C.3   1 <1>   0.2090 
  7 C        1.9330    -0.6150    -1.2600 C.3   1 <1>  -0.1600 
  8 C        2.0910    -3.0770    -0.6100 C.3   1 <1>  -0.1600 
  9 C        0.6920    -3.5310    -1.0340 C.3   1 <1>  -0.1600 
 10 N        4.3640    -1.2180     0.2200 N.pl3 1 <1>  -0.8380 
 11 C        3.3350    -0.4190    -1.8760 C.3   1 <1>  -0.1600 
 12 C        5.3770    -2.1020     0.4130 C.ar  1 <1>   0.7710 
 13 C        4.4160    -0.1460    -0.8220 C.3   1 <1>   0.2090 
 14 N        6.5390    -1.9190    -0.2010 N.ar  1 <1>  -0.6200 
 15 N        5.1660    -3.1560     1.2230 N.ar  1 <1>  -0.1790 
 16 C        7.4970    -2.7920     0.0090 C.ar  1 <1>   0.4100 
 17 C        6.1280    -4.0800     1.4570 C.ar  1 <1>   0.2110 
 18 N        8.6430    -2.5370    -0.6400 N.pl3 1 <1>  -0.8690 
 19 C        7.3230    -3.9090     0.8460 C.ar  1 <1>  -0.1500 
 20 C        9.9530    -3.2390    -0.6020 C.3   1 <1>   0.1290 
 21 H        0.1090    -0.6980     0.6840 H     1 <1>   0.0800 
 22 H       -0.1530    -2.4900     3.6660 H     1 <1>   0.0800 
 23 H       -1.2880    -2.3350     2.3350 H     1 <1>   0.0800 
 24 H       -0.4020    -0.9200     2.9140 H     1 <1>   0.0800 
 25 H       -1.0150    -3.1770     0.2630 H     1 <1>   0.0800 
 26 H       -0.8260    -2.0220    -1.0290 H     1 <1>   0.0800 
 27 H        3.0360    -1.8860     1.7580 H     1 <1>   0.0800 
 28 H        2.8220    -0.2420     1.2830 H     1 <1>   0.0800 
 29 H        1.2490    -0.9180    -2.0330 H     1 <1>   0.0800 
 30 H        1.5960     0.3390    -0.8910 H     1 <1>   0.0800 
 31 H        2.7980    -3.1650    -1.4150 H     1 <1>   0.0800 
 32 H        2.4080    -3.7140     0.1960 H     1 <1>   0.0800 
 33 H        0.5290    -4.5630    -0.7710 H     1 <1>   0.0800 
 34 H        0.5710    -3.4230    -2.0990 H     1 <1>   0.0800 
 35 H        3.3070     0.4040    -2.5670 H     1 <1>   0.0800 
 36 H        3.6170    -1.2910    -2.4390 H     1 <1>   0.0800 
 37 H        4.2380     0.8100    -0.3580 H     1 <1>   0.0800 
 38 H        5.3780    -0.0960    -1.3050 H     1 <1>   0.0800 
 39 H        4.2320    -3.2160     1.6150 H     1 <1>   0.4570 
 40 H        5.9140    -4.9120     2.1110 H     1 <1>   0.1500 
 41 H        8.6210    -1.7140    -1.2540 H     1 <1>   0.4000 
 42 H        8.1310    -4.6010     0.9790 H     1 <1>   0.1500 
 43 H       10.0600    -3.8120     0.3020 H     1 <1>   0.0800 
 44 H       10.7500    -2.5150    -0.6390 H     1 <1>   0.0800 
 45 H       10.0400    -3.8950    -1.4520 H     1 <1>   0.0800 
@<TRIPOS>BOND
  1   1   2  1   
  2   1   3  1   
  3   2   4  1   
  4   2   5  1   
  5   2  21  1   
  6   3  22  1   
  7   3  23  1   
  8   3  24  1   
  9   4   6  1   
 10   4   7  1   
 11   4   8  1   
 12   5   9  1   
 13   5  25  1   
 14   5  26  1   
 15   6  10  1   
 16   6  27  1   
 17   6  28  1   
 18   7  11  1   
 19   7  29  1   
 20   7  30  1   
 21   8   9  1   
 22   8  31  1   
 23   8  32  1   
 24   9  33  1   
 25   9  34  1   
 26  10  12  1   
 27  10  13  1   
 28  11  13  1   
 29  11  35  1   
 30  11  36  1   
 31  12  14  ar  
 32  12  15  ar  
 33  13  37  1   
 34  13  38  1   
 35  14  16  ar  
 36  15  17  ar  
 37  15  39  1   
 38  16  18  1   
 39  16  19  ar  
 40  17  19  ar  
 41  17  40  1   
 42  18  20  1   
 43  18  41  1   
 44  19  42  1   
 45  20  43  1   
 46  20  44  1   
 47  20  45  1   
@<TRIPOS>SUBSTRUCTURE
  1 ****  10 GROUP 4 **** **** 0

# MOE 2024.06 (io_trps.svl 2023.06)
