@<TRIPOS>MOLECULE
NONAME
44 46 1 0 0 
SMALL
USER_CHARGES


@<TRIPOS>ATOM
  1 O        0.4820    -1.7570     2.5520 O.2   1 <1>  -0.5700 
  2 C        1.2310    -2.4880     1.9600 C.2   1 <1>   0.5690 
  3 N        1.0230    -3.8190     1.8980 N.am  1 <1>  -0.7300 
  4 C        2.4560    -1.9410     1.2610 C.3   1 <1>  -0.0990 
  5 C        1.9270    -4.7570     1.2080 C.3   1 <1>   0.1400 
  6 C        2.6320    -2.6050    -0.1200 C.3   1 <1>  -0.0800 
  7 C        2.4040    -4.1390    -0.1240 C.3   1 <1>  -0.0800 
  8 C        4.0190    -2.3650    -0.7340 C.3   1 <1>  -0.1600 
  9 C        3.7080    -4.7560    -0.6490 C.3   1 <1>  -0.1600 
 10 C        4.3280    -3.6490    -1.4980 C.3   1 <1>   0.4230 
 11 N        5.7770    -3.8400    -1.7780 N.4   1 <1>  -0.9590 
 12 C        6.6950    -3.8370    -0.6010 C.3   1 <1>   0.5230 
 13 C        6.0450    -4.9790    -2.7050 C.3   1 <1>   0.2630 
 14 C        7.4870    -2.5400    -0.6540 C.2   1 <1>   0.0060 
 15 N        7.4520    -1.7110    -1.6420 N.2   1 <1>  -0.5650 
 16 N        8.3030    -2.1090     0.3200 N.pl3 1 <1>   0.3140 
 17 C        8.2920    -0.7560    -1.2180 C.2   1 <1>   0.3660 
 18 N        8.8200    -0.9530    -0.0570 N.2   1 <1>  -0.7070 
 19 C        8.6440    -2.7140     1.6290 C.3   1 <1>   0.0960 
 20 C        7.5140    -2.5180     2.6480 C.3   1 <1>  -0.2400 
 21 H        0.2100    -4.1890     2.4000 H     1 <1>   0.3700 
 22 H        2.3570    -0.8760     1.1520 H     1 <1>   0.0800 
 23 H        3.3010    -2.1380     1.8940 H     1 <1>   0.0800 
 24 H        2.7630    -4.9550     1.8580 H     1 <1>   0.0800 
 25 H        1.4140    -5.6860     1.0230 H     1 <1>   0.0800 
 26 H        1.8900    -2.1740    -0.7740 H     1 <1>   0.0800 
 27 H        1.6330    -4.3380    -0.8510 H     1 <1>   0.0800 
 28 H        4.7300    -2.1920     0.0520 H     1 <1>   0.0800 
 29 H        4.0070    -1.5120    -1.3900 H     1 <1>   0.0800 
 30 H        3.5070    -5.6390    -1.2290 H     1 <1>   0.0800 
 31 H        4.3440    -5.0030     0.1810 H     1 <1>   0.0800 
 32 H        3.7900    -3.6070    -2.4330 H     1 <1>   0.0800 
 33 H        6.0870    -2.9710    -2.2610 H     1 <1>   0.4500 
 34 H        6.1370    -3.8890     0.3170 H     1 <1>   0.0800 
 35 H        7.3730    -4.6730    -0.6490 H     1 <1>   0.0800 
 36 H        5.7920    -5.9150    -2.2360 H     1 <1>   0.0800 
 37 H        7.0880    -4.9980    -2.9810 H     1 <1>   0.0800 
 38 H        5.4580    -4.8730    -3.6030 H     1 <1>   0.0800 
 39 H        8.5030     0.1130    -1.8230 H     1 <1>   0.1500 
 40 H        8.8560    -3.7580     1.4920 H     1 <1>   0.0800 
 41 H        9.5390    -2.2370     1.9910 H     1 <1>   0.0800 
 42 H        6.6110    -3.0090     2.3390 H     1 <1>   0.0800 
 43 H        7.3210    -1.4670     2.7840 H     1 <1>   0.0800 
 44 H        7.8130    -2.9250     3.5990 H     1 <1>   0.0800 
@<TRIPOS>BOND
  1   1   2  2   
  2   2   3  am  
  3   2   4  1   
  4   3   5  1   
  5   3  21  1   
  6   4   6  1   
  7   4  22  1   
  8   4  23  1   
  9   5   7  1   
 10   5  24  1   
 11   5  25  1   
 12   6   7  1   
 13   6   8  1   
 14   6  26  1   
 15   7   9  1   
 16   7  27  1   
 17   8  10  1   
 18   8  28  1   
 19   8  29  1   
 20   9  10  1   
 21   9  30  1   
 22   9  31  1   
 23  10  11  1   
 24  10  32  1   
 25  11  12  1   
 26  11  13  1   
 27  11  33  1   
 28  12  14  1   
 29  12  34  1   
 30  12  35  1   
 31  13  36  1   
 32  13  37  1   
 33  13  38  1   
 34  14  15  2   
 35  14  16  1   
 36  15  17  1   
 37  16  18  1   
 38  16  19  1   
 39  17  18  2   
 40  17  39  1   
 41  19  20  1   
 42  19  40  1   
 43  19  41  1   
 44  20  42  1   
 45  20  43  1   
 46  20  44  1   
@<TRIPOS>SUBSTRUCTURE
  1 ****   8 GROUP 4 **** **** 0

# MOE 2024.06 (io_trps.svl 2023.06)
