@<TRIPOS>MOLECULE
NONAME
49 51 1 0 0 
SMALL
USER_CHARGES


@<TRIPOS>ATOM
  1 S       -1.4610     0.9290    -1.2920 S.3   1 <1>  -0.0800 
  2 C       -0.7130     0.1270     0.0790 C.2   1 <1>  -0.1400 
  3 C        0.1020     1.4640    -1.8810 C.2   1 <1>  -0.1100 
  4 C        0.6230     0.2860     0.0450 C.2   1 <1>  -0.1500 
  5 C       -1.6320    -0.5980     1.0390 C.3   1 <1>   0.5230 
  6 C        1.0990     1.0450    -1.0750 C.2   1 <1>   0.0190 
  7 N       -2.3140    -1.6890     0.2920 N.4   1 <1>  -0.9590 
  8 C        2.4960     1.2910    -1.2630 C.1   1 <1>  -0.0190 
  9 C       -1.2770    -2.6680    -0.2280 C.3   1 <1>   0.3430 
 10 C       -3.3450    -2.3090     1.1860 C.3   1 <1>   0.3430 
 11 C        3.6610     1.4810    -1.4170 C.1   1 <1>  -0.2000 
 12 C       -1.8750    -3.9820    -0.8210 C.3   1 <1>   0.4230 
 13 C       -3.8980    -3.6040     0.5750 C.3   1 <1>  -0.1600 
 14 C        5.1180     1.7070    -1.6120 C.3   1 <1>   0.3200 
 15 N       -0.8430    -4.9710    -1.3040 N.4   1 <1>  -0.9590 
 16 C       -2.7670    -4.6210     0.2570 C.3   1 <1>  -0.1060 
 17 O        5.7570     1.3050    -0.4590 O.3   1 <1>  -0.6800 
 18 C       -1.4480    -6.2070    -1.8730 C.3   1 <1>   0.3430 
 19 C        0.2410    -4.4340    -2.1760 C.3   1 <1>   0.2630 
 20 C       -1.8780    -4.8470     1.4950 C.2   1 <1>   0.9060 
 21 C       -3.3970    -5.9360    -0.2590 C.3   1 <1>  -0.1600 
 22 C       -2.3330    -6.8860    -0.8280 C.3   1 <1>  -0.1600 
 23 O       -0.6870    -5.1320     1.3150 O.co2 1 <1>  -0.9000 
 24 O       -2.3130    -4.5590     2.6050 O.co2 1 <1>  -0.9000 
 25 H        0.1240     2.0490    -2.7840 H     1 <1>   0.1500 
 26 H        1.3290    -0.0980     0.7640 H     1 <1>   0.1500 
 27 H       -2.3550     0.0950     1.4380 H     1 <1>   0.0800 
 28 H       -1.0620    -1.0100     1.8580 H     1 <1>   0.0800 
 29 H       -2.7890    -1.2390    -0.5010 H     1 <1>   0.4500 
 30 H       -0.6860    -2.1830    -0.9860 H     1 <1>   0.0800 
 31 H       -0.6180    -2.9370     0.5830 H     1 <1>   0.0800 
 32 H       -2.9060    -2.5300     2.1470 H     1 <1>   0.0800 
 33 H       -4.1550    -1.6180     1.3550 H     1 <1>   0.0800 
 34 H       -2.4930    -3.7150    -1.6600 H     1 <1>   0.0800 
 35 H       -4.5670    -4.0430     1.2970 H     1 <1>   0.0800 
 36 H       -4.4780    -3.3770    -0.3010 H     1 <1>   0.0800 
 37 H        5.3300     2.7500    -1.7760 H     1 <1>   0.0800 
 38 H        5.4990     1.1220    -2.4320 H     1 <1>   0.0800 
 39 H       -0.4120    -5.2810    -0.3870 H     1 <1>   0.4500 
 40 H        5.3000     1.6930     0.3110 H     1 <1>   0.4000 
 41 H       -2.0370    -5.9600    -2.7420 H     1 <1>   0.0800 
 42 H       -0.6710    -6.8920    -2.1720 H     1 <1>   0.0800 
 43 H       -0.1690    -4.0610    -3.1010 H     1 <1>   0.0800 
 44 H        0.9500    -5.2140    -2.4030 H     1 <1>   0.0800 
 45 H        0.7690    -3.6390    -1.6770 H     1 <1>   0.0800 
 46 H       -3.9150    -6.4270     0.5500 H     1 <1>   0.0800 
 47 H       -4.1200    -5.7220    -1.0270 H     1 <1>   0.0800 
 48 H       -2.8180    -7.7370    -1.2750 H     1 <1>   0.0800 
 49 H       -1.7120    -7.2610    -0.0300 H     1 <1>   0.0800 
@<TRIPOS>BOND
  1   1   2  1   
  2   1   3  1   
  3   2   4  2   
  4   2   5  1   
  5   3   6  2   
  6   3  25  1   
  7   4   6  1   
  8   4  26  1   
  9   5   7  1   
 10   5  27  1   
 11   5  28  1   
 12   6   8  1   
 13   7   9  1   
 14   7  10  1   
 15   7  29  1   
 16   8  11  3   
 17   9  12  1   
 18   9  30  1   
 19   9  31  1   
 20  10  13  1   
 21  10  32  1   
 22  10  33  1   
 23  11  14  1   
 24  12  15  1   
 25  12  16  1   
 26  12  34  1   
 27  13  16  1   
 28  13  35  1   
 29  13  36  1   
 30  14  17  1   
 31  14  37  1   
 32  14  38  1   
 33  15  18  1   
 34  15  19  1   
 35  15  39  1   
 36  16  20  1   
 37  16  21  1   
 38  17  40  1   
 39  18  22  1   
 40  18  41  1   
 41  18  42  1   
 42  19  43  1   
 43  19  44  1   
 44  19  45  1   
 45  20  23  ar  
 46  20  24  ar  
 47  21  22  1   
 48  21  46  1   
 49  21  47  1   
 50  22  48  1   
 51  22  49  1   
@<TRIPOS>SUBSTRUCTURE
  1 ****   9 GROUP 4 **** **** 0

# MOE 2024.06 (io_trps.svl 2023.06)
