@<TRIPOS>MOLECULE
NONAME
44 45 1 0 0 
SMALL
USER_CHARGES


@<TRIPOS>ATOM
  1 CL      -1.5410    -2.7850     0.2280 Cl    1 <1>  -0.1770 
  2 C       -2.1080    -1.1330     0.2040 C.ar  1 <1>   0.1770 
  3 C       -3.2680    -0.7800     0.8890 C.ar  1 <1>   0.0860 
  4 C       -1.3690    -0.2150    -0.5160 C.ar  1 <1>  -0.1500 
  5 C       -3.6710     0.5610     0.8330 C.ar  1 <1>  -0.1440 
  6 C       -4.0220    -1.7800     1.6120 C.2   1 <1>   0.5440 
  7 C       -1.7850     1.1020    -0.5650 C.ar  1 <1>  -0.1500 
  8 C       -2.9320     1.4840     0.1090 C.ar  1 <1>  -0.1500 
  9 C       -4.9240     1.0210     1.5680 C.3   1 <1>  -0.0960 
 10 O       -3.8490    -1.9330     2.8060 O.2   1 <1>  -0.5700 
 11 N       -4.9710    -2.5440     0.9790 N.am  1 <1>  -0.6600 
 12 C       -5.4080    -2.3990    -0.4270 C.3   1 <1>   0.1400 
 13 C       -5.7640    -3.5890     1.6630 C.3   1 <1>   0.1400 
 14 C       -6.8540    -2.8950    -0.4140 C.3   1 <1>   0.2000 
 15 C       -6.9150    -3.9460     0.7060 C.3   1 <1>  -0.0800 
 16 O       -7.6580    -1.8350    -0.0260 O.3   1 <1>  -0.6800 
 17 C       -6.9130    -5.4160     0.2170 C.3   1 <1>  -0.0550 
 18 S       -5.6390    -5.9780    -0.9260 S.o2  1 <1>   1.3330 
 19 O       -5.6300    -5.1030    -2.0770 O.2   1 <1>  -0.6500 
 20 O       -5.8180    -7.3980    -1.1290 O.2   1 <1>  -0.6500 
 21 N       -4.1760    -5.7760    -0.0920 N.am  1 <1>  -0.8490 
 22 C       -3.0350    -5.6220    -0.9980 C.3   1 <1>   0.1160 
 23 C       -3.8940    -6.8420     0.8750 C.3   1 <1>   0.1160 
 24 H       -0.4790    -0.5290    -1.0300 H     1 <1>   0.1500 
 25 H       -1.2180     1.8290    -1.1230 H     1 <1>   0.1500 
 26 H       -3.2430     2.5140     0.0660 H     1 <1>   0.1500 
 27 H       -5.0430     2.0880     1.5020 H     1 <1>   0.0800 
 28 H       -4.8600     0.7540     2.6090 H     1 <1>   0.0800 
 29 H       -5.7940     0.5540     1.1430 H     1 <1>   0.0800 
 30 H       -5.3420    -1.3830    -0.7740 H     1 <1>   0.0800 
 31 H       -4.7950    -3.0260    -1.0480 H     1 <1>   0.0800 
 32 H       -5.1370    -4.4320     1.8890 H     1 <1>   0.0800 
 33 H       -6.1490    -3.1910     2.5870 H     1 <1>   0.0800 
 34 H       -7.1970    -3.2420    -1.3740 H     1 <1>   0.0800 
 35 H       -7.8380    -3.8280     1.2480 H     1 <1>   0.0800 
 36 H       -7.2850    -1.4500     0.7920 H     1 <1>   0.4000 
 37 H       -7.8590    -5.5860    -0.2610 H     1 <1>   0.0800 
 38 H       -6.8960    -6.0510     1.0800 H     1 <1>   0.0800 
 39 H       -2.1260    -5.4950    -0.4350 H     1 <1>   0.0800 
 40 H       -3.1690    -4.7510    -1.6170 H     1 <1>   0.0800 
 41 H       -2.9410    -6.4880    -1.6330 H     1 <1>   0.0800 
 42 H       -3.0070    -6.6020     1.4370 H     1 <1>   0.0800 
 43 H       -3.7450    -7.7820     0.3680 H     1 <1>   0.0800 
 44 H       -4.7130    -6.9470     1.5650 H     1 <1>   0.0800 
@<TRIPOS>BOND
  1   1   2  1   
  2   2   3  ar  
  3   2   4  ar  
  4   3   5  ar  
  5   3   6  1   
  6   4   7  ar  
  7   4  24  1   
  8   5   8  ar  
  9   5   9  1   
 10   6  10  2   
 11   6  11  am  
 12   7   8  ar  
 13   7  25  1   
 14   8  26  1   
 15   9  27  1   
 16   9  28  1   
 17   9  29  1   
 18  11  12  1   
 19  11  13  1   
 20  12  14  1   
 21  12  30  1   
 22  12  31  1   
 23  13  15  1   
 24  13  32  1   
 25  13  33  1   
 26  14  15  1   
 27  14  16  1   
 28  14  34  1   
 29  15  17  1   
 30  15  35  1   
 31  16  36  1   
 32  17  18  1   
 33  17  37  1   
 34  17  38  1   
 35  18  19  2   
 36  18  20  2   
 37  18  21  am  
 38  21  22  1   
 39  21  23  1   
 40  22  39  1   
 41  22  40  1   
 42  22  41  1   
 43  23  42  1   
 44  23  43  1   
 45  23  44  1   
@<TRIPOS>SUBSTRUCTURE
  1 ****  11 GROUP 4 **** **** 0

# MOE 2024.06 (io_trps.svl 2023.06)
