@<TRIPOS>MOLECULE
NONAME
52 54 1 0 0 
SMALL
USER_CHARGES


@<TRIPOS>ATOM
  1 O       -1.8410    -0.9170     2.5440 O.co2 1 <1>  -0.9000 
  2 C       -2.3640    -0.0520     1.8160 C.2   1 <1>   0.9790 
  3 O       -2.1210     1.1480     2.0180 O.co2 1 <1>  -0.9000 
  4 C       -3.2760    -0.4690     0.7590 C.ar  1 <1>  -0.1790 
  5 C       -3.3970    -1.8160     0.4350 C.ar  1 <1>  -0.1500 
  6 C       -4.0700     0.4310     0.0510 C.ar  1 <1>  -0.1500 
  7 C       -4.3070    -2.2670    -0.5050 C.ar  1 <1>  -0.1440 
  8 C       -4.9610    -0.0010    -0.9160 C.ar  1 <1>  -0.1500 
  9 C       -5.0870    -1.3510    -1.1930 C.ar  1 <1>  -0.1500 
 10 C       -4.4520    -3.7560    -0.7290 C.3   1 <1>   0.4870 
 11 N       -4.7080    -4.4090     0.5900 N.4   1 <1>  -0.9590 
 12 C       -4.8010    -5.9020     0.4960 C.3   1 <1>   0.3430 
 13 C       -5.9100    -3.8350     1.2930 C.3   1 <1>   0.3430 
 14 C       -6.1470    -6.3710    -0.1120 C.3   1 <1>   0.1100 
 15 C       -7.2380    -4.3250     0.6740 C.3   1 <1>   0.1100 
 16 N       -7.3170    -5.8090     0.6110 N.3   1 <1>  -0.8100 
 17 C       -8.6170    -6.2620     0.0720 C.3   1 <1>   0.1100 
 18 C       -8.9600    -7.6830     0.5660 C.3   1 <1>   0.3430 
 19 N      -10.3140    -8.1510     0.1190 N.4   1 <1>  -0.9590 
 20 C      -11.4360    -7.3850     0.7790 C.3   1 <1>   0.3430 
 21 C      -10.4790    -9.6240     0.3980 C.3   1 <1>   0.3430 
 22 C      -12.8150    -7.9730     0.4220 C.3   1 <1>   0.1200 
 23 C      -11.9000   -10.1140     0.0560 C.3   1 <1>   0.1200 
 24 O      -12.8500    -9.3370     0.7230 O.3   1 <1>  -0.5600 
 25 H       -2.7540    -2.5020     0.9610 H     1 <1>   0.1500 
 26 H       -3.9760     1.4820     0.2760 H     1 <1>   0.1500 
 27 H       -5.5550     0.7230    -1.4460 H     1 <1>   0.1500 
 28 H       -5.7930    -1.6650    -1.9420 H     1 <1>   0.1500 
 29 H       -3.5430    -4.1370    -1.1650 H     1 <1>   0.0800 
 30 H       -5.2670    -3.9440    -1.4060 H     1 <1>   0.0800 
 31 H       -3.8960    -4.1530     1.1740 H     1 <1>   0.4500 
 32 H       -4.7160    -6.3230     1.4840 H     1 <1>   0.0800 
 33 H       -3.9830    -6.2850    -0.0930 H     1 <1>   0.0800 
 34 H       -5.8750    -2.7570     1.2720 H     1 <1>   0.0800 
 35 H       -5.8910    -4.1330     2.3280 H     1 <1>   0.0800 
 36 H       -6.1780    -7.4460    -0.0650 H     1 <1>   0.0800 
 37 H       -6.1860    -6.0880    -1.1500 H     1 <1>   0.0800 
 38 H       -7.3490    -3.9040    -0.3110 H     1 <1>   0.0800 
 39 H       -8.0440    -3.9500     1.2820 H     1 <1>   0.0800 
 40 H       -8.5980    -6.2310    -1.0050 H     1 <1>   0.0800 
 41 H       -9.3840    -5.5910     0.4190 H     1 <1>   0.0800 
 42 H       -8.9150    -7.6940     1.6430 H     1 <1>   0.0800 
 43 H       -8.2110    -8.3610     0.1930 H     1 <1>   0.0800 
 44 H      -10.4040    -8.0260    -0.8980 H     1 <1>   0.4500 
 45 H      -11.4090    -6.3510     0.4810 H     1 <1>   0.0800 
 46 H      -11.3230    -7.4240     1.8510 H     1 <1>   0.0800 
 47 H      -10.3000    -9.8200     1.4420 H     1 <1>   0.0800 
 48 H       -9.7630   -10.1920    -0.1730 H     1 <1>   0.0800 
 49 H      -13.0410    -7.8410    -0.6220 H     1 <1>   0.0800 
 50 H      -13.5850    -7.4920     1.0010 H     1 <1>   0.0800 
 51 H      -12.0280   -11.1330     0.3790 H     1 <1>   0.0800 
 52 H      -12.0890   -10.0640    -1.0020 H     1 <1>   0.0800 
@<TRIPOS>BOND
  1   1   2  ar  
  2   2   3  ar  
  3   2   4  1   
  4   4   5  ar  
  5   4   6  ar  
  6   5   7  ar  
  7   5  25  1   
  8   6   8  ar  
  9   6  26  1   
 10   7   9  ar  
 11   7  10  1   
 12   8   9  ar  
 13   8  27  1   
 14   9  28  1   
 15  10  11  1   
 16  10  29  1   
 17  10  30  1   
 18  11  12  1   
 19  11  13  1   
 20  11  31  1   
 21  12  14  1   
 22  12  32  1   
 23  12  33  1   
 24  13  15  1   
 25  13  34  1   
 26  13  35  1   
 27  14  16  1   
 28  14  36  1   
 29  14  37  1   
 30  15  16  1   
 31  15  38  1   
 32  15  39  1   
 33  16  17  1   
 34  17  18  1   
 35  17  40  1   
 36  17  41  1   
 37  18  19  1   
 38  18  42  1   
 39  18  43  1   
 40  19  20  1   
 41  19  21  1   
 42  19  44  1   
 43  20  22  1   
 44  20  45  1   
 45  20  46  1   
 46  21  23  1   
 47  21  47  1   
 48  21  48  1   
 49  22  24  1   
 50  22  49  1   
 51  22  50  1   
 52  23  24  1   
 53  23  51  1   
 54  23  52  1   
@<TRIPOS>SUBSTRUCTURE
  1 ****  15 GROUP 4 **** **** 0

# MOE 2024.06 (io_trps.svl 2023.06)
