@<TRIPOS>MOLECULE
NONAME
45 48 1 0 0 
SMALL
USER_CHARGES


@<TRIPOS>ATOM
  1 O       -0.0010     0.6130    -0.8870 O.2   1 <1>  -0.5700 
  2 C        0.1210     1.8210    -0.7650 C.2   1 <1>   0.5440 
  3 N       -1.0010     2.6100    -0.9230 N.am  1 <1>  -0.6600 
  4 C        1.4190     2.3800    -0.4300 C.ar  1 <1>   0.0860 
  5 C       -2.2040     2.1210    -1.6520 C.3   1 <1>   0.1400 
  6 C       -1.2190     3.8860    -0.1870 C.3   1 <1>   0.1400 
  7 C        2.2860     1.7090     0.4530 C.ar  1 <1>  -0.1520 
  8 C        1.8860     3.5820    -0.9480 C.ar  1 <1>  -0.1500 
  9 C       -3.3570     1.9300    -0.6660 C.3   1 <1>  -0.1600 
 10 C       -2.3640     3.7020     0.8110 C.3   1 <1>  -0.1600 
 11 N        2.1220     0.4990     1.0700 N.pl3 1 <1>   0.0330 
 12 C        3.5180     2.2310     0.8310 C.ar  1 <1>   0.0000 
 13 C        3.1250     4.1170    -0.5830 C.ar  1 <1>  -0.1500 
 14 C       -3.6450     3.2090     0.1240 C.3   1 <1>   0.4180 
 15 C        3.2230     0.2620     1.8450 C.2   1 <1>  -0.3020 
 16 C        3.9390     3.4530     0.3060 C.ar  1 <1>  -0.1500 
 17 C        4.0880     1.2970     1.7240 C.2   1 <1>  -0.1500 
 18 O       -4.0700     4.1670    -0.8160 O.3   1 <1>  -0.5600 
 19 C       -4.7460     2.9420     1.1470 C.2   1 <1>  -0.2880 
 20 C       -4.7970     5.2640    -0.3380 C.3   1 <1>   0.1200 
 21 C       -5.8800     3.6420     1.2300 C.2   1 <1>  -0.2760 
 22 C       -6.1220     4.8050     0.2860 C.3   1 <1>  -0.0220 
 23 C       -6.9970     3.3580     2.2170 C.3   1 <1>  -0.1020 
 24 H       -1.9920     1.1920    -2.1530 H     1 <1>   0.0800 
 25 H       -2.4800     2.8450    -2.4000 H     1 <1>   0.0800 
 26 H       -1.4650     4.6620    -0.8920 H     1 <1>   0.0800 
 27 H       -0.3330     4.1780     0.3480 H     1 <1>   0.0800 
 28 H        1.2770     4.1210    -1.6520 H     1 <1>   0.1500 
 29 H       -3.0980     1.1360     0.0100 H     1 <1>   0.0800 
 30 H       -4.2450     1.6330    -1.1940 H     1 <1>   0.0800 
 31 H       -2.5530     4.6210     1.3310 H     1 <1>   0.0800 
 32 H       -2.0610     2.9790     1.5450 H     1 <1>   0.0800 
 33 H        1.3170    -0.1190     0.8990 H     1 <1>   0.2700 
 34 H        3.4390     5.0550    -1.0070 H     1 <1>   0.1500 
 35 H        3.3230    -0.6350     2.4310 H     1 <1>   0.1500 
 36 H        4.8940     3.8520     0.5990 H     1 <1>   0.1500 
 37 H        5.0460     1.4230     2.1970 H     1 <1>   0.1500 
 38 H       -4.5160     2.1170     1.7970 H     1 <1>   0.1500 
 39 H       -4.9840     5.9230    -1.1670 H     1 <1>   0.0800 
 40 H       -4.2000     5.7840     0.3890 H     1 <1>   0.0800 
 41 H       -6.8060     4.5080    -0.4900 H     1 <1>   0.0800 
 42 H       -6.5550     5.6330     0.8170 H     1 <1>   0.0800 
 43 H       -7.1570     4.2090     2.8550 H     1 <1>   0.0800 
 44 H       -6.7500     2.5120     2.8330 H     1 <1>   0.0800 
 45 H       -7.9090     3.1400     1.6900 H     1 <1>   0.0800 
@<TRIPOS>BOND
  1   1   2  2   
  2   2   3  am  
  3   2   4  1   
  4   3   5  1   
  5   3   6  1   
  6   4   7  ar  
  7   4   8  ar  
  8   5   9  1   
  9   5  24  1   
 10   5  25  1   
 11   6  10  1   
 12   6  26  1   
 13   6  27  1   
 14   7  11  1   
 15   7  12  ar  
 16   8  13  ar  
 17   8  28  1   
 18   9  14  1   
 19   9  29  1   
 20   9  30  1   
 21  10  14  1   
 22  10  31  1   
 23  10  32  1   
 24  11  15  1   
 25  11  33  1   
 26  12  16  ar  
 27  12  17  1   
 28  13  16  ar  
 29  13  34  1   
 30  14  18  1   
 31  14  19  1   
 32  15  17  2   
 33  15  35  1   
 34  16  36  1   
 35  17  37  1   
 36  18  20  1   
 37  19  21  2   
 38  19  38  1   
 39  20  22  1   
 40  20  39  1   
 41  20  40  1   
 42  21  22  1   
 43  21  23  1   
 44  22  41  1   
 45  22  42  1   
 46  23  43  1   
 47  23  44  1   
 48  23  45  1   
@<TRIPOS>SUBSTRUCTURE
  1 ****   3 GROUP 4 **** **** 0

# MOE 2024.06 (io_trps.svl 2023.06)
