@<TRIPOS>MOLECULE
NONAME
59 62 1 0 0 
SMALL
USER_CHARGES


@<TRIPOS>ATOM
  1 O       -1.6880     2.0970     2.9930 O.2   1 <1>  -0.5700 
  2 C       -2.4610     2.2470     2.0720 C.2   1 <1>   0.5690 
  3 N       -3.4770     1.3420     1.8430 N.am  1 <1>  -0.6600 
  4 C       -2.2530     3.5000     1.1960 C.3   1 <1>   0.1710 
  5 C       -4.5080     1.4260     0.7700 C.3   1 <1>   0.1400 
  6 C       -3.6640     0.1590     2.7330 C.3   1 <1>   0.1400 
  7 N       -1.2380     3.3960     0.1060 N.3   1 <1>  -0.8100 
  8 C       -4.4560     0.1590    -0.0890 C.3   1 <1>  -0.1600 
  9 C       -3.5910    -1.1200     1.8980 C.3   1 <1>  -0.1600 
 10 C        0.1100     3.1720     0.6690 C.3   1 <1>   0.2530 
 11 C       -1.5830     2.3680    -0.8850 C.3   1 <1>   0.0300 
 12 C       -4.6150    -1.1170     0.7540 C.3   1 <1>   0.4240 
 13 C        1.1890     3.2630    -0.4030 C.ar  1 <1>  -0.1430 
 14 O       -5.8740    -1.0670     1.3820 O.3   1 <1>  -0.5600 
 15 C       -4.4530    -2.3830    -0.1170 C.ar  1 <1>  -0.1430 
 16 C        1.2860     4.3890    -1.2070 C.ar  1 <1>  -0.1500 
 17 C        2.0880     2.2220    -0.5850 C.ar  1 <1>  -0.1500 
 18 C       -6.9780    -1.5140     0.6560 C.3   1 <1>   0.1200 
 19 C       -5.5020    -3.2810    -0.2850 C.ar  1 <1>  -0.1430 
 20 C       -3.2470    -2.6450    -0.7600 C.ar  1 <1>  -0.1500 
 21 C        2.2680     4.4760    -2.1790 C.ar  1 <1>  -0.1500 
 22 C        3.0710     2.3070    -1.5570 C.ar  1 <1>  -0.1500 
 23 C       -6.8280    -3.0100     0.3980 C.3   1 <1>  -0.0170 
 24 C       -5.3470    -4.4140    -1.0680 C.ar  1 <1>  -0.1500 
 25 C       -3.0920    -3.7730    -1.5430 C.ar  1 <1>  -0.1500 
 26 C        3.1620     3.4340    -2.3540 C.ar  1 <1>  -0.1500 
 27 C       -4.1360    -4.6660    -1.7040 C.ar  1 <1>   0.0830 
 28 O       -3.9010    -5.7470    -2.4880 O.3   1 <1>  -0.3630 
 29 C       -4.8910    -6.7280    -2.6990 C.3   1 <1>   0.0400 
 30 H       -1.9490     4.2940     1.8550 H     1 <1>   0.0800 
 31 H       -3.1870     3.8140     0.7750 H     1 <1>   0.0800 
 32 H       -4.3600     2.2830     0.1420 H     1 <1>   0.0800 
 33 H       -5.4790     1.5130     1.2280 H     1 <1>   0.0800 
 34 H       -4.6240     0.2300     3.2170 H     1 <1>   0.0800 
 35 H       -2.9100     0.1280     3.5000 H     1 <1>   0.0800 
 36 H       -3.5120     0.1330    -0.5970 H     1 <1>   0.0800 
 37 H       -5.2160     0.1960    -0.8460 H     1 <1>   0.0800 
 38 H       -3.7690    -1.9750     2.5250 H     1 <1>   0.0800 
 39 H       -2.5950    -1.2070     1.5090 H     1 <1>   0.0800 
 40 H        0.1510     2.2080     1.1480 H     1 <1>   0.0800 
 41 H        0.3120     3.9200     1.4170 H     1 <1>   0.0800 
 42 H       -2.5680     2.5490    -1.2750 H     1 <1>   0.0800 
 43 H       -1.5430     1.3890    -0.4410 H     1 <1>   0.0800 
 44 H       -0.8900     2.4030    -1.7090 H     1 <1>   0.0800 
 45 H        0.5860     5.1960    -1.0740 H     1 <1>   0.1500 
 46 H        2.0260     1.3420     0.0310 H     1 <1>   0.1500 
 47 H       -7.0410    -0.9660    -0.2680 H     1 <1>   0.0800 
 48 H       -7.8590    -1.3200     1.2420 H     1 <1>   0.0800 
 49 H       -2.4140    -1.9740    -0.6570 H     1 <1>   0.1500 
 50 H        2.3330     5.3530    -2.7980 H     1 <1>   0.1500 
 51 H        3.7650     1.4960    -1.6910 H     1 <1>   0.1500 
 52 H       -7.6410    -3.3450    -0.2200 H     1 <1>   0.0800 
 53 H       -6.8690    -3.5400     1.3320 H     1 <1>   0.0800 
 54 H       -6.1730    -5.0890    -1.1740 H     1 <1>   0.1500 
 55 H       -2.1570    -3.9700    -2.0370 H     1 <1>   0.1500 
 56 H        3.9250     3.5010    -3.1090 H     1 <1>   0.1500 
 57 H       -4.4780    -7.4860    -3.3400 H     1 <1>   0.0800 
 58 H       -5.7400    -6.2700    -3.1750 H     1 <1>   0.0800 
 59 H       -5.1630    -7.1590    -1.7520 H     1 <1>   0.0800 
@<TRIPOS>BOND
  1   1   2  2   
  2   2   3  am  
  3   2   4  1   
  4   3   5  1   
  5   3   6  1   
  6   4   7  1   
  7   4  30  1   
  8   4  31  1   
  9   5   8  1   
 10   5  32  1   
 11   5  33  1   
 12   6   9  1   
 13   6  34  1   
 14   6  35  1   
 15   7  10  1   
 16   7  11  1   
 17   8  12  1   
 18   8  36  1   
 19   8  37  1   
 20   9  12  1   
 21   9  38  1   
 22   9  39  1   
 23  10  13  1   
 24  10  40  1   
 25  10  41  1   
 26  11  42  1   
 27  11  43  1   
 28  11  44  1   
 29  12  14  1   
 30  12  15  1   
 31  13  16  ar  
 32  13  17  ar  
 33  14  18  1   
 34  15  19  ar  
 35  15  20  ar  
 36  16  21  ar  
 37  16  45  1   
 38  17  22  ar  
 39  17  46  1   
 40  18  23  1   
 41  18  47  1   
 42  18  48  1   
 43  19  23  1   
 44  19  24  ar  
 45  20  25  ar  
 46  20  49  1   
 47  21  26  ar  
 48  21  50  1   
 49  22  26  ar  
 50  22  51  1   
 51  23  52  1   
 52  23  53  1   
 53  24  27  ar  
 54  24  54  1   
 55  25  27  ar  
 56  25  55  1   
 57  26  56  1   
 58  27  28  1   
 59  28  29  1   
 60  29  57  1   
 61  29  58  1   
 62  29  59  1   
@<TRIPOS>SUBSTRUCTURE
  1 ****   8 GROUP 4 **** **** 0

# MOE 2024.06 (io_trps.svl 2023.06)
