@<TRIPOS>MOLECULE
NONAME
49 52 1 0 0 
SMALL
USER_CHARGES


@<TRIPOS>ATOM
  1 S       -0.8750    -1.1680     2.0730 S.o2  1 <1>   1.0900 
  2 O       -0.8030     0.2660     1.9280 O.2   1 <1>  -0.6500 
  3 O       -0.5000    -1.8330     3.2990 O.2   1 <1>  -0.6500 
  4 C       -2.4770    -1.7640     1.6160 C.3   1 <1>  -0.0550 
  5 C       -0.0300    -1.9820     0.7250 C.3   1 <1>  -0.0550 
  6 C       -2.2070    -3.1540     1.0460 C.3   1 <1>   0.1760 
  7 C       -0.9740    -3.0400     0.1260 C.3   1 <1>  -0.1600 
  8 N       -3.3870    -3.6840     0.3180 N.pl3 1 <1>   0.3140 
  9 N       -4.0180    -2.9430    -0.6120 N.2   1 <1>  -0.7070 
 10 C       -3.9500    -4.9120     0.4400 C.2   1 <1>  -0.3320 
 11 C       -4.9600    -3.7080    -1.0690 C.2   1 <1>   0.1080 
 12 C       -4.9650    -4.9620    -0.4500 C.2   1 <1>   0.0630 
 13 C       -3.4740    -5.9910     1.4070 C.3   1 <1>  -0.0600 
 14 C       -5.9160    -3.2250    -2.1360 C.3   1 <1>  -0.0590 
 15 N       -5.8150    -6.0780    -0.6420 N.am  1 <1>  -0.4930 
 16 C       -6.2940    -6.6340    -1.7940 C.2   1 <1>   0.5690 
 17 O       -6.1340    -6.1390    -2.8840 O.2   1 <1>  -0.5700 
 18 C       -7.0560    -7.9480    -1.7350 C.3   1 <1>   0.1570 
 19 N       -6.9350    -8.5960    -0.4110 N.pl3 1 <1>   0.0480 
 20 C       -5.7720    -9.0810     0.1440 C.ar  1 <1>  -0.1520 
 21 C       -7.8950    -8.6130     0.5610 C.2   1 <1>  -0.3020 
 22 C       -6.0200    -9.4050     1.4740 C.ar  1 <1>   0.0000 
 23 C       -4.4950    -9.2510    -0.4040 C.ar  1 <1>  -0.1500 
 24 C       -7.3760    -9.1040     1.7110 C.2   1 <1>  -0.1500 
 25 C       -4.9880    -9.9070     2.2720 C.ar  1 <1>  -0.1500 
 26 C       -3.4880    -9.7450     0.3920 C.ar  1 <1>  -0.1500 
 27 C       -3.7340   -10.0730     1.7310 C.ar  1 <1>  -0.1500 
 28 H       -2.8930    -1.1300     0.8560 H     1 <1>   0.0800 
 29 H       -3.1390    -1.8040     2.4590 H     1 <1>   0.0800 
 30 H        0.8720    -2.4400     1.0840 H     1 <1>   0.0800 
 31 H        0.2310    -1.2660    -0.0320 H     1 <1>   0.0800 
 32 H       -1.9750    -3.8140     1.8630 H     1 <1>   0.0800 
 33 H       -0.4800    -3.9910     0.0310 H     1 <1>   0.0800 
 34 H       -1.2840    -2.7100    -0.8520 H     1 <1>   0.0800 
 35 H       -3.5350    -5.6390     2.4210 H     1 <1>   0.0800 
 36 H       -2.4570    -6.2640     1.1880 H     1 <1>   0.0800 
 37 H       -4.0810    -6.8750     1.3250 H     1 <1>   0.0800 
 38 H       -5.9950    -2.1540    -2.0990 H     1 <1>   0.0800 
 39 H       -6.8890    -3.6520    -1.9850 H     1 <1>   0.0800 
 40 H       -5.5480    -3.5150    -3.1030 H     1 <1>   0.0800 
 41 H       -5.9170    -6.6600     0.1950 H     1 <1>   0.3700 
 42 H       -6.6680    -8.6130    -2.4820 H     1 <1>   0.0800 
 43 H       -8.0920    -7.7620    -1.9440 H     1 <1>   0.0800 
 44 H       -8.9000    -8.2720     0.3810 H     1 <1>   0.1500 
 45 H       -4.3050    -8.9990    -1.4330 H     1 <1>   0.1500 
 46 H       -7.8690    -9.2510     2.6560 H     1 <1>   0.1500 
 47 H       -5.1920   -10.1570     3.2970 H     1 <1>   0.1500 
 48 H       -2.4990    -9.8860    -0.0090 H     1 <1>   0.1500 
 49 H       -2.9300   -10.4610     2.3310 H     1 <1>   0.1500 
@<TRIPOS>BOND
  1   1   2  2   
  2   1   3  2   
  3   1   4  1   
  4   1   5  1   
  5   4   6  1   
  6   4  28  1   
  7   4  29  1   
  8   5   7  1   
  9   5  30  1   
 10   5  31  1   
 11   6   7  1   
 12   6   8  1   
 13   6  32  1   
 14   7  33  1   
 15   7  34  1   
 16   8   9  1   
 17   8  10  1   
 18   9  11  2   
 19  10  12  2   
 20  10  13  1   
 21  11  12  1   
 22  11  14  1   
 23  12  15  1   
 24  13  35  1   
 25  13  36  1   
 26  13  37  1   
 27  14  38  1   
 28  14  39  1   
 29  14  40  1   
 30  15  16  am  
 31  15  41  1   
 32  16  17  2   
 33  16  18  1   
 34  18  19  1   
 35  18  42  1   
 36  18  43  1   
 37  19  20  1   
 38  19  21  1   
 39  20  22  ar  
 40  20  23  ar  
 41  21  24  2   
 42  21  44  1   
 43  22  24  1   
 44  22  25  ar  
 45  23  26  ar  
 46  23  45  1   
 47  24  46  1   
 48  25  27  ar  
 49  25  47  1   
 50  26  27  ar  
 51  26  48  1   
 52  27  49  1   
@<TRIPOS>SUBSTRUCTURE
  1 ****  10 GROUP 4 **** **** 0

# MOE 2024.06 (io_trps.svl 2023.06)
