@<TRIPOS>MOLECULE
NONAME
47 49 1 0 0 
SMALL
USER_CHARGES


@<TRIPOS>ATOM
  1 O       -1.2490    -0.2060    -0.1320 O.2   1 <1>  -0.5700 
  2 C       -1.9720     0.6700    -0.5750 C.2   1 <1>   0.5440 
  3 N       -3.2290     0.2980    -1.0010 N.am  1 <1>  -0.6600 
  4 C       -1.5260     2.0540    -0.5960 C.ar  1 <1>   0.0860 
  5 C       -3.4800    -1.1240    -1.3350 C.3   1 <1>   0.1400 
  6 C       -4.4380     0.9770    -0.4530 C.3   1 <1>   0.1400 
  7 C       -0.6040     2.5220     0.3400 C.ar  1 <1>  -0.1500 
  8 C       -1.9900     2.9630    -1.5460 C.ar  1 <1>  -0.1500 
  9 C       -4.0310    -1.7260    -0.0350 C.3   1 <1>   0.4230 
 10 C       -5.1150     0.1060     0.6430 C.3   1 <1>  -0.1600 
 11 C       -0.1610     3.8370     0.3550 C.ar  1 <1>   0.0730 
 12 C       -1.5640     4.2780    -1.5510 C.ar  1 <1>  -0.1500 
 13 N       -3.5600    -3.1100     0.3330 N.4   1 <1>  -0.9590 
 14 C       -5.5790    -1.3610     0.1200 C.3   1 <1>   0.0000 
 15 C        0.7850     4.2800     1.3400 C.1   1 <1>   0.4840 
 16 C       -0.6550     4.7130    -0.6040 C.ar  1 <1>  -0.1500 
 17 C       -3.8830    -4.1280    -0.6750 C.3   1 <1>   0.3430 
 18 C       -2.0980    -3.1000     0.6660 C.3   1 <1>   0.2630 
 19 C       -6.0750    -2.7840    -0.4660 C.3   1 <1>  -0.1600 
 20 C       -7.1120    -0.9590     0.3660 C.3   1 <1>   0.1200 
 21 N        1.5300     4.6290     2.1280 N.1   1 <1>  -0.5570 
 22 C       -5.2050    -3.7510    -1.3120 C.3   1 <1>  -0.1600 
 23 O       -7.3600    -1.0490     1.7340 O.3   1 <1>  -0.6800 
 24 H       -4.1960    -1.1830    -2.1350 H     1 <1>   0.0800 
 25 H       -2.5660    -1.6010    -1.6410 H     1 <1>   0.0800 
 26 H       -4.1670     1.9310    -0.0300 H     1 <1>   0.0800 
 27 H       -5.1330     1.1610    -1.2560 H     1 <1>   0.0800 
 28 H       -0.2220     1.8340     1.0770 H     1 <1>   0.1500 
 29 H       -2.6900     2.6340    -2.2960 H     1 <1>   0.1500 
 30 H       -3.4810    -1.1700     0.7000 H     1 <1>   0.0800 
 31 H       -4.4750     0.0440     1.5100 H     1 <1>   0.0800 
 32 H       -5.8620     0.7720     1.0440 H     1 <1>   0.0800 
 33 H       -1.9370     4.9640    -2.2940 H     1 <1>   0.1500 
 34 H       -4.0860    -3.3470     1.1850 H     1 <1>   0.4500 
 35 H       -0.3260     5.7390    -0.6130 H     1 <1>   0.1500 
 36 H       -3.1160    -4.1730    -1.4330 H     1 <1>   0.0800 
 37 H       -3.9580    -5.0950    -0.2030 H     1 <1>   0.0800 
 38 H       -1.5150    -2.8300    -0.2000 H     1 <1>   0.0800 
 39 H       -1.7820    -4.0710     1.0110 H     1 <1>   0.0800 
 40 H       -1.8970    -2.3760     1.4400 H     1 <1>   0.0800 
 41 H       -6.4780    -3.3610     0.3530 H     1 <1>   0.0800 
 42 H       -6.8660    -2.6490    -1.1880 H     1 <1>   0.0800 
 43 H       -7.9040    -1.5430    -0.0700 H     1 <1>   0.0800 
 44 H       -7.3580     0.0350     0.0240 H     1 <1>   0.0800 
 45 H       -5.0080    -3.3140    -2.2750 H     1 <1>   0.0800 
 46 H       -5.7570    -4.6550    -1.5060 H     1 <1>   0.0800 
 47 H       -8.2830    -0.7960     1.9450 H     1 <1>   0.4000 
@<TRIPOS>BOND
  1   1   2  2   
  2   2   3  am  
  3   2   4  1   
  4   3   5  1   
  5   3   6  1   
  6   4   7  ar  
  7   4   8  ar  
  8   5   9  1   
  9   5  24  1   
 10   5  25  1   
 11   6  10  1   
 12   6  26  1   
 13   6  27  1   
 14   7  11  ar  
 15   7  28  1   
 16   8  12  ar  
 17   8  29  1   
 18   9  13  1   
 19   9  14  1   
 20   9  30  1   
 21  10  14  1   
 22  10  31  1   
 23  10  32  1   
 24  11  15  1   
 25  11  16  ar  
 26  12  16  ar  
 27  12  33  1   
 28  13  17  1   
 29  13  18  1   
 30  13  34  1   
 31  14  19  1   
 32  14  20  1   
 33  15  21  3   
 34  16  35  1   
 35  17  22  1   
 36  17  36  1   
 37  17  37  1   
 38  18  38  1   
 39  18  39  1   
 40  18  40  1   
 41  19  22  1   
 42  19  41  1   
 43  19  42  1   
 44  20  23  1   
 45  20  43  1   
 46  20  44  1   
 47  22  45  1   
 48  22  46  1   
 49  23  47  1   
@<TRIPOS>SUBSTRUCTURE
  1 ****   3 GROUP 4 **** **** 0

# MOE 2024.06 (io_trps.svl 2023.06)
