@<TRIPOS>MOLECULE
NONAME
48 50 1 0 0 
SMALL
USER_CHARGES


@<TRIPOS>ATOM
  1 O        3.7390    -1.1350     0.6770 O.2   1 <1>  -0.5700 
  2 C        2.5650    -1.4170     0.6700 C.2   1 <1>   0.5690 
  3 N        1.5990    -0.5480     0.2600 N.am  1 <1>  -0.5470 
  4 C        2.1350    -2.8320     1.1270 C.3   1 <1>   0.2510 
  5 C        1.5960     0.7610    -0.1640 C.ar  1 <1>   0.4270 
  6 N        0.7070    -3.2160     0.8950 N.3   1 <1>  -0.8100 
  7 C        2.5000    -3.1000     2.5930 C.3   1 <1>  -0.2400 
  8 N        0.3770     1.2050    -0.4290 N.ar  1 <1>  -0.6200 
  9 C        2.7430     1.5420    -0.3020 C.ar  1 <1>  -0.1500 
 10 C        0.3840    -3.4530    -0.5290 C.3   1 <1>   0.2530 
 11 C       -0.3470    -2.4940     1.6480 C.3   1 <1>   0.1100 
 12 C        0.2930     2.4590    -0.8430 C.ar  1 <1>   0.1600 
 13 C        2.6410     2.8440    -0.7340 C.ar  1 <1>  -0.1500 
 14 C       -0.4090    -4.7410    -0.6880 C.ar  1 <1>  -0.1440 
 15 C       -1.4630    -3.4480     2.0950 C.3   1 <1>  -0.1600 
 16 C        1.3720     3.3080    -1.0110 C.ar  1 <1>  -0.1500 
 17 C       -1.7850    -4.7440    -0.5070 C.ar  1 <1>   0.0820 
 18 C        0.2340    -5.9250    -1.0150 C.ar  1 <1>  -0.1500 
 19 C       -2.7140    -3.4270     1.1980 C.3   1 <1>   0.1200 
 20 O       -2.3840    -3.5770    -0.1650 O.3   1 <1>  -0.3630 
 21 C       -2.5280    -5.9170    -0.6660 C.ar  1 <1>   0.0820 
 22 C       -0.4900    -7.0950    -1.1710 C.ar  1 <1>  -0.1500 
 23 O       -3.8800    -5.8580    -0.4840 O.3   1 <1>  -0.3620 
 24 C       -1.8640    -7.0940    -1.0000 C.ar  1 <1>  -0.1500 
 25 C       -4.7060    -6.9680    -0.7520 C.3   1 <1>   0.0400 
 26 H        0.6620    -0.9410     0.2690 H     1 <1>   0.3700 
 27 H        2.7370    -3.5150     0.5520 H     1 <1>   0.0800 
 28 H        2.0830    -2.3540     3.2430 H     1 <1>   0.0800 
 29 H        3.5690    -3.0700     2.7050 H     1 <1>   0.0800 
 30 H        2.1540    -4.0750     2.8880 H     1 <1>   0.0800 
 31 H        3.7090     1.1350    -0.0740 H     1 <1>   0.1500 
 32 H        1.2880    -3.5400    -1.1070 H     1 <1>   0.0800 
 33 H       -0.1730    -2.6250    -0.9320 H     1 <1>   0.0800 
 34 H       -0.7640    -1.6950     1.0580 H     1 <1>   0.0800 
 35 H        0.0760    -2.0520     2.5310 H     1 <1>   0.0800 
 36 H       -0.6930     2.8320    -1.0630 H     1 <1>   0.1500 
 37 H        3.5090     3.4700    -0.8490 H     1 <1>   0.1500 
 38 H       -1.7790    -3.1540     3.0790 H     1 <1>   0.0800 
 39 H       -1.0820    -4.4500     2.1810 H     1 <1>   0.0800 
 40 H        1.2210     4.3160    -1.3520 H     1 <1>   0.1500 
 41 H        1.3020    -5.9400    -1.1460 H     1 <1>   0.1500 
 42 H       -3.2230    -2.4850     1.2940 H     1 <1>   0.0800 
 43 H       -3.3930    -4.2150     1.4710 H     1 <1>   0.0800 
 44 H        0.0190    -8.0080    -1.4240 H     1 <1>   0.1500 
 45 H       -2.3930    -8.0180    -1.1280 H     1 <1>   0.1500 
 46 H       -5.7270    -6.6700    -0.5900 H     1 <1>   0.0800 
 47 H       -4.4480    -7.7670    -0.0800 H     1 <1>   0.0800 
 48 H       -4.5710    -7.2640    -1.7770 H     1 <1>   0.0800 
@<TRIPOS>BOND
  1   1   2  2   
  2   2   3  am  
  3   2   4  1   
  4   3   5  1   
  5   3  26  1   
  6   4   6  1   
  7   4   7  1   
  8   4  27  1   
  9   5   8  ar  
 10   5   9  ar  
 11   6  10  1   
 12   6  11  1   
 13   7  28  1   
 14   7  29  1   
 15   7  30  1   
 16   8  12  ar  
 17   9  13  ar  
 18   9  31  1   
 19  10  14  1   
 20  10  32  1   
 21  10  33  1   
 22  11  15  1   
 23  11  34  1   
 24  11  35  1   
 25  12  16  ar  
 26  12  36  1   
 27  13  16  ar  
 28  13  37  1   
 29  14  17  ar  
 30  14  18  ar  
 31  15  19  1   
 32  15  38  1   
 33  15  39  1   
 34  16  40  1   
 35  17  20  1   
 36  17  21  ar  
 37  18  22  ar  
 38  18  41  1   
 39  19  20  1   
 40  19  42  1   
 41  19  43  1   
 42  21  23  1   
 43  21  24  ar  
 44  22  24  ar  
 45  22  44  1   
 46  23  25  1   
 47  24  45  1   
 48  25  46  1   
 49  25  47  1   
 50  25  48  1   
@<TRIPOS>SUBSTRUCTURE
  1 ****  10 GROUP 4 **** **** 0

# MOE 2024.06 (io_trps.svl 2023.06)
