@<TRIPOS>MOLECULE
NONAME
51 53 1 0 0 
SMALL
USER_CHARGES


@<TRIPOS>ATOM
  1 O       -1.1750    -3.0660    -1.1770 O.2   1 <1>  -0.5700 
  2 C       -0.0370    -2.7920    -0.8700 C.2   1 <1>   0.6900 
  3 N        0.4980    -2.9340     0.3760 N.am  1 <1>  -0.4200 
  4 N        0.8710    -2.3020    -1.7360 N.am  1 <1>  -0.7300 
  5 C        1.8100    -2.5630     0.3590 C.2   1 <1>   0.5690 
  6 C       -0.1640    -3.6200     1.5150 C.3   1 <1>   0.2010 
  7 C        2.1800    -2.1390    -1.0550 C.3   1 <1>   0.2010 
  8 O        2.5630    -2.5460     1.3000 O.2   1 <1>  -0.5700 
  9 C       -0.3650    -5.1150     1.2530 C.2   1 <1>   0.5690 
 10 O        0.6260    -5.8070     1.2800 O.2   1 <1>  -0.5700 
 11 N       -1.6030    -5.6660     1.0160 N.am  1 <1>  -0.6600 
 12 C       -1.7740    -7.1460     0.8510 C.3   1 <1>   0.1400 
 13 C       -2.8650    -4.9170     0.7080 C.3   1 <1>   0.1400 
 14 C       -2.4210    -7.4830    -0.5030 C.3   1 <1>   0.3430 
 15 C       -3.4640    -5.3690    -0.6470 C.3   1 <1>   0.2000 
 16 O       -3.6170    -6.7660    -0.6470 O.3   1 <1>  -0.5600 
 17 C       -2.7060    -8.9800    -0.6040 C.ar  1 <1>  -0.1430 
 18 C       -4.8290    -4.7070    -1.0100 C.3   1 <1>   0.0000 
 19 C       -3.9020    -9.5230    -0.1540 C.ar  1 <1>  -0.1500 
 20 C       -1.7450    -9.8240    -1.1430 C.ar  1 <1>  -0.1500 
 21 C       -5.9390    -5.0680    -0.0050 C.3   1 <1>  -0.2400 
 22 C       -5.2710    -5.1820    -2.4070 C.3   1 <1>  -0.2400 
 23 C       -4.7000    -3.1730    -1.0630 C.3   1 <1>  -0.2400 
 24 C       -4.1340   -10.8850    -0.2410 C.ar  1 <1>  -0.1500 
 25 C       -1.9750   -11.1860    -1.2310 C.ar  1 <1>  -0.1500 
 26 C       -3.1690   -11.7180    -0.7790 C.ar  1 <1>  -0.1500 
 27 H        0.7240    -2.2760    -2.7460 H     1 <1>   0.3700 
 28 H        0.4580    -3.5240     2.3860 H     1 <1>   0.0800 
 29 H       -1.0940    -3.1350     1.7310 H     1 <1>   0.0800 
 30 H        2.9210    -2.8000    -1.4690 H     1 <1>   0.0800 
 31 H        2.5080    -1.1150    -1.0770 H     1 <1>   0.0800 
 32 H       -0.8280    -7.6530     0.9180 H     1 <1>   0.0800 
 33 H       -2.4000    -7.5210     1.6400 H     1 <1>   0.0800 
 34 H       -3.5760    -5.1010     1.4930 H     1 <1>   0.0800 
 35 H       -2.6830    -3.8620     0.6670 H     1 <1>   0.0800 
 36 H       -1.7620    -7.1920    -1.3020 H     1 <1>   0.0800 
 37 H       -2.7620    -5.1200    -1.4240 H     1 <1>   0.0800 
 38 H       -4.6600    -8.8820     0.2620 H     1 <1>   0.1500 
 39 H       -0.8100    -9.4240    -1.4970 H     1 <1>   0.1500 
 40 H       -6.8790    -4.6510    -0.3170 H     1 <1>   0.0800 
 41 H       -5.7170    -4.6900     0.9760 H     1 <1>   0.0800 
 42 H       -6.0530    -6.1360     0.0590 H     1 <1>   0.0800 
 43 H       -6.1950    -4.7130    -2.6980 H     1 <1>   0.0800 
 44 H       -5.4210    -6.2480    -2.4150 H     1 <1>   0.0800 
 45 H       -4.5220    -4.9430    -3.1410 H     1 <1>   0.0800 
 46 H       -5.6140    -2.7300    -1.4170 H     1 <1>   0.0800 
 47 H       -3.9060    -2.8860    -1.7310 H     1 <1>   0.0800 
 48 H       -4.4930    -2.7630    -0.0920 H     1 <1>   0.0800 
 49 H       -5.0650   -11.2940     0.1090 H     1 <1>   0.1500 
 50 H       -1.2230   -11.8320    -1.6500 H     1 <1>   0.1500 
 51 H       -3.3480   -12.7770    -0.8470 H     1 <1>   0.1500 
@<TRIPOS>BOND
  1   1   2  2   
  2   2   3  am  
  3   2   4  am  
  4   3   5  am  
  5   3   6  1   
  6   4   7  1   
  7   4  27  1   
  8   5   7  1   
  9   5   8  2   
 10   6   9  1   
 11   6  28  1   
 12   6  29  1   
 13   7  30  1   
 14   7  31  1   
 15   9  10  2   
 16   9  11  am  
 17  11  12  1   
 18  11  13  1   
 19  12  14  1   
 20  12  32  1   
 21  12  33  1   
 22  13  15  1   
 23  13  34  1   
 24  13  35  1   
 25  14  16  1   
 26  14  17  1   
 27  14  36  1   
 28  15  16  1   
 29  15  18  1   
 30  15  37  1   
 31  17  19  ar  
 32  17  20  ar  
 33  18  21  1   
 34  18  22  1   
 35  18  23  1   
 36  19  24  ar  
 37  19  38  1   
 38  20  25  ar  
 39  20  39  1   
 40  21  40  1   
 41  21  41  1   
 42  21  42  1   
 43  22  43  1   
 44  22  44  1   
 45  22  45  1   
 46  23  46  1   
 47  23  47  1   
 48  23  48  1   
 49  24  26  ar  
 50  24  49  1   
 51  25  26  ar  
 52  25  50  1   
 53  26  51  1   
@<TRIPOS>SUBSTRUCTURE
  1 ****  11 GROUP 4 **** **** 0

# MOE 2024.06 (io_trps.svl 2023.06)
