@<TRIPOS>MOLECULE
NONAME
53 56 1 0 0 
SMALL
USER_CHARGES


@<TRIPOS>ATOM
  1 CL       3.2260    -5.4470     2.8210 Cl    1 <1>  -0.1770 
  2 C        1.9200    -5.5810     1.6670 C.ar  1 <1>   0.1770 
  3 C        0.7070    -6.0840     2.0670 C.ar  1 <1>  -0.1500 
  4 C        2.1540    -5.1650     0.3510 C.ar  1 <1>  -0.1500 
  5 C       -0.3210    -6.1820     1.1230 C.ar  1 <1>   0.0000 
  6 C        1.1490    -5.2580    -0.5840 C.ar  1 <1>  -0.1500 
  7 C       -0.0900    -5.7740    -0.1880 C.ar  1 <1>  -0.1520 
  8 C       -1.6480    -6.6450     1.1660 C.2   1 <1>  -0.1500 
  9 N       -1.2360    -5.9880    -0.9030 N.pl3 1 <1>   0.0330 
 10 C       -2.1870    -6.5440    -0.0860 C.2   1 <1>  -0.2370 
 11 C       -3.4700    -6.9220    -0.6180 C.2   1 <1>   0.7150 
 12 O       -3.9280    -6.2760    -1.5430 O.2   1 <1>  -0.5700 
 13 N       -4.1890    -7.9940    -0.1430 N.am  1 <1>  -0.6600 
 14 C       -3.5570    -9.2690     0.3670 C.3   1 <1>   0.3640 
 15 C       -5.6790    -7.9410    -0.1500 C.3   1 <1>   0.1400 
 16 C       -2.2100    -9.5040    -0.3300 C.ar  1 <1>  -0.1430 
 17 C       -4.4480   -10.5410     0.1810 C.3   1 <1>   0.2000 
 18 C       -6.2720    -9.2740    -0.5980 C.3   1 <1>   0.1200 
 19 C       -1.0610    -9.6750     0.4290 C.ar  1 <1>  -0.1500 
 20 C       -2.1080    -9.5240    -1.7170 C.ar  1 <1>  -0.1500 
 21 O       -5.8240   -10.2740     0.2590 O.3   1 <1>  -0.5600 
 22 C       -4.1890   -11.6320     1.2360 C.3   1 <1>   0.1200 
 23 C        0.1740    -9.8380    -0.1730 C.ar  1 <1>   0.0830 
 24 C       -0.8750    -9.6720    -2.3290 C.ar  1 <1>  -0.1500 
 25 O       -2.8450   -11.9740     1.3330 O.3   1 <1>  -0.6800 
 26 O        1.2420   -10.0290     0.6380 O.3   1 <1>  -0.3630 
 27 C        0.2740    -9.8010    -1.5670 C.ar  1 <1>   0.0830 
 28 C        1.8390   -11.3040     0.5870 C.3   1 <1>   0.0400 
 29 O        1.4570    -9.8670    -2.2270 O.3   1 <1>  -0.3630 
 30 C        2.3770    -8.8300    -1.9600 C.3   1 <1>   0.0400 
 31 H        0.5420    -6.4030     3.0780 H     1 <1>   0.1500 
 32 H        3.1230    -4.7760     0.0940 H     1 <1>   0.1500 
 33 H        1.3020    -4.9450    -1.6010 H     1 <1>   0.1500 
 34 H       -2.1210    -7.0250     2.0530 H     1 <1>   0.1500 
 35 H       -1.3840    -5.7790    -1.8970 H     1 <1>   0.2700 
 36 H       -3.3850    -9.1430     1.4210 H     1 <1>   0.0800 
 37 H       -6.0290    -7.7150     0.8420 H     1 <1>   0.0800 
 38 H       -6.0290    -7.1630    -0.8070 H     1 <1>   0.0800 
 39 H       -4.2710   -10.9600    -0.7930 H     1 <1>   0.0800 
 40 H       -5.9860    -9.5090    -1.6090 H     1 <1>   0.0800 
 41 H       -7.3460    -9.2420    -0.5350 H     1 <1>   0.0800 
 42 H       -1.1080    -9.6830     1.5030 H     1 <1>   0.1500 
 43 H       -2.9870    -9.4000    -2.3260 H     1 <1>   0.1500 
 44 H       -4.7400   -12.5230     0.9860 H     1 <1>   0.0800 
 45 H       -4.5020   -11.2860     2.2060 H     1 <1>   0.0800 
 46 H       -0.7950    -9.6720    -3.4010 H     1 <1>   0.1500 
 47 H       -2.4840   -12.2560     0.4680 H     1 <1>   0.4000 
 48 H        2.6310   -11.3340     1.3120 H     1 <1>   0.0800 
 49 H        2.2350   -11.4720    -0.3980 H     1 <1>   0.0800 
 50 H        1.0940   -12.0440     0.8230 H     1 <1>   0.0800 
 51 H        3.1630    -8.8810    -2.6920 H     1 <1>   0.0800 
 52 H        2.7870    -8.9600    -0.9750 H     1 <1>   0.0800 
 53 H        1.8680    -7.8850    -2.0280 H     1 <1>   0.0800 
@<TRIPOS>BOND
  1   1   2  1   
  2   2   3  ar  
  3   2   4  ar  
  4   3   5  ar  
  5   3  31  1   
  6   4   6  ar  
  7   4  32  1   
  8   5   7  ar  
  9   5   8  1   
 10   6   7  ar  
 11   6  33  1   
 12   7   9  1   
 13   8  10  2   
 14   8  34  1   
 15   9  10  1   
 16   9  35  1   
 17  10  11  1   
 18  11  12  2   
 19  11  13  am  
 20  13  14  1   
 21  13  15  1   
 22  14  16  1   
 23  14  17  1   
 24  14  36  1   
 25  15  18  1   
 26  15  37  1   
 27  15  38  1   
 28  16  19  ar  
 29  16  20  ar  
 30  17  21  1   
 31  17  22  1   
 32  17  39  1   
 33  18  21  1   
 34  18  40  1   
 35  18  41  1   
 36  19  23  ar  
 37  19  42  1   
 38  20  24  ar  
 39  20  43  1   
 40  22  25  1   
 41  22  44  1   
 42  22  45  1   
 43  23  26  1   
 44  23  27  ar  
 45  24  27  ar  
 46  24  46  1   
 47  25  47  1   
 48  26  28  1   
 49  27  29  1   
 50  28  48  1   
 51  28  49  1   
 52  28  50  1   
 53  29  30  1   
 54  30  51  1   
 55  30  52  1   
 56  30  53  1   
@<TRIPOS>SUBSTRUCTURE
  1 ****  19 GROUP 4 **** **** 0

# MOE 2024.06 (io_trps.svl 2023.06)
