@<TRIPOS>MOLECULE
NONAME
53 55 1 0 0 
SMALL
USER_CHARGES


@<TRIPOS>ATOM
  1 O       -2.1650    -0.6640     1.1880 O.3   1 <1>  -0.3630 
  2 C       -2.5470     0.5310     0.6520 C.ar  1 <1>   0.0820 
  3 C       -1.2520    -0.6970     2.2710 C.3   1 <1>   0.0400 
  4 C       -3.1530     0.5140    -0.6040 C.ar  1 <1>  -0.1440 
  5 C       -2.3630     1.7430     1.3130 C.ar  1 <1>  -0.1500 
  6 C       -3.5590     1.7030    -1.1940 C.ar  1 <1>  -0.1500 
  7 C       -3.3730    -0.8010    -1.3240 C.3   1 <1>   0.4870 
  8 C       -2.7760     2.9240     0.7230 C.ar  1 <1>  -0.1500 
  9 C       -3.3690     2.9010    -0.5250 C.ar  1 <1>   0.0820 
 10 N       -4.2130    -1.6680    -0.4530 N.4   1 <1>  -0.9590 
 11 O       -3.7550     4.0620    -1.0770 O.3   1 <1>  -0.5330 
 12 C       -4.2230    -3.0990    -0.9150 C.3   1 <1>   0.3430 
 13 C       -5.5820    -1.0960    -0.2950 C.3   1 <1>   0.3430 
 14 C       -5.1000    -4.0320    -0.0210 C.3   1 <1>   0.4230 
 15 C       -6.3900    -1.9650     0.6730 C.3   1 <1>  -0.1600 
 16 N       -5.1130    -5.5070    -0.4230 N.4   1 <1>  -0.9590 
 17 C       -6.5230    -3.4490     0.2330 C.3   1 <1>   0.0000 
 18 C       -6.2160    -6.3020     0.2210 C.3   1 <1>   0.3430 
 19 C       -5.1340    -5.7620    -1.9040 C.3   1 <1>   0.2630 
 20 C       -7.1760    -4.2420     1.4010 C.3   1 <1>  -0.1600 
 21 C       -7.4680    -3.5360    -1.0010 C.3   1 <1>   0.1200 
 22 C       -6.6420    -5.6820     1.5520 C.3   1 <1>  -0.1600 
 23 O       -6.8540    -3.0680    -2.1540 O.3   1 <1>  -0.6800 
 24 H       -0.9680    -1.7190     2.4480 H     1 <1>   0.0800 
 25 H       -1.7290    -0.2970     3.1490 H     1 <1>   0.0800 
 26 H       -0.3800    -0.1190     2.0150 H     1 <1>   0.0800 
 27 H       -1.9080     1.7970     2.2840 H     1 <1>   0.1500 
 28 H       -4.0210     1.7120    -2.1650 H     1 <1>   0.1500 
 29 H       -2.4150    -1.2630    -1.4970 H     1 <1>   0.0800 
 30 H       -3.8570    -0.6350    -2.2730 H     1 <1>   0.0800 
 31 H       -2.6390     3.8670     1.2240 H     1 <1>   0.1500 
 32 H       -3.7320    -1.5780     0.4620 H     1 <1>   0.4500 
 33 H       -4.0960     3.9850    -1.9850 H     1 <1>   0.4500 
 34 H       -4.5970    -3.1300    -1.9240 H     1 <1>   0.0800 
 35 H       -3.2120    -3.4720    -0.9200 H     1 <1>   0.0800 
 36 H       -5.5180    -0.0910     0.0950 H     1 <1>   0.0800 
 37 H       -6.0770    -1.0510    -1.2510 H     1 <1>   0.0800 
 38 H       -4.6240    -4.0020     0.9440 H     1 <1>   0.0800 
 39 H       -5.9190    -1.8970     1.6390 H     1 <1>   0.0800 
 40 H       -7.3700    -1.5300     0.7790 H     1 <1>   0.0800 
 41 H       -4.2390    -5.9210    -0.0600 H     1 <1>   0.4500 
 42 H       -7.0740    -6.3310    -0.4310 H     1 <1>   0.0800 
 43 H       -5.8920    -7.3190     0.3790 H     1 <1>   0.0800 
 44 H       -6.0240    -5.3470    -2.3470 H     1 <1>   0.0800 
 45 H       -5.1220    -6.8230    -2.1000 H     1 <1>   0.0800 
 46 H       -4.2740    -5.3230    -2.3820 H     1 <1>   0.0800 
 47 H       -7.0140    -3.7460     2.3440 H     1 <1>   0.0800 
 48 H       -8.2450    -4.2740     1.2670 H     1 <1>   0.0800 
 49 H       -8.3550    -2.9450    -0.8340 H     1 <1>   0.0800 
 50 H       -7.7800    -4.5480    -1.1880 H     1 <1>   0.0800 
 51 H       -7.4080    -6.2960     1.9960 H     1 <1>   0.0800 
 52 H       -5.8040    -5.6980     2.2290 H     1 <1>   0.0800 
 53 H       -7.5190    -2.9720    -2.8760 H     1 <1>   0.4000 
@<TRIPOS>BOND
  1   1   2  1   
  2   1   3  1   
  3   2   4  ar  
  4   2   5  ar  
  5   3  24  1   
  6   3  25  1   
  7   3  26  1   
  8   4   6  ar  
  9   4   7  1   
 10   5   8  ar  
 11   5  27  1   
 12   6   9  ar  
 13   6  28  1   
 14   7  10  1   
 15   7  29  1   
 16   7  30  1   
 17   8   9  ar  
 18   8  31  1   
 19   9  11  1   
 20  10  12  1   
 21  10  13  1   
 22  10  32  1   
 23  11  33  1   
 24  12  14  1   
 25  12  34  1   
 26  12  35  1   
 27  13  15  1   
 28  13  36  1   
 29  13  37  1   
 30  14  16  1   
 31  14  17  1   
 32  14  38  1   
 33  15  17  1   
 34  15  39  1   
 35  15  40  1   
 36  16  18  1   
 37  16  19  1   
 38  16  41  1   
 39  17  20  1   
 40  17  21  1   
 41  18  22  1   
 42  18  42  1   
 43  18  43  1   
 44  19  44  1   
 45  19  45  1   
 46  19  46  1   
 47  20  22  1   
 48  20  47  1   
 49  20  48  1   
 50  21  23  1   
 51  21  49  1   
 52  21  50  1   
 53  22  51  1   
 54  22  52  1   
 55  23  53  1   
@<TRIPOS>SUBSTRUCTURE
  1 ****  10 GROUP 4 **** **** 0

# MOE 2024.06 (io_trps.svl 2023.06)
