@<TRIPOS>MOLECULE
NONAME
52 55 1 0 0 
SMALL
USER_CHARGES


@<TRIPOS>ATOM
  1 O        0.3730    -1.3000    -1.8590 O.2   1 <1>  -0.5700 
  2 C        1.0200    -1.3970    -0.8340 C.2   1 <1>   0.5440 
  3 N        1.9230    -0.4070    -0.5220 N.am  1 <1>  -0.6600 
  4 C        0.8330    -2.5530     0.0200 C.ar  1 <1>   0.0860 
  5 C        2.1120     0.7810    -1.3840 C.3   1 <1>   0.1400 
  6 C        3.0510    -0.5560     0.4250 C.3   1 <1>   0.1400 
  7 C        0.8270    -3.8400    -0.4810 C.ar  1 <1>  -0.1500 
  8 C        0.6360    -2.4560     1.3920 C.ar  1 <1>  -0.1500 
  9 C        3.3190     1.5060    -0.7980 C.3   1 <1>  -0.1600 
 10 C        4.1100     0.4170    -0.0800 C.3   1 <1>  -0.1600 
 11 C        0.6540    -4.9340     0.3540 C.ar  1 <1>   0.4100 
 12 C        0.4730    -3.5990     2.1480 C.ar  1 <1>   0.1600 
 13 N        0.4830    -4.8270     1.6650 N.ar  1 <1>  -0.6200 
 14 N        0.6580    -6.1940    -0.1950 N.pl3 1 <1>  -0.8690 
 15 C        0.1850    -7.3910     0.5230 C.3   1 <1>   0.2890 
 16 C        0.8460    -8.6190    -0.0950 C.3   1 <1>  -0.1600 
 17 C       -1.3350    -7.4740     0.4070 C.3   1 <1>  -0.1600 
 18 C        0.3180    -9.9020     0.5470 C.3   1 <1>   0.2090 
 19 C       -1.8540    -8.7430     1.0780 C.3   1 <1>   0.2090 
 20 N       -1.1700    -9.9310     0.4990 N.pl3 1 <1>  -0.8380 
 21 C       -1.8160   -10.6850    -0.4690 C.ar  1 <1>   0.4100 
 22 N       -1.3270   -10.5660    -1.7010 N.ar  1 <1>  -0.6200 
 23 C       -2.9080   -11.5070    -0.1490 C.ar  1 <1>   0.0730 
 24 C       -1.9280   -11.2620    -2.6470 C.ar  1 <1>   0.1600 
 25 C       -3.3850   -11.6130     1.1950 C.1   1 <1>   0.4840 
 26 C       -3.5180   -12.2240    -1.1630 C.ar  1 <1>  -0.1500 
 27 C       -3.0120   -12.0930    -2.4380 C.ar  1 <1>  -0.1500 
 28 N       -3.8120   -11.7060     2.2490 N.1   1 <1>  -0.5570 
 29 H        1.2310     1.3990    -1.3790 H     1 <1>   0.0800 
 30 H        2.3160     0.4560    -2.3910 H     1 <1>   0.0800 
 31 H        3.4220    -1.5670     0.4390 H     1 <1>   0.0800 
 32 H        2.7260    -0.2700     1.4100 H     1 <1>   0.0800 
 33 H        0.9590    -3.9950    -1.5340 H     1 <1>   0.1500 
 34 H        0.6060    -1.4890     1.8580 H     1 <1>   0.1500 
 35 H        2.9750     2.2380    -0.0890 H     1 <1>   0.0800 
 36 H        3.8960     1.9990    -1.5600 H     1 <1>   0.0800 
 37 H        4.7480    -0.0930    -0.7810 H     1 <1>   0.0800 
 38 H        4.7120     0.8060     0.7220 H     1 <1>   0.0800 
 39 H        0.3250    -3.5000     3.2100 H     1 <1>   0.1500 
 40 H        0.4870    -6.2440    -1.2000 H     1 <1>   0.4000 
 41 H        0.4650    -7.3310     1.5620 H     1 <1>   0.0800 
 42 H        1.9100    -8.5640     0.0480 H     1 <1>   0.0800 
 43 H        0.6440    -8.6560    -1.1500 H     1 <1>   0.0800 
 44 H       -1.6280    -7.4840    -0.6280 H     1 <1>   0.0800 
 45 H       -1.7780    -6.6180     0.8830 H     1 <1>   0.0800 
 46 H        0.6350    -9.9560     1.5750 H     1 <1>   0.0800 
 47 H        0.7170   -10.7580     0.0300 H     1 <1>   0.0800 
 48 H       -2.9180    -8.8160     0.9300 H     1 <1>   0.0800 
 49 H       -1.6630    -8.7070     2.1370 H     1 <1>   0.0800 
 50 H       -1.5350   -11.1650    -3.6450 H     1 <1>   0.1500 
 51 H       -4.3600   -12.8650    -0.9640 H     1 <1>   0.1500 
 52 H       -3.4500   -12.6290    -3.2610 H     1 <1>   0.1500 
@<TRIPOS>BOND
  1   1   2  2   
  2   2   3  am  
  3   2   4  1   
  4   3   5  1   
  5   3   6  1   
  6   4   7  ar  
  7   4   8  ar  
  8   5   9  1   
  9   5  29  1   
 10   5  30  1   
 11   6  10  1   
 12   6  31  1   
 13   6  32  1   
 14   7  11  ar  
 15   7  33  1   
 16   8  12  ar  
 17   8  34  1   
 18   9  10  1   
 19   9  35  1   
 20   9  36  1   
 21  10  37  1   
 22  10  38  1   
 23  11  13  ar  
 24  11  14  1   
 25  12  13  ar  
 26  12  39  1   
 27  14  15  1   
 28  14  40  1   
 29  15  16  1   
 30  15  17  1   
 31  15  41  1   
 32  16  18  1   
 33  16  42  1   
 34  16  43  1   
 35  17  19  1   
 36  17  44  1   
 37  17  45  1   
 38  18  20  1   
 39  18  46  1   
 40  18  47  1   
 41  19  20  1   
 42  19  48  1   
 43  19  49  1   
 44  20  21  1   
 45  21  22  ar  
 46  21  23  ar  
 47  22  24  ar  
 48  23  25  1   
 49  23  26  ar  
 50  24  27  ar  
 51  24  50  1   
 52  25  28  3   
 53  26  27  ar  
 54  26  51  1   
 55  27  52  1   
@<TRIPOS>SUBSTRUCTURE
  1 ****  14 GROUP 4 **** **** 0

# MOE 2024.06 (io_trps.svl 2023.06)
