@<TRIPOS>MOLECULE
NONAME
41 43 1 0 0 
SMALL
USER_CHARGES


@<TRIPOS>ATOM
  1 S       -0.1500    -0.0960     1.7740 S.3   1 <1>  -0.0800 
  2 C        0.5560     1.4550     1.3980 C.2   1 <1>   0.4620 
  3 C        0.9910    -0.8780     0.6910 C.2   1 <1>  -0.0450 
  4 N        1.5280     1.4010     0.5680 N.2   1 <1>  -0.5650 
  5 N        0.0540     2.5650     1.9770 N.pl3 1 <1>  -0.8840 
  6 C        1.7730     0.1090     0.1850 C.2   1 <1>   0.0460 
  7 C        0.9670    -2.3070     0.5330 C.2   1 <1>   0.7150 
  8 C        2.9200    -0.0760    -0.7910 C.3   1 <1>  -0.0590 
  9 O        2.0150    -2.9150     0.3990 O.2   1 <1>  -0.5700 
 10 N       -0.2050    -3.0340     0.5030 N.am  1 <1>  -0.6600 
 11 C       -1.5250    -2.4890     0.0910 C.3   1 <1>   0.1400 
 12 C       -0.2100    -4.5170     0.4100 C.3   1 <1>   0.1400 
 13 C       -2.2550    -3.6720    -0.5400 C.3   1 <1>   0.2000 
 14 C       -1.6630    -4.9050     0.1330 C.3   1 <1>  -0.0800 
 15 O       -3.6210    -3.6090    -0.3170 O.3   1 <1>  -0.6800 
 16 C       -1.8090    -6.1860    -0.7020 C.3   1 <1>   0.0210 
 17 C       -1.0910    -7.3500    -0.0470 C.2   1 <1>   0.1080 
 18 N       -1.3320    -7.7330     1.1690 N.2   1 <1>  -0.7070 
 19 C       -0.1030    -8.1190    -0.6540 C.2   1 <1>  -0.1500 
 20 N       -0.4970    -8.7690     1.3710 N.pl3 1 <1>   0.3000 
 21 C        0.2600    -9.0210     0.2820 C.2   1 <1>  -0.3320 
 22 C        1.2980   -10.1250     0.2010 C.3   1 <1>  -0.0600 
 23 H       -0.7030     2.5460     2.6580 H     1 <1>   0.4000 
 24 H        0.4740     3.4740     1.7760 H     1 <1>   0.4000 
 25 H        3.0150    -1.1010    -1.0970 H     1 <1>   0.0800 
 26 H        3.8380     0.2320    -0.3250 H     1 <1>   0.0800 
 27 H        2.7540     0.5300    -1.6620 H     1 <1>   0.0800 
 28 H       -2.0520    -2.1450     0.9640 H     1 <1>   0.0800 
 29 H       -1.4080    -1.6870    -0.6180 H     1 <1>   0.0800 
 30 H        0.4310    -4.8240    -0.4000 H     1 <1>   0.0800 
 31 H        0.1450    -4.9590     1.3260 H     1 <1>   0.0800 
 32 H       -2.0830    -3.6800    -1.6030 H     1 <1>   0.0800 
 33 H       -2.1330    -5.0560     1.0900 H     1 <1>   0.0800 
 34 H       -3.8190    -3.7740     0.6250 H     1 <1>   0.4000 
 35 H       -1.4100    -6.0330    -1.6880 H     1 <1>   0.0800 
 36 H       -2.8510    -6.4350    -0.7980 H     1 <1>   0.0800 
 37 H        0.2730    -7.9980    -1.6540 H     1 <1>   0.1500 
 38 H       -0.4670    -9.2820     2.2610 H     1 <1>   0.2700 
 39 H        1.7650   -10.1230    -0.7680 H     1 <1>   0.0800 
 40 H        0.8350   -11.0830     0.3560 H     1 <1>   0.0800 
 41 H        2.0580    -9.9760     0.9480 H     1 <1>   0.0800 
@<TRIPOS>BOND
  1   1   2  1   
  2   1   3  1   
  3   2   4  2   
  4   2   5  1   
  5   3   6  2   
  6   3   7  1   
  7   4   6  1   
  8   5  23  1   
  9   5  24  1   
 10   6   8  1   
 11   7   9  2   
 12   7  10  am  
 13   8  25  1   
 14   8  26  1   
 15   8  27  1   
 16  10  11  1   
 17  10  12  1   
 18  11  13  1   
 19  11  28  1   
 20  11  29  1   
 21  12  14  1   
 22  12  30  1   
 23  12  31  1   
 24  13  14  1   
 25  13  15  1   
 26  13  32  1   
 27  14  16  1   
 28  14  33  1   
 29  15  34  1   
 30  16  17  1   
 31  16  35  1   
 32  16  36  1   
 33  17  18  2   
 34  17  19  1   
 35  18  20  1   
 36  19  21  2   
 37  19  37  1   
 38  20  21  1   
 39  20  38  1   
 40  21  22  1   
 41  22  39  1   
 42  22  40  1   
 43  22  41  1   
@<TRIPOS>SUBSTRUCTURE
  1 ****  10 GROUP 4 **** **** 0

# MOE 2024.06 (io_trps.svl 2023.06)
