@<TRIPOS>MOLECULE
NONAME
47 48 1 0 0 
SMALL
USER_CHARGES


@<TRIPOS>ATOM
  1 O       -0.7050     2.6090    -0.6770 O.2   1 <1>  -0.5700 
  2 C        0.0330     2.2540     0.2120 C.2   1 <1>   0.5690 
  3 N       -0.4150     1.5190     1.2650 N.am  1 <1>  -0.7300 
  4 C        1.5120     2.6380     0.1660 C.3   1 <1>  -0.0190 
  5 C       -1.8160     1.0680     1.4580 C.3   1 <1>   0.0600 
  6 C        1.6960     4.1610     0.3000 C.3   1 <1>  -0.1600 
  7 C        2.1900     2.1250    -1.1190 C.3   1 <1>  -0.1600 
  8 C        3.1780     4.5600     0.2410 C.3   1 <1>  -0.1600 
  9 C        3.6720     2.5240    -1.1740 C.3   1 <1>  -0.1600 
 10 C        3.8530     4.0470    -1.0470 C.3   1 <1>  -0.0800 
 11 C        5.3480     4.4060    -1.0910 C.3   1 <1>   0.2090 
 12 N        5.5230     5.8780    -1.0790 N.pl3 1 <1>  -0.8690 
 13 C        6.3800     6.5690    -0.2560 C.ar  1 <1>   0.4100 
 14 N        7.3030     5.8730     0.3740 N.ar  1 <1>  -0.6200 
 15 C        6.2760     7.9470    -0.1010 C.ar  1 <1>  -0.1430 
 16 C        8.1160     6.5560     1.1500 C.ar  1 <1>   0.4770 
 17 C        7.1880     8.5360     0.7420 C.ar  1 <1>   0.1600 
 18 C        5.1900     8.7290    -0.8470 C.3   1 <1>  -0.0170 
 19 N        8.1180     7.8550     1.3800 N.ar  1 <1>  -0.6200 
 20 C        9.1720     5.7550     1.8710 C.3   1 <1>  -0.0970 
 21 C        5.1620    10.2380    -0.5740 C.3   1 <1>  -0.2400 
 22 H        0.2440     1.2480     1.9970 H     1 <1>   0.3700 
 23 H        2.0020     2.1730     1.0020 H     1 <1>   0.0800 
 24 H       -2.4330     1.4000     0.6390 H     1 <1>   0.0800 
 25 H       -2.2080     1.4750     2.3730 H     1 <1>   0.0800 
 26 H       -1.8500    -0.0070     1.5020 H     1 <1>   0.0800 
 27 H        1.2710     4.4940     1.2310 H     1 <1>   0.0800 
 28 H        1.1630     4.6520    -0.4960 H     1 <1>   0.0800 
 29 H        1.6800     2.5350    -1.9760 H     1 <1>   0.0800 
 30 H        2.1010     1.0540    -1.1690 H     1 <1>   0.0800 
 31 H        3.6920     4.1590     1.0990 H     1 <1>   0.0800 
 32 H        3.2510     5.6320     0.2950 H     1 <1>   0.0800 
 33 H        4.0920     2.1850    -2.1060 H     1 <1>   0.0800 
 34 H        4.2000     2.0300    -0.3760 H     1 <1>   0.0800 
 35 H        3.3760     4.5060    -1.8950 H     1 <1>   0.0800 
 36 H        5.7930     4.0140    -1.9900 H     1 <1>   0.0800 
 37 H        5.8490     3.9590    -0.2490 H     1 <1>   0.0800 
 38 H        4.7860     6.4000    -1.5500 H     1 <1>   0.4000 
 39 H        7.1760     9.5970     0.9170 H     1 <1>   0.1500 
 40 H        4.2310     8.3200    -0.5790 H     1 <1>   0.0800 
 41 H        5.3280     8.5780    -1.9040 H     1 <1>   0.0800 
 42 H        9.4390     4.8910     1.2910 H     1 <1>   0.0800 
 43 H        8.7880     5.4390     2.8210 H     1 <1>   0.0800 
 44 H       10.0490     6.3550     2.0250 H     1 <1>   0.0800 
 45 H        4.9900    10.4300     0.4710 H     1 <1>   0.0800 
 46 H        4.3660    10.6950    -1.1350 H     1 <1>   0.0800 
 47 H        6.0890    10.6930    -0.8730 H     1 <1>   0.0800 
@<TRIPOS>BOND
  1   1   2  2   
  2   2   3  am  
  3   2   4  1   
  4   3   5  1   
  5   3  22  1   
  6   4   6  1   
  7   4   7  1   
  8   4  23  1   
  9   5  24  1   
 10   5  25  1   
 11   5  26  1   
 12   6   8  1   
 13   6  27  1   
 14   6  28  1   
 15   7   9  1   
 16   7  29  1   
 17   7  30  1   
 18   8  10  1   
 19   8  31  1   
 20   8  32  1   
 21   9  10  1   
 22   9  33  1   
 23   9  34  1   
 24  10  11  1   
 25  10  35  1   
 26  11  12  1   
 27  11  36  1   
 28  11  37  1   
 29  12  13  1   
 30  12  38  1   
 31  13  14  ar  
 32  13  15  ar  
 33  14  16  ar  
 34  15  17  ar  
 35  15  18  1   
 36  16  19  ar  
 37  16  20  1   
 38  17  19  ar  
 39  17  39  1   
 40  18  21  1   
 41  18  40  1   
 42  18  41  1   
 43  20  42  1   
 44  20  43  1   
 45  20  44  1   
 46  21  45  1   
 47  21  46  1   
 48  21  47  1   
@<TRIPOS>SUBSTRUCTURE
  1 ****   8 GROUP 4 **** **** 0

# MOE 2024.06 (io_trps.svl 2023.06)
