@<TRIPOS>MOLECULE
NONAME
46 47 1 0 0 
SMALL
USER_CHARGES


@<TRIPOS>ATOM
  1 O       -0.1700     0.2300     0.0330 O.2   1 <1>  -0.5700 
  2 C       -1.1740     0.8070     0.3840 C.2   1 <1>   0.5690 
  3 N       -2.3350     0.1260     0.6610 N.am  1 <1>  -0.6600 
  4 C       -1.0870     2.3220     0.5340 C.3   1 <1>  -0.0990 
  5 C       -3.5320     0.7500     1.2910 C.3   1 <1>   0.1400 
  6 C       -2.3840    -1.3500     0.4350 C.3   1 <1>   0.1400 
  7 C       -0.0850     2.9710    -0.4380 C.3   1 <1>  -0.0990 
  8 C       -4.5200     1.2060     0.2110 C.3   1 <1>  -0.1600 
  9 C       -3.7650    -1.8930     0.0390 C.3   1 <1>  -0.1600 
 10 C        0.0020     4.4650    -0.2230 C.2   1 <1>   0.5690 
 11 C       -5.3410     0.0690    -0.4180 C.3   1 <1>  -0.1600 
 12 C       -4.4980    -1.0620    -1.0270 C.3   1 <1>  -0.1600 
 13 O       -0.9010     5.1700    -0.6000 O.2   1 <1>  -0.5700 
 14 N        1.0990     4.9730     0.3920 N.am  1 <1>  -0.7300 
 15 C        1.2920     6.4110     0.6930 C.3   1 <1>   0.1400 
 16 C        1.8040     7.1430    -0.5480 C.3   1 <1>   0.0200 
 17 C        1.8630     8.6320    -0.2800 C.2   1 <1>   0.0060 
 18 N        2.8820     9.2600     0.1880 N.2   1 <1>  -0.3380 
 19 N        0.8370     9.4660    -0.4940 N.pl3 1 <1>   0.0330 
 20 N        2.5350    10.5520     0.2980 N.2   1 <1>  -0.3380 
 21 C        1.3170    10.6500    -0.1180 C.2   1 <1>   0.2700 
 22 N        0.6140    11.8330    -0.1630 N.pl3 1 <1>  -0.8840 
 23 H       -0.7980     2.5390     1.5450 H     1 <1>   0.0800 
 24 H       -2.0470     2.7670     0.3550 H     1 <1>   0.0800 
 25 H       -3.2300     1.5970     1.8810 H     1 <1>   0.0800 
 26 H       -4.0030     0.0540     1.9620 H     1 <1>   0.0800 
 27 H       -2.0440    -1.8490     1.3260 H     1 <1>   0.0800 
 28 H       -1.6950    -1.6010    -0.3540 H     1 <1>   0.0800 
 29 H       -0.3970     2.7860    -1.4500 H     1 <1>   0.0800 
 30 H        0.8890     2.5350    -0.3090 H     1 <1>   0.0800 
 31 H       -3.9910     1.7360    -0.5610 H     1 <1>   0.0800 
 32 H       -5.2090     1.9000     0.6590 H     1 <1>   0.0800 
 33 H       -4.3780    -2.0060     0.9150 H     1 <1>   0.0800 
 34 H       -3.6110    -2.8840    -0.3520 H     1 <1>   0.0800 
 35 H       -5.9550     0.4910    -1.1950 H     1 <1>   0.0800 
 36 H       -6.0050    -0.3420     0.3220 H     1 <1>   0.0800 
 37 H       -5.1650    -1.7150    -1.5620 H     1 <1>   0.0800 
 38 H       -3.7960    -0.6640    -1.7400 H     1 <1>   0.0800 
 39 H        1.8530     4.3460     0.6800 H     1 <1>   0.3700 
 40 H        1.9910     6.5260     1.5040 H     1 <1>   0.0800 
 41 H        0.3500     6.8350     0.9970 H     1 <1>   0.0800 
 42 H        1.1540     6.9540    -1.3830 H     1 <1>   0.0800 
 43 H        2.7910     6.7900    -0.7900 H     1 <1>   0.0800 
 44 H       -0.1050     9.2660    -0.8290 H     1 <1>   0.2700 
 45 H        1.1490    12.5760     0.2970 H     1 <1>   0.4000 
 46 H        0.3810    12.1390    -1.1100 H     1 <1>   0.4000 
@<TRIPOS>BOND
  1   1   2  2   
  2   2   3  am  
  3   2   4  1   
  4   3   5  1   
  5   3   6  1   
  6   4   7  1   
  7   4  23  1   
  8   4  24  1   
  9   5   8  1   
 10   5  25  1   
 11   5  26  1   
 12   6   9  1   
 13   6  27  1   
 14   6  28  1   
 15   7  10  1   
 16   7  29  1   
 17   7  30  1   
 18   8  11  1   
 19   8  31  1   
 20   8  32  1   
 21   9  12  1   
 22   9  33  1   
 23   9  34  1   
 24  10  13  2   
 25  10  14  am  
 26  11  12  1   
 27  11  35  1   
 28  11  36  1   
 29  12  37  1   
 30  12  38  1   
 31  14  15  1   
 32  14  39  1   
 33  15  16  1   
 34  15  40  1   
 35  15  41  1   
 36  16  17  1   
 37  16  42  1   
 38  16  43  1   
 39  17  18  2   
 40  17  19  1   
 41  18  20  1   
 42  19  21  1   
 43  19  44  1   
 44  20  21  2   
 45  21  22  1   
 46  22  45  1   
 47  22  46  1   
@<TRIPOS>SUBSTRUCTURE
  1 ****  10 GROUP 4 **** **** 0

# MOE 2024.06 (io_trps.svl 2023.06)
