@<TRIPOS>MOLECULE
NONAME
45 46 1 0 0 
SMALL
USER_CHARGES


@<TRIPOS>ATOM
  1 O       -2.7110     0.7380    -3.5850 O.2   1 <1>  -0.5700 
  2 C       -2.8850     1.1690    -2.4690 C.2   1 <1>   0.5690 
  3 N       -3.6030     0.4570    -1.5360 N.am  1 <1>  -0.6600 
  4 C       -2.2370     2.5110    -2.1460 C.3   1 <1>   0.0440 
  5 C       -3.9280    -0.9750    -1.8090 C.3   1 <1>   0.3200 
  6 C       -4.0210     0.9860    -0.1950 C.3   1 <1>   0.1400 
  7 C       -1.0070     2.3140    -1.2670 C.ar  1 <1>  -0.1440 
  8 C       -3.5300    -1.8420    -0.6270 C.2   1 <1>  -0.3320 
  9 C       -5.5420     0.9350    -0.0190 C.3   1 <1>   0.1200 
 10 C        0.1110     1.6900    -1.7970 C.ar  1 <1>  -0.1500 
 11 C       -0.9870     2.7310     0.0550 C.ar  1 <1>  -0.1500 
 12 N       -2.2760    -1.9580    -0.1410 N.pl3 1 <1>   0.0480 
 13 C       -4.3140    -2.6280     0.1440 C.2   1 <1>   0.0770 
 14 O       -5.8740     1.4600     1.2210 O.3   1 <1>  -0.6800 
 15 C        1.2280     1.4670    -1.0110 C.ar  1 <1>  -0.1500 
 16 C        0.1290     2.5040     0.8410 C.ar  1 <1>  -0.1500 
 17 C       -2.3940    -2.8040     0.9060 C.2   1 <1>   0.0360 
 18 C       -1.0440    -1.2890    -0.5990 C.3   1 <1>   0.0160 
 19 N       -3.5990    -3.2280     1.1110 N.2   1 <1>  -0.5650 
 20 C        1.2420     1.8680     0.3140 C.ar  1 <1>  -0.1430 
 21 C        2.4640     1.6120     1.1800 C.3   1 <1>  -0.0170 
 22 C        2.3730     0.2350     1.8420 C.3   1 <1>  -0.2400 
 23 H       -2.9480     3.1710    -1.6890 H     1 <1>   0.0800 
 24 H       -1.9320     2.9730    -3.0670 H     1 <1>   0.0800 
 25 H       -3.4110    -1.3290    -2.6850 H     1 <1>   0.0800 
 26 H       -4.9830    -1.0690    -1.9970 H     1 <1>   0.0800 
 27 H       -3.7140     2.0060    -0.0760 H     1 <1>   0.0800 
 28 H       -3.5480     0.4110     0.5820 H     1 <1>   0.0800 
 29 H       -5.9120    -0.0740    -0.0610 H     1 <1>   0.0800 
 30 H       -6.0250     1.5350    -0.7700 H     1 <1>   0.0800 
 31 H        0.1130     1.3680    -2.8250 H     1 <1>   0.1500 
 32 H       -1.8350     3.2330     0.4850 H     1 <1>   0.1500 
 33 H       -5.3750    -2.7970     0.0580 H     1 <1>   0.1500 
 34 H       -5.6110     0.8480     1.9370 H     1 <1>   0.4000 
 35 H        2.0870     0.9790    -1.4370 H     1 <1>   0.1500 
 36 H        0.1290     2.8270     1.8670 H     1 <1>   0.1500 
 37 H       -1.5470    -3.0870     1.5050 H     1 <1>   0.1500 
 38 H       -1.0850    -1.1390    -1.6620 H     1 <1>   0.0800 
 39 H       -0.1900    -1.8940    -0.3570 H     1 <1>   0.0800 
 40 H       -0.9580    -0.3370    -0.1080 H     1 <1>   0.0800 
 41 H        2.5390     2.3730     1.9380 H     1 <1>   0.0800 
 42 H        3.3540     1.6660     0.5770 H     1 <1>   0.0800 
 43 H        1.4950     0.1780     2.4590 H     1 <1>   0.0800 
 44 H        3.2390     0.0620     2.4550 H     1 <1>   0.0800 
 45 H        2.3200    -0.5340     1.0920 H     1 <1>   0.0800 
@<TRIPOS>BOND
  1   1   2  2   
  2   2   3  am  
  3   2   4  1   
  4   3   5  1   
  5   3   6  1   
  6   4   7  1   
  7   4  23  1   
  8   4  24  1   
  9   5   8  1   
 10   5  25  1   
 11   5  26  1   
 12   6   9  1   
 13   6  27  1   
 14   6  28  1   
 15   7  10  ar  
 16   7  11  ar  
 17   8  12  1   
 18   8  13  2   
 19   9  14  1   
 20   9  29  1   
 21   9  30  1   
 22  10  15  ar  
 23  10  31  1   
 24  11  16  ar  
 25  11  32  1   
 26  12  17  1   
 27  12  18  1   
 28  13  19  1   
 29  13  33  1   
 30  14  34  1   
 31  15  20  ar  
 32  15  35  1   
 33  16  20  ar  
 34  16  36  1   
 35  17  19  2   
 36  17  37  1   
 37  18  38  1   
 38  18  39  1   
 39  18  40  1   
 40  20  21  1   
 41  21  22  1   
 42  21  41  1   
 43  21  42  1   
 44  22  43  1   
 45  22  44  1   
 46  22  45  1   
@<TRIPOS>SUBSTRUCTURE
  1 ****  18 GROUP 4 **** **** 0

# MOE 2024.06 (io_trps.svl 2023.06)
