@<TRIPOS>MOLECULE
NONAME
17 17 1 0 0 
SMALL
USER_CHARGES


@<TRIPOS>ATOM
  1 F        0.2660    -0.9850     0.4610 F     1 <1>  -0.3400 
  2 C        1.1090    -0.5830    -0.4870 C.3   1 <1>   1.0200 
  3 F        1.2940     0.7170    -0.2800 F     1 <1>  -0.3400 
  4 F        0.4540    -0.6880    -1.6380 F     1 <1>  -0.3400 
  5 C        2.4660    -1.3800    -0.4750 C.3   1 <1>   0.2850 
  6 N        3.3130    -1.2290     0.7450 N.3   1 <1>  -0.9900 
  7 C        2.2550    -2.8870    -0.7580 C.3   1 <1>  -0.1950 
  8 C        1.9650    -3.8940     0.3150 C.3   1 <1>  -0.2000 
  9 C        3.2700    -3.9410    -0.4310 C.3   1 <1>  -0.2000 
 10 H        3.0370    -0.9850    -1.2980 H     1 <1>   0.0800 
 11 H        2.8580    -1.7300     1.5160 H     1 <1>   0.3600 
 12 H        3.3610    -0.2370     1.0110 H     1 <1>   0.3600 
 13 H        1.7340    -3.0300    -1.6900 H     1 <1>   0.1000 
 14 H        1.9870    -3.6080     1.3520 H     1 <1>   0.1000 
 15 H        1.2320    -4.6590     0.1200 H     1 <1>   0.1000 
 16 H        3.4350    -4.7380    -1.1350 H     1 <1>   0.1000 
 17 H        4.1720    -3.6660     0.0910 H     1 <1>   0.1000 
@<TRIPOS>BOND
  1   1   2  1   
  2   2   3  1   
  3   2   4  1   
  4   2   5  1   
  5   5   6  1   
  6   5   7  1   
  7   5  10  1   
  8   6  11  1   
  9   6  12  1   
 10   7   8  1   
 11   7   9  1   
 12   7  13  1   
 13   8   9  1   
 14   8  14  1   
 15   8  15  1   
 16   9  16  1   
 17   9  17  1   
@<TRIPOS>SUBSTRUCTURE
  1 ****   5 GROUP 4 **** **** 0

# MOE 2024.06 (io_trps.svl 2023.06)
