@<TRIPOS>MOLECULE
NONAME
53 55 1 0 0 
SMALL
USER_CHARGES


@<TRIPOS>ATOM
  1 O        0.9950    -1.5700     2.6550 O.2   1 <1>  -0.5700 
  2 C        1.6260    -1.8760     1.6580 C.2   1 <1>   0.5440 
  3 N        2.3470    -0.8970     1.0010 N.am  1 <1>  -0.6600 
  4 C        1.6070    -3.2590     1.2320 C.ar  1 <1>   0.0860 
  5 C        2.2310     0.5430     1.3650 C.3   1 <1>   0.1400 
  6 C        3.2970    -1.1740    -0.1110 C.3   1 <1>   0.1400 
  7 C        1.0320    -3.6640     0.0230 C.ar  1 <1>   0.0820 
  8 C        2.1520    -4.2490     2.0500 C.ar  1 <1>  -0.1500 
  9 C        1.8110     1.3700     0.1410 C.3   1 <1>  -0.0800 
 10 C        2.9060    -0.3590    -1.3480 C.3   1 <1>  -0.1600 
 11 O        0.4920    -2.7540    -0.8110 O.3   1 <1>  -0.3630 
 12 C        1.0250    -4.9990    -0.3540 C.ar  1 <1>  -0.1500 
 13 C        2.1420    -5.5800     1.6790 C.ar  1 <1>  -0.1500 
 14 C        2.7840     1.1390    -1.0310 C.3   1 <1>  -0.1600 
 15 C        1.7190     2.8510     0.5310 C.3   1 <1>   0.1200 
 16 C       -0.9150    -2.6740    -0.9000 C.3   1 <1>   0.1200 
 17 C        1.5790    -5.9580     0.4720 C.ar  1 <1>  -0.1500 
 18 O        1.2960     3.5920    -0.5690 O.3   1 <1>  -0.5600 
 19 C       -1.4570    -1.7890     0.2240 C.3   1 <1>  -0.0170 
 20 C        1.1650     4.9530    -0.3180 C.3   1 <1>   0.0400 
 21 C       -2.9530    -1.5890     0.0460 C.ar  1 <1>  -0.1440 
 22 C       -3.8510    -2.4550     0.6510 C.ar  1 <1>  -0.1500 
 23 C       -3.4320    -0.5430    -0.7270 C.ar  1 <1>  -0.1500 
 24 C       -5.2140    -2.2790     0.4820 C.ar  1 <1>  -0.1500 
 25 C       -4.7950    -0.3660    -0.8970 C.ar  1 <1>  -0.1500 
 26 C       -5.6870    -1.2350    -0.2930 C.ar  1 <1>  -0.1500 
 27 H        3.1840     0.8840     1.7310 H     1 <1>   0.0800 
 28 H        1.5070     0.6780     2.1510 H     1 <1>   0.0800 
 29 H        3.3100    -2.2200    -0.3600 H     1 <1>   0.0800 
 30 H        4.2880    -0.8970     0.2040 H     1 <1>   0.0800 
 31 H        2.5830    -3.9570     2.9930 H     1 <1>   0.1500 
 32 H        0.8260     1.0460    -0.1470 H     1 <1>   0.0800 
 33 H        1.9650    -0.7240    -1.7220 H     1 <1>   0.0800 
 34 H        3.6410    -0.5060    -2.1180 H     1 <1>   0.0800 
 35 H        0.5900    -5.2820    -1.2960 H     1 <1>   0.1500 
 36 H        2.5700    -6.3250     2.3290 H     1 <1>   0.1500 
 37 H        3.7530     1.5320    -0.7790 H     1 <1>   0.0800 
 38 H        2.4310     1.6590    -1.9050 H     1 <1>   0.0800 
 39 H        2.6810     3.2200     0.8420 H     1 <1>   0.0800 
 40 H        1.0040     2.9830     1.3250 H     1 <1>   0.0800 
 41 H       -1.3330    -3.6640    -0.8490 H     1 <1>   0.0800 
 42 H       -1.1520    -2.2410    -1.8550 H     1 <1>   0.0800 
 43 H        1.5730    -6.9950     0.1800 H     1 <1>   0.1500 
 44 H       -0.9590    -0.8360     0.2050 H     1 <1>   0.0800 
 45 H       -1.2680    -2.2500     1.1770 H     1 <1>   0.0800 
 46 H        0.8390     5.4300    -1.2250 H     1 <1>   0.0800 
 47 H        2.1190     5.3530    -0.0200 H     1 <1>   0.0800 
 48 H        0.4310     5.1030     0.4540 H     1 <1>   0.0800 
 49 H       -3.4930    -3.2690     1.2570 H     1 <1>   0.1500 
 50 H       -2.7460     0.1380    -1.1990 H     1 <1>   0.1500 
 51 H       -5.9050    -2.9550     0.9540 H     1 <1>   0.1500 
 52 H       -5.1600     0.4480    -1.4980 H     1 <1>   0.1500 
 53 H       -6.7460    -1.0970    -0.4240 H     1 <1>   0.1500 
@<TRIPOS>BOND
  1   1   2  2   
  2   2   3  am  
  3   2   4  1   
  4   3   5  1   
  5   3   6  1   
  6   4   7  ar  
  7   4   8  ar  
  8   5   9  1   
  9   5  27  1   
 10   5  28  1   
 11   6  10  1   
 12   6  29  1   
 13   6  30  1   
 14   7  11  1   
 15   7  12  ar  
 16   8  13  ar  
 17   8  31  1   
 18   9  14  1   
 19   9  15  1   
 20   9  32  1   
 21  10  14  1   
 22  10  33  1   
 23  10  34  1   
 24  11  16  1   
 25  12  17  ar  
 26  12  35  1   
 27  13  17  ar  
 28  13  36  1   
 29  14  37  1   
 30  14  38  1   
 31  15  18  1   
 32  15  39  1   
 33  15  40  1   
 34  16  19  1   
 35  16  41  1   
 36  16  42  1   
 37  17  43  1   
 38  18  20  1   
 39  19  21  1   
 40  19  44  1   
 41  19  45  1   
 42  20  46  1   
 43  20  47  1   
 44  20  48  1   
 45  21  22  ar  
 46  21  23  ar  
 47  22  24  ar  
 48  22  49  1   
 49  23  25  ar  
 50  23  50  1   
 51  24  26  ar  
 52  24  51  1   
 53  25  26  ar  
 54  25  52  1   
 55  26  53  1   
@<TRIPOS>SUBSTRUCTURE
  1 ****  19 GROUP 4 **** **** 0

# MOE 2024.06 (io_trps.svl 2023.06)
