@<TRIPOS>MOLECULE
NONAME
43 45 1 0 0 
SMALL
USER_CHARGES


@<TRIPOS>ATOM
  1 CL       1.3850     1.1420     1.1190 Cl    1 <1>  -0.1770 
  2 C        2.1580    -0.1970     0.2980 C.ar  1 <1>   0.1770 
  3 C        3.5460    -0.2070     0.2040 C.ar  1 <1>   0.0860 
  4 C        1.3690    -1.2080    -0.2400 C.ar  1 <1>  -0.1440 
  5 C        4.1090    -1.2810    -0.4750 C.ar  1 <1>   0.1900 
  6 C        4.3560     0.8370     0.7740 C.2   1 <1>   0.5440 
  7 C        1.9810    -2.2670    -0.9000 C.ar  1 <1>  -0.1500 
  8 C       -0.1480    -1.1740    -0.1150 C.3   1 <1>  -0.0970 
  9 F        5.4050    -1.3220    -0.6280 F     1 <1>  -0.1900 
 10 C        3.3600    -2.3050    -1.0210 C.ar  1 <1>  -0.1500 
 11 O        5.0300     0.6340     1.7640 O.2   1 <1>  -0.5700 
 12 N        4.4590     2.0750     0.1900 N.am  1 <1>  -0.6600 
 13 C        4.7140     3.2730     1.0760 C.3   1 <1>   0.2200 
 14 C        4.7380     2.1840    -1.2700 C.3   1 <1>   0.1400 
 15 C        4.2440     4.5970     0.4530 C.3   1 <1>   0.1200 
 16 C        6.2080     3.3630     1.4750 C.3   1 <1>   0.3430 
 17 C        5.8680     3.1760    -1.6090 C.3   1 <1>  -0.0800 
 18 O        5.2510     5.1480    -0.3450 O.3   1 <1>  -0.5600 
 19 N        7.0770     2.5150     0.5890 N.4   1 <1>  -0.9590 
 20 C        5.3650     4.6300    -1.6260 C.3   1 <1>   0.1200 
 21 C        7.1930     3.0130    -0.8230 C.3   1 <1>   0.3430 
 22 C        8.4040     2.2650     1.2140 C.3   1 <1>   0.2630 
 23 H        1.3900    -3.0630    -1.3210 H     1 <1>   0.1500 
 24 H       -0.5960    -2.0380    -0.5710 H     1 <1>   0.0800 
 25 H       -0.5390    -0.2950    -0.5960 H     1 <1>   0.0800 
 26 H       -0.4310    -1.1550     0.9230 H     1 <1>   0.0800 
 27 H        3.8460    -3.1180    -1.5320 H     1 <1>   0.1500 
 28 H        4.1400     3.1370     1.9760 H     1 <1>   0.0800 
 29 H        5.0150     1.2150    -1.6480 H     1 <1>   0.0800 
 30 H        3.8320     2.4760    -1.7750 H     1 <1>   0.0800 
 31 H        4.0570     5.3070     1.2400 H     1 <1>   0.0800 
 32 H        3.3370     4.4770    -0.1140 H     1 <1>   0.0800 
 33 H        6.2930     3.0100     2.4890 H     1 <1>   0.0800 
 34 H        6.5350     4.3900     1.4560 H     1 <1>   0.0800 
 35 H        6.1170     2.9790    -2.6360 H     1 <1>   0.0800 
 36 H        6.5520     1.6190     0.5690 H     1 <1>   0.4500 
 37 H        4.4120     4.7170    -2.1230 H     1 <1>   0.0800 
 38 H        6.0690     5.2530    -2.1510 H     1 <1>   0.0800 
 39 H        7.7070     3.9600    -0.8230 H     1 <1>   0.0800 
 40 H        7.8090     2.3170    -1.3680 H     1 <1>   0.0800 
 41 H        8.9550     3.1870     1.3060 H     1 <1>   0.0800 
 42 H        8.9750     1.5760     0.6140 H     1 <1>   0.0800 
 43 H        8.2760     1.8370     2.1950 H     1 <1>   0.0800 
@<TRIPOS>BOND
  1   1   2  1   
  2   2   3  ar  
  3   2   4  ar  
  4   3   5  ar  
  5   3   6  1   
  6   4   7  ar  
  7   4   8  1   
  8   5   9  1   
  9   5  10  ar  
 10   6  11  2   
 11   6  12  am  
 12   7  10  ar  
 13   7  23  1   
 14   8  24  1   
 15   8  25  1   
 16   8  26  1   
 17  10  27  1   
 18  12  13  1   
 19  12  14  1   
 20  13  15  1   
 21  13  16  1   
 22  13  28  1   
 23  14  17  1   
 24  14  29  1   
 25  14  30  1   
 26  15  18  1   
 27  15  31  1   
 28  15  32  1   
 29  16  19  1   
 30  16  33  1   
 31  16  34  1   
 32  17  20  1   
 33  17  21  1   
 34  17  35  1   
 35  18  20  1   
 36  19  21  1   
 37  19  22  1   
 38  19  36  1   
 39  20  37  1   
 40  20  38  1   
 41  21  39  1   
 42  21  40  1   
 43  22  41  1   
 44  22  42  1   
 45  22  43  1   
@<TRIPOS>SUBSTRUCTURE
  1 ****  12 GROUP 4 **** **** 0

# MOE 2024.06 (io_trps.svl 2023.06)
