@<TRIPOS>MOLECULE
NONAME
58 61 1 0 0 
SMALL
USER_CHARGES


@<TRIPOS>ATOM
  1 O        1.1480    -1.0700    -0.0470 O.3   1 <1>  -0.6800 
  2 C        0.7420    -2.1760     0.6710 C.3   1 <1>   0.2000 
  3 C        1.6890    -3.3350     0.3660 C.3   1 <1>  -0.1600 
  4 C       -0.6910    -2.5100     0.2640 C.3   1 <1>  -0.1600 
  5 C        1.2090    -4.6100     1.0620 C.3   1 <1>   0.2090 
  6 C       -1.1570    -3.7870     0.9620 C.3   1 <1>   0.2090 
  7 N       -0.2020    -4.8910     0.6830 N.pl3 1 <1>  -0.8380 
  8 C       -0.6650    -6.1900     0.7390 C.ar  1 <1>   0.4100 
  9 N       -0.1390    -6.9930     1.6470 N.ar  1 <1>  -0.6200 
 10 C       -1.6450    -6.6350    -0.1130 C.ar  1 <1>  -0.1500 
 11 C       -0.6210    -8.2180     1.6670 C.ar  1 <1>   0.4700 
 12 C       -2.0760    -7.9340     0.0030 C.ar  1 <1>   0.4100 
 13 N       -1.5610    -8.7510     0.9080 N.ar  1 <1>  -0.6200 
 14 N       -3.0740    -8.4370    -0.8100 N.pl3 1 <1>  -0.8380 
 15 C       -3.0300    -9.8790    -1.1860 C.3   1 <1>   0.2090 
 16 C       -4.4350    -7.8560    -0.6730 C.3   1 <1>   0.2090 
 17 C       -3.8250   -10.7040    -0.1520 C.3   1 <1>   0.4230 
 18 C       -5.2710    -8.7150     0.2910 C.3   1 <1>  -0.1600 
 19 N       -3.6030   -12.2090    -0.2210 N.4   1 <1>  -0.9590 
 20 C       -5.3090   -10.2270    -0.0650 C.3   1 <1>   0.0000 
 21 C       -4.6940   -13.0010     0.4290 C.3   1 <1>   0.3430 
 22 C       -3.3590   -12.7420    -1.5980 C.3   1 <1>   0.2630 
 23 C       -6.0550   -10.9720     1.0830 C.3   1 <1>  -0.1600 
 24 C       -6.1010   -10.3530    -1.4000 C.3   1 <1>   0.1200 
 25 C       -5.3190   -12.2260     1.5860 C.3   1 <1>  -0.1600 
 26 O       -6.2540   -11.6710    -1.8050 O.3   1 <1>  -0.6800 
 27 H        2.0800    -0.8610     0.1480 H     1 <1>   0.4000 
 28 H        0.7810    -1.9260     1.7190 H     1 <1>   0.0800 
 29 H        1.7170    -3.5170    -0.6940 H     1 <1>   0.0800 
 30 H        2.6810    -3.1050     0.7060 H     1 <1>   0.0800 
 31 H       -1.3420    -1.6990     0.5320 H     1 <1>   0.0800 
 32 H       -0.7440    -2.6580    -0.8000 H     1 <1>   0.0800 
 33 H        1.2720    -4.5000     2.1310 H     1 <1>   0.0800 
 34 H        1.8340    -5.4380     0.7700 H     1 <1>   0.0800 
 35 H       -2.1420    -4.0500     0.6170 H     1 <1>   0.0800 
 36 H       -1.2050    -3.6270     2.0260 H     1 <1>   0.0800 
 37 H       -2.0510    -5.9850    -0.8590 H     1 <1>   0.1500 
 38 H       -0.1890    -8.8700     2.4080 H     1 <1>   0.1500 
 39 H       -3.4360    -9.9980    -2.1740 H     1 <1>   0.0800 
 40 H       -2.0040   -10.2040    -1.1980 H     1 <1>   0.0800 
 41 H       -4.3690    -6.8510    -0.2890 H     1 <1>   0.0800 
 42 H       -4.8980    -7.8010    -1.6440 H     1 <1>   0.0800 
 43 H       -3.4020   -10.4080     0.7940 H     1 <1>   0.0800 
 44 H       -4.8470    -8.5860     1.2730 H     1 <1>   0.0800 
 45 H       -6.2700    -8.3170     0.3290 H     1 <1>   0.0800 
 46 H       -2.7510   -12.3720     0.3320 H     1 <1>   0.4500 
 47 H       -5.4660   -13.2170    -0.2920 H     1 <1>   0.0800 
 48 H       -4.3020   -13.9400     0.7850 H     1 <1>   0.0800 
 49 H       -4.2040   -12.5430    -2.2350 H     1 <1>   0.0800 
 50 H       -3.2020   -13.8070    -1.5630 H     1 <1>   0.0800 
 51 H       -2.4850   -12.2840    -2.0310 H     1 <1>   0.0800 
 52 H       -6.2120   -10.3240     1.9300 H     1 <1>   0.0800 
 53 H       -7.0360   -11.2630     0.7460 H     1 <1>   0.0800 
 54 H       -5.6220    -9.8210    -2.2040 H     1 <1>   0.0800 
 55 H       -7.0890    -9.9420    -1.2720 H     1 <1>   0.0800 
 56 H       -6.0220   -12.8610     2.0980 H     1 <1>   0.0800 
 57 H       -4.5550   -11.9570     2.2950 H     1 <1>   0.0800 
 58 H       -6.9370   -11.7340    -2.5080 H     1 <1>   0.4000 
@<TRIPOS>BOND
  1   1   2  1   
  2   1  27  1   
  3   2   3  1   
  4   2   4  1   
  5   2  28  1   
  6   3   5  1   
  7   3  29  1   
  8   3  30  1   
  9   4   6  1   
 10   4  31  1   
 11   4  32  1   
 12   5   7  1   
 13   5  33  1   
 14   5  34  1   
 15   6   7  1   
 16   6  35  1   
 17   6  36  1   
 18   7   8  1   
 19   8   9  ar  
 20   8  10  ar  
 21   9  11  ar  
 22  10  12  ar  
 23  10  37  1   
 24  11  13  ar  
 25  11  38  1   
 26  12  13  ar  
 27  12  14  1   
 28  14  15  1   
 29  14  16  1   
 30  15  17  1   
 31  15  39  1   
 32  15  40  1   
 33  16  18  1   
 34  16  41  1   
 35  16  42  1   
 36  17  19  1   
 37  17  20  1   
 38  17  43  1   
 39  18  20  1   
 40  18  44  1   
 41  18  45  1   
 42  19  21  1   
 43  19  22  1   
 44  19  46  1   
 45  20  23  1   
 46  20  24  1   
 47  21  25  1   
 48  21  47  1   
 49  21  48  1   
 50  22  49  1   
 51  22  50  1   
 52  22  51  1   
 53  23  25  1   
 54  23  52  1   
 55  23  53  1   
 56  24  26  1   
 57  24  54  1   
 58  24  55  1   
 59  25  56  1   
 60  25  57  1   
 61  26  58  1   
@<TRIPOS>SUBSTRUCTURE
  1 ****  12 GROUP 4 **** **** 0

# MOE 2024.06 (io_trps.svl 2023.06)
