@<TRIPOS>MOLECULE
NONAME
52 55 1 0 0 
SMALL
USER_CHARGES


@<TRIPOS>ATOM
  1 O       -1.7410    -0.0490    -1.7460 O.2   1 <1>  -0.5700 
  2 C       -1.9080     0.2660    -0.5860 C.2   1 <1>   0.5440 
  3 N       -2.0240    -0.7280     0.3420 N.am  1 <1>  -0.7300 
  4 C       -1.9980     1.6580    -0.2150 C.ar  1 <1>   0.0860 
  5 C       -1.9890    -2.1830     0.0510 C.3   1 <1>   0.2200 
  6 C       -2.6210     2.0960     0.9390 C.ar  1 <1>   0.1600 
  7 C       -1.4680     2.6580    -1.0060 C.ar  1 <1>   0.1600 
  8 C       -3.3870    -2.7900     0.0990 C.3   1 <1>  -0.0800 
  9 C       -1.3430    -2.8900     1.2330 C.3   1 <1>   0.1200 
 10 N       -2.7040     3.3620     1.2820 N.ar  1 <1>  -0.6200 
 11 N       -1.5310     3.9350    -0.6950 N.ar  1 <1>  -0.6200 
 12 C       -3.5980    -3.0320     1.6010 C.3   1 <1>   0.1200 
 13 C       -4.4910    -1.9490    -0.5760 C.3   1 <1>  -0.0170 
 14 O       -2.3410    -2.9300     2.2070 O.3   1 <1>  -0.5600 
 15 C       -2.1490     4.2260     0.4430 C.ar  1 <1>   0.4770 
 16 C       -5.8940    -2.5650    -0.6270 C.ar  1 <1>  -0.1430 
 17 C       -2.2390     5.7070     0.8370 C.3   1 <1>   0.0630 
 18 C       -6.9930    -1.7680    -1.0350 C.ar  1 <1>   0.0000 
 19 C       -6.1610    -3.8660    -0.3020 C.ar  1 <1>  -0.1500 
 20 C       -3.0320     6.5270    -0.1950 C.3   1 <1>  -0.2400 
 21 C       -0.8480     6.3260     1.0510 C.3   1 <1>  -0.2400 
 22 C       -8.2800    -2.3600    -1.0380 C.ar  1 <1>   0.3100 
 23 C       -6.8900    -0.4170    -1.4470 C.ar  1 <1>  -0.1500 
 24 C       -7.4720    -4.3560    -0.3510 C.ar  1 <1>   0.1600 
 25 N       -8.5020    -3.6510    -0.6930 N.ar  1 <1>  -0.6200 
 26 C       -9.3870    -1.5850    -1.4200 C.ar  1 <1>  -0.1500 
 27 C       -7.9880     0.3100    -1.8170 C.ar  1 <1>  -0.1500 
 28 C       -9.2550    -0.2770    -1.8010 C.ar  1 <1>  -0.1500 
 29 H       -2.1070    -0.5280     1.3420 H     1 <1>   0.3700 
 30 H       -1.4760    -2.3800    -0.8760 H     1 <1>   0.0800 
 31 H       -3.0740     1.3800     1.6020 H     1 <1>   0.1500 
 32 H       -0.9760     2.3900    -1.9270 H     1 <1>   0.1500 
 33 H       -3.3340    -3.7450    -0.3930 H     1 <1>   0.0800 
 34 H       -0.4810    -2.3700     1.6140 H     1 <1>   0.0800 
 35 H       -1.0820    -3.9030     0.9810 H     1 <1>   0.0800 
 36 H       -3.9960    -4.0120     1.8000 H     1 <1>   0.0800 
 37 H       -4.2350    -2.2850     2.0400 H     1 <1>   0.0800 
 38 H       -4.1840    -1.7270    -1.5840 H     1 <1>   0.0800 
 39 H       -4.5680    -1.0160    -0.0470 H     1 <1>   0.0800 
 40 H       -2.7670     5.7660     1.7730 H     1 <1>   0.0800 
 41 H       -5.4010    -4.5600    -0.0030 H     1 <1>   0.1500 
 42 H       -2.5280     6.5210    -1.1450 H     1 <1>   0.0800 
 43 H       -3.1380     7.5440     0.1360 H     1 <1>   0.0800 
 44 H       -4.0110     6.1020    -0.3240 H     1 <1>   0.0800 
 45 H       -0.2880     6.3160     0.1320 H     1 <1>   0.0800 
 46 H       -0.3060     5.7620     1.7880 H     1 <1>   0.0800 
 47 H       -0.9370     7.3420     1.3920 H     1 <1>   0.0800 
 48 H       -5.9270     0.0580    -1.4790 H     1 <1>   0.1500 
 49 H       -7.6340    -5.3860    -0.0830 H     1 <1>   0.1500 
 50 H      -10.3500    -2.0600    -1.4040 H     1 <1>   0.1500 
 51 H       -7.8930     1.3370    -2.1260 H     1 <1>   0.1500 
 52 H      -10.1130     0.3040    -2.0920 H     1 <1>   0.1500 
@<TRIPOS>BOND
  1   1   2  2   
  2   2   3  am  
  3   2   4  1   
  4   3   5  1   
  5   3  29  1   
  6   4   6  ar  
  7   4   7  ar  
  8   5   8  1   
  9   5   9  1   
 10   5  30  1   
 11   6  10  ar  
 12   6  31  1   
 13   7  11  ar  
 14   7  32  1   
 15   8  12  1   
 16   8  13  1   
 17   8  33  1   
 18   9  14  1   
 19   9  34  1   
 20   9  35  1   
 21  10  15  ar  
 22  11  15  ar  
 23  12  14  1   
 24  12  36  1   
 25  12  37  1   
 26  13  16  1   
 27  13  38  1   
 28  13  39  1   
 29  15  17  1   
 30  16  18  ar  
 31  16  19  ar  
 32  17  20  1   
 33  17  21  1   
 34  17  40  1   
 35  18  22  ar  
 36  18  23  ar  
 37  19  24  ar  
 38  19  41  1   
 39  20  42  1   
 40  20  43  1   
 41  20  44  1   
 42  21  45  1   
 43  21  46  1   
 44  21  47  1   
 45  22  25  ar  
 46  22  26  ar  
 47  23  27  ar  
 48  23  48  1   
 49  24  25  ar  
 50  24  49  1   
 51  26  28  ar  
 52  26  50  1   
 53  27  28  ar  
 54  27  51  1   
 55  28  52  1   
@<TRIPOS>SUBSTRUCTURE
  1 ****  13 GROUP 4 **** **** 0

# MOE 2024.06 (io_trps.svl 2023.06)
