@<TRIPOS>MOLECULE
Untitled Document
42 44 1 0 0 
SMALL
USER_CHARGES


@<TRIPOS>ATOM
  1 F        2.7120    -0.9050    -2.2340 F     1 <1>  -0.1900 
  2 C        1.9520    -1.7630    -1.6070 C.ar  1 <1>   0.1900 
  3 C        2.5050    -2.9480    -1.1640 C.ar  1 <1>  -0.1500 
  4 C        0.6220    -1.4510    -1.4140 C.ar  1 <1>  -0.1500 
  5 C        1.7160    -3.8790    -0.4940 C.ar  1 <1>  -0.1440 
  6 C       -0.1730    -2.3680    -0.7520 C.ar  1 <1>  -0.1500 
  7 C        0.3680    -3.5640    -0.3010 C.ar  1 <1>  -0.1500 
  8 C        2.3620    -5.2000    -0.0190 C.3   1 <1>   0.5130 
  9 N        3.5110    -4.8490     0.8440 N.pl3 1 <1>  -0.8690 
 10 C        1.4300    -6.0320     0.8880 C.3   1 <1>  -0.1600 
 11 C        2.6930    -6.0810    -1.2530 C.3   1 <1>  -0.1600 
 12 C        4.8420    -4.9510     0.6790 C.ar  1 <1>   0.7200 
 13 C        2.0670    -7.3340     1.4250 C.3   1 <1>  -0.1600 
 14 C        2.8180    -7.6020    -1.0000 C.3   1 <1>  -0.1600 
 15 N        5.3950    -4.6820    -0.4980 N.ar  1 <1>  -0.6200 
 16 N        5.4790    -5.2980     1.7890 N.ar  1 <1>  -0.6200 
 17 C        3.0990    -7.9530     0.4650 C.3   1 <1>  -0.1600 
 18 C        6.7030    -4.7830    -0.5540 C.ar  1 <1>   0.1600 
 19 C        6.7850    -5.3900     1.6940 C.ar  1 <1>   0.1600 
 20 C        7.4870    -5.1350     0.5290 C.ar  1 <1>   0.0860 
 21 C        8.9150    -5.2310     0.4380 C.2   1 <1>   0.5440 
 22 O        9.4100    -5.4940    -0.6620 O.2   1 <1>  -0.5700 
 23 N        9.6820    -5.0260     1.5500 N.am  1 <1>  -0.7180 
 24 O       11.0150    -5.1380     1.6590 O.3   1 <1>  -0.7120 
 25 H        3.5480    -3.1310    -1.3440 H     1 <1>   0.1500 
 26 H        0.2270    -0.5190    -1.7730 H     1 <1>   0.1500 
 27 H       -1.2150    -2.1530    -0.5870 H     1 <1>   0.1500 
 28 H       -0.2970    -4.2380     0.2050 H     1 <1>   0.1500 
 29 H        3.2730    -4.9630     1.8210 H     1 <1>   0.4000 
 30 H        0.5680    -6.3110     0.3100 H     1 <1>   0.0800 
 31 H        1.0860    -5.4340     1.7130 H     1 <1>   0.0800 
 32 H        3.5630    -5.7180    -1.7600 H     1 <1>   0.0800 
 33 H        1.8900    -5.9570    -1.9560 H     1 <1>   0.0800 
 34 H        1.2830    -8.0470     1.6140 H     1 <1>   0.0800 
 35 H        2.5550    -7.1390     2.3640 H     1 <1>   0.0800 
 36 H        3.5980    -8.0050    -1.6230 H     1 <1>   0.0800 
 37 H        1.8970    -8.0800    -1.2880 H     1 <1>   0.0800 
 38 H        3.1150    -9.0220     0.5900 H     1 <1>   0.0800 
 39 H        4.0820    -7.5940     0.7190 H     1 <1>   0.0800 
 40 H        7.1920    -4.5790    -1.4920 H     1 <1>   0.1500 
 41 H        7.3360    -5.6850     2.5710 H     1 <1>   0.1500 
 42 H        9.2540    -4.7250     2.4250 H     1 <1>   0.3700 
@<TRIPOS>BOND
  1   1   2  1   
  2   2   3  ar  
  3   2   4  ar  
  4   3   5  ar  
  5   3  25  1   
  6   4   6  ar  
  7   4  26  1   
  8   5   7  ar  
  9   5   8  1   
 10   6   7  ar  
 11   6  27  1   
 12   7  28  1   
 13   8   9  1   
 14   8  10  1   
 15   8  11  1   
 16   9  12  1   
 17   9  29  1   
 18  10  13  1   
 19  10  30  1   
 20  10  31  1   
 21  11  14  1   
 22  11  32  1   
 23  11  33  1   
 24  12  15  ar  
 25  12  16  ar  
 26  13  17  1   
 27  13  34  1   
 28  13  35  1   
 29  14  17  1   
 30  14  36  1   
 31  14  37  1   
 32  15  18  ar  
 33  16  19  ar  
 34  17  38  1   
 35  17  39  1   
 36  18  20  ar  
 37  18  40  1   
 38  19  20  ar  
 39  19  41  1   
 40  20  21  1   
 41  21  22  2   
 42  21  23  am  
 43  23  24  1   
 44  23  42  1   
@<TRIPOS>SUBSTRUCTURE
  1 ****  12 GROUP 4 **** **** 0

# MOE 2024.06 (io_trps.svl 2023.06)
