@<TRIPOS>MOLECULE
NONAME
43 44 1 0 0 
SMALL
USER_CHARGES


@<TRIPOS>ATOM
  1 N        0.2490    -0.3190    -0.8250 N.ar  1 <1>  -0.6200 
  2 C        1.3840    -0.7630    -0.3240 C.ar  1 <1>   0.4100 
  3 C       -0.7330    -1.1930    -0.8920 C.ar  1 <1>   0.4760 
  4 N        2.4180     0.1400    -0.2660 N.pl3 1 <1>  -0.8380 
  5 C        1.5200    -2.0770     0.1090 C.ar  1 <1>  -0.1440 
  6 N       -0.7230    -2.4600    -0.5200 N.ar  1 <1>  -0.6200 
  7 C       -2.0360    -0.6930    -1.4650 C.3   1 <1>  -0.0970 
  8 C        3.0760     0.4460    -1.5580 C.3   1 <1>   0.2090 
  9 C        2.2800     1.2580     0.6930 C.3   1 <1>   0.2090 
 10 C        0.4200    -2.8840    -0.0190 C.ar  1 <1>   0.1600 
 11 C        2.8130    -2.6280     0.7010 C.3   1 <1>  -0.0160 
 12 C        4.3100     1.3510    -1.4350 C.3   1 <1>  -0.1600 
 13 C        3.4810     1.2550     1.6400 C.3   1 <1>  -0.1600 
 14 C        2.7070    -2.7470     2.2240 C.3   1 <1>  -0.2400 
 15 C        5.2540     1.0230    -0.2560 C.3   1 <1>  -0.0800 
 16 C        4.8010     1.7560     1.0290 C.3   1 <1>  -0.1600 
 17 C        6.6970     1.4200    -0.6380 C.3   1 <1>  -0.1600 
 18 C        7.7620     0.9370     0.3570 C.3   1 <1>  -0.2400 
 19 H       -1.9670     0.3530    -1.7040 H     1 <1>   0.0800 
 20 H       -2.8210    -0.8380    -0.7470 H     1 <1>   0.0800 
 21 H       -2.2670    -1.2430    -2.3570 H     1 <1>   0.0800 
 22 H        2.3580     0.9050    -2.2180 H     1 <1>   0.0800 
 23 H        3.3760    -0.4870    -2.0040 H     1 <1>   0.0800 
 24 H        1.3800     1.1190     1.2690 H     1 <1>   0.0800 
 25 H        2.1970     2.1970     0.1730 H     1 <1>   0.0800 
 26 H        0.4670    -3.9100     0.2990 H     1 <1>   0.1500 
 27 H        3.6440    -1.9930     0.4500 H     1 <1>   0.0800 
 28 H        3.0140    -3.5970     0.2780 H     1 <1>   0.0800 
 29 H        3.9930     2.3770    -1.3790 H     1 <1>   0.0800 
 30 H        4.8400     1.2550    -2.3650 H     1 <1>   0.0800 
 31 H        3.6160     0.2590     2.0200 H     1 <1>   0.0800 
 32 H        3.2430     1.8860     2.4780 H     1 <1>   0.0800 
 33 H        2.4820    -1.7860     2.6520 H     1 <1>   0.0800 
 34 H        3.6370    -3.0990     2.6330 H     1 <1>   0.0800 
 35 H        1.9260    -3.4350     2.4950 H     1 <1>   0.0800 
 36 H        5.2380    -0.0400    -0.0830 H     1 <1>   0.0800 
 37 H        5.5490     1.6440     1.7900 H     1 <1>   0.0800 
 38 H        4.7170     2.8090     0.8240 H     1 <1>   0.0800 
 39 H        6.7660     2.4900    -0.7450 H     1 <1>   0.0800 
 40 H        6.9360     0.9840    -1.5930 H     1 <1>   0.0800 
 41 H        7.6920     1.4600     1.2920 H     1 <1>   0.0800 
 42 H        8.7420     1.1150    -0.0480 H     1 <1>   0.0800 
 43 H        7.6560    -0.1190     0.5370 H     1 <1>   0.0800 
@<TRIPOS>BOND
  1   1   2  ar  
  2   1   3  ar  
  3   2   4  1   
  4   2   5  ar  
  5   3   6  ar  
  6   3   7  1   
  7   4   8  1   
  8   4   9  1   
  9   5  10  ar  
 10   5  11  1   
 11   6  10  ar  
 12   7  19  1   
 13   7  20  1   
 14   7  21  1   
 15   8  12  1   
 16   8  22  1   
 17   8  23  1   
 18   9  13  1   
 19   9  24  1   
 20   9  25  1   
 21  10  26  1   
 22  11  14  1   
 23  11  27  1   
 24  11  28  1   
 25  12  15  1   
 26  12  29  1   
 27  12  30  1   
 28  13  16  1   
 29  13  31  1   
 30  13  32  1   
 31  14  33  1   
 32  14  34  1   
 33  14  35  1   
 34  15  16  1   
 35  15  17  1   
 36  15  36  1   
 37  16  37  1   
 38  16  38  1   
 39  17  18  1   
 40  17  39  1   
 41  17  40  1   
 42  18  41  1   
 43  18  42  1   
 44  18  43  1   
@<TRIPOS>SUBSTRUCTURE
  1 ****   4 GROUP 4 **** **** 0

# MOE 2024.06 (io_trps.svl 2023.06)
