@<TRIPOS>MOLECULE
NONAME
24 24 1 0 0 
SMALL
USER_CHARGES


@<TRIPOS>ATOM
  1 O        0.8030    -1.0600    -1.0890 O.co2 1 <1>  -0.9000 
  2 C        0.1090    -1.5740    -0.2070 C.2   1 <1>   0.9060 
  3 O        0.4610    -1.5880     0.9800 O.co2 1 <1>  -0.9000 
  4 C       -1.2220    -2.1820    -0.5900 C.3   1 <1>   0.0700 
  5 N       -1.1220    -3.6420    -0.3880 N.pl3 1 <1>   0.3140 
  6 C       -2.4270    -1.5560     0.1730 C.3   1 <1>  -0.0800 
  7 N       -1.5980    -4.5260    -1.2490 N.2   1 <1>  -0.4180 
  8 C       -0.6440    -4.3250     0.6380 C.2   1 <1>   0.0360 
  9 C       -3.7620    -2.2650    -0.1600 C.3   1 <1>  -0.1600 
 10 C       -2.5170    -0.0480    -0.1340 C.3   1 <1>  -0.2400 
 11 N       -1.3970    -5.6860    -0.7330 N.2   1 <1>   0.0000 
 12 N       -0.8030    -5.5800     0.4500 N.2   1 <1>  -0.3380 
 13 C       -4.9730    -1.7100     0.6020 C.3   1 <1>  -0.2400 
 14 H       -1.3510    -2.0130    -1.6410 H     1 <1>   0.0800 
 15 H       -2.2350    -1.6620     1.2290 H     1 <1>   0.0800 
 16 H       -0.1910    -3.8610     1.4960 H     1 <1>   0.1500 
 17 H       -3.9490    -2.2040    -1.2190 H     1 <1>   0.0800 
 18 H       -3.6830    -3.3090     0.0910 H     1 <1>   0.0800 
 19 H       -2.7540     0.1140    -1.1700 H     1 <1>   0.0800 
 20 H       -1.5800     0.4390     0.0790 H     1 <1>   0.0800 
 21 H       -3.2630     0.4270     0.4750 H     1 <1>   0.0800 
 22 H       -5.2180    -0.7180     0.2690 H     1 <1>   0.0800 
 23 H       -4.7720    -1.6890     1.6580 H     1 <1>   0.0800 
 24 H       -5.8280    -2.3400     0.4300 H     1 <1>   0.0800 
@<TRIPOS>BOND
  1   1   2  ar  
  2   2   3  ar  
  3   2   4  1   
  4   4   5  1   
  5   4   6  1   
  6   4  14  1   
  7   5   7  1   
  8   5   8  1   
  9   6   9  1   
 10   6  10  1   
 11   6  15  1   
 12   7  11  2   
 13   8  12  2   
 14   8  16  1   
 15   9  13  1   
 16   9  17  1   
 17   9  18  1   
 18  10  19  1   
 19  10  20  1   
 20  10  21  1   
 21  11  12  1   
 22  13  22  1   
 23  13  23  1   
 24  13  24  1   
@<TRIPOS>SUBSTRUCTURE
  1 ****   4 GROUP 4 **** **** 0

# MOE 2024.06 (io_trps.svl 2023.06)
