@<TRIPOS>MOLECULE
NONAME
36 38 1 0 0 
SMALL
USER_CHARGES


@<TRIPOS>ATOM
  1 S       -0.3720     0.5470    -1.7970 S.3   1 <1>  -0.0800 
  2 C       -1.3150     1.1990    -0.4310 C.2   1 <1>  -0.0450 
  3 C       -1.0480    -1.0650    -1.6100 C.2   1 <1>  -0.1100 
  4 C       -2.0660     0.1860     0.0790 C.2   1 <1>   0.0620 
  5 C       -1.1660     2.5820    -0.0780 C.2   1 <1>   0.7150 
  6 C       -1.9180    -1.0760    -0.5860 C.2   1 <1>   0.0620 
  7 O       -2.9060     0.3020     1.1300 O.3   1 <1>  -0.3420 
  8 O       -1.7880     3.0750     0.8460 O.2   1 <1>  -0.5700 
  9 N       -0.3020     3.3690    -0.7950 N.am  1 <1>  -0.4930 
 10 O       -2.6170    -2.1710    -0.1850 O.3   1 <1>  -0.3420 
 11 C       -3.3860    -0.8870     1.7250 C.3   1 <1>   0.1200 
 12 C        0.0210     4.7400    -0.6390 C.2   1 <1>   0.0630 
 13 C       -3.7370    -1.9210     0.6450 C.3   1 <1>   0.1200 
 14 C       -0.4880     5.6820     0.2580 C.2   1 <1>   0.1390 
 15 C        0.9300     5.4240    -1.3640 C.2   1 <1>  -0.3020 
 16 N        0.0580     6.8540     0.1080 N.2   1 <1>  -0.7070 
 17 N        0.9380     6.6940    -0.9010 N.pl3 1 <1>   0.3140 
 18 C        1.7800     7.8020    -1.3740 C.3   1 <1>   0.1570 
 19 C        2.9550     7.9970    -0.4410 C.2   1 <1>   0.5690 
 20 O        4.0450     8.1790    -0.9260 O.2   1 <1>  -0.5700 
 21 N        2.7540     7.9780     0.9050 N.am  1 <1>  -0.7300 
 22 C        3.7940     8.1560     1.9470 C.3   1 <1>   0.0600 
 23 H       -0.7280    -1.8380    -2.2840 H     1 <1>   0.1500 
 24 H        0.1920     2.8880    -1.5430 H     1 <1>   0.3700 
 25 H       -4.2510    -0.6350     2.3110 H     1 <1>   0.0800 
 26 H       -2.6180    -1.2690     2.3750 H     1 <1>   0.0800 
 27 H       -4.0320    -2.8540     1.0910 H     1 <1>   0.0800 
 28 H       -4.5390    -1.5580     0.0260 H     1 <1>   0.0800 
 29 H       -1.2470     5.4690     0.9930 H     1 <1>   0.1500 
 30 H        1.5630     5.0870    -2.1640 H     1 <1>   0.1500 
 31 H        1.1920     8.6990    -1.3990 H     1 <1>   0.0800 
 32 H        2.1340     7.5820    -2.3620 H     1 <1>   0.0800 
 33 H        1.8070     7.7320     1.2350 H     1 <1>   0.3700 
 34 H        4.7450     8.3770     1.4920 H     1 <1>   0.0800 
 35 H        3.8860     7.2530     2.5260 H     1 <1>   0.0800 
 36 H        3.5220     8.9690     2.5970 H     1 <1>   0.0800 
@<TRIPOS>BOND
  1   1   2  1   
  2   1   3  1   
  3   2   4  2   
  4   2   5  1   
  5   3   6  2   
  6   3  23  1   
  7   4   6  1   
  8   4   7  1   
  9   5   8  2   
 10   5   9  am  
 11   6  10  1   
 12   7  11  1   
 13   9  12  1   
 14   9  24  1   
 15  10  13  1   
 16  11  13  1   
 17  11  25  1   
 18  11  26  1   
 19  12  14  1   
 20  12  15  2   
 21  13  27  1   
 22  13  28  1   
 23  14  16  2   
 24  14  29  1   
 25  15  17  1   
 26  15  30  1   
 27  16  17  1   
 28  17  18  1   
 29  18  19  1   
 30  18  31  1   
 31  18  32  1   
 32  19  20  2   
 33  19  21  am  
 34  21  22  1   
 35  21  33  1   
 36  22  34  1   
 37  22  35  1   
 38  22  36  1   
@<TRIPOS>SUBSTRUCTURE
  1 ****   9 GROUP 4 **** **** 0

# MOE 2024.06 (io_trps.svl 2023.06)
