@<TRIPOS>MOLECULE
NONAME
51 54 1 0 0 
SMALL
USER_CHARGES


@<TRIPOS>ATOM
  1 F       -1.4770    -0.2670     1.6380 F     1 <1>  -0.1900 
  2 C       -1.9350     0.4440     0.6440 C.ar  1 <1>   0.1900 
  3 C       -3.3110     0.5290     0.4430 C.ar  1 <1>   0.0860 
  4 C       -1.0120     1.0690    -0.1710 C.ar  1 <1>  -0.1500 
  5 C       -3.7460     1.2910    -0.6490 C.ar  1 <1>  -0.1440 
  6 C       -4.2320    -0.1550     1.3220 C.2   1 <1>   0.5440 
  7 C       -1.4660     1.8160    -1.2420 C.ar  1 <1>  -0.1500 
  8 C       -2.8280     1.9230    -1.4760 C.ar  1 <1>  -0.1500 
  9 C       -5.2360     1.4310    -0.9350 C.3   1 <1>  -0.0960 
 10 O       -4.7290     0.4530     2.2520 O.2   1 <1>  -0.5700 
 11 N       -4.5910    -1.4700     1.1110 N.am  1 <1>  -0.6600 
 12 C       -5.6160    -2.1040     1.9900 C.3   1 <1>   0.1400 
 13 C       -4.0330    -2.3060     0.0080 C.3   1 <1>   0.1400 
 14 C       -5.8170    -3.5840     1.6540 C.3   1 <1>  -0.1600 
 15 C       -5.1590    -3.0110    -0.7530 C.3   1 <1>  -0.1600 
 16 C       -6.1470    -3.7790     0.1590 C.3   1 <1>   0.4240 
 17 O       -7.3830    -3.1340    -0.0630 O.3   1 <1>  -0.5600 
 18 C       -6.2120    -5.2840    -0.2210 C.ar  1 <1>  -0.1430 
 19 C       -8.5500    -3.8210     0.2550 C.3   1 <1>   0.1200 
 20 C       -5.0750    -6.1010    -0.1770 C.ar  1 <1>   0.0830 
 21 C       -7.4210    -5.8540    -0.6170 C.ar  1 <1>  -0.1430 
 22 C       -8.6780    -5.0120    -0.6830 C.3   1 <1>  -0.0170 
 23 O       -3.8900    -5.5500     0.2020 O.3   1 <1>  -0.3630 
 24 C       -5.1670    -7.4480    -0.5210 C.ar  1 <1>  -0.1500 
 25 C       -7.4990    -7.1940    -0.9600 C.ar  1 <1>  -0.1500 
 26 C       -2.7070    -6.3080     0.3310 C.3   1 <1>   0.0400 
 27 C       -6.3740    -7.9910    -0.9110 C.ar  1 <1>  -0.1500 
 28 H        0.0400     0.9710     0.0320 H     1 <1>   0.1500 
 29 H       -0.7660     2.3130    -1.8910 H     1 <1>   0.1500 
 30 H       -3.1680     2.5080    -2.3130 H     1 <1>   0.1500 
 31 H       -5.7280     1.8930    -0.0960 H     1 <1>   0.0800 
 32 H       -5.6760     0.4620    -1.0970 H     1 <1>   0.0800 
 33 H       -5.4120     2.0350    -1.8060 H     1 <1>   0.0800 
 34 H       -6.5460    -1.5760     1.8660 H     1 <1>   0.0800 
 35 H       -5.3100    -2.0020     3.0170 H     1 <1>   0.0800 
 36 H       -3.3650    -3.0340     0.4340 H     1 <1>   0.0800 
 37 H       -3.4660    -1.7090    -0.6830 H     1 <1>   0.0800 
 38 H       -6.5930    -3.9970     2.2680 H     1 <1>   0.0800 
 39 H       -4.9190    -4.1090     1.9150 H     1 <1>   0.0800 
 40 H       -4.7120    -3.6870    -1.4570 H     1 <1>   0.0800 
 41 H       -5.6850    -2.2730    -1.3310 H     1 <1>   0.0800 
 42 H       -9.3760    -3.1450     0.1220 H     1 <1>   0.0800 
 43 H       -8.5150    -4.1360     1.2820 H     1 <1>   0.0800 
 44 H       -8.8260    -4.6600    -1.6880 H     1 <1>   0.0800 
 45 H       -9.5350    -5.5940    -0.3970 H     1 <1>   0.0800 
 46 H       -4.3120    -8.0940    -0.4960 H     1 <1>   0.1500 
 47 H       -8.4370    -7.6220    -1.2680 H     1 <1>   0.1500 
 48 H       -1.9250    -5.6510     0.6700 H     1 <1>   0.0800 
 49 H       -2.4480    -6.7170    -0.6300 H     1 <1>   0.0800 
 50 H       -2.8680    -7.0870     1.0540 H     1 <1>   0.0800 
 51 H       -6.4400    -9.0310    -1.1780 H     1 <1>   0.1500 
@<TRIPOS>BOND
  1   1   2  1   
  2   2   3  ar  
  3   2   4  ar  
  4   3   5  ar  
  5   3   6  1   
  6   4   7  ar  
  7   4  28  1   
  8   5   8  ar  
  9   5   9  1   
 10   6  10  2   
 11   6  11  am  
 12   7   8  ar  
 13   7  29  1   
 14   8  30  1   
 15   9  31  1   
 16   9  32  1   
 17   9  33  1   
 18  11  12  1   
 19  11  13  1   
 20  12  14  1   
 21  12  34  1   
 22  12  35  1   
 23  13  15  1   
 24  13  36  1   
 25  13  37  1   
 26  14  16  1   
 27  14  38  1   
 28  14  39  1   
 29  15  16  1   
 30  15  40  1   
 31  15  41  1   
 32  16  17  1   
 33  16  18  1   
 34  17  19  1   
 35  18  20  ar  
 36  18  21  ar  
 37  19  22  1   
 38  19  42  1   
 39  19  43  1   
 40  20  23  1   
 41  20  24  ar  
 42  21  22  1   
 43  21  25  ar  
 44  22  44  1   
 45  22  45  1   
 46  23  26  1   
 47  24  27  ar  
 48  24  46  1   
 49  25  27  ar  
 50  25  47  1   
 51  26  48  1   
 52  26  49  1   
 53  26  50  1   
 54  27  51  1   
@<TRIPOS>SUBSTRUCTURE
  1 ****  13 GROUP 4 **** **** 0

# MOE 2024.06 (io_trps.svl 2023.06)
