@<TRIPOS>MOLECULE
NONAME
40 41 1 0 0 
SMALL
USER_CHARGES


@<TRIPOS>ATOM
  1 S       -0.2540    -2.8730    -2.0260 S.3   1 <1>  -0.0800 
  2 C       -1.5950    -2.3060    -1.0630 C.2   1 <1>  -0.1400 
  3 C        0.1820    -1.2210    -2.3680 C.2   1 <1>   0.2280 
  4 C       -1.5900    -0.9560    -1.0920 C.2   1 <1>   0.0460 
  5 C       -2.4100    -3.4410    -0.4510 C.3   1 <1>   0.0200 
  6 N       -0.5810    -0.3590    -1.8310 N.2   1 <1>  -0.5650 
  7 C       -2.5220     0.0470    -0.4390 C.3   1 <1>  -0.0590 
  8 C       -3.5570    -2.9980     0.4620 C.3   1 <1>   0.2090 
  9 N       -4.2620    -4.1680     1.0580 N.pl3 1 <1>  -0.8380 
 10 C       -4.9930    -4.9830     0.2070 C.ar  1 <1>   0.4100 
 11 C       -3.5970    -4.7760     2.2460 C.3   1 <1>   0.1290 
 12 N       -4.5030    -6.1900    -0.0160 N.ar  1 <1>  -0.6200 
 13 C       -6.1730    -4.5220    -0.3970 C.ar  1 <1>   0.1600 
 14 C       -5.2280    -6.9210    -0.8810 C.ar  1 <1>   0.3960 
 15 N       -6.9070    -5.2090    -1.2480 N.ar  1 <1>  -0.6200 
 16 C       -4.8190    -8.2770    -1.2540 C.2   1 <1>   0.5440 
 17 C       -6.3900    -6.4100    -1.4680 C.ar  1 <1>   0.1600 
 18 O       -5.0380    -8.6560    -2.3930 O.2   1 <1>  -0.5700 
 19 N       -4.2170    -9.1770    -0.3820 N.am  1 <1>  -0.6600 
 20 C       -3.6190   -10.4560    -0.8590 C.3   1 <1>   0.0600 
 21 C       -4.1310    -8.9680     1.0890 C.3   1 <1>   0.0600 
 22 H        1.0420    -1.0570    -2.9930 H     1 <1>   0.1500 
 23 H       -1.7410    -4.0640     0.1130 H     1 <1>   0.0800 
 24 H       -2.8140    -4.0320    -1.2530 H     1 <1>   0.0800 
 25 H       -3.3150    -0.4140     0.1090 H     1 <1>   0.0800 
 26 H       -2.9540     0.6730    -1.1990 H     1 <1>   0.0800 
 27 H       -1.9590     0.6690     0.2320 H     1 <1>   0.0800 
 28 H       -4.2610    -2.4200    -0.1110 H     1 <1>   0.0800 
 29 H       -3.1700    -2.3790     1.2530 H     1 <1>   0.0800 
 30 H       -3.4340    -4.0290     3.0020 H     1 <1>   0.0800 
 31 H       -2.6540    -5.2100     1.9610 H     1 <1>   0.0800 
 32 H       -4.2220    -5.5510     2.6560 H     1 <1>   0.0800 
 33 H       -6.5010    -3.5320    -0.1410 H     1 <1>   0.1500 
 34 H       -6.9190    -7.0410    -2.1620 H     1 <1>   0.1500 
 35 H       -3.5180   -10.4580    -1.9310 H     1 <1>   0.0800 
 36 H       -4.2480   -11.2790    -0.5700 H     1 <1>   0.0800 
 37 H       -2.6420   -10.5850    -0.4270 H     1 <1>   0.0800 
 38 H       -4.9510    -8.3630     1.4330 H     1 <1>   0.0800 
 39 H       -3.2050    -8.4750     1.3280 H     1 <1>   0.0800 
 40 H       -4.1720    -9.9140     1.6000 H     1 <1>   0.0800 
@<TRIPOS>BOND
  1   1   2  1   
  2   1   3  1   
  3   2   4  2   
  4   2   5  1   
  5   3   6  2   
  6   3  22  1   
  7   4   6  1   
  8   4   7  1   
  9   5   8  1   
 10   5  23  1   
 11   5  24  1   
 12   7  25  1   
 13   7  26  1   
 14   7  27  1   
 15   8   9  1   
 16   8  28  1   
 17   8  29  1   
 18   9  10  1   
 19   9  11  1   
 20  10  12  ar  
 21  10  13  ar  
 22  11  30  1   
 23  11  31  1   
 24  11  32  1   
 25  12  14  ar  
 26  13  15  ar  
 27  13  33  1   
 28  14  16  1   
 29  14  17  ar  
 30  15  17  ar  
 31  16  18  2   
 32  16  19  am  
 33  17  34  1   
 34  19  20  1   
 35  19  21  1   
 36  20  35  1   
 37  20  36  1   
 38  20  37  1   
 39  21  38  1   
 40  21  39  1   
 41  21  40  1   
@<TRIPOS>SUBSTRUCTURE
  1 ****  10 GROUP 4 **** **** 0

# MOE 2024.06 (io_trps.svl 2023.06)
