@<TRIPOS>MOLECULE
NONAME
46 47 1 0 0 
SMALL
USER_CHARGES


@<TRIPOS>ATOM
  1 O        0.5460    -0.4630    -0.7060 O.3   1 <1>  -0.5600 
  2 C        1.5220    -1.2030    -0.0360 C.3   1 <1>   0.2000 
  3 C        0.6950     0.9220    -0.6220 C.3   1 <1>   0.1200 
  4 C        2.8930    -0.9210    -0.6700 C.3   1 <1>  -0.1600 
  5 C        1.1490    -2.6840    -0.1240 C.3   1 <1>  -0.1600 
  6 C        2.0110     1.3390    -1.2870 C.3   1 <1>  -0.1600 
  7 C        3.1960     0.5820    -0.6770 C.3   1 <1>  -0.1600 
  8 C       -0.2660    -2.9430     0.3920 C.3   1 <1>   0.2090 
  9 N       -0.4950    -4.4090     0.4820 N.pl3 1 <1>  -0.8380 
 10 C       -1.5650    -4.9050    -0.2390 C.ar  1 <1>   0.4100 
 11 C       -0.2670    -4.9800     1.8370 C.3   1 <1>   0.1290 
 12 N       -2.7380    -4.8580     0.3850 N.ar  1 <1>  -0.6200 
 13 C       -1.3950    -5.4050    -1.5370 C.ar  1 <1>   0.0730 
 14 C       -3.7920    -5.3020    -0.2770 C.ar  1 <1>   0.1670 
 15 C       -0.1040    -5.4480    -2.1500 C.1   1 <1>   0.4840 
 16 C       -2.5090    -5.8650    -2.2130 C.ar  1 <1>  -0.1500 
 17 C       -3.7240    -5.8080    -1.5660 C.ar  1 <1>  -0.1500 
 18 C       -5.1330    -5.2310     0.4570 C.3   1 <1>   0.0630 
 19 N        0.8980    -5.5110    -2.6940 N.1   1 <1>  -0.5570 
 20 C       -5.7530    -6.6230     0.6410 C.3   1 <1>  -0.2400 
 21 C       -6.1130    -4.2900    -0.2570 C.3   1 <1>  -0.2400 
 22 H        1.5200    -0.8940     0.9960 H     1 <1>   0.0800 
 23 H        0.6730     1.2080     0.4160 H     1 <1>   0.0800 
 24 H       -0.1420     1.3720    -1.1270 H     1 <1>   0.0800 
 25 H        2.8950    -1.2950    -1.6800 H     1 <1>   0.0800 
 26 H        3.6580    -1.4440    -0.1240 H     1 <1>   0.0800 
 27 H        1.8500    -3.2520     0.4580 H     1 <1>   0.0800 
 28 H        1.2190    -3.0070    -1.1470 H     1 <1>   0.0800 
 29 H        2.1550     2.3990    -1.1720 H     1 <1>   0.0800 
 30 H        1.9460     1.1270    -2.3400 H     1 <1>   0.0800 
 31 H        4.0920     0.7770    -1.2400 H     1 <1>   0.0800 
 32 H        3.3530     0.9190     0.3340 H     1 <1>   0.0800 
 33 H       -0.9820    -2.4980    -0.2790 H     1 <1>   0.0800 
 34 H       -0.3980    -2.4920     1.3600 H     1 <1>   0.0800 
 35 H        0.7620    -4.8520     2.1210 H     1 <1>   0.0800 
 36 H       -0.5000    -6.0310     1.8330 H     1 <1>   0.0800 
 37 H       -0.9030    -4.4890     2.5530 H     1 <1>   0.0800 
 38 H       -2.4310    -6.2570    -3.2130 H     1 <1>   0.1500 
 39 H       -4.6120    -6.1560    -2.0620 H     1 <1>   0.1500 
 40 H       -4.9500    -4.8250     1.4380 H     1 <1>   0.0800 
 41 H       -6.0070    -7.0620    -0.3060 H     1 <1>   0.0800 
 42 H       -6.6440    -6.5560     1.2390 H     1 <1>   0.0800 
 43 H       -5.0540    -7.2670     1.1440 H     1 <1>   0.0800 
 44 H       -6.3710    -4.6670    -1.2300 H     1 <1>   0.0800 
 45 H       -5.6640    -3.3190    -0.3720 H     1 <1>   0.0800 
 46 H       -7.0130    -4.1830     0.3210 H     1 <1>   0.0800 
@<TRIPOS>BOND
  1   1   2  1   
  2   1   3  1   
  3   2   4  1   
  4   2   5  1   
  5   2  22  1   
  6   3   6  1   
  7   3  23  1   
  8   3  24  1   
  9   4   7  1   
 10   4  25  1   
 11   4  26  1   
 12   5   8  1   
 13   5  27  1   
 14   5  28  1   
 15   6   7  1   
 16   6  29  1   
 17   6  30  1   
 18   7  31  1   
 19   7  32  1   
 20   8   9  1   
 21   8  33  1   
 22   8  34  1   
 23   9  10  1   
 24   9  11  1   
 25  10  12  ar  
 26  10  13  ar  
 27  11  35  1   
 28  11  36  1   
 29  11  37  1   
 30  12  14  ar  
 31  13  15  1   
 32  13  16  ar  
 33  14  17  ar  
 34  14  18  1   
 35  15  19  3   
 36  16  17  ar  
 37  16  38  1   
 38  17  39  1   
 39  18  20  1   
 40  18  21  1   
 41  18  40  1   
 42  20  41  1   
 43  20  42  1   
 44  20  43  1   
 45  21  44  1   
 46  21  45  1   
 47  21  46  1   
@<TRIPOS>SUBSTRUCTURE
  1 ****   8 GROUP 4 **** **** 0

# MOE 2024.06 (io_trps.svl 2023.06)
