@<TRIPOS>MOLECULE
NONAME
24 24 1 0 0 
SMALL
USER_CHARGES


@<TRIPOS>ATOM
  1 CL      -0.2620    -0.0110    -0.6750 Cl    1 <1>  -0.1770 
  2 C       -1.5630     1.1260    -0.3900 C.ar  1 <1>   0.1770 
  3 C       -1.3080     2.4440    -0.0620 C.ar  1 <1>  -0.1440 
  4 C       -2.8630     0.6650    -0.5000 C.ar  1 <1>   0.1600 
  5 C       -2.4260     3.2540     0.1550 C.ar  1 <1>   0.0860 
  6 C        0.1120     2.9980     0.0650 C.3   1 <1>  -0.0960 
  7 N       -3.9360     1.4100    -0.3030 N.ar  1 <1>  -0.6200 
  8 C       -3.7000     2.6810     0.0260 C.ar  1 <1>   0.3920 
  9 C       -2.3090     4.6440     0.5110 C.2   1 <1>   0.6340 
 10 O       -4.7720     3.4640     0.2630 O.3   1 <1>  -0.3630 
 11 O       -1.7640     5.0240     1.5270 O.2   1 <1>  -0.5700 
 12 O       -2.7870     5.5490    -0.3480 O.3   1 <1>  -0.4300 
 13 C       -6.0980     2.9830     0.1600 C.3   1 <1>   0.0400 
 14 C       -2.7230     6.9350    -0.0800 C.3   1 <1>   0.0400 
 15 H       -3.0160    -0.3670    -0.7610 H     1 <1>   0.1500 
 16 H        0.8370     2.3670    -0.4160 H     1 <1>   0.0800 
 17 H        0.3750     3.0880     1.1040 H     1 <1>   0.0800 
 18 H        0.1810     3.9710    -0.3890 H     1 <1>   0.0800 
 19 H       -6.7700     3.7900     0.3910 H     1 <1>   0.0800 
 20 H       -6.2320     2.1780     0.8610 H     1 <1>   0.0800 
 21 H       -6.2660     2.6370    -0.8450 H     1 <1>   0.0800 
 22 H       -3.1730     7.4620    -0.9020 H     1 <1>   0.0800 
 23 H       -1.6920     7.2230     0.0270 H     1 <1>   0.0800 
 24 H       -3.2620     7.1370     0.8300 H     1 <1>   0.0800 
@<TRIPOS>BOND
  1   1   2  1   
  2   2   3  ar  
  3   2   4  ar  
  4   3   5  ar  
  5   3   6  1   
  6   4   7  ar  
  7   4  15  1   
  8   5   8  ar  
  9   5   9  1   
 10   6  16  1   
 11   6  17  1   
 12   6  18  1   
 13   7   8  ar  
 14   8  10  1   
 15   9  11  2   
 16   9  12  1   
 17  10  13  1   
 18  12  14  1   
 19  13  19  1   
 20  13  20  1   
 21  13  21  1   
 22  14  22  1   
 23  14  23  1   
 24  14  24  1   
@<TRIPOS>SUBSTRUCTURE
  1 ****   5 GROUP 4 **** **** 0

# MOE 2024.06 (io_trps.svl 2023.06)
