@<TRIPOS>MOLECULE
NONAME
53 56 1 0 0 
SMALL
USER_CHARGES


@<TRIPOS>ATOM
  1 CL      -1.6690    -0.7220    -1.8610 Cl    1 <1>  -0.1770 
  2 C       -2.9330    -1.4420    -0.8800 C.ar  1 <1>   0.1770 
  3 C       -3.0920    -1.0790     0.4650 C.ar  1 <1>   0.1000 
  4 C       -3.7480    -2.3750    -1.4820 C.ar  1 <1>  -0.1500 
  5 N       -2.3030    -0.1570     1.1480 N.pl3 1 <1>  -0.8380 
  6 C       -4.1210    -1.6950     1.1670 C.ar  1 <1>  -0.1500 
  7 C       -4.7620    -3.0090    -0.7660 C.ar  1 <1>   0.0860 
  8 C       -0.8990    -0.5330     1.4440 C.3   1 <1>   0.2090 
  9 C       -2.3670     1.2660     0.7310 C.3   1 <1>   0.2090 
 10 C       -4.9380    -2.6350     0.5680 C.ar  1 <1>  -0.1500 
 11 C       -5.5800    -4.0290    -1.3830 C.2   1 <1>   0.5440 
 12 C       -0.1360     0.7840     1.5080 C.3   1 <1>  -0.1600 
 13 C       -0.9190     1.7220     0.5980 C.3   1 <1>  -0.1600 
 14 O       -6.3620    -3.7060    -2.2580 O.2   1 <1>  -0.5700 
 15 N       -5.5100    -5.3590    -1.0150 N.am  1 <1>  -0.6600 
 16 C       -4.4650    -5.8760    -0.0540 C.3   1 <1>   0.3640 
 17 C       -6.5740    -6.3010    -1.4780 C.3   1 <1>   0.1400 
 18 C       -3.0740    -5.4820    -0.5630 C.ar  1 <1>  -0.1430 
 19 C       -4.4790    -7.4160     0.2090 C.3   1 <1>   0.2000 
 20 C       -6.1390    -7.7640    -1.4040 C.3   1 <1>   0.1200 
 21 C       -2.1790    -4.8350     0.2790 C.ar  1 <1>  -0.1500 
 22 C       -2.6910    -5.7490    -1.8710 C.ar  1 <1>  -0.1500 
 23 O       -5.6920    -8.0380    -0.1170 O.3   1 <1>  -0.5600 
 24 C       -4.2060    -7.7680     1.6810 C.3   1 <1>   0.1200 
 25 C       -0.9270    -4.4610    -0.1770 C.ar  1 <1>  -0.1500 
 26 C       -1.4390    -5.3760    -2.3290 C.ar  1 <1>  -0.1500 
 27 O       -3.0370    -7.1750     2.1460 O.3   1 <1>  -0.6800 
 28 C       -0.5570    -4.7300    -1.4820 C.ar  1 <1>  -0.1500 
 29 H       -3.5940    -2.6320    -2.5140 H     1 <1>   0.1500 
 30 H       -4.2680    -1.4220     2.1960 H     1 <1>   0.1500 
 31 H       -0.8410    -1.0650     2.3780 H     1 <1>   0.0800 
 32 H       -0.5130    -1.1530     0.6540 H     1 <1>   0.0800 
 33 H       -2.9040     1.3820    -0.1950 H     1 <1>   0.0800 
 34 H       -2.8660     1.8280     1.5030 H     1 <1>   0.0800 
 35 H       -5.7290    -3.0930     1.1350 H     1 <1>   0.1500 
 36 H       -0.1600     1.1500     2.5190 H     1 <1>   0.0800 
 37 H        0.8870     0.6680     1.1970 H     1 <1>   0.0800 
 38 H       -0.6050     1.5900    -0.4220 H     1 <1>   0.0800 
 39 H       -0.8000     2.7550     0.8710 H     1 <1>   0.0800 
 40 H       -4.6330    -5.3880     0.8900 H     1 <1>   0.0800 
 41 H       -7.4500    -6.1640    -0.8670 H     1 <1>   0.0800 
 42 H       -6.8450    -6.0740    -2.4950 H     1 <1>   0.0800 
 43 H       -3.7230    -7.8860    -0.3950 H     1 <1>   0.0800 
 44 H       -5.3540    -7.9740    -2.1100 H     1 <1>   0.0800 
 45 H       -6.9750    -8.4090    -1.6090 H     1 <1>   0.0800 
 46 H       -2.4540    -4.6130     1.2970 H     1 <1>   0.1500 
 47 H       -3.3740    -6.2400    -2.5430 H     1 <1>   0.1500 
 48 H       -4.1110    -8.8340     1.7980 H     1 <1>   0.0800 
 49 H       -5.0140    -7.4150     2.2980 H     1 <1>   0.0800 
 50 H       -0.2440    -3.9560     0.4830 H     1 <1>   0.1500 
 51 H       -1.1540    -5.5830    -3.3450 H     1 <1>   0.1500 
 52 H       -2.2580    -7.4850     1.6400 H     1 <1>   0.4000 
 53 H        0.4150    -4.4350    -1.8380 H     1 <1>   0.1500 
@<TRIPOS>BOND
  1   1   2  1   
  2   2   3  ar  
  3   2   4  ar  
  4   3   5  1   
  5   3   6  ar  
  6   4   7  ar  
  7   4  29  1   
  8   5   8  1   
  9   5   9  1   
 10   6  10  ar  
 11   6  30  1   
 12   7  10  ar  
 13   7  11  1   
 14   8  12  1   
 15   8  31  1   
 16   8  32  1   
 17   9  13  1   
 18   9  33  1   
 19   9  34  1   
 20  10  35  1   
 21  11  14  2   
 22  11  15  am  
 23  12  13  1   
 24  12  36  1   
 25  12  37  1   
 26  13  38  1   
 27  13  39  1   
 28  15  16  1   
 29  15  17  1   
 30  16  18  1   
 31  16  19  1   
 32  16  40  1   
 33  17  20  1   
 34  17  41  1   
 35  17  42  1   
 36  18  21  ar  
 37  18  22  ar  
 38  19  23  1   
 39  19  24  1   
 40  19  43  1   
 41  20  23  1   
 42  20  44  1   
 43  20  45  1   
 44  21  25  ar  
 45  21  46  1   
 46  22  26  ar  
 47  22  47  1   
 48  24  27  1   
 49  24  48  1   
 50  24  49  1   
 51  25  28  ar  
 52  25  50  1   
 53  26  28  ar  
 54  26  51  1   
 55  27  52  1   
 56  28  53  1   
@<TRIPOS>SUBSTRUCTURE
  1 ****   7 GROUP 4 **** **** 0

# MOE 2024.06 (io_trps.svl 2023.06)
