@<TRIPOS>MOLECULE
NONAME
48 50 1 0 0 
SMALL
USER_CHARGES


@<TRIPOS>ATOM
  1 S        0.1870    -0.4860     1.3110 S.o2  1 <1>   1.4470 
  2 O       -0.7440     0.2220     2.1640 O.2   1 <1>  -0.6500 
  3 O        1.1060    -1.4060     1.9510 O.2   1 <1>  -0.6500 
  4 N       -0.7260    -1.4320     0.2360 N.am  1 <1>  -0.8490 
  5 C        1.1600     0.5840     0.2080 C.ar  1 <1>  -0.0090 
  6 C       -1.7910    -0.6980    -0.4470 C.3   1 <1>   0.1960 
  7 C       -1.3510    -2.5880     0.8860 C.3   1 <1>   0.1960 
  8 C        0.7720     1.8800    -0.1350 C.ar  1 <1>   0.0830 
  9 C        2.3340     0.0880    -0.3500 C.ar  1 <1>  -0.1500 
 10 C       -3.0760    -0.9720     0.3350 C.3   1 <1>  -0.0800 
 11 C       -2.8730    -2.4120     0.8180 C.3   1 <1>  -0.0800 
 12 O       -0.3810     2.3640     0.3890 O.3   1 <1>  -0.3630 
 13 C        1.5540     2.6440    -1.0000 C.ar  1 <1>  -0.1500 
 14 C        3.1110     0.8440    -1.2070 C.ar  1 <1>  -0.1500 
 15 C       -4.4130    -0.6970    -0.4160 C.3   1 <1>   0.2800 
 16 C       -3.5390    -3.4240    -0.1290 C.3   1 <1>  -0.1600 
 17 C       -0.7310     3.7290     0.3200 C.3   1 <1>   0.0400 
 18 C        2.7200     2.1280    -1.5320 C.ar  1 <1>  -0.1500 
 19 O       -4.2350    -0.8460    -1.7800 O.3   1 <1>  -0.6800 
 20 C       -5.4750    -1.7280     0.0090 C.3   1 <1>  -0.1600 
 21 C       -4.9480     0.7330    -0.1840 C.3   1 <1>  -0.1600 
 22 C       -5.0570    -3.1930    -0.2410 C.3   1 <1>  -0.1600 
 23 C       -4.0060     1.8740    -0.6040 C.3   1 <1>  -0.2400 
 24 H       -1.5810     0.3520    -0.5240 H     1 <1>   0.0800 
 25 H       -1.8680    -1.0980    -1.4430 H     1 <1>   0.0800 
 26 H       -1.0470    -3.4860     0.3760 H     1 <1>   0.0800 
 27 H       -1.0420    -2.6690     1.9150 H     1 <1>   0.0800 
 28 H        2.6460    -0.9150    -0.1060 H     1 <1>   0.1500 
 29 H       -3.0630    -0.3510     1.2120 H     1 <1>   0.0800 
 30 H       -3.2900    -2.5360     1.8030 H     1 <1>   0.0800 
 31 H        1.2700     3.6420    -1.2760 H     1 <1>   0.1500 
 32 H        4.0160     0.4330    -1.6210 H     1 <1>   0.1500 
 33 H       -3.1010    -3.3190    -1.1080 H     1 <1>   0.0800 
 34 H       -3.3500    -4.4300     0.2040 H     1 <1>   0.0800 
 35 H       -1.6180     3.8740     0.9100 H     1 <1>   0.0800 
 36 H       -0.9280     3.9890    -0.7050 H     1 <1>   0.0800 
 37 H        0.0740     4.3180     0.7220 H     1 <1>   0.0800 
 38 H        3.3200     2.7220    -2.2000 H     1 <1>   0.1500 
 39 H       -5.0900    -0.7260    -2.2290 H     1 <1>   0.4000 
 40 H       -5.6440    -1.6060     1.0640 H     1 <1>   0.0800 
 41 H       -6.4120    -1.5300    -0.4810 H     1 <1>   0.0800 
 42 H       -5.8800     0.8460    -0.7080 H     1 <1>   0.0800 
 43 H       -5.1650     0.8510     0.8630 H     1 <1>   0.0800 
 44 H       -5.5700    -3.8220     0.4660 H     1 <1>   0.0800 
 45 H       -5.3720    -3.4920    -1.2260 H     1 <1>   0.0800 
 46 H       -3.6940     1.7570    -1.6270 H     1 <1>   0.0800 
 47 H       -3.1360     1.8960     0.0270 H     1 <1>   0.0800 
 48 H       -4.5100     2.8190    -0.5070 H     1 <1>   0.0800 
@<TRIPOS>BOND
  1   1   2  2   
  2   1   3  2   
  3   1   4  am  
  4   1   5  1   
  5   4   6  1   
  6   4   7  1   
  7   5   8  ar  
  8   5   9  ar  
  9   6  10  1   
 10   6  24  1   
 11   6  25  1   
 12   7  11  1   
 13   7  26  1   
 14   7  27  1   
 15   8  12  1   
 16   8  13  ar  
 17   9  14  ar  
 18   9  28  1   
 19  10  11  1   
 20  10  15  1   
 21  10  29  1   
 22  11  16  1   
 23  11  30  1   
 24  12  17  1   
 25  13  18  ar  
 26  13  31  1   
 27  14  18  ar  
 28  14  32  1   
 29  15  19  1   
 30  15  20  1   
 31  15  21  1   
 32  16  22  1   
 33  16  33  1   
 34  16  34  1   
 35  17  35  1   
 36  17  36  1   
 37  17  37  1   
 38  18  38  1   
 39  19  39  1   
 40  20  22  1   
 41  20  40  1   
 42  20  41  1   
 43  21  23  1   
 44  21  42  1   
 45  21  43  1   
 46  22  44  1   
 47  22  45  1   
 48  23  46  1   
 49  23  47  1   
 50  23  48  1   
@<TRIPOS>SUBSTRUCTURE
  1 ****   6 GROUP 4 **** **** 0

# MOE 2024.06 (io_trps.svl 2023.06)
