@<TRIPOS>MOLECULE
NONAME
49 51 1 0 0 
SMALL
USER_CHARGES


@<TRIPOS>ATOM
  1 S       -0.2280    -0.0290    -1.3410 S.3   1 <1>  -0.4600 
  2 C       -1.6010    -0.2100    -0.1650 C.3   1 <1>   0.0700 
  3 C        0.5670     1.5850    -1.0260 C.3   1 <1>   0.0700 
  4 C       -2.8970     0.2860    -0.8420 C.3   1 <1>   0.4230 
  5 C       -0.3940     2.6470    -0.4790 C.3   1 <1>   0.0700 
  6 N       -4.1180    -0.4670    -0.3850 N.4   1 <1>  -0.9590 
  7 C       -3.1230     1.7960    -0.6350 C.3   1 <1>   0.0700 
  8 S       -1.8760     2.7700    -1.5230 S.3   1 <1>  -0.4600 
  9 C       -4.0900    -1.8940    -0.8840 C.3   1 <1>   0.3430 
 10 C       -4.4120    -0.4020     1.0710 C.3   1 <1>   0.3430 
 11 C       -4.9840    -2.8710    -0.0870 C.3   1 <1>  -0.1060 
 12 C       -5.8410    -0.8900     1.3100 C.3   1 <1>  -0.1600 
 13 C       -5.4490    -3.9030    -1.1000 C.2   1 <1>   0.9060 
 14 C       -6.2120    -2.0850     0.4160 C.3   1 <1>   0.2000 
 15 C       -4.2600    -3.6200     1.0800 C.3   1 <1>  -0.0170 
 16 O       -4.8130    -4.0310    -2.1480 O.co2 1 <1>  -0.9000 
 17 O       -6.4660    -4.5590    -0.8530 O.co2 1 <1>  -0.9000 
 18 O       -7.0380    -2.9130     1.1380 O.3   1 <1>  -0.6800 
 19 C       -2.7370    -3.5840     1.0450 C.ar  1 <1>  -0.1440 
 20 C       -2.0480    -4.1640    -0.0100 C.ar  1 <1>  -0.1500 
 21 C       -2.0250    -2.9860     2.0750 C.ar  1 <1>  -0.1500 
 22 C       -0.6660    -4.1120    -0.0540 C.ar  1 <1>  -0.1500 
 23 C       -0.6410    -2.9390     2.0340 C.ar  1 <1>  -0.1500 
 24 C        0.0380    -3.4960     0.9650 C.ar  1 <1>  -0.1500 
 25 H       -1.6450    -1.2610     0.0370 H     1 <1>   0.0800 
 26 H       -1.3560     0.3210     0.7350 H     1 <1>   0.0800 
 27 H        1.3710     1.4080    -0.3340 H     1 <1>   0.0800 
 28 H        0.9810     1.9050    -1.9670 H     1 <1>   0.0800 
 29 H       -2.7890     0.1160    -1.9020 H     1 <1>   0.0800 
 30 H        0.0770     3.6150    -0.5000 H     1 <1>   0.0800 
 31 H       -0.7030     2.4330     0.5270 H     1 <1>   0.0800 
 32 H       -4.9220    -0.0450    -0.8660 H     1 <1>   0.4500 
 33 H       -3.0650     2.0790     0.4000 H     1 <1>   0.0800 
 34 H       -4.0680     2.0970    -1.0490 H     1 <1>   0.0800 
 35 H       -4.4270    -1.8880    -1.9090 H     1 <1>   0.0800 
 36 H       -3.0840    -2.2690    -0.9110 H     1 <1>   0.0800 
 37 H       -3.7200    -1.0350     1.6020 H     1 <1>   0.0800 
 38 H       -4.3090     0.6040     1.4430 H     1 <1>   0.0800 
 39 H       -6.5330    -0.0890     1.1240 H     1 <1>   0.0800 
 40 H       -5.9300    -1.1600     2.3480 H     1 <1>   0.0800 
 41 H       -6.7800    -1.7430    -0.4350 H     1 <1>   0.0800 
 42 H       -4.5850    -3.2320     2.0280 H     1 <1>   0.0800 
 43 H       -4.5680    -4.6530     1.0820 H     1 <1>   0.0800 
 44 H       -7.1610    -3.7360     0.5770 H     1 <1>   0.4000 
 45 H       -2.5860    -4.6570    -0.8060 H     1 <1>   0.1500 
 46 H       -2.5380    -2.5630     2.9200 H     1 <1>   0.1500 
 47 H       -0.1420    -4.5550    -0.8830 H     1 <1>   0.1500 
 48 H       -0.0900    -2.4780     2.8350 H     1 <1>   0.1500 
 49 H        1.1130    -3.4590     0.9270 H     1 <1>   0.1500 
@<TRIPOS>BOND
  1   1   2  1   
  2   1   3  1   
  3   2   4  1   
  4   2  25  1   
  5   2  26  1   
  6   3   5  1   
  7   3  27  1   
  8   3  28  1   
  9   4   6  1   
 10   4   7  1   
 11   4  29  1   
 12   5   8  1   
 13   5  30  1   
 14   5  31  1   
 15   6   9  1   
 16   6  10  1   
 17   6  32  1   
 18   7   8  1   
 19   7  33  1   
 20   7  34  1   
 21   9  11  1   
 22   9  35  1   
 23   9  36  1   
 24  10  12  1   
 25  10  37  1   
 26  10  38  1   
 27  11  13  1   
 28  11  14  1   
 29  11  15  1   
 30  12  14  1   
 31  12  39  1   
 32  12  40  1   
 33  13  16  ar  
 34  13  17  ar  
 35  14  18  1   
 36  14  41  1   
 37  15  19  1   
 38  15  42  1   
 39  15  43  1   
 40  18  44  1   
 41  19  20  ar  
 42  19  21  ar  
 43  20  22  ar  
 44  20  45  1   
 45  21  23  ar  
 46  21  46  1   
 47  22  24  ar  
 48  22  47  1   
 49  23  24  ar  
 50  23  48  1   
 51  24  49  1   
@<TRIPOS>SUBSTRUCTURE
  1 ****   9 GROUP 4 **** **** 0

# MOE 2024.06 (io_trps.svl 2023.06)
