@<TRIPOS>MOLECULE
NONAME
46 47 1 0 0 
SMALL
USER_CHARGES


@<TRIPOS>ATOM
  1 F       -0.8390    -0.8180    -0.0610 F     1 <1>  -0.1900 
  2 C       -0.8030    -2.1240     0.0050 C.ar  1 <1>   0.1900 
  3 C       -0.0180    -2.8160    -0.8960 C.ar  1 <1>  -0.1500 
  4 C       -1.5490    -2.7640     0.9720 C.ar  1 <1>  -0.1500 
  5 C        0.0260    -4.2000    -0.8310 C.ar  1 <1>  -0.1440 
  6 C       -1.5040    -4.1440     1.0310 C.ar  1 <1>  -0.1500 
  7 C       -0.7200    -4.8800     0.1410 C.ar  1 <1>   0.1170 
  8 C        0.9020    -4.9470    -1.8320 C.3   1 <1>  -0.0960 
  9 N       -0.6700    -6.2850     0.1790 N.am  1 <1>  -0.5470 
 10 C       -0.9910    -7.1930     1.1550 C.2   1 <1>   0.5690 
 11 O       -1.4010    -6.8870     2.2490 O.2   1 <1>  -0.5700 
 12 C       -0.8140    -8.6830     0.8320 C.3   1 <1>   0.1710 
 13 N       -2.0000    -9.3620     0.2420 N.3   1 <1>  -0.8100 
 14 C       -3.1400    -9.3190     1.1740 C.3   1 <1>   0.2900 
 15 C       -2.3610    -8.8320    -1.0830 C.3   1 <1>   0.0300 
 16 C       -4.1990   -10.3290     0.7740 C.2   1 <1>  -0.3320 
 17 N       -5.4910   -10.2200     1.1430 N.pl3 1 <1>   0.3000 
 18 C       -4.1060   -11.4620     0.0460 C.2   1 <1>  -0.1500 
 19 N       -6.2350   -11.2390     0.6720 N.2   1 <1>  -0.7070 
 20 C       -5.3960   -11.9800     0.0170 C.2   1 <1>   0.1080 
 21 C       -5.7960   -13.2600    -0.6900 C.3   1 <1>   0.0210 
 22 C       -5.6620   -14.4670     0.2480 C.3   1 <1>  -0.1600 
 23 C       -6.0540   -15.7740    -0.4490 C.3   1 <1>  -0.2400 
 24 H        0.5430    -2.2660    -1.6290 H     1 <1>   0.1500 
 25 H       -2.1500    -2.1940     1.6580 H     1 <1>   0.1500 
 26 H       -2.0900    -4.6450     1.7790 H     1 <1>   0.1500 
 27 H        1.4470    -4.2590    -2.4530 H     1 <1>   0.0800 
 28 H        0.2940    -5.5640    -2.4690 H     1 <1>   0.0800 
 29 H        1.6150    -5.5620    -1.3130 H     1 <1>   0.0800 
 30 H       -0.3070    -6.6990    -0.6760 H     1 <1>   0.3700 
 31 H       -0.5520    -9.1880     1.7450 H     1 <1>   0.0800 
 32 H        0.0190    -8.7990     0.1640 H     1 <1>   0.0800 
 33 H       -3.5600    -8.3260     1.1890 H     1 <1>   0.0800 
 34 H       -2.8050    -9.5560     2.1700 H     1 <1>   0.0800 
 35 H       -1.5130    -8.8840    -1.7430 H     1 <1>   0.0800 
 36 H       -2.6960    -7.8110    -1.0090 H     1 <1>   0.0800 
 37 H       -3.1530    -9.4200    -1.5130 H     1 <1>   0.0800 
 38 H       -5.8990    -9.4700     1.7130 H     1 <1>   0.2700 
 39 H       -3.2310   -11.8850    -0.4150 H     1 <1>   0.1500 
 40 H       -5.1710   -13.3940    -1.5540 H     1 <1>   0.0800 
 41 H       -6.8140   -13.1660    -1.0220 H     1 <1>   0.0800 
 42 H       -6.2950   -14.3120     1.1060 H     1 <1>   0.0800 
 43 H       -4.6460   -14.5340     0.5970 H     1 <1>   0.0800 
 44 H       -7.0760   -15.7300    -0.7820 H     1 <1>   0.0800 
 45 H       -5.9530   -16.5980     0.2360 H     1 <1>   0.0800 
 46 H       -5.4170   -15.9550    -1.2970 H     1 <1>   0.0800 
@<TRIPOS>BOND
  1   1   2  1   
  2   2   3  ar  
  3   2   4  ar  
  4   3   5  ar  
  5   3  24  1   
  6   4   6  ar  
  7   4  25  1   
  8   5   7  ar  
  9   5   8  1   
 10   6   7  ar  
 11   6  26  1   
 12   7   9  1   
 13   8  27  1   
 14   8  28  1   
 15   8  29  1   
 16   9  10  am  
 17   9  30  1   
 18  10  11  2   
 19  10  12  1   
 20  12  13  1   
 21  12  31  1   
 22  12  32  1   
 23  13  14  1   
 24  13  15  1   
 25  14  16  1   
 26  14  33  1   
 27  14  34  1   
 28  15  35  1   
 29  15  36  1   
 30  15  37  1   
 31  16  17  1   
 32  16  18  2   
 33  17  19  1   
 34  17  38  1   
 35  18  20  1   
 36  18  39  1   
 37  19  20  2   
 38  20  21  1   
 39  21  22  1   
 40  21  40  1   
 41  21  41  1   
 42  22  23  1   
 43  22  42  1   
 44  22  43  1   
 45  23  44  1   
 46  23  45  1   
 47  23  46  1   
@<TRIPOS>SUBSTRUCTURE
  1 ****  13 GROUP 4 **** **** 0

# MOE 2024.06 (io_trps.svl 2023.06)
