@<TRIPOS>MOLECULE
NONAME
60 63 1 0 0 
SMALL
USER_CHARGES


@<TRIPOS>ATOM
  1 O       -0.5830    -1.7530     1.3430 O.2   1 <1>  -0.5700 
  2 C       -1.5640    -1.0530     1.5300 C.2   1 <1>   0.7800 
  3 O       -1.7520    -0.3490     2.6410 O.3   1 <1>  -0.2330 
  4 N       -2.6330    -0.9470     0.6760 N.am  1 <1>  -0.4770 
  5 C       -2.9540     0.2440     2.5220 C.ar  1 <1>   0.0830 
  6 C       -3.5220    -0.1010     1.3140 C.ar  1 <1>   0.1170 
  7 C       -2.7400    -1.3130    -0.7690 C.3   1 <1>   0.1400 
  8 C       -3.5850     1.0840     3.4200 C.ar  1 <1>  -0.1500 
  9 C       -4.7670     0.4040     0.9620 C.ar  1 <1>  -0.1500 
 10 C       -1.7650    -2.4210    -1.2340 C.3   1 <1>   0.3430 
 11 C       -4.8290     1.5850     3.0710 C.ar  1 <1>  -0.1500 
 12 C       -5.4140     1.2480     1.8520 C.ar  1 <1>  -0.1500 
 13 N       -1.7480    -3.6270    -0.3280 N.4   1 <1>  -0.9590 
 14 C       -0.5740    -4.5630    -0.5450 C.3   1 <1>   0.4230 
 15 C       -3.0660    -4.3390    -0.3590 C.3   1 <1>   0.3430 
 16 C       -0.5420    -5.6950     0.5260 C.3   1 <1>   0.0000 
 17 C        0.8150    -3.8540    -0.6620 C.3   1 <1>   0.3430 
 18 C       -3.0930    -5.5000     0.6360 C.3   1 <1>  -0.1600 
 19 C        0.5970    -6.7100     0.1850 C.3   1 <1>  -0.1600 
 20 C       -1.8930    -6.4460     0.4640 C.3   1 <1>  -0.1600 
 21 C       -0.3730    -5.1650     1.9870 C.3   1 <1>   0.1200 
 22 N        1.9880    -4.7200    -0.2830 N.4   1 <1>  -0.9590 
 23 C        1.7930    -6.1520    -0.6090 C.3   1 <1>   0.3430 
 24 O        0.8760    -4.6030     2.2100 O.3   1 <1>  -0.6800 
 25 C        3.3080    -4.1990    -0.7350 C.3   1 <1>   0.3430 
 26 C        3.6190    -2.8710    -0.0420 C.3   1 <1>  -0.1600 
 27 C        5.0250    -2.3810    -0.4050 C.3   1 <1>  -0.2400 
 28 H       -3.7490    -1.6240    -0.9700 H     1 <1>   0.0800 
 29 H       -2.5610    -0.4280    -1.3550 H     1 <1>   0.0800 
 30 H       -3.1200     1.3380     4.3570 H     1 <1>   0.1500 
 31 H       -5.2240     0.1510     0.0240 H     1 <1>   0.1500 
 32 H       -0.7820    -1.9810    -1.2670 H     1 <1>   0.0800 
 33 H       -2.0220    -2.7180    -2.2380 H     1 <1>   0.0800 
 34 H       -5.3500     2.2430     3.7470 H     1 <1>   0.1500 
 35 H       -6.3810     1.6520     1.6020 H     1 <1>   0.1500 
 36 H       -1.6120    -3.2370     0.6240 H     1 <1>   0.4500 
 37 H       -0.7350    -5.0500    -1.4920 H     1 <1>   0.0800 
 38 H       -3.8650    -3.6550    -0.1180 H     1 <1>   0.0800 
 39 H       -3.2440    -4.7240    -1.3500 H     1 <1>   0.0800 
 40 H        0.8170    -2.9950    -0.0110 H     1 <1>   0.0800 
 41 H        0.9420    -3.5110    -1.6740 H     1 <1>   0.0800 
 42 H       -3.1400    -5.1130     1.6390 H     1 <1>   0.0800 
 43 H       -4.0010    -6.0580     0.4830 H     1 <1>   0.0800 
 44 H        0.2100    -7.5330    -0.3910 H     1 <1>   0.0800 
 45 H        0.9710    -7.1490     1.0940 H     1 <1>   0.0800 
 46 H       -1.9950    -6.9430    -0.4870 H     1 <1>   0.0800 
 47 H       -1.9310    -7.2110     1.2240 H     1 <1>   0.0800 
 48 H       -0.4850    -5.9770     2.6880 H     1 <1>   0.0800 
 49 H       -1.1070    -4.4160     2.2270 H     1 <1>   0.0800 
 50 H        1.9940    -4.6890     0.7620 H     1 <1>   0.4500 
 51 H        1.6150    -6.2600    -1.6670 H     1 <1>   0.0800 
 52 H        2.6780    -6.7170    -0.3610 H     1 <1>   0.0800 
 53 H        0.9440    -4.2910     3.1430 H     1 <1>   0.4000 
 54 H        4.0810    -4.9080    -0.4810 H     1 <1>   0.0800 
 55 H        3.3130    -4.0670    -1.8050 H     1 <1>   0.0800 
 56 H        2.9130    -2.1150    -0.3360 H     1 <1>   0.0800 
 57 H        3.5660    -2.9970     1.0260 H     1 <1>   0.0800 
 58 H        5.1160    -2.2200    -1.4650 H     1 <1>   0.0800 
 59 H        5.7710    -3.0940    -0.0970 H     1 <1>   0.0800 
 60 H        5.2290    -1.4490     0.0950 H     1 <1>   0.0800 
@<TRIPOS>BOND
  1   1   2  2   
  2   2   3  1   
  3   2   4  am  
  4   3   5  1   
  5   4   6  1   
  6   4   7  1   
  7   5   6  ar  
  8   5   8  ar  
  9   6   9  ar  
 10   7  10  1   
 11   7  28  1   
 12   7  29  1   
 13   8  11  ar  
 14   8  30  1   
 15   9  12  ar  
 16   9  31  1   
 17  10  13  1   
 18  10  32  1   
 19  10  33  1   
 20  11  12  ar  
 21  11  34  1   
 22  12  35  1   
 23  13  14  1   
 24  13  15  1   
 25  13  36  1   
 26  14  16  1   
 27  14  17  1   
 28  14  37  1   
 29  15  18  1   
 30  15  38  1   
 31  15  39  1   
 32  16  19  1   
 33  16  20  1   
 34  16  21  1   
 35  17  22  1   
 36  17  40  1   
 37  17  41  1   
 38  18  20  1   
 39  18  42  1   
 40  18  43  1   
 41  19  23  1   
 42  19  44  1   
 43  19  45  1   
 44  20  46  1   
 45  20  47  1   
 46  21  24  1   
 47  21  48  1   
 48  21  49  1   
 49  22  23  1   
 50  22  25  1   
 51  22  50  1   
 52  23  51  1   
 53  23  52  1   
 54  24  53  1   
 55  25  26  1   
 56  25  54  1   
 57  25  55  1   
 58  26  27  1   
 59  26  56  1   
 60  26  57  1   
 61  27  58  1   
 62  27  59  1   
 63  27  60  1   
@<TRIPOS>SUBSTRUCTURE
  1 ****   1 GROUP 4 **** **** 0

# MOE 2024.06 (io_trps.svl 2023.06)
