@<TRIPOS>MOLECULE
NONAME
49 51 1 0 0 
SMALL
USER_CHARGES


@<TRIPOS>ATOM
  1 S        0.2130    -0.1070     0.9610 S.o2  1 <1>   1.3330 
  2 O        1.4670     0.1670     1.6240 O.2   1 <1>  -0.6500 
  3 O       -0.6640    -1.1290     1.4870 O.2   1 <1>  -0.6500 
  4 N        0.5470    -0.4980    -0.6580 N.am  1 <1>  -0.8490 
  5 C       -0.6980     1.4330     0.8310 C.3   1 <1>  -0.0550 
  6 C       -0.5540    -1.2030    -1.3240 C.3   1 <1>   0.1160 
  7 C        1.7870    -1.2680    -0.7980 C.3   1 <1>   0.1160 
  8 C        0.0440     2.5530     0.0680 C.3   1 <1>  -0.0800 
  9 C       -0.8060     3.8000    -0.1900 C.3   1 <1>   0.2000 
 10 C        1.2970     3.0860     0.7770 C.3   1 <1>   0.1400 
 11 O       -1.4950     4.1290     0.9680 O.3   1 <1>  -0.6800 
 12 C        0.2240     4.8950    -0.4540 C.3   1 <1>   0.1400 
 13 N        1.3800     4.5230     0.3990 N.am  1 <1>  -0.6600 
 14 C        2.5330     5.2620     0.5390 C.2   1 <1>   0.5440 
 15 O        3.5150     4.7270     1.0140 O.2   1 <1>  -0.5700 
 16 C        2.6070     6.6490     0.1210 C.ar  1 <1>   0.0860 
 17 C        1.7340     7.6160     0.6170 C.ar  1 <1>  -0.1500 
 18 C        3.5730     7.0660    -0.7930 C.ar  1 <1>  -0.1500 
 19 C        1.8100     8.9350     0.2080 C.ar  1 <1>  -0.1500 
 20 C        3.6560     8.3820    -1.2070 C.ar  1 <1>  -0.1500 
 21 C        2.7720     9.3270    -0.7090 C.ar  1 <1>  -0.1440 
 22 C        2.8670    10.7820    -1.1560 C.3   1 <1>   0.2390 
 23 N        3.7170    11.5820    -0.2520 N.pl3 1 <1>   0.3140 
 24 N        3.8410    12.8860    -0.3740 N.2   1 <1>  -0.4180 
 25 C        4.4670    11.2090     0.7690 C.2   1 <1>   0.0360 
 26 N        4.6450    13.2630     0.5560 N.2   1 <1>   0.0000 
 27 N        5.0470    12.2250     1.2810 N.2   1 <1>  -0.3380 
 28 H       -1.6260     1.2400     0.3290 H     1 <1>   0.0800 
 29 H       -0.9380     1.7730     1.8190 H     1 <1>   0.0800 
 30 H       -0.3260    -1.3440    -2.3670 H     1 <1>   0.0800 
 31 H       -1.4620    -0.6300    -1.2480 H     1 <1>   0.0800 
 32 H       -0.7150    -2.1670    -0.8680 H     1 <1>   0.0800 
 33 H        1.9750    -1.4910    -1.8340 H     1 <1>   0.0800 
 34 H        1.7210    -2.1880    -0.2420 H     1 <1>   0.0800 
 35 H        2.6200    -0.6970    -0.4220 H     1 <1>   0.0800 
 36 H        0.3560     2.1720    -0.8890 H     1 <1>   0.0800 
 37 H       -1.5150     3.6810    -0.9910 H     1 <1>   0.0800 
 38 H        2.1820     2.5550     0.4650 H     1 <1>   0.0800 
 39 H        1.2040     3.0100     1.8470 H     1 <1>   0.0800 
 40 H       -0.8450     4.3640     1.6610 H     1 <1>   0.4000 
 41 H       -0.1680     5.8680    -0.2150 H     1 <1>   0.0800 
 42 H        0.5290     4.8710    -1.4860 H     1 <1>   0.0800 
 43 H        0.9920     7.3230     1.3400 H     1 <1>   0.1500 
 44 H        4.2680     6.3370    -1.1750 H     1 <1>   0.1500 
 45 H        1.1170     9.6530     0.6150 H     1 <1>   0.1500 
 46 H        4.4180     8.6620    -1.9160 H     1 <1>   0.1500 
 47 H        1.8880    11.2260    -1.1760 H     1 <1>   0.0800 
 48 H        3.2810    10.8410    -2.1450 H     1 <1>   0.0800 
 49 H        4.5650    10.1940     1.1070 H     1 <1>   0.1500 
@<TRIPOS>BOND
  1   1   2  2   
  2   1   3  2   
  3   1   4  am  
  4   1   5  1   
  5   4   6  1   
  6   4   7  1   
  7   5   8  1   
  8   5  28  1   
  9   5  29  1   
 10   6  30  1   
 11   6  31  1   
 12   6  32  1   
 13   7  33  1   
 14   7  34  1   
 15   7  35  1   
 16   8   9  1   
 17   8  10  1   
 18   8  36  1   
 19   9  11  1   
 20   9  12  1   
 21   9  37  1   
 22  10  13  1   
 23  10  38  1   
 24  10  39  1   
 25  11  40  1   
 26  12  13  1   
 27  12  41  1   
 28  12  42  1   
 29  13  14  am  
 30  14  15  2   
 31  14  16  1   
 32  16  17  ar  
 33  16  18  ar  
 34  17  19  ar  
 35  17  43  1   
 36  18  20  ar  
 37  18  44  1   
 38  19  21  ar  
 39  19  45  1   
 40  20  21  ar  
 41  20  46  1   
 42  21  22  1   
 43  22  23  1   
 44  22  47  1   
 45  22  48  1   
 46  23  24  1   
 47  23  25  1   
 48  24  26  2   
 49  25  27  2   
 50  25  49  1   
 51  26  27  1   
@<TRIPOS>SUBSTRUCTURE
  1 ****  14 GROUP 4 **** **** 0

# MOE 2024.06 (io_trps.svl 2023.06)
