@<TRIPOS>MOLECULE
NONAME
52 54 1 0 0 
SMALL
USER_CHARGES


@<TRIPOS>ATOM
  1 F       -2.4310    -0.0400    -2.0280 F     1 <1>  -0.1900 
  2 C       -2.4410     0.5730    -0.8730 C.ar  1 <1>   0.1900 
  3 C       -2.5190    -0.1740     0.2980 C.ar  1 <1>  -0.1440 
  4 C       -2.3780     1.9530    -0.8770 C.ar  1 <1>  -0.1500 
  5 C       -2.5360     0.5030     1.5120 C.ar  1 <1>  -0.1500 
  6 C       -2.5890    -1.6970     0.2750 C.3   1 <1>  -0.0160 
  7 C       -2.3970     2.5850     0.3490 C.ar  1 <1>   0.1900 
  8 C       -2.4750     1.8880     1.5430 C.ar  1 <1>  -0.1500 
  9 C       -4.0320    -2.1670     0.0300 C.3   1 <1>  -0.0990 
 10 F       -2.3390     3.8890     0.3850 F     1 <1>  -0.1900 
 11 C       -4.1800    -3.6810    -0.0020 C.2   1 <1>   0.5690 
 12 O       -3.3230    -4.3630     0.5080 O.2   1 <1>  -0.5700 
 13 N       -5.2840    -4.2670    -0.5690 N.am  1 <1>  -0.6600 
 14 C       -5.3510    -5.7450    -0.7270 C.3   1 <1>   0.1400 
 15 C       -6.5800    -3.5760    -0.8170 C.3   1 <1>   0.1400 
 16 C       -6.3690    -6.3170     0.2830 C.3   1 <1>   0.4230 
 17 C       -7.6090    -4.1220     0.1830 C.3   1 <1>  -0.1600 
 18 N       -6.3890    -7.8390     0.3470 N.4   1 <1>  -0.9590 
 19 C       -7.7790    -5.6690     0.1250 C.3   1 <1>   0.0000 
 20 C       -7.6190    -8.4100     0.9870 C.3   1 <1>   0.3430 
 21 C       -6.1110    -8.5450    -0.9480 C.3   1 <1>   0.2630 
 22 C       -8.6830    -6.1170     1.3120 C.3   1 <1>  -0.1600 
 23 C       -8.4150    -6.0910    -1.2310 C.3   1 <1>   0.1200 
 24 C       -8.2240    -7.4250     1.9860 C.3   1 <1>  -0.1600 
 25 O       -9.5710    -5.3770    -1.4990 O.3   1 <1>  -0.6800 
 26 H       -2.3170     2.5090    -1.7930 H     1 <1>   0.1500 
 27 H       -2.5960    -0.0450     2.4380 H     1 <1>   0.1500 
 28 H       -1.9460    -2.0830    -0.4970 H     1 <1>   0.0800 
 29 H       -2.2340    -2.0890     1.2130 H     1 <1>   0.0800 
 30 H       -2.4860     2.4230     2.4760 H     1 <1>   0.1500 
 31 H       -4.3600    -1.7680    -0.9120 H     1 <1>   0.0800 
 32 H       -4.6650    -1.7780     0.8060 H     1 <1>   0.0800 
 33 H       -5.6330    -5.9660    -1.7400 H     1 <1>   0.0800 
 34 H       -4.3840    -6.1810    -0.5480 H     1 <1>   0.0800 
 35 H       -6.4890    -2.5120    -0.6890 H     1 <1>   0.0800 
 36 H       -6.9020    -3.7560    -1.8300 H     1 <1>   0.0800 
 37 H       -6.0150    -5.9830     1.2450 H     1 <1>   0.0800 
 38 H       -7.2850    -3.8260     1.1660 H     1 <1>   0.0800 
 39 H       -8.5510    -3.6300     0.0120 H     1 <1>   0.0800 
 40 H       -5.6080    -8.0730     0.9790 H     1 <1>   0.4500 
 41 H       -8.3570    -8.6250     0.2320 H     1 <1>   0.0800 
 42 H       -7.3760    -9.3350     1.4860 H     1 <1>   0.0800 
 43 H       -6.8690    -8.3100    -1.6770 H     1 <1>   0.0800 
 44 H       -6.1020    -9.6130    -0.7960 H     1 <1>   0.0800 
 45 H       -5.1510    -8.2530    -1.3410 H     1 <1>   0.0800 
 46 H       -8.7110    -5.3570     2.0750 H     1 <1>   0.0800 
 47 H       -9.6990    -6.2360     0.9770 H     1 <1>   0.0800 
 48 H       -8.6740    -7.1340    -1.2400 H     1 <1>   0.0800 
 49 H       -7.7490    -5.9010    -2.0530 H     1 <1>   0.0800 
 50 H       -9.0680    -7.8860     2.4710 H     1 <1>   0.0800 
 51 H       -7.4990    -7.2130     2.7540 H     1 <1>   0.0800 
 52 H      -10.2800    -5.5590    -0.8510 H     1 <1>   0.4000 
@<TRIPOS>BOND
  1   1   2  1   
  2   2   3  ar  
  3   2   4  ar  
  4   3   5  ar  
  5   3   6  1   
  6   4   7  ar  
  7   4  26  1   
  8   5   8  ar  
  9   5  27  1   
 10   6   9  1   
 11   6  28  1   
 12   6  29  1   
 13   7   8  ar  
 14   7  10  1   
 15   8  30  1   
 16   9  11  1   
 17   9  31  1   
 18   9  32  1   
 19  11  12  2   
 20  11  13  am  
 21  13  14  1   
 22  13  15  1   
 23  14  16  1   
 24  14  33  1   
 25  14  34  1   
 26  15  17  1   
 27  15  35  1   
 28  15  36  1   
 29  16  18  1   
 30  16  19  1   
 31  16  37  1   
 32  17  19  1   
 33  17  38  1   
 34  17  39  1   
 35  18  20  1   
 36  18  21  1   
 37  18  40  1   
 38  19  22  1   
 39  19  23  1   
 40  20  24  1   
 41  20  41  1   
 42  20  42  1   
 43  21  43  1   
 44  21  44  1   
 45  21  45  1   
 46  22  24  1   
 47  22  46  1   
 48  22  47  1   
 49  23  25  1   
 50  23  48  1   
 51  23  49  1   
 52  24  50  1   
 53  24  51  1   
 54  25  52  1   
@<TRIPOS>SUBSTRUCTURE
  1 ****  11 GROUP 4 **** **** 0

# MOE 2024.06 (io_trps.svl 2023.06)
