@<TRIPOS>MOLECULE
NONAME
47 48 1 0 0 
SMALL
USER_CHARGES


@<TRIPOS>ATOM
  1 O       -0.4030     0.6770    -0.1140 O.2   1 <1>  -0.5700 
  2 C       -0.4360     1.8790    -0.2370 C.2   1 <1>   0.5690 
  3 N       -1.2570     2.6720     0.5200 N.am  1 <1>  -0.6600 
  4 C        0.4640     2.5220    -1.2940 C.3   1 <1>   0.1810 
  5 C       -1.3000     4.1580     0.3220 C.3   1 <1>   0.3640 
  6 C       -2.1000     2.1280     1.6240 C.3   1 <1>   0.0600 
  7 O        0.7560     3.8670    -1.0080 O.3   1 <1>  -0.5600 
  8 C       -2.7420     4.6670     0.1630 C.ar  1 <1>  -0.1430 
  9 C       -0.3940     4.6760    -0.8230 C.3   1 <1>   0.2610 
 10 C       -3.6790     4.1460    -0.7360 C.ar  1 <1>  -0.1430 
 11 C       -3.1170     5.7280     0.9800 C.ar  1 <1>  -0.1500 
 12 C       -0.0330     6.1460    -0.5610 C.2   1 <1>   0.5690 
 13 C       -4.9540     4.6910    -0.7830 C.ar  1 <1>  -0.1500 
 14 C       -3.3890     2.9870    -1.6840 C.3   1 <1>  -0.0960 
 15 C       -4.3890     6.2640     0.9220 C.ar  1 <1>  -0.1500 
 16 O       -0.6240     6.9730    -1.2190 O.2   1 <1>  -0.5700 
 17 N        0.8970     6.5370     0.3860 N.am  1 <1>  -0.6600 
 18 C       -5.3110     5.7430     0.0380 C.ar  1 <1>  -0.1500 
 19 C        1.1950     7.9810     0.5910 C.3   1 <1>   0.1400 
 20 C        1.7850     5.6030     1.1410 C.3   1 <1>   0.0600 
 21 C        2.3900     8.3970    -0.2690 C.3   1 <1>  -0.1600 
 22 C        2.6780     9.8870    -0.0980 C.3   1 <1>   0.1200 
 23 O        3.7640    10.2180    -0.8850 O.3   1 <1>  -0.6800 
 24 H       -0.0110     2.4700    -2.2570 H     1 <1>   0.0800 
 25 H        1.3960     1.9880    -1.3380 H     1 <1>   0.0800 
 26 H       -0.9150     4.5810     1.2310 H     1 <1>   0.0800 
 27 H       -1.8700     2.6360     2.5440 H     1 <1>   0.0800 
 28 H       -1.9190     1.0750     1.7590 H     1 <1>   0.0800 
 29 H       -3.1420     2.2690     1.3960 H     1 <1>   0.0800 
 30 H       -0.9440     4.6530    -1.7450 H     1 <1>   0.0800 
 31 H       -2.4160     6.1590     1.6730 H     1 <1>   0.1500 
 32 H       -5.6870     4.2990    -1.4660 H     1 <1>   0.1500 
 33 H       -4.1560     2.9020    -2.4330 H     1 <1>   0.0800 
 34 H       -3.3570     2.0620    -1.1370 H     1 <1>   0.0800 
 35 H       -2.4570     3.1250    -2.1940 H     1 <1>   0.0800 
 36 H       -4.6600     7.0870     1.5600 H     1 <1>   0.1500 
 37 H       -6.3040     6.1550    -0.0130 H     1 <1>   0.1500 
 38 H        0.3350     8.5720     0.3210 H     1 <1>   0.0800 
 39 H        1.4010     8.1640     1.6320 H     1 <1>   0.0800 
 40 H        2.0420     6.0240     2.0970 H     1 <1>   0.0800 
 41 H        2.6870     5.4330     0.5780 H     1 <1>   0.0800 
 42 H        1.3050     4.6570     1.3100 H     1 <1>   0.0800 
 43 H        2.1570     8.2030    -1.3020 H     1 <1>   0.0800 
 44 H        3.2540     7.8270     0.0190 H     1 <1>   0.0800 
 45 H        2.9170    10.1270     0.9250 H     1 <1>   0.0800 
 46 H        1.8410    10.4820    -0.4210 H     1 <1>   0.0800 
 47 H        4.5350     9.6610    -0.6660 H     1 <1>   0.4000 
@<TRIPOS>BOND
  1   1   2  2   
  2   2   3  am  
  3   2   4  1   
  4   3   5  1   
  5   3   6  1   
  6   4   7  1   
  7   4  24  1   
  8   4  25  1   
  9   5   8  1   
 10   5   9  1   
 11   5  26  1   
 12   6  27  1   
 13   6  28  1   
 14   6  29  1   
 15   7   9  1   
 16   8  10  ar  
 17   8  11  ar  
 18   9  12  1   
 19   9  30  1   
 20  10  13  ar  
 21  10  14  1   
 22  11  15  ar  
 23  11  31  1   
 24  12  16  2   
 25  12  17  am  
 26  13  18  ar  
 27  13  32  1   
 28  14  33  1   
 29  14  34  1   
 30  14  35  1   
 31  15  18  ar  
 32  15  36  1   
 33  17  19  1   
 34  17  20  1   
 35  18  37  1   
 36  19  21  1   
 37  19  38  1   
 38  19  39  1   
 39  20  40  1   
 40  20  41  1   
 41  20  42  1   
 42  21  22  1   
 43  21  43  1   
 44  21  44  1   
 45  22  23  1   
 46  22  45  1   
 47  22  46  1   
 48  23  47  1   
@<TRIPOS>SUBSTRUCTURE
  1 ****   9 GROUP 4 **** **** 0

# MOE 2024.06 (io_trps.svl 2023.06)
