@<TRIPOS>MOLECULE
NONAME
45 46 1 0 0 
SMALL
USER_CHARGES


@<TRIPOS>ATOM
  1 CL       2.3710     0.6660    -1.3340 Cl    1 <1>  -0.1770 
  2 C        2.1090    -0.8500    -0.5110 C.ar  1 <1>   0.1770 
  3 C        2.0010    -2.0110    -1.2440 C.ar  1 <1>  -0.1500 
  4 C        2.0140    -0.8610     0.8660 C.ar  1 <1>  -0.1500 
  5 C        1.7960    -3.2420    -0.6160 C.ar  1 <1>   0.0860 
  6 C        1.8020    -2.0630     1.5140 C.ar  1 <1>  -0.1500 
  7 C        1.6880    -3.2500     0.7890 C.ar  1 <1>   0.0830 
  8 C        1.7070    -4.4380    -1.4330 C.2   1 <1>   0.5440 
  9 O        1.4580    -4.4340     1.4170 O.3   1 <1>  -0.3630 
 10 O        1.2390    -4.3950    -2.5550 O.2   1 <1>  -0.5700 
 11 N        2.1310    -5.6460    -0.9680 N.am  1 <1>  -0.7300 
 12 C        1.5380    -4.5920     2.8180 C.3   1 <1>   0.0400 
 13 C        1.9010    -6.9630    -1.6000 C.3   1 <1>   0.2200 
 14 C        0.6460    -7.6120    -1.0360 C.3   1 <1>  -0.0800 
 15 C        2.9610    -7.9320    -1.0950 C.3   1 <1>   0.1200 
 16 C        1.1460    -8.2050     0.2860 C.3   1 <1>   0.1200 
 17 C       -0.5790    -6.6770    -0.9170 C.3   1 <1>  -0.0550 
 18 O        2.5380    -8.3050     0.1830 O.3   1 <1>  -0.5600 
 19 S       -2.0600    -7.4710    -0.2920 S.o2  1 <1>   1.3330 
 20 O       -2.1580    -8.7830    -0.8930 O.2   1 <1>  -0.6500 
 21 O       -3.1740    -6.5550    -0.3880 O.2   1 <1>  -0.6500 
 22 N       -1.7330    -7.6810     1.3630 N.am  1 <1>  -0.8490 
 23 C       -1.9280    -6.4580     2.1490 C.3   1 <1>   0.1160 
 24 C       -2.5210    -8.7730     1.9420 C.3   1 <1>   0.1160 
 25 H        2.0770    -1.9660    -2.3160 H     1 <1>   0.1500 
 26 H        2.1030     0.0600     1.4140 H     1 <1>   0.1500 
 27 H        1.7230    -2.0500     2.5850 H     1 <1>   0.1500 
 28 H        2.3860    -5.7060     0.0240 H     1 <1>   0.3700 
 29 H        1.4100    -5.6350     3.0450 H     1 <1>   0.0800 
 30 H        0.7540    -4.0190     3.2810 H     1 <1>   0.0800 
 31 H        2.5060    -4.2630     3.1540 H     1 <1>   0.0800 
 32 H        1.8910    -6.8770    -2.6740 H     1 <1>   0.0800 
 33 H        0.3800    -8.4340    -1.6780 H     1 <1>   0.0800 
 34 H        3.9390    -7.4880    -1.0400 H     1 <1>   0.0800 
 35 H        2.9900    -8.8180    -1.7050 H     1 <1>   0.0800 
 36 H        0.7330    -9.1820     0.4710 H     1 <1>   0.0800 
 37 H        0.9320    -7.5560     1.1170 H     1 <1>   0.0800 
 38 H       -0.7890    -6.2870    -1.8950 H     1 <1>   0.0800 
 39 H       -0.3450    -5.8430    -0.2880 H     1 <1>   0.0800 
 40 H       -1.6330    -6.6250     3.1710 H     1 <1>   0.0800 
 41 H       -2.9640    -6.1580     2.1290 H     1 <1>   0.0800 
 42 H       -1.3300    -5.6570     1.7500 H     1 <1>   0.0800 
 43 H       -2.2860    -8.8920     2.9850 H     1 <1>   0.0800 
 44 H       -2.2940    -9.6980     1.4390 H     1 <1>   0.0800 
 45 H       -3.5740    -8.5720     1.8350 H     1 <1>   0.0800 
@<TRIPOS>BOND
  1   1   2  1   
  2   2   3  ar  
  3   2   4  ar  
  4   3   5  ar  
  5   3  25  1   
  6   4   6  ar  
  7   4  26  1   
  8   5   7  ar  
  9   5   8  1   
 10   6   7  ar  
 11   6  27  1   
 12   7   9  1   
 13   8  10  2   
 14   8  11  am  
 15   9  12  1   
 16  11  13  1   
 17  11  28  1   
 18  12  29  1   
 19  12  30  1   
 20  12  31  1   
 21  13  14  1   
 22  13  15  1   
 23  13  32  1   
 24  14  16  1   
 25  14  17  1   
 26  14  33  1   
 27  15  18  1   
 28  15  34  1   
 29  15  35  1   
 30  16  18  1   
 31  16  36  1   
 32  16  37  1   
 33  17  19  1   
 34  17  38  1   
 35  17  39  1   
 36  19  20  2   
 37  19  21  2   
 38  19  22  am  
 39  22  23  1   
 40  22  24  1   
 41  23  40  1   
 42  23  41  1   
 43  23  42  1   
 44  24  43  1   
 45  24  44  1   
 46  24  45  1   
@<TRIPOS>SUBSTRUCTURE
  1 ****  11 GROUP 4 **** **** 0

# MOE 2024.06 (io_trps.svl 2023.06)
