@<TRIPOS>MOLECULE
NONAME
45 49 1 0 0 
SMALL
USER_CHARGES


@<TRIPOS>ATOM
  1 CL       0.6890     0.3110    -0.4470 Cl    1 <1>  -0.1400 
  2 C        1.1720    -1.3670    -0.4610 C.2   1 <1>   0.1400 
  3 C        0.3820    -2.3230     0.1110 C.2   1 <1>   0.2290 
  4 C        2.3960    -1.6990    -1.0770 C.2   1 <1>  -0.1500 
  5 N        0.7870    -3.6480     0.0860 N.pl3 1 <1>  -0.6290 
  6 C        2.7830    -3.0150    -1.0910 C.2   1 <1>  -0.1410 
  7 C        1.9610    -3.9930    -0.5000 C.cat 1 <1>   0.7910 
  8 C        0.2290    -4.8060     0.5840 C.2   1 <1>   0.2000 
  9 N        2.1210    -5.3150    -0.3830 N.pl3 1 <1>  -0.7000 
 10 C        1.0390    -5.8540     0.2950 C.2   1 <1>   0.2770 
 11 C        0.8930    -7.2630     0.6270 C.2   1 <1>   0.7030 
 12 O        1.8910    -7.9580     0.6150 O.2   1 <1>  -0.5700 
 13 N       -0.3180    -7.8340     0.9550 N.am  1 <1>  -0.6600 
 14 C       -1.6030    -7.5210     0.2650 C.3   1 <1>   0.1400 
 15 C       -0.3770    -9.0570     1.8120 C.3   1 <1>   0.1400 
 16 C       -2.0300    -8.7190    -0.5870 C.3   1 <1>  -0.1600 
 17 C       -0.8060   -10.2600     0.9710 C.3   1 <1>  -0.1600 
 18 C       -2.1320   -10.0010     0.2500 C.3   1 <1>   0.4610 
 19 O       -3.0980    -9.8020     1.2670 O.3   1 <1>  -0.5600 
 20 C       -2.5130   -11.2040    -0.6150 C.2   1 <1>  -0.1810 
 21 C       -4.4610    -9.9690     0.9480 C.3   1 <1>   0.1200 
 22 C       -3.6930   -11.8160    -0.4620 C.2   1 <1>  -0.1400 
 23 C       -1.7030   -11.8000    -1.6400 C.2   1 <1>  -0.1500 
 24 C       -4.7630   -11.4140     0.5170 C.3   1 <1>   0.0200 
 25 S       -3.8750   -13.1720    -1.5540 S.3   1 <1>  -0.0800 
 26 C       -2.2850   -12.8600    -2.2350 C.2   1 <1>  -0.1100 
 27 H       -0.5530    -2.0730     0.5860 H     1 <1>   0.1500 
 28 H        2.9910    -0.9150    -1.5170 H     1 <1>   0.1500 
 29 H        3.7060    -3.3240    -1.5450 H     1 <1>   0.1500 
 30 H       -0.7050    -4.8190     1.1240 H     1 <1>   0.1500 
 31 H        2.9250    -5.8750    -0.6870 H     1 <1>   0.4500 
 32 H       -1.5020    -6.6610    -0.3720 H     1 <1>   0.0800 
 33 H       -2.3600    -7.3130     1.0040 H     1 <1>   0.0800 
 34 H       -1.0860    -8.8990     2.6070 H     1 <1>   0.0800 
 35 H        0.5820    -9.2540     2.2600 H     1 <1>   0.0800 
 36 H       -1.3070    -8.8670    -1.3680 H     1 <1>   0.0800 
 37 H       -2.9720    -8.5200    -1.0640 H     1 <1>   0.0800 
 38 H       -0.9110   -11.1260     1.5980 H     1 <1>   0.0800 
 39 H       -0.0330   -10.4710     0.2550 H     1 <1>   0.0800 
 40 H       -4.7130    -9.2860     0.1570 H     1 <1>   0.0800 
 41 H       -5.0360    -9.7150     1.8200 H     1 <1>   0.0800 
 42 H       -0.7290   -11.4140    -1.8830 H     1 <1>   0.1500 
 43 H       -5.7320   -11.4630     0.0560 H     1 <1>   0.0800 
 44 H       -4.7480   -12.0700     1.3680 H     1 <1>   0.0800 
 45 H       -1.9500   -13.5130    -3.0210 H     1 <1>   0.1500 
@<TRIPOS>BOND
  1   1   2  1   
  2   2   3  2   
  3   2   4  1   
  4   3   5  1   
  5   3  27  1   
  6   4   6  2   
  7   4  28  1   
  8   5   7  ar  
  9   5   8  1   
 10   6   7  1   
 11   6  29  1   
 12   7   9  ar  
 13   8  10  2   
 14   8  30  1   
 15   9  10  1   
 16   9  31  1   
 17  10  11  1   
 18  11  12  2   
 19  11  13  am  
 20  13  14  1   
 21  13  15  1   
 22  14  16  1   
 23  14  32  1   
 24  14  33  1   
 25  15  17  1   
 26  15  34  1   
 27  15  35  1   
 28  16  18  1   
 29  16  36  1   
 30  16  37  1   
 31  17  18  1   
 32  17  38  1   
 33  17  39  1   
 34  18  19  1   
 35  18  20  1   
 36  19  21  1   
 37  20  22  2   
 38  20  23  1   
 39  21  24  1   
 40  21  40  1   
 41  21  41  1   
 42  22  24  1   
 43  22  25  1   
 44  23  26  2   
 45  23  42  1   
 46  24  43  1   
 47  24  44  1   
 48  25  26  1   
 49  26  45  1   
@<TRIPOS>SUBSTRUCTURE
  1 ****  14 GROUP 4 **** **** 0

# MOE 2024.06 (io_trps.svl 2023.06)
