@<TRIPOS>MOLECULE
NONAME
39 41 1 0 0 
SMALL
USER_CHARGES


@<TRIPOS>ATOM
  1 O        0.4360     0.2680     1.8910 O.3   1 <1>  -0.6800 
  2 C        0.8800    -0.1400     0.6400 C.3   1 <1>   0.2000 
  3 C        1.4570    -1.5480     0.7860 C.3   1 <1>  -0.0800 
  4 C        2.1020     0.7190     0.2650 C.3   1 <1>   0.3430 
  5 C        2.8060    -1.2340     1.4380 C.3   1 <1>   0.3430 
  6 C        1.5660    -2.2440    -0.6000 C.3   1 <1>  -0.0170 
  7 N        3.3100    -0.0780     0.6620 N.4   1 <1>  -0.9590 
  8 C        2.8590    -3.0170    -0.8270 C.ar  1 <1>   0.1670 
  9 C        4.3580     0.7110     1.3480 C.3   1 <1>   0.4860 
 10 N        3.9270    -2.2960    -1.1510 N.ar  1 <1>  -0.6200 
 11 C        2.8740    -4.4050    -0.6980 C.ar  1 <1>   0.1600 
 12 C        4.8460     1.7840     0.3940 C.ar  1 <1>  -0.1440 
 13 C        4.9900    -3.0610    -1.3640 C.ar  1 <1>   0.1600 
 14 N        3.9430    -5.1570    -0.8820 N.ar  1 <1>  -0.6200 
 15 C        4.5950     3.1240     0.6170 C.ar  1 <1>  -0.1500 
 16 C        5.5590     1.4750    -0.7500 C.ar  1 <1>  -0.1500 
 17 C        4.9980    -4.4440    -1.2310 C.ar  1 <1>   0.1600 
 18 C        5.0460     4.0640    -0.2940 C.ar  1 <1>   0.1600 
 19 C        5.9640     2.4930    -1.5970 C.ar  1 <1>   0.1600 
 20 N        5.7180     3.7760    -1.3950 N.ar  1 <1>  -0.6200 
 21 H       -0.4590    -0.0830     2.0890 H     1 <1>   0.4000 
 22 H        0.0690    -0.0490    -0.0630 H     1 <1>   0.0800 
 23 H        0.8630    -2.1600     1.4420 H     1 <1>   0.0800 
 24 H        2.0590     1.6620     0.7830 H     1 <1>   0.0800 
 25 H        2.1240     0.8980    -0.7980 H     1 <1>   0.0800 
 26 H        3.4860    -2.0700     1.4020 H     1 <1>   0.0800 
 27 H        2.6440    -0.9440     2.4650 H     1 <1>   0.0800 
 28 H        1.4920    -1.5210    -1.3950 H     1 <1>   0.0800 
 29 H        0.7260    -2.9060    -0.7220 H     1 <1>   0.0800 
 30 H        3.7200    -0.4890    -0.1990 H     1 <1>   0.4500 
 31 H        3.9560     1.1640     2.2400 H     1 <1>   0.0800 
 32 H        5.1810     0.0730     1.6250 H     1 <1>   0.0800 
 33 H        1.9660    -4.9200    -0.4330 H     1 <1>   0.1500 
 34 H        5.9050    -2.5770    -1.6600 H     1 <1>   0.1500 
 35 H        4.0550     3.4580     1.4860 H     1 <1>   0.1500 
 36 H        5.8080     0.4600    -1.0010 H     1 <1>   0.1500 
 37 H        5.9120    -4.9810    -1.4210 H     1 <1>   0.1500 
 38 H        4.8460     5.1070    -0.1100 H     1 <1>   0.1500 
 39 H        6.5190     2.2430    -2.4860 H     1 <1>   0.1500 
@<TRIPOS>BOND
  1   1   2  1   
  2   1  21  1   
  3   2   3  1   
  4   2   4  1   
  5   2  22  1   
  6   3   5  1   
  7   3   6  1   
  8   3  23  1   
  9   4   7  1   
 10   4  24  1   
 11   4  25  1   
 12   5   7  1   
 13   5  26  1   
 14   5  27  1   
 15   6   8  1   
 16   6  28  1   
 17   6  29  1   
 18   7   9  1   
 19   7  30  1   
 20   8  10  ar  
 21   8  11  ar  
 22   9  12  1   
 23   9  31  1   
 24   9  32  1   
 25  10  13  ar  
 26  11  14  ar  
 27  11  33  1   
 28  12  15  ar  
 29  12  16  ar  
 30  13  17  ar  
 31  13  34  1   
 32  14  17  ar  
 33  15  18  ar  
 34  15  35  1   
 35  16  19  ar  
 36  16  36  1   
 37  17  37  1   
 38  18  20  ar  
 39  18  38  1   
 40  19  20  ar  
 41  19  39  1   
@<TRIPOS>SUBSTRUCTURE
  1 ****   7 GROUP 4 **** **** 0

# MOE 2024.06 (io_trps.svl 2023.06)
