@<TRIPOS>MOLECULE
NONAME
38 40 1 0 0 
SMALL
USER_CHARGES


@<TRIPOS>ATOM
  1 O       -1.4930    -0.4080    -1.5080 O.2   1 <1>  -0.5700 
  2 C       -1.8600     0.5030    -0.7870 C.2   1 <1>   0.7150 
  3 N       -2.5140     0.1990     0.3820 N.am  1 <1>  -0.6600 
  4 C       -1.6440     1.8590    -1.1880 C.2   1 <1>  -0.2370 
  5 C       -2.5620    -1.2070     0.8750 C.3   1 <1>   0.3200 
  6 C       -3.4670     1.1420     1.0410 C.3   1 <1>   0.1400 
  7 N       -0.8410     2.7220    -0.4930 N.pl3 1 <1>   0.2940 
  8 C       -2.1430     2.5290    -2.2770 C.2   1 <1>  -0.1500 
  9 C       -3.7160    -1.9510     0.2270 C.2   1 <1>   0.0060 
 10 C       -4.7730     1.2530     0.2460 C.3   1 <1>   0.1200 
 11 C       -0.8640     3.9160    -1.1340 C.2   1 <1>  -0.3020 
 12 C       -0.0690     2.4300     0.7380 C.3   1 <1>  -0.0910 
 13 C       -1.6550     3.8310    -2.2370 C.2   1 <1>  -0.1500 
 14 N       -4.7680    -2.3830     0.8470 N.2   1 <1>  -0.5650 
 15 N       -3.7250    -2.2070    -1.0980 N.pl3 1 <1>   0.0330 
 16 O       -5.6740     2.0280     0.9610 O.3   1 <1>  -0.6800 
 17 C        1.3950     2.7550     0.7880 C.3   1 <1>  -0.2000 
 18 C        0.9490     1.3280     0.7320 C.3   1 <1>  -0.2000 
 19 C       -5.5010    -2.9560    -0.1280 C.2   1 <1>   0.0770 
 20 C       -4.8800    -2.8560    -1.3240 C.2   1 <1>  -0.3020 
 21 H       -2.6820    -1.2180     1.9440 H     1 <1>   0.0800 
 22 H       -1.6380    -1.7090     0.6430 H     1 <1>   0.0800 
 23 H       -3.0200     2.1170     1.1170 H     1 <1>   0.0800 
 24 H       -3.6840     0.7920     2.0350 H     1 <1>   0.0800 
 25 H       -2.7970     2.1330    -3.0350 H     1 <1>   0.1500 
 26 H       -5.2210     0.2890     0.0810 H     1 <1>   0.0800 
 27 H       -4.5980     1.7410    -0.6980 H     1 <1>   0.0800 
 28 H       -0.3120     4.7650    -0.7750 H     1 <1>   0.1500 
 29 H       -0.6560     2.5840     1.6250 H     1 <1>   0.1000 
 30 H       -1.8730     4.6040    -2.9550 H     1 <1>   0.1500 
 31 H       -2.9900    -1.9160    -1.7600 H     1 <1>   0.2700 
 32 H       -6.0900     1.4980     1.6700 H     1 <1>   0.4000 
 33 H        1.8210     3.1160     1.7080 H     1 <1>   0.1000 
 34 H        1.8710     3.1760    -0.0820 H     1 <1>   0.1000 
 35 H        1.1160     0.7720    -0.1750 H     1 <1>   0.1000 
 36 H        1.0720     0.7240     1.6150 H     1 <1>   0.1000 
 37 H       -6.4510    -3.4180     0.0850 H     1 <1>   0.1500 
 38 H       -5.1870    -3.2010    -2.2950 H     1 <1>   0.1500 
@<TRIPOS>BOND
  1   1   2  2   
  2   2   3  am  
  3   2   4  1   
  4   3   5  1   
  5   3   6  1   
  6   4   7  1   
  7   4   8  2   
  8   5   9  1   
  9   5  21  1   
 10   5  22  1   
 11   6  10  1   
 12   6  23  1   
 13   6  24  1   
 14   7  11  1   
 15   7  12  1   
 16   8  13  1   
 17   8  25  1   
 18   9  14  2   
 19   9  15  1   
 20  10  16  1   
 21  10  26  1   
 22  10  27  1   
 23  11  13  2   
 24  11  28  1   
 25  12  17  1   
 26  12  18  1   
 27  12  29  1   
 28  13  30  1   
 29  14  19  1   
 30  15  20  1   
 31  15  31  1   
 32  16  32  1   
 33  17  18  1   
 34  17  33  1   
 35  17  34  1   
 36  18  35  1   
 37  18  36  1   
 38  19  20  2   
 39  19  37  1   
 40  20  38  1   
@<TRIPOS>SUBSTRUCTURE
  1 ****   3 GROUP 4 **** **** 0

# MOE 2024.06 (io_trps.svl 2023.06)
