@<TRIPOS>MOLECULE
NONAME
53 55 1 0 0 
SMALL
USER_CHARGES


@<TRIPOS>ATOM
  1 O        1.0940     2.3370    -1.0410 O.2   1 <1>  -0.5700 
  2 C        0.3170     3.2470    -0.8700 C.2   1 <1>   0.5690 
  3 N       -0.7490     3.1520    -0.0180 N.am  1 <1>  -0.6600 
  4 C        0.5630     4.5500    -1.6310 C.3   1 <1>   0.1810 
  5 C       -1.7090     4.2880     0.1590 C.3   1 <1>   0.3640 
  6 C       -1.0360     1.9220     0.7740 C.3   1 <1>   0.0600 
  7 O       -0.6020     5.3270    -1.8090 O.3   1 <1>  -0.5600 
  8 C       -3.1630     3.8620    -0.1140 C.ar  1 <1>  -0.1430 
  9 C       -1.3410     5.5860    -0.6190 C.3   1 <1>   0.2610 
 10 C       -3.6280     3.2680    -1.2920 C.ar  1 <1>  -0.1430 
 11 C       -4.0720     4.1110     0.9090 C.ar  1 <1>  -0.1500 
 12 C       -0.6410     6.6340     0.2630 C.2   1 <1>   0.5690 
 13 C       -4.9720     2.9400    -1.4070 C.ar  1 <1>  -0.1500 
 14 C       -2.7360     2.9500    -2.4860 C.3   1 <1>  -0.0960 
 15 C       -5.4080     3.7800     0.7830 C.ar  1 <1>  -0.1500 
 16 O       -0.9070     6.7030     1.4400 O.2   1 <1>  -0.5700 
 17 N        0.2460     7.4800    -0.3300 N.am  1 <1>  -0.7300 
 18 C       -5.8590     3.1910    -0.3790 C.ar  1 <1>  -0.1500 
 19 C        1.0990     8.5240     0.2710 C.3   1 <1>   0.3000 
 20 C        2.0870     7.8680     1.2400 C.3   1 <1>  -0.1600 
 21 C        2.0270     9.0100    -0.8450 C.3   1 <1>  -0.1600 
 22 C        0.1920     9.6190     0.8770 C.3   1 <1>  -0.1600 
 23 C        3.1730     7.2220     0.3680 C.3   1 <1>  -0.1600 
 24 C        3.1000     7.9240    -0.9940 C.3   1 <1>  -0.1600 
 25 C        0.8870    10.8890     1.4040 C.3   1 <1>  -0.2400 
 26 H        0.9480     4.3170    -2.6060 H     1 <1>   0.0800 
 27 H        1.2950     5.1320    -1.1040 H     1 <1>   0.0800 
 28 H       -1.6710     4.5220     1.2060 H     1 <1>   0.0800 
 29 H       -1.1300     2.1720     1.8160 H     1 <1>   0.0800 
 30 H       -0.2420     1.2030     0.6620 H     1 <1>   0.0800 
 31 H       -1.9530     1.4750     0.4330 H     1 <1>   0.0800 
 32 H       -2.2600     6.0440    -0.9330 H     1 <1>   0.0800 
 33 H       -3.7490     4.5720     1.8270 H     1 <1>   0.1500 
 34 H       -5.3430     2.4810    -2.3070 H     1 <1>   0.1500 
 35 H       -3.2980     2.4840    -3.2750 H     1 <1>   0.0800 
 36 H       -1.9540     2.2710    -2.2050 H     1 <1>   0.0800 
 37 H       -2.3070     3.8490    -2.8840 H     1 <1>   0.0800 
 38 H       -6.0930     3.9800     1.5880 H     1 <1>   0.1500 
 39 H        0.4050     7.3500    -1.3310 H     1 <1>   0.3700 
 40 H       -6.8980     2.9310    -0.4860 H     1 <1>   0.1500 
 41 H        2.5520     8.6250     1.8440 H     1 <1>   0.0800 
 42 H        1.6160     7.1620     1.9000 H     1 <1>   0.0800 
 43 H        1.5030     9.2090    -1.7630 H     1 <1>   0.0800 
 44 H        2.5230     9.9120    -0.5380 H     1 <1>   0.0800 
 45 H       -0.5230     9.9190     0.1320 H     1 <1>   0.0800 
 46 H       -0.3560     9.1880     1.6960 H     1 <1>   0.0800 
 47 H        4.1430     7.3420     0.8200 H     1 <1>   0.0800 
 48 H        2.9740     6.1710     0.2520 H     1 <1>   0.0800 
 49 H        2.8050     7.2160    -1.7500 H     1 <1>   0.0800 
 50 H        4.0490     8.3510    -1.2700 H     1 <1>   0.0800 
 51 H        1.3590    11.4350     0.6080 H     1 <1>   0.0800 
 52 H        1.6200    10.6500     2.1530 H     1 <1>   0.0800 
 53 H        0.1540    11.5340     1.8550 H     1 <1>   0.0800 
@<TRIPOS>BOND
  1   1   2  2   
  2   2   3  am  
  3   2   4  1   
  4   3   5  1   
  5   3   6  1   
  6   4   7  1   
  7   4  26  1   
  8   4  27  1   
  9   5   8  1   
 10   5   9  1   
 11   5  28  1   
 12   6  29  1   
 13   6  30  1   
 14   6  31  1   
 15   7   9  1   
 16   8  10  ar  
 17   8  11  ar  
 18   9  12  1   
 19   9  32  1   
 20  10  13  ar  
 21  10  14  1   
 22  11  15  ar  
 23  11  33  1   
 24  12  16  2   
 25  12  17  am  
 26  13  18  ar  
 27  13  34  1   
 28  14  35  1   
 29  14  36  1   
 30  14  37  1   
 31  15  18  ar  
 32  15  38  1   
 33  17  19  1   
 34  17  39  1   
 35  18  40  1   
 36  19  20  1   
 37  19  21  1   
 38  19  22  1   
 39  20  23  1   
 40  20  41  1   
 41  20  42  1   
 42  21  24  1   
 43  21  43  1   
 44  21  44  1   
 45  22  25  1   
 46  22  45  1   
 47  22  46  1   
 48  23  24  1   
 49  23  47  1   
 50  23  48  1   
 51  24  49  1   
 52  24  50  1   
 53  25  51  1   
 54  25  52  1   
 55  25  53  1   
@<TRIPOS>SUBSTRUCTURE
  1 ****   9 GROUP 4 **** **** 0

# MOE 2024.06 (io_trps.svl 2023.06)
