@<TRIPOS>MOLECULE
NONAME
43 45 1 0 0 
SMALL
USER_CHARGES


@<TRIPOS>ATOM
  1 CL       0.5940     1.0130    -1.5050 Cl    1 <1>  -0.1770 
  2 C        1.9650     1.3920    -0.4890 C.ar  1 <1>   0.1770 
  3 C        2.8440     0.3910    -0.1020 C.ar  1 <1>  -0.1440 
  4 C        2.1410     2.7030    -0.0950 C.ar  1 <1>  -0.1500 
  5 C        3.9190     0.7360     0.7030 C.ar  1 <1>  -0.1500 
  6 C        2.6420    -1.0520    -0.5380 C.3   1 <1>  -0.0960 
  7 C        3.2220     3.0580     0.7060 C.ar  1 <1>   0.0860 
  8 C        4.1000     2.0500     1.0990 C.ar  1 <1>  -0.1500 
  9 C        3.4440     4.4310     1.1080 C.2   1 <1>   0.5440 
 10 O        3.2040     4.7590     2.2540 O.2   1 <1>  -0.5700 
 11 N        3.9530     5.3800     0.2360 N.am  1 <1>  -0.6600 
 12 C        4.2160     6.7640     0.7490 C.3   1 <1>   0.1400 
 13 C        4.5640     4.9940    -1.0760 C.3   1 <1>   0.1400 
 14 C        5.6950     7.0080     1.1530 C.3   1 <1>   0.4230 
 15 C        6.0580     5.3630    -1.2220 C.3   1 <1>  -0.0800 
 16 N        6.5470     7.5180     0.0160 N.4   1 <1>  -0.9590 
 17 C        6.3940     5.8010     1.8390 C.3   1 <1>   0.1200 
 18 C        7.0200     4.6670    -0.2330 C.3   1 <1>   0.1200 
 19 C        6.2600     6.8780    -1.3020 C.3   1 <1>   0.3430 
 20 C        6.4780     9.0080    -0.0970 C.3   1 <1>   0.2630 
 21 O        6.5240     4.6310     1.0670 O.3   1 <1>  -0.5600 
 22 H        1.4360     3.4510    -0.4090 H     1 <1>   0.1500 
 23 H        4.6190    -0.0150     1.0280 H     1 <1>   0.1500 
 24 H        3.4170    -1.6880    -0.1480 H     1 <1>   0.0800 
 25 H        2.6550    -1.1180    -1.6120 H     1 <1>   0.0800 
 26 H        1.6940    -1.4130    -0.1810 H     1 <1>   0.0800 
 27 H        4.9370     2.3110     1.7260 H     1 <1>   0.1500 
 28 H        3.9010     7.4840     0.0170 H     1 <1>   0.0800 
 29 H        3.6080     6.9420     1.6180 H     1 <1>   0.0800 
 30 H        4.4750     3.9330    -1.2290 H     1 <1>   0.0800 
 31 H        3.9990     5.4660    -1.8610 H     1 <1>   0.0800 
 32 H        5.6690     7.7870     1.8970 H     1 <1>   0.0800 
 33 H        6.3360     5.0010    -2.1960 H     1 <1>   0.0800 
 34 H        7.5110     7.2580     0.2660 H     1 <1>   0.4500 
 35 H        5.8210     5.5250     2.7080 H     1 <1>   0.0800 
 36 H        7.3750     6.0830     2.1760 H     1 <1>   0.0800 
 37 H        7.9960     5.1200    -0.2240 H     1 <1>   0.0800 
 38 H        7.1390     3.6380    -0.5310 H     1 <1>   0.0800 
 39 H        5.3770     7.3190    -1.7370 H     1 <1>   0.0800 
 40 H        7.0830     7.0800    -1.9690 H     1 <1>   0.0800 
 41 H        5.4780     9.3210    -0.3500 H     1 <1>   0.0800 
 42 H        7.1520     9.3580    -0.8630 H     1 <1>   0.0800 
 43 H        6.7570     9.4690     0.8380 H     1 <1>   0.0800 
@<TRIPOS>BOND
  1   1   2  1   
  2   2   3  ar  
  3   2   4  ar  
  4   3   5  ar  
  5   3   6  1   
  6   4   7  ar  
  7   4  22  1   
  8   5   8  ar  
  9   5  23  1   
 10   6  24  1   
 11   6  25  1   
 12   6  26  1   
 13   7   8  ar  
 14   7   9  1   
 15   8  27  1   
 16   9  10  2   
 17   9  11  am  
 18  11  12  1   
 19  11  13  1   
 20  12  14  1   
 21  12  28  1   
 22  12  29  1   
 23  13  15  1   
 24  13  30  1   
 25  13  31  1   
 26  14  16  1   
 27  14  17  1   
 28  14  32  1   
 29  15  18  1   
 30  15  19  1   
 31  15  33  1   
 32  16  19  1   
 33  16  20  1   
 34  16  34  1   
 35  17  21  1   
 36  17  35  1   
 37  17  36  1   
 38  18  21  1   
 39  18  37  1   
 40  18  38  1   
 41  19  39  1   
 42  19  40  1   
 43  20  41  1   
 44  20  42  1   
 45  20  43  1   
@<TRIPOS>SUBSTRUCTURE
  1 ****  11 GROUP 4 **** **** 0

# MOE 2024.06 (io_trps.svl 2023.06)
