@<TRIPOS>MOLECULE
NONAME
35 37 1 0 0 
SMALL
USER_CHARGES


@<TRIPOS>ATOM
  1 F        0.1720    -0.7780    -0.8580 F     1 <1>  -0.1900 
  2 C       -0.0560    -2.0500    -0.6640 C.ar  1 <1>   0.1900 
  3 C       -1.3560    -2.5130    -0.7430 C.ar  1 <1>  -0.1500 
  4 C        1.0110    -2.8840    -0.3860 C.ar  1 <1>  -0.1500 
  5 C       -1.5980    -3.8620    -0.5380 C.ar  1 <1>  -0.1500 
  6 C        0.7590    -4.2300    -0.1820 C.ar  1 <1>  -0.1500 
  7 C       -0.5360    -4.7240    -0.2560 C.ar  1 <1>   0.0830 
  8 O       -0.6840    -6.0550    -0.0420 O.3   1 <1>  -0.3630 
  9 C       -1.9520    -6.6850    -0.1630 C.3   1 <1>   0.1810 
 10 C       -1.8970    -8.1920     0.1000 C.2   1 <1>   0.5690 
 11 O       -0.8860    -8.8060    -0.1670 O.2   1 <1>  -0.5700 
 12 N       -3.0030    -8.8160     0.6030 N.am  1 <1>  -0.6600 
 13 C       -4.3470    -8.2030     0.8010 C.3   1 <1>   0.2350 
 14 C       -3.0860   -10.2850     0.8430 C.3   1 <1>   0.2350 
 15 C       -5.3380    -9.3360     0.6290 C.3   1 <1>  -0.2420 
 16 C       -4.5590   -10.6290     0.6810 C.3   1 <1>  -0.2420 
 17 C       -6.7100    -8.9070     1.1550 C.2   1 <1>   0.9470 
 18 C       -5.2880   -10.2400    -0.5780 C.3   1 <1>  -0.2000 
 19 C       -4.8880   -11.9560     1.3670 C.2   1 <1>   0.9470 
 20 O       -7.6930    -8.9490     0.4030 O.co2 1 <1>  -0.9000 
 21 O       -6.7730    -8.3400     2.2550 O.co2 1 <1>  -0.9000 
 22 O       -5.3330   -12.8970     0.6930 O.co2 1 <1>  -0.9000 
 23 O       -4.5600   -12.1150     2.5500 O.co2 1 <1>  -0.9000 
 24 H       -2.1560    -1.8290    -0.9610 H     1 <1>   0.1500 
 25 H        2.0090    -2.4880    -0.3320 H     1 <1>   0.1500 
 26 H       -2.6090    -4.2170    -0.5990 H     1 <1>   0.1500 
 27 H        1.5650    -4.9090     0.0360 H     1 <1>   0.1500 
 28 H       -2.6090    -6.2230     0.5490 H     1 <1>   0.0800 
 29 H       -2.3130    -6.5230    -1.1610 H     1 <1>   0.0800 
 30 H       -4.4110    -7.8070     1.8010 H     1 <1>   0.0800 
 31 H       -4.5500    -7.4300     0.0840 H     1 <1>   0.0800 
 32 H       -2.4830   -10.8330     0.1400 H     1 <1>   0.0800 
 33 H       -2.7600   -10.4990     1.8460 H     1 <1>   0.0800 
 34 H       -4.7290    -9.9440    -1.4450 H     1 <1>   0.1000 
 35 H       -6.1760   -10.7960    -0.8300 H     1 <1>   0.1000 
@<TRIPOS>BOND
  1   1   2  1   
  2   2   3  ar  
  3   2   4  ar  
  4   3   5  ar  
  5   3  24  1   
  6   4   6  ar  
  7   4  25  1   
  8   5   7  ar  
  9   5  26  1   
 10   6   7  ar  
 11   6  27  1   
 12   7   8  1   
 13   8   9  1   
 14   9  10  1   
 15   9  28  1   
 16   9  29  1   
 17  10  11  2   
 18  10  12  am  
 19  12  13  1   
 20  12  14  1   
 21  13  15  1   
 22  13  30  1   
 23  13  31  1   
 24  14  16  1   
 25  14  32  1   
 26  14  33  1   
 27  15  16  1   
 28  15  17  1   
 29  15  18  1   
 30  16  18  1   
 31  16  19  1   
 32  17  20  ar  
 33  17  21  ar  
 34  18  34  1   
 35  18  35  1   
 36  19  22  ar  
 37  19  23  ar  
@<TRIPOS>SUBSTRUCTURE
  1 ****  10 GROUP 4 **** **** 0

# MOE 2024.06 (io_trps.svl 2023.06)
