@<TRIPOS>MOLECULE
NONAME
34 35 1 0 0 
SMALL
USER_CHARGES


@<TRIPOS>ATOM
  1 O        1.8840    -1.0540     3.2710 O.2   1 <1>  -0.5700 
  2 C        1.4660    -1.1760     2.1500 C.2   1 <1>   0.6590 
  3 O        2.1640    -0.8350     1.0790 O.3   1 <1>  -0.4300 
  4 C        0.0940    -1.7330     1.8770 C.3   1 <1>  -0.1790 
  5 C        3.4650    -0.2880     1.1780 C.3   1 <1>   0.2000 
  6 C        4.2180    -0.3350    -0.1800 C.3   1 <1>   0.0000 
  7 C        3.4090     1.2200     1.4920 C.3   1 <1>  -0.1600 
  8 C        3.8010     0.9800    -0.8840 C.3   1 <1>   0.0000 
  9 C        5.6930    -0.0540     0.1950 C.3   1 <1>  -0.1600 
 10 C        4.0510    -1.6380    -0.9780 C.3   1 <1>  -0.2400 
 11 C        4.2050     1.8440     0.3220 C.3   1 <1>  -0.0800 
 12 C        2.3060     1.1080    -1.2770 C.3   1 <1>  -0.2400 
 13 C        4.5760     1.3100    -2.1880 C.3   1 <1>  -0.2400 
 14 C        5.6790     1.4460     0.5560 C.3   1 <1>  -0.1600 
 15 H        0.1810    -2.6190     1.2770 H     1 <1>   0.0800 
 16 H       -0.4900    -1.0010     1.3510 H     1 <1>   0.0800 
 17 H       -0.3910    -1.9760     2.8030 H     1 <1>   0.0800 
 18 H        4.0000    -0.8350     1.9370 H     1 <1>   0.0800 
 19 H        2.3980     1.5840     1.5130 H     1 <1>   0.0800 
 20 H        3.8670     1.4320     2.4410 H     1 <1>   0.0800 
 21 H        6.0220    -0.6580     1.0230 H     1 <1>   0.0800 
 22 H        6.3530    -0.2420    -0.6340 H     1 <1>   0.0800 
 23 H        4.6400    -1.6090    -1.8760 H     1 <1>   0.0800 
 24 H        3.0200    -1.7820    -1.2490 H     1 <1>   0.0800 
 25 H        4.3680    -2.4770    -0.3840 H     1 <1>   0.0800 
 26 H        4.0510     2.9020     0.2040 H     1 <1>   0.0800 
 27 H        2.1170     2.0870    -1.6790 H     1 <1>   0.0800 
 28 H        1.6210     0.9670    -0.4670 H     1 <1>   0.0800 
 29 H        2.0630     0.3840    -2.0330 H     1 <1>   0.0800 
 30 H        4.3380     2.3080    -2.5100 H     1 <1>   0.0800 
 31 H        4.2850     0.6310    -2.9690 H     1 <1>   0.0800 
 32 H        5.6420     1.2520    -2.0990 H     1 <1>   0.0800 
 33 H        6.3350     2.0030    -0.0900 H     1 <1>   0.0800 
 34 H        5.9870     1.6150     1.5740 H     1 <1>   0.0800 
@<TRIPOS>BOND
  1   1   2  2   
  2   2   3  1   
  3   2   4  1   
  4   3   5  1   
  5   4  15  1   
  6   4  16  1   
  7   4  17  1   
  8   5   6  1   
  9   5   7  1   
 10   5  18  1   
 11   6   8  1   
 12   6   9  1   
 13   6  10  1   
 14   7  11  1   
 15   7  19  1   
 16   7  20  1   
 17   8  11  1   
 18   8  12  1   
 19   8  13  1   
 20   9  14  1   
 21   9  21  1   
 22   9  22  1   
 23  10  23  1   
 24  10  24  1   
 25  10  25  1   
 26  11  14  1   
 27  11  26  1   
 28  12  27  1   
 29  12  28  1   
 30  12  29  1   
 31  13  30  1   
 32  13  31  1   
 33  13  32  1   
 34  14  33  1   
 35  14  34  1   
@<TRIPOS>SUBSTRUCTURE
  1 ****   5 GROUP 4 **** **** 0

# MOE 2024.06 (io_trps.svl 2023.06)
