@<TRIPOS>MOLECULE
NONAME
36 38 1 0 0 
SMALL
USER_CHARGES


@<TRIPOS>ATOM
  1 CL       0.7390     0.5670    -0.8680 Cl    1 <1>  -0.1770 
  2 C        1.4680    -0.8560    -0.1410 C.ar  1 <1>   0.1770 
  3 C        0.9210    -2.1280    -0.2860 C.ar  1 <1>   0.4100 
  4 C        2.6170    -0.7230     0.5890 C.ar  1 <1>   0.1600 
  5 N        1.5180    -3.1700     0.2700 N.ar  1 <1>  -0.6200 
  6 N       -0.2470    -2.3780    -0.9860 N.pl3 1 <1>  -0.8380 
  7 N        3.2120    -1.7600     1.1550 N.ar  1 <1>  -0.6200 
  8 C        2.6190    -2.9260     0.9570 C.ar  1 <1>   0.4770 
  9 C       -1.5360    -1.8060    -0.4800 C.3   1 <1>   0.2090 
 10 C       -0.4360    -3.6850    -1.7010 C.3   1 <1>   0.2090 
 11 C        3.2820    -4.1260     1.5880 C.3   1 <1>  -0.0960 
 12 C       -2.3480    -2.8350     0.3350 C.3   1 <1>   0.2090 
 13 C       -1.2570    -4.6890    -0.8690 C.3   1 <1>   0.2090 
 14 N       -2.5620    -4.1000    -0.4270 N.pl3 1 <1>  -0.8380 
 15 C       -3.5280    -4.9560     0.0630 C.ar  1 <1>   0.4100 
 16 N       -3.1160    -6.0470     0.6990 N.ar  1 <1>  -0.6200 
 17 C       -4.8720    -4.6400    -0.1160 C.ar  1 <1>  -0.1500 
 18 C       -4.0680    -6.8360     1.1690 C.ar  1 <1>   0.1600 
 19 C       -5.8520    -5.4680     0.3790 C.ar  1 <1>  -0.1500 
 20 C       -5.4250    -6.6010     1.0420 C.ar  1 <1>  -0.1500 
 21 H        3.0620     0.2480     0.7150 H     1 <1>   0.1500 
 22 H       -2.1260    -1.4780    -1.3180 H     1 <1>   0.0800 
 23 H       -1.3410    -0.9500     0.1410 H     1 <1>   0.0800 
 24 H        0.5220    -4.1170    -1.9340 H     1 <1>   0.0800 
 25 H       -0.9470    -3.5050    -2.6290 H     1 <1>   0.0800 
 26 H        2.5390    -4.8410     1.8890 H     1 <1>   0.0800 
 27 H        3.8470    -3.8270     2.4520 H     1 <1>   0.0800 
 28 H        3.9420    -4.5810     0.8750 H     1 <1>   0.0800 
 29 H       -3.2970    -2.4070     0.6030 H     1 <1>   0.0800 
 30 H       -1.8160    -3.0590     1.2430 H     1 <1>   0.0800 
 31 H       -0.6850    -4.9790    -0.0050 H     1 <1>   0.0800 
 32 H       -1.4450    -5.5710    -1.4550 H     1 <1>   0.0800 
 33 H       -5.1230    -3.7450    -0.6500 H     1 <1>   0.1500 
 34 H       -3.7460    -7.7230     1.6870 H     1 <1>   0.1500 
 35 H       -6.8980    -5.2470     0.2540 H     1 <1>   0.1500 
 36 H       -6.1360    -7.2930     1.4550 H     1 <1>   0.1500 
@<TRIPOS>BOND
  1   1   2  1   
  2   2   3  ar  
  3   2   4  ar  
  4   3   5  ar  
  5   3   6  1   
  6   4   7  ar  
  7   4  21  1   
  8   5   8  ar  
  9   6   9  1   
 10   6  10  1   
 11   7   8  ar  
 12   8  11  1   
 13   9  12  1   
 14   9  22  1   
 15   9  23  1   
 16  10  13  1   
 17  10  24  1   
 18  10  25  1   
 19  11  26  1   
 20  11  27  1   
 21  11  28  1   
 22  12  14  1   
 23  12  29  1   
 24  12  30  1   
 25  13  14  1   
 26  13  31  1   
 27  13  32  1   
 28  14  15  1   
 29  15  16  ar  
 30  15  17  ar  
 31  16  18  ar  
 32  17  19  ar  
 33  17  33  1   
 34  18  20  ar  
 35  18  34  1   
 36  19  20  ar  
 37  19  35  1   
 38  20  36  1   
@<TRIPOS>SUBSTRUCTURE
  1 ****  12 GROUP 4 **** **** 0

# MOE 2024.06 (io_trps.svl 2023.06)
