@<TRIPOS>MOLECULE
NONAME
58 60 1 0 0 
SMALL
USER_CHARGES


@<TRIPOS>ATOM
  1 O        0.8420    -0.2180     0.5460 O.2   1 <1>  -0.5700 
  2 C        1.7460    -0.7090    -0.0880 C.2   1 <1>   0.5690 
  3 N        2.6300     0.0830    -0.7900 N.am  1 <1>  -0.6600 
  4 C        1.8240    -2.2510    -0.0690 C.3   1 <1>   0.4040 
  5 C        3.9290    -0.3820    -1.3790 C.3   1 <1>   0.1400 
  6 C        2.2290     1.4840    -1.1320 C.3   1 <1>   0.1400 
  7 N        0.4930    -2.9080     0.2270 N.4   1 <1>  -0.9590 
  8 C        5.0840     0.6340    -1.2100 C.3   1 <1>   0.3430 
  9 C        2.7520     2.4660    -0.0810 C.3   1 <1>  -0.1600 
 10 C        0.6450    -4.2910     0.7720 C.3   1 <1>   0.4230 
 11 C       -0.4600    -2.7730    -0.9260 C.3   1 <1>   0.2630 
 12 N        5.0030     1.4040     0.0770 N.4   1 <1>  -0.9590 
 13 C        4.2640     2.6870    -0.0890 C.3   1 <1>   0.3430 
 14 C        1.1640    -5.2820    -0.2830 C.3   1 <1>  -0.1600 
 15 C       -0.6990    -4.8480     1.2460 C.3   1 <1>  -0.1600 
 16 C        6.3500     1.5940     0.7230 C.3   1 <1>   0.3430 
 17 C        0.0890    -6.3620    -0.4610 C.3   1 <1>  -0.1600 
 18 C       -1.1880    -5.7950     0.1500 C.3   1 <1>  -0.1600 
 19 C        7.3620     2.4000    -0.1180 C.3   1 <1>  -0.0800 
 20 C        8.7510     2.0750     0.4100 C.3   1 <1>   0.1200 
 21 C        7.3150     3.9050     0.1600 C.3   1 <1>  -0.1600 
 22 O        8.8290     2.8340     1.5620 O.3   1 <1>  -0.5600 
 23 C        8.3010     4.0970     1.3150 C.3   1 <1>   0.1200 
 24 H        2.5310    -2.5300     0.6930 H     1 <1>   0.0800 
 25 H        2.1950    -2.5980    -1.0170 H     1 <1>   0.0800 
 26 H        3.7940    -0.5800    -2.4290 H     1 <1>   0.0800 
 27 H        4.2290    -1.3040    -0.9130 H     1 <1>   0.0800 
 28 H        1.1530     1.5510    -1.1600 H     1 <1>   0.0800 
 29 H        2.5870     1.7490    -2.1140 H     1 <1>   0.0800 
 30 H        0.0870    -2.3280     0.9830 H     1 <1>   0.4500 
 31 H        5.0730     1.3220    -2.0400 H     1 <1>   0.0800 
 32 H        6.0170     0.0960    -1.2590 H     1 <1>   0.0800 
 33 H        2.4270     2.1550     0.8980 H     1 <1>   0.0800 
 34 H        2.2880     3.4190    -0.2640 H     1 <1>   0.0800 
 35 H        1.3220    -4.2680     1.6120 H     1 <1>   0.0800 
 36 H       -0.1230    -3.3520    -1.7700 H     1 <1>   0.0800 
 37 H       -0.5450    -1.7390    -1.2220 H     1 <1>   0.0800 
 38 H       -1.4400    -3.1200    -0.6420 H     1 <1>   0.0800 
 39 H        4.4240     0.8490     0.7240 H     1 <1>   0.4500 
 40 H        4.5050     3.3470     0.7290 H     1 <1>   0.0800 
 41 H        4.5650     3.1700    -1.0050 H     1 <1>   0.0800 
 42 H        2.0710    -5.7440     0.0660 H     1 <1>   0.0800 
 43 H        1.3660    -4.8100    -1.2260 H     1 <1>   0.0800 
 44 H       -1.4210    -4.0880     1.4880 H     1 <1>   0.0800 
 45 H       -0.5210    -5.4330     2.1320 H     1 <1>   0.0800 
 46 H        6.7740     0.6220     0.9160 H     1 <1>   0.0800 
 47 H        6.2370     2.0800     1.6800 H     1 <1>   0.0800 
 48 H        0.3770    -7.2460     0.0850 H     1 <1>   0.0800 
 49 H       -0.0490    -6.6320    -1.4950 H     1 <1>   0.0800 
 50 H       -1.7430    -5.2560    -0.5980 H     1 <1>   0.0800 
 51 H       -1.8190    -6.5740     0.5460 H     1 <1>   0.0800 
 52 H        7.3060     2.1640    -1.1650 H     1 <1>   0.0800 
 53 H        9.5240     2.4050    -0.2640 H     1 <1>   0.0800 
 54 H        8.8990     1.0370     0.6570 H     1 <1>   0.0800 
 55 H        6.3470     4.2850     0.4230 H     1 <1>   0.0800 
 56 H        7.6750     4.4560    -0.6920 H     1 <1>   0.0800 
 57 H        7.8250     4.4490     2.2140 H     1 <1>   0.0800 
 58 H        9.1090     4.7570     1.0440 H     1 <1>   0.0800 
@<TRIPOS>BOND
  1   1   2  2   
  2   2   3  am  
  3   2   4  1   
  4   3   5  1   
  5   3   6  1   
  6   4   7  1   
  7   4  24  1   
  8   4  25  1   
  9   5   8  1   
 10   5  26  1   
 11   5  27  1   
 12   6   9  1   
 13   6  28  1   
 14   6  29  1   
 15   7  10  1   
 16   7  11  1   
 17   7  30  1   
 18   8  12  1   
 19   8  31  1   
 20   8  32  1   
 21   9  13  1   
 22   9  33  1   
 23   9  34  1   
 24  10  14  1   
 25  10  15  1   
 26  10  35  1   
 27  11  36  1   
 28  11  37  1   
 29  11  38  1   
 30  12  13  1   
 31  12  16  1   
 32  12  39  1   
 33  13  40  1   
 34  13  41  1   
 35  14  17  1   
 36  14  42  1   
 37  14  43  1   
 38  15  18  1   
 39  15  44  1   
 40  15  45  1   
 41  16  19  1   
 42  16  46  1   
 43  16  47  1   
 44  17  18  1   
 45  17  48  1   
 46  17  49  1   
 47  18  50  1   
 48  18  51  1   
 49  19  20  1   
 50  19  21  1   
 51  19  52  1   
 52  20  22  1   
 53  20  53  1   
 54  20  54  1   
 55  21  23  1   
 56  21  55  1   
 57  21  56  1   
 58  22  23  1   
 59  23  57  1   
 60  23  58  1   
@<TRIPOS>SUBSTRUCTURE
  1 ****   3 GROUP 4 **** **** 0

# MOE 2024.06 (io_trps.svl 2023.06)
