@<TRIPOS>MOLECULE
NONAME
42 45 1 0 0 
SMALL
USER_CHARGES


@<TRIPOS>ATOM
  1 O        0.9420     0.4740    -1.0210 O.3   1 <1>  -0.0190 
  2 N        1.8360    -0.3810    -0.6170 N.2   1 <1>  -0.4100 
  3 C        0.9820     1.5850    -0.3350 C.2   1 <1>  -0.0400 
  4 C        2.4610     0.1860     0.3500 C.2   1 <1>   0.1080 
  5 C        1.9540     1.4610     0.5840 C.2   1 <1>  -0.1500 
  6 C        0.0030     2.6920    -0.6840 C.3   1 <1>   0.0200 
  7 C        3.5920    -0.4540     1.1220 C.3   1 <1>  -0.0590 
  8 C        0.3570     4.0360    -0.0270 C.3   1 <1>  -0.0800 
  9 C       -0.6390     5.1390    -0.3680 C.3   1 <1>   0.2000 
 10 C        1.6920     4.6120    -0.4920 C.3   1 <1>   0.2090 
 11 O       -1.7340     5.0710     0.4830 O.3   1 <1>  -0.6800 
 12 C        0.1330     6.4500    -0.2040 C.3   1 <1>   0.2090 
 13 N        1.5790     6.0820    -0.2860 N.pl3 1 <1>  -0.8220 
 14 C        2.4590     6.9290    -0.9900 C.2   1 <1>   0.2700 
 15 N        3.2900     6.5170    -1.8830 N.2   1 <1>  -0.3380 
 16 N        2.5790     8.2680    -0.8610 N.pl3 1 <1>   0.5930 
 17 N        3.9150     7.6010    -2.3340 N.2   1 <1>   0.0000 
 18 N        3.5000     8.6550    -1.7420 N.2   1 <1>  -0.4180 
 19 C        1.9040     9.1580     0.0210 C.ar  1 <1>  -0.0230 
 20 C        1.8220     8.8840     1.3840 C.ar  1 <1>  -0.1500 
 21 C        1.3070    10.3190    -0.4630 C.ar  1 <1>  -0.1500 
 22 C        1.1520     9.7410     2.2380 C.ar  1 <1>  -0.1500 
 23 C        0.6360    11.1760     0.3900 C.ar  1 <1>  -0.1500 
 24 C        0.5570    10.8870     1.7410 C.ar  1 <1>  -0.1500 
 25 H        2.2940     2.1460     1.3370 H     1 <1>   0.1500 
 26 H       -0.0150     2.8100    -1.7540 H     1 <1>   0.0800 
 27 H       -0.9810     2.3880    -0.3730 H     1 <1>   0.0800 
 28 H        3.3370    -0.5120     2.1640 H     1 <1>   0.0800 
 29 H        4.4880     0.1270     1.0070 H     1 <1>   0.0800 
 30 H        3.7720    -1.4480     0.7530 H     1 <1>   0.0800 
 31 H        0.4090     3.9160     1.0410 H     1 <1>   0.0800 
 32 H       -0.9920     5.0510    -1.3810 H     1 <1>   0.0800 
 33 H        1.8460     4.4010    -1.5380 H     1 <1>   0.0800 
 34 H        2.5190     4.2170     0.0720 H     1 <1>   0.0800 
 35 H       -1.4490     5.1150     1.4160 H     1 <1>   0.4000 
 36 H       -0.0670     6.8910     0.7560 H     1 <1>   0.0800 
 37 H       -0.1320     7.1400    -0.9870 H     1 <1>   0.0800 
 38 H        2.2840     7.9940     1.7790 H     1 <1>   0.1500 
 39 H        1.3700    10.5560    -1.5130 H     1 <1>   0.1500 
 40 H        1.0940     9.5190     3.2900 H     1 <1>   0.1500 
 41 H        0.1780    12.0710     0.0050 H     1 <1>   0.1500 
 42 H        0.0350    11.5550     2.4050 H     1 <1>   0.1500 
@<TRIPOS>BOND
  1   1   2  1   
  2   1   3  1   
  3   2   4  2   
  4   3   5  2   
  5   3   6  1   
  6   4   5  1   
  7   4   7  1   
  8   5  25  1   
  9   6   8  1   
 10   6  26  1   
 11   6  27  1   
 12   7  28  1   
 13   7  29  1   
 14   7  30  1   
 15   8   9  1   
 16   8  10  1   
 17   8  31  1   
 18   9  11  1   
 19   9  12  1   
 20   9  32  1   
 21  10  13  1   
 22  10  33  1   
 23  10  34  1   
 24  11  35  1   
 25  12  13  1   
 26  12  36  1   
 27  12  37  1   
 28  13  14  1   
 29  14  15  2   
 30  14  16  1   
 31  15  17  1   
 32  16  18  1   
 33  16  19  1   
 34  17  18  2   
 35  19  20  ar  
 36  19  21  ar  
 37  20  22  ar  
 38  20  38  1   
 39  21  23  ar  
 40  21  39  1   
 41  22  24  ar  
 42  22  40  1   
 43  23  24  ar  
 44  23  41  1   
 45  24  42  1   
@<TRIPOS>SUBSTRUCTURE
  1 ****  13 GROUP 4 **** **** 0

# MOE 2024.06 (io_trps.svl 2023.06)
