@<TRIPOS>MOLECULE
NONAME
43 45 1 0 0 
SMALL
USER_CHARGES


@<TRIPOS>ATOM
  1 S        0.0140    -0.4510    -0.5220 S.3   1 <1>  -0.0800 
  2 C       -1.6590    -0.8700    -0.3360 C.2   1 <1>   0.4420 
  3 C       -0.4430     1.1920    -0.2310 C.2   1 <1>   0.1980 
  4 N       -2.3870     0.1580    -0.0890 N.2   1 <1>  -0.3380 
  5 N       -1.9840    -2.2020    -0.4700 N.am  1 <1>  -0.4940 
  6 N       -1.6880     1.3300    -0.0310 N.2   1 <1>  -0.3380 
  7 C        0.6270     2.2610    -0.2400 C.3   1 <1>   0.0200 
  8 C       -3.2020    -2.8050    -0.3770 C.2   1 <1>   0.6300 
  9 C       -0.0260     3.6140     0.0670 C.3   1 <1>   0.3430 
 10 O       -4.2330    -2.2230    -0.1630 O.2   1 <1>  -0.5700 
 11 C       -3.2380    -4.3090    -0.5700 C.3   1 <1>  -0.1000 
 12 N        0.9630     4.7420     0.1450 N.4   1 <1>  -0.9590 
 13 C       -3.7700    -5.1790     0.5290 C.3   1 <1>  -0.0680 
 14 C       -2.3170    -5.2360     0.1700 C.3   1 <1>  -0.2000 
 15 C        0.2920     5.9540     0.7130 C.3   1 <1>   0.2630 
 16 C        1.5670     5.0700    -1.1860 C.3   1 <1>   0.2630 
 17 C       -4.7090    -6.3150     0.1690 C.ar  1 <1>  -0.0320 
 18 C       -5.9140    -6.0380    -0.4560 C.ar  1 <1>  -0.1500 
 19 C       -4.3800    -7.6280     0.4630 C.ar  1 <1>  -0.1500 
 20 C       -6.7790    -7.0650    -0.7930 C.ar  1 <1>  -0.1500 
 21 C       -5.2430    -8.6570     0.1270 C.ar  1 <1>  -0.1500 
 22 C       -6.4430    -8.3750    -0.5020 C.ar  1 <1>  -0.1500 
 23 H       -1.2100    -2.8290    -0.6640 H     1 <1>   0.3700 
 24 H        1.3600     2.0220     0.5090 H     1 <1>   0.0800 
 25 H        1.0890     2.2710    -1.2100 H     1 <1>   0.0800 
 26 H       -0.5450     3.5280     1.0090 H     1 <1>   0.0800 
 27 H       -0.7660     3.8270    -0.6880 H     1 <1>   0.0800 
 28 H       -3.5220    -4.5720    -1.5720 H     1 <1>   0.1000 
 29 H        1.7190     4.4720     0.7950 H     1 <1>   0.4500 
 30 H       -4.0460    -4.6950     1.4510 H     1 <1>   0.1000 
 31 H       -1.9470    -6.1090    -0.3400 H     1 <1>   0.1000 
 32 H       -1.6180    -4.8520     0.8920 H     1 <1>   0.1000 
 33 H       -0.5120     6.2730     0.0700 H     1 <1>   0.0800 
 34 H        0.9980     6.7630     0.8100 H     1 <1>   0.0800 
 35 H       -0.1140     5.7360     1.6880 H     1 <1>   0.0800 
 36 H        0.7970     5.3430    -1.8910 H     1 <1>   0.0800 
 37 H        2.1080     4.2240    -1.5770 H     1 <1>   0.0800 
 38 H        2.2530     5.8970    -1.0910 H     1 <1>   0.0800 
 39 H       -6.1780    -5.0180    -0.6790 H     1 <1>   0.1500 
 40 H       -3.4500    -7.8510     0.9560 H     1 <1>   0.1500 
 41 H       -7.7130    -6.8430    -1.2790 H     1 <1>   0.1500 
 42 H       -4.9820    -9.6760     0.3570 H     1 <1>   0.1500 
 43 H       -7.1150    -9.1740    -0.7640 H     1 <1>   0.1500 
@<TRIPOS>BOND
  1   1   2  1   
  2   1   3  1   
  3   2   4  2   
  4   2   5  1   
  5   3   6  2   
  6   3   7  1   
  7   4   6  1   
  8   5   8  am  
  9   5  23  1   
 10   7   9  1   
 11   7  24  1   
 12   7  25  1   
 13   8  10  2   
 14   8  11  1   
 15   9  12  1   
 16   9  26  1   
 17   9  27  1   
 18  11  13  1   
 19  11  14  1   
 20  11  28  1   
 21  12  15  1   
 22  12  16  1   
 23  12  29  1   
 24  13  14  1   
 25  13  17  1   
 26  13  30  1   
 27  14  31  1   
 28  14  32  1   
 29  15  33  1   
 30  15  34  1   
 31  15  35  1   
 32  16  36  1   
 33  16  37  1   
 34  16  38  1   
 35  17  18  ar  
 36  17  19  ar  
 37  18  20  ar  
 38  18  39  1   
 39  19  21  ar  
 40  19  40  1   
 41  20  22  ar  
 42  20  41  1   
 43  21  22  ar  
 44  21  42  1   
 45  22  43  1   
@<TRIPOS>SUBSTRUCTURE
  1 ****   5 GROUP 4 **** **** 0

# MOE 2024.06 (io_trps.svl 2023.06)
