@<TRIPOS>MOLECULE
NONAME
51 53 1 0 0 
SMALL
USER_CHARGES


@<TRIPOS>ATOM
  1 S       -0.1060    -0.7360    -0.6770 S.o2  1 <1>   1.3330 
  2 O        0.2430    -0.4600    -2.0530 O.2   1 <1>  -0.6500 
  3 O       -1.0500    -1.7860    -0.3670 O.2   1 <1>  -0.6500 
  4 N       -0.6090     0.7120     0.0530 N.am  1 <1>  -0.8490 
  5 C        1.3910    -1.1270     0.2130 C.3   1 <1>  -0.0550 
  6 C       -1.9410     0.7310     0.6960 C.3   1 <1>   0.1960 
  7 C       -0.2740     1.9640    -0.6330 C.3   1 <1>   0.1960 
  8 C        2.4730    -0.0810    -0.0120 C.3   1 <1>   0.1200 
  9 C       -3.1060     1.1890    -0.2340 C.3   1 <1>   0.0000 
 10 C       -1.3610     2.3790    -1.6290 C.3   1 <1>  -0.1600 
 11 O        3.6310    -0.4900     0.6780 O.3   1 <1>  -0.3630 
 12 C       -4.4140     1.3420     0.5650 C.3   1 <1>   0.2000 
 13 C       -2.7230     2.5070    -0.9350 C.3   1 <1>  -0.1600 
 14 C       -3.5180     0.1080    -1.2490 C.3   1 <1>  -0.1600 
 15 C        4.7530     0.2720     0.6770 C.ar  1 <1>   0.0820 
 16 O       -4.1930     1.9190     1.8180 O.3   1 <1>  -0.5600 
 17 C       -4.9890    -0.0720     0.6960 C.3   1 <1>  -0.1600 
 18 C       -4.3920    -0.8760    -0.4670 C.3   1 <1>  -0.1600 
 19 C        4.8860     1.4570    -0.0440 C.ar  1 <1>  -0.1500 
 20 C        5.8140    -0.1780     1.4470 C.ar  1 <1>  -0.1500 
 21 C       -5.3400     2.3720     2.4660 C.3   1 <1>   0.0400 
 22 C        6.0690     2.1740     0.0150 C.ar  1 <1>  -0.1500 
 23 C        6.9950     0.5400     1.5050 C.ar  1 <1>  -0.1500 
 24 C        7.1220     1.7180     0.7890 C.ar  1 <1>  -0.1500 
 25 H        1.1740    -1.1920     1.2610 H     1 <1>   0.0800 
 26 H        1.7560    -2.0780    -0.1230 H     1 <1>   0.0800 
 27 H       -2.1630    -0.2280     1.1310 H     1 <1>   0.0800 
 28 H       -1.8760     1.4260     1.5150 H     1 <1>   0.0800 
 29 H       -0.1700     2.7400     0.1070 H     1 <1>   0.0800 
 30 H        0.6690     1.8730    -1.1450 H     1 <1>   0.0800 
 31 H        2.1680     0.8730     0.3800 H     1 <1>   0.0800 
 32 H        2.7100     0.0000    -1.0600 H     1 <1>   0.0800 
 33 H       -1.0930     3.3250    -2.0650 H     1 <1>   0.0800 
 34 H       -1.4100     1.6590    -2.4270 H     1 <1>   0.0800 
 35 H       -5.0960     1.9630     0.0080 H     1 <1>   0.0800 
 36 H       -3.4740     2.7860    -1.6540 H     1 <1>   0.0800 
 37 H       -2.6690     3.2900    -0.1980 H     1 <1>   0.0800 
 38 H       -4.1220     0.5530    -2.0210 H     1 <1>   0.0800 
 39 H       -2.6900    -0.3780    -1.7270 H     1 <1>   0.0800 
 40 H       -4.6880    -0.5150     1.6300 H     1 <1>   0.0800 
 41 H       -6.0620    -0.0500     0.6330 H     1 <1>   0.0800 
 42 H       -3.7820    -1.6760    -0.0800 H     1 <1>   0.0800 
 43 H       -5.1560    -1.2990    -1.0960 H     1 <1>   0.0800 
 44 H        4.0890     1.8340    -0.6540 H     1 <1>   0.1500 
 45 H        5.7080    -1.0940     2.0010 H     1 <1>   0.1500 
 46 H       -5.0430     2.8110     3.4020 H     1 <1>   0.0800 
 47 H       -6.0010     1.5440     2.6500 H     1 <1>   0.0800 
 48 H       -5.8230     3.1160     1.8560 H     1 <1>   0.0800 
 49 H        6.1720     3.0890    -0.5420 H     1 <1>   0.1500 
 50 H        7.8130     0.1840     2.1060 H     1 <1>   0.1500 
 51 H        8.0410     2.2770     0.8330 H     1 <1>   0.1500 
@<TRIPOS>BOND
  1   1   2  2   
  2   1   3  2   
  3   1   4  am  
  4   1   5  1   
  5   4   6  1   
  6   4   7  1   
  7   5   8  1   
  8   5  25  1   
  9   5  26  1   
 10   6   9  1   
 11   6  27  1   
 12   6  28  1   
 13   7  10  1   
 14   7  29  1   
 15   7  30  1   
 16   8  11  1   
 17   8  31  1   
 18   8  32  1   
 19   9  12  1   
 20   9  13  1   
 21   9  14  1   
 22  10  13  1   
 23  10  33  1   
 24  10  34  1   
 25  11  15  1   
 26  12  16  1   
 27  12  17  1   
 28  12  35  1   
 29  13  36  1   
 30  13  37  1   
 31  14  18  1   
 32  14  38  1   
 33  14  39  1   
 34  15  19  ar  
 35  15  20  ar  
 36  16  21  1   
 37  17  18  1   
 38  17  40  1   
 39  17  41  1   
 40  18  42  1   
 41  18  43  1   
 42  19  22  ar  
 43  19  44  1   
 44  20  23  ar  
 45  20  45  1   
 46  21  46  1   
 47  21  47  1   
 48  21  48  1   
 49  22  24  ar  
 50  22  49  1   
 51  23  24  ar  
 52  23  50  1   
 53  24  51  1   
@<TRIPOS>SUBSTRUCTURE
  1 ****   4 GROUP 4 **** **** 0

# MOE 2024.06 (io_trps.svl 2023.06)
