@<TRIPOS>MOLECULE
NONAME
39 40 1 0 0 
SMALL
USER_CHARGES


@<TRIPOS>ATOM
  1 CL       1.2270     2.4920     0.4190 Cl    1 <1>  -0.1770 
  2 C       -0.5070     2.3460     0.5810 C.ar  1 <1>   0.1770 
  3 C       -1.3410     2.6120    -0.5030 C.ar  1 <1>  -0.1440 
  4 C       -1.0120     1.9760     1.8130 C.ar  1 <1>  -0.1500 
  5 C       -2.7170     2.5130    -0.3300 C.ar  1 <1>  -0.1500 
  6 C       -0.7920     3.0150    -1.8710 C.3   1 <1>   0.0450 
  7 C       -2.3820     1.8830     1.9440 C.ar  1 <1>   0.1900 
  8 C       -3.2460     2.1460     0.8970 C.ar  1 <1>  -0.1500 
  9 C       -0.5920     4.5160    -1.9870 C.2   1 <1>   0.5690 
 10 F       -2.8800     1.5360     3.1000 F     1 <1>  -0.1900 
 11 O       -1.2230     5.1120    -2.8220 O.2   1 <1>  -0.5700 
 12 N        0.2980     5.1110    -1.1400 N.am  1 <1>  -0.4940 
 13 C        0.6550     6.4370    -1.0340 C.2   1 <1>   0.4420 
 14 S        1.8040     6.8380     0.2020 S.3   1 <1>  -0.0800 
 15 N        0.2860     7.4710    -1.7010 N.2   1 <1>  -0.3380 
 16 C        1.6800     8.4820    -0.3230 C.2   1 <1>   0.1980 
 17 N        0.8740     8.6320    -1.2900 N.2   1 <1>  -0.3380 
 18 C        2.5020     9.5360     0.3840 C.3   1 <1>   0.0200 
 19 C        2.2400    10.8930    -0.2830 C.3   1 <1>   0.3430 
 20 N        3.0590    12.0060     0.3040 N.4   1 <1>  -0.9590 
 21 C        2.6460    12.3490     1.7030 C.3   1 <1>   0.2630 
 22 C        2.9510    13.2170    -0.5700 C.3   1 <1>   0.2630 
 23 H       -0.3640     1.7690     2.6440 H     1 <1>   0.1500 
 24 H       -3.3860     2.7240    -1.1490 H     1 <1>   0.1500 
 25 H       -1.4790     2.7030    -2.6370 H     1 <1>   0.0800 
 26 H        0.1390     2.5190    -2.0720 H     1 <1>   0.0800 
 27 H       -4.3080     2.0650     1.0440 H     1 <1>   0.1500 
 28 H        0.7530     4.4880    -0.4750 H     1 <1>   0.3700 
 29 H        3.5410     9.2760     0.3010 H     1 <1>   0.0800 
 30 H        2.2130     9.5570     1.4180 H     1 <1>   0.0800 
 31 H        1.1900    11.1280    -0.2020 H     1 <1>   0.0800 
 32 H        2.4660    10.7970    -1.3330 H     1 <1>   0.0800 
 33 H        4.0500    11.7160     0.3120 H     1 <1>   0.4500 
 34 H        1.6080    12.6440     1.7260 H     1 <1>   0.0800 
 35 H        3.2420    13.1650     2.0800 H     1 <1>   0.0800 
 36 H        2.7790    11.5020     2.3560 H     1 <1>   0.0800 
 37 H        1.9290    13.5580    -0.6150 H     1 <1>   0.0800 
 38 H        3.2820    12.9890    -1.5710 H     1 <1>   0.0800 
 39 H        3.5630    14.0160    -0.1820 H     1 <1>   0.0800 
@<TRIPOS>BOND
  1   1   2  1   
  2   2   3  ar  
  3   2   4  ar  
  4   3   5  ar  
  5   3   6  1   
  6   4   7  ar  
  7   4  23  1   
  8   5   8  ar  
  9   5  24  1   
 10   6   9  1   
 11   6  25  1   
 12   6  26  1   
 13   7   8  ar  
 14   7  10  1   
 15   8  27  1   
 16   9  11  2   
 17   9  12  am  
 18  12  13  1   
 19  12  28  1   
 20  13  14  1   
 21  13  15  2   
 22  14  16  1   
 23  15  17  1   
 24  16  17  2   
 25  16  18  1   
 26  18  19  1   
 27  18  29  1   
 28  18  30  1   
 29  19  20  1   
 30  19  31  1   
 31  19  32  1   
 32  20  21  1   
 33  20  22  1   
 34  20  33  1   
 35  21  34  1   
 36  21  35  1   
 37  21  36  1   
 38  22  37  1   
 39  22  38  1   
 40  22  39  1   
@<TRIPOS>SUBSTRUCTURE
  1 ****  13 GROUP 4 **** **** 0

# MOE 2024.06 (io_trps.svl 2023.06)
