@<TRIPOS>MOLECULE
NONAME
35 37 1 0 0 
SMALL
USER_CHARGES


@<TRIPOS>ATOM
  1 O       -1.0800     0.4400     1.2220 O.2   1 <1>  -0.5700 
  2 C       -1.9060     0.9800     0.5040 C.2   1 <1>   0.7160 
  3 N       -2.9320     0.1860     0.0240 N.am  1 <1>  -0.6600 
  4 C       -1.7690     2.4010     0.2040 C.2   1 <1>   0.2030 
  5 C       -4.1420     0.6420    -0.7110 C.3   1 <1>   0.1400 
  6 C       -2.9620    -1.2880     0.1980 C.3   1 <1>   0.1400 
  7 N       -2.4730     3.1270    -0.6190 N.2   1 <1>  -0.4100 
  8 C       -0.8090     3.2240     0.7770 C.2   1 <1>  -0.1500 
  9 C       -5.1160    -0.5310    -0.6060 C.3   1 <1>   0.2000 
 10 C       -4.2000    -1.7590    -0.5730 C.3   1 <1>  -0.0800 
 11 O       -2.0470     4.3660    -0.6230 O.3   1 <1>  -0.0190 
 12 C       -1.0430     4.4150     0.2210 C.2   1 <1>  -0.0100 
 13 O       -5.7930    -0.4250     0.6000 O.3   1 <1>  -0.6800 
 14 C       -4.8350    -3.0430    -0.0080 C.3   1 <1>  -0.0170 
 15 C       -3.8580    -4.2070    -0.0830 C.ar  1 <1>  -0.1430 
 16 C       -3.6740    -4.9260    -1.2460 C.ar  1 <1>  -0.1500 
 17 C       -3.1040    -4.6020     1.0040 C.ar  1 <1>  -0.1500 
 18 C       -2.7660    -5.9720    -1.2680 C.ar  1 <1>   0.1600 
 19 C       -2.2220    -5.6620     0.8760 C.ar  1 <1>   0.1600 
 20 N       -2.0340    -6.3560    -0.2350 N.ar  1 <1>  -0.6200 
 21 H       -4.5600     1.5400    -0.2890 H     1 <1>   0.0800 
 22 H       -3.8810     0.8150    -1.7410 H     1 <1>   0.0800 
 23 H       -2.0620    -1.7390    -0.1860 H     1 <1>   0.0800 
 24 H       -3.0510    -1.5140     1.2470 H     1 <1>   0.0800 
 25 H       -0.0700     2.9230     1.4980 H     1 <1>   0.1500 
 26 H       -5.8390    -0.5550    -1.4040 H     1 <1>   0.0800 
 27 H       -3.8870    -1.9560    -1.5830 H     1 <1>   0.0800 
 28 H       -0.5420     5.3550     0.3670 H     1 <1>   0.1500 
 29 H       -5.1480    -0.2230     1.3070 H     1 <1>   0.4000 
 30 H       -5.7190    -3.2830    -0.5720 H     1 <1>   0.0800 
 31 H       -5.1370    -2.8960     1.0140 H     1 <1>   0.0800 
 32 H       -4.2260    -4.6840    -2.1360 H     1 <1>   0.1500 
 33 H       -3.1900    -4.0970     1.9480 H     1 <1>   0.1500 
 34 H       -2.6350    -6.5220    -2.1850 H     1 <1>   0.1500 
 35 H       -1.6410    -5.9560     1.7330 H     1 <1>   0.1500 
@<TRIPOS>BOND
  1   1   2  2   
  2   2   3  am  
  3   2   4  1   
  4   3   5  1   
  5   3   6  1   
  6   4   7  2   
  7   4   8  1   
  8   5   9  1   
  9   5  21  1   
 10   5  22  1   
 11   6  10  1   
 12   6  23  1   
 13   6  24  1   
 14   7  11  1   
 15   8  12  2   
 16   8  25  1   
 17   9  10  1   
 18   9  13  1   
 19   9  26  1   
 20  10  14  1   
 21  10  27  1   
 22  11  12  1   
 23  12  28  1   
 24  13  29  1   
 25  14  15  1   
 26  14  30  1   
 27  14  31  1   
 28  15  16  ar  
 29  15  17  ar  
 30  16  18  ar  
 31  16  32  1   
 32  17  19  ar  
 33  17  33  1   
 34  18  20  ar  
 35  18  34  1   
 36  19  20  ar  
 37  19  35  1   
@<TRIPOS>SUBSTRUCTURE
  1 ****   6 GROUP 4 **** **** 0

# MOE 2024.06 (io_trps.svl 2023.06)
