@<TRIPOS>MOLECULE
NONAME
51 53 1 0 0 
SMALL
USER_CHARGES


@<TRIPOS>ATOM
  1 O       -2.0510     0.5210     1.7820 O.2   1 <1>  -0.5700 
  2 C       -2.3230     0.7640     0.6090 C.2   1 <1>   0.5440 
  3 N       -3.2760    -0.0540     0.0460 N.am  1 <1>  -0.6600 
  4 C       -1.7070     1.8860    -0.0670 C.ar  1 <1>   0.0860 
  5 C       -3.0840    -1.5320    -0.0750 C.3   1 <1>   0.3640 
  6 C       -4.4840     0.5420    -0.5910 C.3   1 <1>   0.1400 
  7 C       -1.6710     2.1200    -1.4660 C.ar  1 <1>  -0.1710 
  8 C       -1.0590     2.8670     0.6840 C.ar  1 <1>  -0.1500 
  9 C       -1.6110    -1.9440     0.0500 C.ar  1 <1>  -0.1440 
 10 C       -3.6590    -2.0890    -1.4080 C.3   1 <1>   0.2000 
 11 C       -4.8940    -0.1850    -1.8780 C.3   1 <1>   0.1200 
 12 O       -2.1730     1.3380    -2.3140 O.3   1 <1>  -0.8290 
 13 C       -1.0280     3.2830    -1.9380 C.ar  1 <1>   0.1600 
 14 C       -0.4590     3.9620     0.1060 C.ar  1 <1>   0.1660 
 15 C       -1.2120    -2.8530     1.0180 C.ar  1 <1>  -0.1500 
 16 C       -0.6600    -1.4340    -0.8200 C.ar  1 <1>  -0.1500 
 17 O       -4.9380    -1.5670    -1.6620 O.3   1 <1>  -0.5600 
 18 C       -3.7900    -3.6210    -1.4110 C.3   1 <1>   0.1200 
 19 N       -0.4370     4.1910    -1.2060 N.ar  1 <1>  -0.6200 
 20 C        0.2340     5.0060     0.9550 C.3   1 <1>  -0.0970 
 21 C        0.1070    -3.2680     1.1180 C.ar  1 <1>   0.0820 
 22 C        0.6640    -1.8190    -0.7220 C.ar  1 <1>  -0.1500 
 23 O       -2.5500    -4.2470    -1.5260 O.3   1 <1>  -0.6800 
 24 O        0.3500    -4.1940     2.0870 O.3   1 <1>  -0.3630 
 25 C        1.0710    -2.7280     0.2500 C.ar  1 <1>   0.0820 
 26 C        1.3050    -5.2110     1.8810 C.3   1 <1>   0.0400 
 27 O        2.3850    -3.0770     0.3740 O.3   1 <1>  -0.3630 
 28 C        3.3970    -2.1910    -0.0520 C.3   1 <1>   0.0400 
 29 H       -3.6320    -1.9830     0.7320 H     1 <1>   0.0800 
 30 H       -5.2970     0.5000     0.1100 H     1 <1>   0.0800 
 31 H       -4.2990     1.5760    -0.8230 H     1 <1>   0.0800 
 32 H       -1.0330     2.7540     1.7510 H     1 <1>   0.1500 
 33 H       -3.0250    -1.7960    -2.2290 H     1 <1>   0.0800 
 34 H       -4.1970     0.0300    -2.6710 H     1 <1>   0.0800 
 35 H       -5.8700     0.1370    -2.1880 H     1 <1>   0.0800 
 36 H       -1.0360     3.4120    -3.0040 H     1 <1>   0.1500 
 37 H       -1.9270    -3.2540     1.7120 H     1 <1>   0.1500 
 38 H       -0.9510    -0.7160    -1.5730 H     1 <1>   0.1500 
 39 H       -4.3830    -3.9350    -2.2520 H     1 <1>   0.0800 
 40 H       -4.2530    -3.9590    -0.5020 H     1 <1>   0.0800 
 41 H        0.1800     4.7530     1.9970 H     1 <1>   0.0800 
 42 H       -0.2350     5.9590     0.7990 H     1 <1>   0.0800 
 43 H        1.2660     5.0730     0.6630 H     1 <1>   0.0800 
 44 H        1.3570    -1.3870    -1.4170 H     1 <1>   0.1500 
 45 H       -1.8780    -3.7860    -0.9740 H     1 <1>   0.4000 
 46 H        1.0760    -6.0250     2.5440 H     1 <1>   0.0800 
 47 H        2.2800    -4.8200     2.1070 H     1 <1>   0.0800 
 48 H        1.2530    -5.5400     0.8580 H     1 <1>   0.0800 
 49 H        4.3350    -2.5440     0.3360 H     1 <1>   0.0800 
 50 H        3.1870    -1.2090     0.3340 H     1 <1>   0.0800 
 51 H        3.4270    -2.1840    -1.1270 H     1 <1>   0.0800 
@<TRIPOS>BOND
  1   1   2  2   
  2   2   3  am  
  3   2   4  1   
  4   3   5  1   
  5   3   6  1   
  6   4   7  ar  
  7   4   8  ar  
  8   5   9  1   
  9   5  10  1   
 10   5  29  1   
 11   6  11  1   
 12   6  30  1   
 13   6  31  1   
 14   7  12  1   
 15   7  13  ar  
 16   8  14  ar  
 17   8  32  1   
 18   9  15  ar  
 19   9  16  ar  
 20  10  17  1   
 21  10  18  1   
 22  10  33  1   
 23  11  17  1   
 24  11  34  1   
 25  11  35  1   
 26  13  19  ar  
 27  13  36  1   
 28  14  19  ar  
 29  14  20  1   
 30  15  21  ar  
 31  15  37  1   
 32  16  22  ar  
 33  16  38  1   
 34  18  23  1   
 35  18  39  1   
 36  18  40  1   
 37  20  41  1   
 38  20  42  1   
 39  20  43  1   
 40  21  24  1   
 41  21  25  ar  
 42  22  25  ar  
 43  22  44  1   
 44  23  45  1   
 45  24  26  1   
 46  25  27  1   
 47  26  46  1   
 48  26  47  1   
 49  26  48  1   
 50  27  28  1   
 51  28  49  1   
 52  28  50  1   
 53  28  51  1   
@<TRIPOS>SUBSTRUCTURE
  1 ****  16 GROUP 4 **** **** 0

# MOE 2024.06 (io_trps.svl 2023.06)
