@<TRIPOS>MOLECULE
NONAME
40 41 1 0 0 
SMALL
USER_CHARGES


@<TRIPOS>ATOM
  1 O        0.1460     2.1410    -1.6020 O.co2 1 <1>  -0.9000 
  2 C       -0.3080     3.2910    -1.5200 C.2   1 <1>   0.9790 
  3 O       -0.1020     4.1030    -2.4440 O.co2 1 <1>  -0.9000 
  4 C       -1.0150     3.7530    -0.3630 C.ar  1 <1>  -0.1790 
  5 C       -0.3120     4.2550     0.7380 C.ar  1 <1>   0.4100 
  6 C       -2.4000     3.7960    -0.3420 C.ar  1 <1>  -0.1500 
  7 N       -0.8950     4.8960     1.7460 N.ar  1 <1>  -0.6200 
  8 N        1.0610     4.1690     0.8650 N.pl3 1 <1>  -0.8380 
  9 C       -3.0070     4.3820     0.7440 C.ar  1 <1>  -0.1500 
 10 C       -2.2150     4.9170     1.7430 C.ar  1 <1>   0.1600 
 11 C        1.9730     4.9130    -0.0700 C.3   1 <1>   0.2090 
 12 C        1.5390     2.7900     1.1510 C.3   1 <1>   0.2090 
 13 C        1.8610     6.4440     0.0690 C.3   1 <1>   0.3430 
 14 C        2.4360     2.8270     2.3830 C.3   1 <1>  -0.2400 
 15 N        0.4570     6.9360    -0.0200 N.4   1 <1>  -0.9590 
 16 C       -0.1530     6.7850    -1.3750 C.3   1 <1>   0.3430 
 17 C        0.2390     8.3080     0.4730 C.3   1 <1>   0.3430 
 18 C       -0.8530     8.1090    -1.6540 C.3   1 <1>  -0.1600 
 19 C       -0.9820     8.7860    -0.2930 C.3   1 <1>  -0.1600 
 20 H       -2.9680     3.3880    -1.1620 H     1 <1>   0.1500 
 21 H       -4.0780     4.4290     0.8120 H     1 <1>   0.1500 
 22 H       -2.6970     5.3850     2.5840 H     1 <1>   0.1500 
 23 H        1.7960     4.6260    -1.0890 H     1 <1>   0.0800 
 24 H        2.9900     4.6390     0.1460 H     1 <1>   0.0800 
 25 H        2.0690     2.3940     0.2990 H     1 <1>   0.0800 
 26 H        0.6990     2.1400     1.3380 H     1 <1>   0.0800 
 27 H        2.4630     6.9150    -0.6890 H     1 <1>   0.0800 
 28 H        2.2650     6.7090     1.0310 H     1 <1>   0.0800 
 29 H        3.3030     3.4330     2.2030 H     1 <1>   0.0800 
 30 H        2.7550     1.8300     2.6230 H     1 <1>   0.0800 
 31 H        1.8850     3.2230     3.2170 H     1 <1>   0.0800 
 32 H       -0.0650     6.2780     0.6030 H     1 <1>   0.4500 
 33 H       -0.8770     5.9870    -1.3620 H     1 <1>   0.0800 
 34 H        0.5850     6.5590    -2.1280 H     1 <1>   0.0800 
 35 H        1.0860     8.9240     0.2210 H     1 <1>   0.0800 
 36 H        0.0790     8.3230     1.5390 H     1 <1>   0.0800 
 37 H       -1.8060     7.9490    -2.1280 H     1 <1>   0.0800 
 38 H       -0.2340     8.6960    -2.3100 H     1 <1>   0.0800 
 39 H       -1.0130     9.8590    -0.3690 H     1 <1>   0.0800 
 40 H       -1.8700     8.4410     0.2090 H     1 <1>   0.0800 
@<TRIPOS>BOND
  1   1   2  ar  
  2   2   3  ar  
  3   2   4  1   
  4   4   5  ar  
  5   4   6  ar  
  6   5   7  ar  
  7   5   8  1   
  8   6   9  ar  
  9   6  20  1   
 10   7  10  ar  
 11   8  11  1   
 12   8  12  1   
 13   9  10  ar  
 14   9  21  1   
 15  10  22  1   
 16  11  13  1   
 17  11  23  1   
 18  11  24  1   
 19  12  14  1   
 20  12  25  1   
 21  12  26  1   
 22  13  15  1   
 23  13  27  1   
 24  13  28  1   
 25  14  29  1   
 26  14  30  1   
 27  14  31  1   
 28  15  16  1   
 29  15  17  1   
 30  15  32  1   
 31  16  18  1   
 32  16  33  1   
 33  16  34  1   
 34  17  19  1   
 35  17  35  1   
 36  17  36  1   
 37  18  19  1   
 38  18  37  1   
 39  18  38  1   
 40  19  39  1   
 41  19  40  1   
@<TRIPOS>SUBSTRUCTURE
  1 ****   5 GROUP 4 **** **** 0

# MOE 2024.06 (io_trps.svl 2023.06)
