@<TRIPOS>MOLECULE
NONAME
48 50 1 0 0 
SMALL
USER_CHARGES


@<TRIPOS>ATOM
  1 CL      -0.6260     0.5280    -0.1930 Cl    1 <1>  -0.1230 
  2 C        0.3340    -0.9380    -0.1330 C.2   1 <1>   0.1230 
  3 C        1.5610    -1.0810     0.4220 C.2   1 <1>  -0.3020 
  4 C       -0.0580    -2.1580    -0.6620 C.2   1 <1>  -0.1500 
  5 N        1.9560    -2.3690     0.2550 N.pl3 1 <1>   0.0480 
  6 C        0.9570    -3.0510    -0.4080 C.2   1 <1>  -0.2370 
  7 C        3.2500    -2.9170     0.7090 C.3   1 <1>   0.0160 
  8 C        1.0380    -4.4470    -0.7560 C.2   1 <1>   0.7150 
  9 O        2.0860    -4.8940    -1.1820 O.2   1 <1>  -0.5700 
 10 N       -0.0390    -5.2980    -0.6110 N.am  1 <1>  -0.6600 
 11 C       -0.1280    -6.5900    -1.3740 C.3   1 <1>   0.1400 
 12 C       -1.2170    -4.9680     0.2360 C.3   1 <1>   0.1400 
 13 C       -0.4350    -7.8020    -0.4590 C.3   1 <1>   0.0000 
 14 C       -1.5270    -6.1310     1.1770 C.3   1 <1>  -0.1600 
 15 C       -1.6860    -7.4240     0.3780 C.3   1 <1>   0.2000 
 16 C       -0.8390    -9.0150    -1.3360 C.3   1 <1>   0.1200 
 17 C        0.7940    -8.1220     0.4530 C.3   1 <1>  -0.0160 
 18 O       -2.0330    -8.4340     1.2590 O.3   1 <1>  -0.6800 
 19 O        0.0550    -9.2200    -2.3780 O.3   1 <1>  -0.6800 
 20 C        1.9190    -8.9100    -0.2120 C.ar  1 <1>  -0.1440 
 21 C        2.9160    -8.2650    -0.9250 C.ar  1 <1>  -0.1500 
 22 C        1.9520   -10.2940    -0.1100 C.ar  1 <1>  -0.1500 
 23 C        3.9200    -8.9890    -1.5430 C.ar  1 <1>  -0.1500 
 24 C        2.9550   -11.0210    -0.7260 C.ar  1 <1>  -0.1500 
 25 C        3.9400   -10.3680    -1.4450 C.ar  1 <1>  -0.1500 
 26 H        2.1570    -0.3350     0.9130 H     1 <1>   0.1500 
 27 H       -0.9850    -2.3350    -1.1770 H     1 <1>   0.1500 
 28 H        3.7560    -2.1960     1.3240 H     1 <1>   0.0800 
 29 H        3.8550    -3.1470    -0.1490 H     1 <1>   0.0800 
 30 H        3.0790    -3.8150     1.2740 H     1 <1>   0.0800 
 31 H       -0.9130    -6.4930    -2.1050 H     1 <1>   0.0800 
 32 H        0.7810    -6.7680    -1.9210 H     1 <1>   0.0800 
 33 H       -1.0300    -4.0900     0.8290 H     1 <1>   0.0800 
 34 H       -2.0630    -4.7740    -0.4010 H     1 <1>   0.0800 
 35 H       -2.4430    -5.9160     1.6980 H     1 <1>   0.0800 
 36 H       -0.7360    -6.2170     1.8990 H     1 <1>   0.0800 
 37 H       -2.5240    -7.3050    -0.2900 H     1 <1>   0.0800 
 38 H       -1.8050    -8.8550    -1.7830 H     1 <1>   0.0800 
 39 H       -0.8850    -9.9160    -0.7480 H     1 <1>   0.0800 
 40 H        1.2060    -7.2080     0.8430 H     1 <1>   0.0800 
 41 H        0.4760    -8.6950     1.3030 H     1 <1>   0.0800 
 42 H       -1.4060    -8.4660     2.0060 H     1 <1>   0.4000 
 43 H        0.9590    -9.3680    -2.0130 H     1 <1>   0.4000 
 44 H        2.9200    -7.1930    -1.0080 H     1 <1>   0.1500 
 45 H        1.1920   -10.8170     0.4450 H     1 <1>   0.1500 
 46 H        4.6860    -8.4750    -2.0980 H     1 <1>   0.1500 
 47 H        2.9710   -12.0940    -0.6460 H     1 <1>   0.1500 
 48 H        4.7210   -10.9310    -1.9270 H     1 <1>   0.1500 
@<TRIPOS>BOND
  1   1   2  1   
  2   2   3  2   
  3   2   4  1   
  4   3   5  1   
  5   3  26  1   
  6   4   6  2   
  7   4  27  1   
  8   5   6  1   
  9   5   7  1   
 10   6   8  1   
 11   7  28  1   
 12   7  29  1   
 13   7  30  1   
 14   8   9  2   
 15   8  10  am  
 16  10  11  1   
 17  10  12  1   
 18  11  13  1   
 19  11  31  1   
 20  11  32  1   
 21  12  14  1   
 22  12  33  1   
 23  12  34  1   
 24  13  15  1   
 25  13  16  1   
 26  13  17  1   
 27  14  15  1   
 28  14  35  1   
 29  14  36  1   
 30  15  18  1   
 31  15  37  1   
 32  16  19  1   
 33  16  38  1   
 34  16  39  1   
 35  17  20  1   
 36  17  40  1   
 37  17  41  1   
 38  18  42  1   
 39  19  43  1   
 40  20  21  ar  
 41  20  22  ar  
 42  21  23  ar  
 43  21  44  1   
 44  22  24  ar  
 45  22  45  1   
 46  23  25  ar  
 47  23  46  1   
 48  24  25  ar  
 49  24  47  1   
 50  25  48  1   
@<TRIPOS>SUBSTRUCTURE
  1 ****  10 GROUP 4 **** **** 0

# MOE 2024.06 (io_trps.svl 2023.06)
