@<TRIPOS>MOLECULE
NONAME
54 58 1 0 0 
SMALL
USER_CHARGES


@<TRIPOS>ATOM
  1 O       -0.3790    -1.0920     1.0610 O.2   1 <1>  -0.5740 
  2 C        0.1880    -2.0030     0.4950 C.2   1 <1>   0.9730 
  3 N       -0.5630    -2.9060    -0.2570 N.pl3 1 <1>  -0.3680 
  4 C        1.6050    -2.2020     0.5640 C.2   1 <1>  -0.1310 
  5 N       -1.9220    -2.9770    -0.4880 N.2   1 <1>  -0.2660 
  6 C        0.0420    -3.9080    -0.8660 C.cat 1 <1>   1.0690 
  7 C        2.1690    -3.2590    -0.0740 C.2   1 <1>   0.1580 
  8 C        2.4420    -1.2080     1.3730 C.3   1 <1>  -0.0290 
  9 C       -2.0640    -4.0130    -1.2280 C.2   1 <1>   0.4800 
 10 N       -0.8640    -4.6100    -1.4870 N.pl3 1 <1>  -0.7030 
 11 N        1.3640    -4.1130    -0.7990 N.pl3 1 <1>  -0.6930 
 12 C        3.6600    -3.5730    -0.0500 C.3   1 <1>  -0.0290 
 13 C        3.9410    -1.3220     1.0640 C.3   1 <1>  -0.1670 
 14 C       -3.3780    -4.5470    -1.7690 C.3   1 <1>   0.0620 
 15 C        4.3930    -2.7860     1.0450 C.3   1 <1>  -0.1670 
 16 C       -3.3850    -6.0590    -1.6610 C.2   1 <1>   0.5650 
 17 O       -2.5020    -6.6470    -2.2460 O.2   1 <1>  -0.5740 
 18 N       -4.3140    -6.7230    -0.9120 N.am  1 <1>  -0.6640 
 19 C       -5.4760    -6.1500    -0.1800 C.3   1 <1>   0.1330 
 20 C       -4.3090    -8.2020    -0.7780 C.3   1 <1>   0.1330 
 21 C       -6.2280    -7.3530     0.3930 C.3   1 <1>   0.1930 
 22 C       -5.2200    -8.4990     0.4140 C.3   1 <1>  -0.0870 
 23 O       -6.6860    -7.0980     1.6750 O.3   1 <1>  -0.6840 
 24 C       -5.8910    -9.8830     0.3590 C.3   1 <1>  -0.0240 
 25 C       -4.8750   -11.0120     0.4480 C.ar  1 <1>   0.1600 
 26 N       -4.2060   -11.2980    -0.6580 N.ar  1 <1>  -0.6240 
 27 C       -4.6890   -11.6850     1.6550 C.ar  1 <1>   0.1530 
 28 C       -3.3530   -12.2920    -0.4780 C.ar  1 <1>   0.1530 
 29 N       -3.8320   -12.6760     1.8380 N.ar  1 <1>  -0.6240 
 30 C       -3.1710   -12.9570     0.7290 C.ar  1 <1>   0.1530 
 31 H        2.1260    -0.1980     1.1690 H     1 <1>   0.0730 
 32 H        2.2820    -1.3910     2.4230 H     1 <1>   0.0730 
 33 H       -0.8020    -5.4970    -2.0040 H     1 <1>   0.4450 
 34 H        1.7660    -4.9140    -1.2930 H     1 <1>   0.4450 
 35 H        3.8170    -4.6240     0.1180 H     1 <1>   0.0730 
 36 H        4.0820    -3.3210    -1.0080 H     1 <1>   0.0730 
 37 H        4.1480    -0.8720     0.1070 H     1 <1>   0.0730 
 38 H        4.5010    -0.7780     1.8060 H     1 <1>   0.0730 
 39 H       -3.4700    -4.2780    -2.8040 H     1 <1>   0.0730 
 40 H       -4.1950    -4.1050    -1.2340 H     1 <1>   0.0730 
 41 H        4.1920    -3.2310     2.0050 H     1 <1>   0.0730 
 42 H        5.4550    -2.8380     0.8760 H     1 <1>   0.0730 
 43 H       -5.1240    -5.5110     0.6110 H     1 <1>   0.0730 
 44 H       -6.1120    -5.6010    -0.8530 H     1 <1>   0.0730 
 45 H       -4.7060    -8.6390    -1.6790 H     1 <1>   0.0730 
 46 H       -3.3130    -8.5780    -0.6140 H     1 <1>   0.0730 
 47 H       -7.0750    -7.5850    -0.2310 H     1 <1>   0.0730 
 48 H       -4.6160    -8.4320     1.3020 H     1 <1>   0.0730 
 49 H       -5.9370    -6.9970     2.2930 H     1 <1>   0.3950 
 50 H       -6.4490    -9.9870    -0.5550 H     1 <1>   0.0730 
 51 H       -6.5900    -9.9660     1.1730 H     1 <1>   0.0730 
 52 H       -5.2730   -11.3900     2.5080 H     1 <1>   0.1430 
 53 H       -2.7670   -12.5970    -1.3270 H     1 <1>   0.1430 
 54 H       -2.4510   -13.7540     0.7750 H     1 <1>   0.1430 
@<TRIPOS>BOND
  1   1   2  2   
  2   2   3  1   
  3   2   4  1   
  4   3   5  1   
  5   3   6  ar  
  6   4   7  2   
  7   4   8  1   
  8   5   9  2   
  9   6  10  ar  
 10   6  11  ar  
 11   7  11  1   
 12   7  12  1   
 13   8  13  1   
 14   8  31  1   
 15   8  32  1   
 16   9  10  1   
 17   9  14  1   
 18  10  33  1   
 19  11  34  1   
 20  12  15  1   
 21  12  35  1   
 22  12  36  1   
 23  13  15  1   
 24  13  37  1   
 25  13  38  1   
 26  14  16  1   
 27  14  39  1   
 28  14  40  1   
 29  15  41  1   
 30  15  42  1   
 31  16  17  2   
 32  16  18  am  
 33  18  19  1   
 34  18  20  1   
 35  19  21  1   
 36  19  43  1   
 37  19  44  1   
 38  20  22  1   
 39  20  45  1   
 40  20  46  1   
 41  21  22  1   
 42  21  23  1   
 43  21  47  1   
 44  22  24  1   
 45  22  48  1   
 46  23  49  1   
 47  24  25  1   
 48  24  50  1   
 49  24  51  1   
 50  25  26  ar  
 51  25  27  ar  
 52  26  28  ar  
 53  27  29  ar  
 54  27  52  1   
 55  28  30  ar  
 56  28  53  1   
 57  29  30  ar  
 58  30  54  1   
@<TRIPOS>SUBSTRUCTURE
  1 ****  16 GROUP 4 **** **** 0

# MOE 2024.06 (io_trps.svl 2023.06)
