@<TRIPOS>MOLECULE
NONAME
39 41 1 0 0 
SMALL
USER_CHARGES


@<TRIPOS>ATOM
  1 O       -0.4470     0.2960     0.1340 O.2   1 <1>  -0.5700 
  2 C       -1.5200     0.8400     0.3270 C.2   1 <1>   0.7150 
  3 N       -2.6540     0.0520     0.3380 N.am  1 <1>  -0.6600 
  4 C       -1.5960     2.2720     0.5370 C.2   1 <1>   0.0550 
  5 C       -4.0300     0.5590     0.1160 C.3   1 <1>   0.1400 
  6 C       -2.5940    -1.4120     0.0950 C.3   1 <1>   0.1400 
  7 O       -0.7840     3.1000    -0.1160 O.3   1 <1>  -0.2800 
  8 C       -2.4030     3.0210     1.3420 C.2   1 <1>  -0.1500 
  9 C       -4.8040    -0.6330    -0.4450 C.3   1 <1>   0.2000 
 10 C       -4.0530    -1.8710     0.0370 C.3   1 <1>  -0.0800 
 11 C       -1.0480     4.3380     0.2370 C.2   1 <1>  -0.0400 
 12 C       -2.0490     4.3560     1.1440 C.2   1 <1>  -0.1500 
 13 O       -6.1100    -0.6580     0.0180 O.3   1 <1>  -0.6800 
 14 C       -4.2960    -3.0970    -0.8600 C.3   1 <1>  -0.0170 
 15 C       -0.2340     5.4570    -0.3890 C.3   1 <1>   0.3000 
 16 C       -3.6010    -4.3380    -0.3220 C.ar  1 <1>   0.1670 
 17 O       -0.8620     6.6710    -0.1590 O.3   1 <1>  -0.6800 
 18 N       -2.3140    -4.4630    -0.6020 N.ar  1 <1>  -0.6200 
 19 C       -4.3190    -5.2700     0.4260 C.ar  1 <1>   0.1600 
 20 C       -1.7970    -5.5660    -0.0880 C.ar  1 <1>   0.1600 
 21 N       -3.8040    -6.3730     0.9430 N.ar  1 <1>  -0.6200 
 22 C       -2.5180    -6.4900     0.6590 C.ar  1 <1>   0.1600 
 23 H       -4.4470     0.8730     1.0570 H     1 <1>   0.0800 
 24 H       -4.0290     1.3760    -0.5850 H     1 <1>   0.0800 
 25 H       -2.0950    -1.5950    -0.8430 H     1 <1>   0.0800 
 26 H       -2.0520    -1.9100     0.8820 H     1 <1>   0.0800 
 27 H       -3.1650     2.6780     2.0170 H     1 <1>   0.1500 
 28 H       -4.8240    -0.5800    -1.5210 H     1 <1>   0.0800 
 29 H       -4.3530    -2.1010     1.0450 H     1 <1>   0.0800 
 30 H       -2.4910     5.2060     1.6350 H     1 <1>   0.1500 
 31 H       -6.1300    -0.7470     0.9910 H     1 <1>   0.4000 
 32 H       -3.9400    -2.9010    -1.8570 H     1 <1>   0.0800 
 33 H       -5.3540    -3.2810    -0.9280 H     1 <1>   0.0800 
 34 H       -0.1600     5.3140    -1.4530 H     1 <1>   0.0800 
 35 H        0.7530     5.4940     0.0370 H     1 <1>   0.0800 
 36 H       -1.7870     6.6130    -0.4630 H     1 <1>   0.4000 
 37 H       -5.3650    -5.0950     0.6080 H     1 <1>   0.1500 
 38 H       -0.7520    -5.7490    -0.2670 H     1 <1>   0.1500 
 39 H       -2.0090    -7.3590     1.0360 H     1 <1>   0.1500 
@<TRIPOS>BOND
  1   1   2  2   
  2   2   3  am  
  3   2   4  1   
  4   3   5  1   
  5   3   6  1   
  6   4   7  1   
  7   4   8  2   
  8   5   9  1   
  9   5  23  1   
 10   5  24  1   
 11   6  10  1   
 12   6  25  1   
 13   6  26  1   
 14   7  11  1   
 15   8  12  1   
 16   8  27  1   
 17   9  10  1   
 18   9  13  1   
 19   9  28  1   
 20  10  14  1   
 21  10  29  1   
 22  11  12  2   
 23  11  15  1   
 24  12  30  1   
 25  13  31  1   
 26  14  16  1   
 27  14  32  1   
 28  14  33  1   
 29  15  17  1   
 30  15  34  1   
 31  15  35  1   
 32  16  18  ar  
 33  16  19  ar  
 34  17  36  1   
 35  18  20  ar  
 36  19  21  ar  
 37  19  37  1   
 38  20  22  ar  
 39  20  38  1   
 40  21  22  ar  
 41  22  39  1   
@<TRIPOS>SUBSTRUCTURE
  1 ****   3 GROUP 4 **** **** 0

# MOE 2024.06 (io_trps.svl 2023.06)
