@<TRIPOS>MOLECULE
NONAME
63 66 1 0 0 
SMALL
USER_CHARGES


@<TRIPOS>ATOM
  1 O       -1.1170    -0.7420     0.4610 O.3   1 <1>  -0.5600 
  2 C        0.1510    -1.2070     0.8110 C.3   1 <1>   0.1200 
  3 C       -2.1140    -1.7210     0.4990 C.3   1 <1>   0.1200 
  4 C        0.6060    -2.3100    -0.1640 C.3   1 <1>   0.2090 
  5 C       -1.7920    -2.8620    -0.4820 C.3   1 <1>   0.2090 
  6 N       -0.4080    -3.4230    -0.2440 N.pl3 1 <1>  -0.8380 
  7 C       -0.1840    -4.7610    -0.1410 C.ar  1 <1>   0.7710 
  8 N       -1.2140    -5.6010    -0.1660 N.ar  1 <1>  -0.6200 
  9 N        1.0790    -5.2110    -0.0220 N.ar  1 <1>  -0.1790 
 10 C       -0.9750    -6.8850    -0.0660 C.ar  1 <1>   0.4100 
 11 C        1.3710    -6.5300     0.0840 C.ar  1 <1>   0.2180 
 12 N       -2.0790    -7.6510    -0.1130 N.pl3 1 <1>  -0.8690 
 13 C        0.3290    -7.3970     0.0650 C.ar  1 <1>  -0.1500 
 14 C        2.8280    -6.9570     0.2130 C.3   1 <1>  -0.0170 
 15 C       -2.2550    -9.1320    -0.0180 C.3   1 <1>   0.2090 
 16 C        3.6510    -6.5890    -1.0290 C.3   1 <1>  -0.2400 
 17 C       -3.5860    -9.5240     0.6850 C.3   1 <1>   0.5660 
 18 N       -3.8060   -11.0140     0.7770 N.4   1 <1>  -0.9590 
 19 C       -4.7940    -8.8420     0.0460 C.ar  1 <1>  -0.1430 
 20 C       -3.9670   -11.6890    -0.5490 C.3   1 <1>   0.3430 
 21 C       -4.9800   -11.3210     1.6540 C.3   1 <1>   0.3430 
 22 C       -5.7190    -8.2290     0.8800 C.ar  1 <1>   0.1600 
 23 C       -5.0090    -8.7920    -1.3230 C.ar  1 <1>  -0.1500 
 24 C       -4.0080   -13.2060    -0.3530 C.3   1 <1>  -0.1600 
 25 C       -5.0540   -12.8280     1.9100 C.3   1 <1>  -0.1600 
 26 N       -6.8160    -7.6200     0.4750 N.ar  1 <1>  -0.6200 
 27 C       -6.1480    -8.1490    -1.7590 C.ar  1 <1>  -0.1500 
 28 C       -5.1360   -13.6210     0.6000 C.3   1 <1>  -0.1600 
 29 C       -7.0090    -7.5900    -0.8330 C.ar  1 <1>   0.1600 
 30 H        0.1170    -1.5730     1.8220 H     1 <1>   0.0800 
 31 H        0.8260    -0.3700     0.7690 H     1 <1>   0.0800 
 32 H       -3.0440    -1.2520     0.2290 H     1 <1>   0.0800 
 33 H       -2.1970    -2.0950     1.5050 H     1 <1>   0.0800 
 34 H        1.5660    -2.6670     0.1590 H     1 <1>   0.0800 
 35 H        0.7270    -1.8690    -1.1400 H     1 <1>   0.0800 
 36 H       -1.8510    -2.4780    -1.4860 H     1 <1>   0.0800 
 37 H       -2.5560    -3.6140    -0.3830 H     1 <1>   0.0800 
 38 H        1.8040    -4.5080    -0.0440 H     1 <1>   0.4570 
 39 H       -2.9360    -7.1210    -0.3340 H     1 <1>   0.4000 
 40 H        0.4770    -8.4560     0.1370 H     1 <1>   0.1500 
 41 H        2.8790    -8.0230     0.3540 H     1 <1>   0.0800 
 42 H        3.2650    -6.5000     1.0850 H     1 <1>   0.0800 
 43 H       -1.4360    -9.5520     0.5370 H     1 <1>   0.0800 
 44 H       -2.2360    -9.5330    -1.0150 H     1 <1>   0.0800 
 45 H        3.2260    -7.0380    -1.9110 H     1 <1>   0.0800 
 46 H        4.6570    -6.9590    -0.9210 H     1 <1>   0.0800 
 47 H        3.7030    -5.5240    -1.1720 H     1 <1>   0.0800 
 48 H       -3.5060    -9.1480     1.6920 H     1 <1>   0.0800 
 49 H       -2.9900   -11.4360     1.2350 H     1 <1>   0.4500 
 50 H       -3.1490   -11.4400    -1.2040 H     1 <1>   0.0800 
 51 H       -4.8860   -11.3670    -1.0130 H     1 <1>   0.0800 
 52 H       -5.8910   -10.9950     1.1760 H     1 <1>   0.0800 
 53 H       -4.8900   -10.8050     2.5970 H     1 <1>   0.0800 
 54 H       -5.5620    -8.2320     1.9460 H     1 <1>   0.1500 
 55 H       -4.3350    -9.2210    -2.0440 H     1 <1>   0.1500 
 56 H       -3.0610   -13.5480     0.0250 H     1 <1>   0.0800 
 57 H       -4.1620   -13.6790    -1.3080 H     1 <1>   0.0800 
 58 H       -5.9250   -13.0400     2.5060 H     1 <1>   0.0800 
 59 H       -4.1940   -13.1400     2.4780 H     1 <1>   0.0800 
 60 H       -6.3730    -8.0760    -2.8090 H     1 <1>   0.1500 
 61 H       -5.0730   -14.6780     0.8060 H     1 <1>   0.0800 
 62 H       -6.0880   -13.4380     0.1300 H     1 <1>   0.0800 
 63 H       -7.8980    -7.0910    -1.1840 H     1 <1>   0.1500 
@<TRIPOS>BOND
  1   1   2  1   
  2   1   3  1   
  3   2   4  1   
  4   2  30  1   
  5   2  31  1   
  6   3   5  1   
  7   3  32  1   
  8   3  33  1   
  9   4   6  1   
 10   4  34  1   
 11   4  35  1   
 12   5   6  1   
 13   5  36  1   
 14   5  37  1   
 15   6   7  1   
 16   7   8  ar  
 17   7   9  ar  
 18   8  10  ar  
 19   9  11  ar  
 20   9  38  1   
 21  10  12  1   
 22  10  13  ar  
 23  11  13  ar  
 24  11  14  1   
 25  12  15  1   
 26  12  39  1   
 27  13  40  1   
 28  14  16  1   
 29  14  41  1   
 30  14  42  1   
 31  15  17  1   
 32  15  43  1   
 33  15  44  1   
 34  16  45  1   
 35  16  46  1   
 36  16  47  1   
 37  17  18  1   
 38  17  19  1   
 39  17  48  1   
 40  18  20  1   
 41  18  21  1   
 42  18  49  1   
 43  19  22  ar  
 44  19  23  ar  
 45  20  24  1   
 46  20  50  1   
 47  20  51  1   
 48  21  25  1   
 49  21  52  1   
 50  21  53  1   
 51  22  26  ar  
 52  22  54  1   
 53  23  27  ar  
 54  23  55  1   
 55  24  28  1   
 56  24  56  1   
 57  24  57  1   
 58  25  28  1   
 59  25  58  1   
 60  25  59  1   
 61  26  29  ar  
 62  27  29  ar  
 63  27  60  1   
 64  28  61  1   
 65  28  62  1   
 66  29  63  1   
@<TRIPOS>SUBSTRUCTURE
  1 ****  12 GROUP 4 **** **** 0

# MOE 2024.06 (io_trps.svl 2023.06)
