@<TRIPOS>MOLECULE
NONAME
45 48 1 0 0 
SMALL
USER_CHARGES


@<TRIPOS>ATOM
  1 O        1.1680     4.2030    -1.4850 O.3   1 <1>  -0.0190 
  2 N        2.3920     4.2770    -1.9050 N.2   1 <1>  -0.4100 
  3 C        0.9570     3.1190    -0.7890 C.2   1 <1>  -0.0400 
  4 C        2.9670     3.1900    -1.5310 C.2   1 <1>   0.1080 
  5 C        2.0880     2.3990    -0.7970 C.2   1 <1>  -0.1500 
  6 C       -0.3880     2.8990    -0.1190 C.3   1 <1>   0.0200 
  7 C        4.4040     2.8350    -1.8480 C.3   1 <1>  -0.0590 
  8 C       -0.7250     3.9730     0.9450 C.3   1 <1>  -0.0800 
  9 C       -1.1620     5.3110     0.3320 C.3   1 <1>   0.2000 
 10 C        0.4830     4.3500     1.8110 C.3   1 <1>   0.3430 
 11 O       -2.2050     5.8290     1.0910 O.3   1 <1>  -0.6800 
 12 C        0.0490     6.2550     0.4160 C.3   1 <1>   0.3430 
 13 N        1.1300     5.4870     1.1090 N.4   1 <1>  -0.9590 
 14 C        2.0480     6.3200     1.9270 C.3   1 <1>   0.4860 
 15 C        2.6130     7.4200     1.0500 C.ar  1 <1>  -0.1440 
 16 C        3.4360     7.1190    -0.0140 C.ar  1 <1>  -0.1500 
 17 C        2.2780     8.7560     1.3230 C.ar  1 <1>  -0.1500 
 18 C        3.9240     8.1460    -0.8240 C.ar  1 <1>   0.0000 
 19 C        2.7570     9.7760     0.5340 C.ar  1 <1>  -0.1500 
 20 C        3.5840     9.4640    -0.5460 C.ar  1 <1>  -0.1520 
 21 C        4.7540     8.1780    -1.9650 C.2   1 <1>  -0.1500 
 22 N        4.1870    10.2700    -1.4790 N.pl3 1 <1>   0.0330 
 23 C        4.8940     9.4730    -2.3340 C.2   1 <1>  -0.3020 
 24 H        2.3120     1.4450    -0.3520 H     1 <1>   0.1500 
 25 H       -1.1600     2.8640    -0.8680 H     1 <1>   0.0800 
 26 H       -0.3670     1.9340     0.3570 H     1 <1>   0.0800 
 27 H        4.9340     2.5850    -0.9470 H     1 <1>   0.0800 
 28 H        4.8950     3.6670    -2.3210 H     1 <1>   0.0800 
 29 H        4.4310     1.9950    -2.5170 H     1 <1>   0.0800 
 30 H       -1.5100     3.5700     1.5630 H     1 <1>   0.0800 
 31 H       -1.5160     5.2170    -0.6810 H     1 <1>   0.0800 
 32 H        1.1610     3.5200     1.9320 H     1 <1>   0.0800 
 33 H        0.1390     4.6720     2.7810 H     1 <1>   0.0800 
 34 H       -2.0130     5.8640     2.0480 H     1 <1>   0.4000 
 35 H       -0.2140     7.1420     0.9680 H     1 <1>   0.0800 
 36 H        0.3770     6.5380    -0.5710 H     1 <1>   0.0800 
 37 H        1.7000     5.0970     0.3340 H     1 <1>   0.4500 
 38 H        1.5180     6.7540     2.7580 H     1 <1>   0.0800 
 39 H        2.8560     5.7180     2.3090 H     1 <1>   0.0800 
 40 H        3.7250     6.1120    -0.2580 H     1 <1>   0.1500 
 41 H        1.6420     8.9970     2.1580 H     1 <1>   0.1500 
 42 H        2.5070    10.8040     0.7370 H     1 <1>   0.1500 
 43 H        5.1780     7.3050    -2.4290 H     1 <1>   0.1500 
 44 H        4.1150    11.2920    -1.5190 H     1 <1>   0.2700 
 45 H        5.4560     9.8780    -3.1580 H     1 <1>   0.1500 
@<TRIPOS>BOND
  1   1   2  1   
  2   1   3  1   
  3   2   4  2   
  4   3   5  2   
  5   3   6  1   
  6   4   5  1   
  7   4   7  1   
  8   5  24  1   
  9   6   8  1   
 10   6  25  1   
 11   6  26  1   
 12   7  27  1   
 13   7  28  1   
 14   7  29  1   
 15   8   9  1   
 16   8  10  1   
 17   8  30  1   
 18   9  11  1   
 19   9  12  1   
 20   9  31  1   
 21  10  13  1   
 22  10  32  1   
 23  10  33  1   
 24  11  34  1   
 25  12  13  1   
 26  12  35  1   
 27  12  36  1   
 28  13  14  1   
 29  13  37  1   
 30  14  15  1   
 31  14  38  1   
 32  14  39  1   
 33  15  16  ar  
 34  15  17  ar  
 35  16  18  ar  
 36  16  40  1   
 37  17  19  ar  
 38  17  41  1   
 39  18  20  ar  
 40  18  21  1   
 41  19  20  ar  
 42  19  42  1   
 43  20  22  1   
 44  21  23  2   
 45  21  43  1   
 46  22  23  1   
 47  22  44  1   
 48  23  45  1   
@<TRIPOS>SUBSTRUCTURE
  1 ****  13 GROUP 4 **** **** 0

# MOE 2024.06 (io_trps.svl 2023.06)
