@<TRIPOS>MOLECULE
NONAME
58 61 1 0 0 
SMALL
USER_CHARGES


@<TRIPOS>ATOM
  1 O        0.4240    -0.2490    -1.0570 O.2   1 <1>  -0.5700 
  2 C        1.0500    -1.1970    -0.6520 C.2   1 <1>   0.5690 
  3 N        0.5440    -2.1200     0.2210 N.am  1 <1>  -0.6600 
  4 C        2.4750    -1.3900    -1.1260 C.3   1 <1>  -0.0990 
  5 C        1.3960    -3.2130     0.7490 C.3   1 <1>   0.1400 
  6 C       -0.8370    -2.0250     0.7680 C.3   1 <1>   0.0600 
  7 C        2.7170    -2.8680    -1.4820 C.3   1 <1>  -0.0800 
  8 C        2.2410    -3.8440    -0.3800 C.3   1 <1>  -0.0800 
  9 C        4.1960    -3.1780    -1.7520 C.3   1 <1>  -0.1600 
 10 C        3.5080    -4.5360     0.1390 C.3   1 <1>  -0.1600 
 11 C        4.4660    -4.5050    -1.0500 C.3   1 <1>   0.4230 
 12 N        5.9150    -4.7280    -0.7350 N.4   1 <1>  -0.9590 
 13 C        6.4610    -4.1510     0.5380 C.3   1 <1>   0.4860 
 14 C        6.2270    -6.1880    -0.8000 C.3   1 <1>   0.2630 
 15 C        6.5690    -2.6430     0.4320 C.ar  1 <1>  -0.1440 
 16 C        5.7770    -1.8240     1.2240 C.ar  1 <1>  -0.1500 
 17 C        7.4540    -2.0610    -0.4660 C.ar  1 <1>  -0.1500 
 18 C        5.8460    -0.4500     1.0940 C.ar  1 <1>  -0.1500 
 19 C        7.5160    -0.6850    -0.5890 C.ar  1 <1>  -0.1500 
 20 C        6.7090     0.1450     0.1810 C.ar  1 <1>   0.0000 
 21 C        6.7650     1.5820     0.0380 C.ar  1 <1>   0.0000 
 22 C        7.9570     2.2750     0.2300 C.ar  1 <1>  -0.1500 
 23 C        5.6300     2.3130    -0.2980 C.ar  1 <1>  -0.1500 
 24 C        8.0230     3.6510     0.0930 C.ar  1 <1>  -0.1440 
 25 C        5.6840     3.6870    -0.4380 C.ar  1 <1>  -0.1500 
 26 C        6.8790     4.3560    -0.2440 C.ar  1 <1>  -0.1500 
 27 C        9.3320     4.3880     0.3060 C.3   1 <1>  -0.0970 
 28 H        2.6510    -0.7680    -1.9850 H     1 <1>   0.0800 
 29 H        3.1310    -1.0700    -0.3380 H     1 <1>   0.0800 
 30 H        2.0340    -2.7920     1.5070 H     1 <1>   0.0800 
 31 H        0.7830    -3.9690     1.2090 H     1 <1>   0.0800 
 32 H       -1.3840    -2.9220     0.5350 H     1 <1>   0.0800 
 33 H       -1.3570    -1.1860     0.3390 H     1 <1>   0.0800 
 34 H       -0.7990    -1.8960     1.8350 H     1 <1>   0.0800 
 35 H        2.1460    -3.0800    -2.3720 H     1 <1>   0.0800 
 36 H        1.6270    -4.5900    -0.8590 H     1 <1>   0.0800 
 37 H        4.8020    -2.3850    -1.3620 H     1 <1>   0.0800 
 38 H        4.3760    -3.2600    -2.8100 H     1 <1>   0.0800 
 39 H        3.2980    -5.5410     0.4580 H     1 <1>   0.0800 
 40 H        3.8890    -3.9650     0.9620 H     1 <1>   0.0800 
 41 H        4.1420    -5.2740    -1.7340 H     1 <1>   0.0800 
 42 H        6.4310    -4.2520    -1.4860 H     1 <1>   0.4500 
 43 H        5.8420    -4.4240     1.3750 H     1 <1>   0.0800 
 44 H        7.4490    -4.5440     0.7190 H     1 <1>   0.0800 
 45 H        5.6990    -6.7200    -0.0250 H     1 <1>   0.0800 
 46 H        7.2860    -6.3530    -0.6720 H     1 <1>   0.0800 
 47 H        5.9330    -6.5920    -1.7550 H     1 <1>   0.0800 
 48 H        5.0980    -2.2370     1.9500 H     1 <1>   0.1500 
 49 H        8.1040    -2.6620    -1.0780 H     1 <1>   0.1500 
 50 H        5.2280     0.1820     1.7100 H     1 <1>   0.1500 
 51 H        8.1970    -0.2370    -1.2930 H     1 <1>   0.1500 
 52 H        8.8410     1.7220     0.4940 H     1 <1>   0.1500 
 53 H        4.6970     1.8010    -0.4540 H     1 <1>   0.1500 
 54 H        4.7970     4.2380    -0.6990 H     1 <1>   0.1500 
 55 H        6.9150     5.4250    -0.3560 H     1 <1>   0.1500 
 56 H        9.1590     5.3090     0.8320 H     1 <1>   0.0800 
 57 H        9.7840     4.6100    -0.6440 H     1 <1>   0.0800 
 58 H       10.0160     3.7920     0.8840 H     1 <1>   0.0800 
@<TRIPOS>BOND
  1   1   2  2   
  2   2   3  am  
  3   2   4  1   
  4   3   5  1   
  5   3   6  1   
  6   4   7  1   
  7   4  28  1   
  8   4  29  1   
  9   5   8  1   
 10   5  30  1   
 11   5  31  1   
 12   6  32  1   
 13   6  33  1   
 14   6  34  1   
 15   7   8  1   
 16   7   9  1   
 17   7  35  1   
 18   8  10  1   
 19   8  36  1   
 20   9  11  1   
 21   9  37  1   
 22   9  38  1   
 23  10  11  1   
 24  10  39  1   
 25  10  40  1   
 26  11  12  1   
 27  11  41  1   
 28  12  13  1   
 29  12  14  1   
 30  12  42  1   
 31  13  15  1   
 32  13  43  1   
 33  13  44  1   
 34  14  45  1   
 35  14  46  1   
 36  14  47  1   
 37  15  16  ar  
 38  15  17  ar  
 39  16  18  ar  
 40  16  48  1   
 41  17  19  ar  
 42  17  49  1   
 43  18  20  ar  
 44  18  50  1   
 45  19  20  ar  
 46  19  51  1   
 47  20  21  1   
 48  21  22  ar  
 49  21  23  ar  
 50  22  24  ar  
 51  22  52  1   
 52  23  25  ar  
 53  23  53  1   
 54  24  26  ar  
 55  24  27  1   
 56  25  26  ar  
 57  25  54  1   
 58  26  55  1   
 59  27  56  1   
 60  27  57  1   
 61  27  58  1   
@<TRIPOS>SUBSTRUCTURE
  1 ****  18 GROUP 4 **** **** 0

# MOE 2024.06 (io_trps.svl 2023.06)
