@<TRIPOS>MOLECULE
NONAME
56 58 1 0 0 
SMALL
USER_CHARGES


@<TRIPOS>ATOM
  1 O       -1.5810     0.3860     2.2700 O.2   1 <1>  -0.5700 
  2 C       -1.8520     0.8280     1.1690 C.2   1 <1>   0.5440 
  3 N       -2.3020    -0.0260     0.1900 N.am  1 <1>  -0.6600 
  4 C       -1.7080     2.2450     0.9240 C.ar  1 <1>   0.0860 
  5 C       -2.3060    -1.5150     0.3960 C.3   1 <1>   0.3640 
  6 C       -2.8680     0.4850    -1.0980 C.3   1 <1>   0.1400 
  7 C       -0.7320     2.7690     0.0650 C.ar  1 <1>   0.0830 
  8 C       -2.5770     3.1460     1.5380 C.ar  1 <1>  -0.1500 
  9 C       -1.0160    -2.1640    -0.1320 C.ar  1 <1>  -0.1440 
 10 C       -3.5610    -2.2110    -0.2190 C.3   1 <1>   0.2000 
 11 C       -3.4170    -0.6410    -1.9850 C.3   1 <1>   0.1200 
 12 O        0.1790     1.9870    -0.5530 O.3   1 <1>  -0.3630 
 13 C       -0.6740     4.1290    -0.1960 C.ar  1 <1>  -0.1500 
 14 C       -2.5070     4.5030     1.2870 C.ar  1 <1>  -0.1500 
 15 C       -0.6670    -3.4100     0.3750 C.ar  1 <1>  -0.1500 
 16 C       -0.1840    -1.5800    -1.0820 C.ar  1 <1>  -0.1500 
 17 O       -4.2270    -1.4750    -1.2210 O.3   1 <1>  -0.5600 
 18 C       -4.6070    -2.5280     0.8570 C.3   1 <1>   0.1200 
 19 C        1.1290     1.3140     0.2500 C.3   1 <1>   0.0400 
 20 C       -1.5580     5.0040     0.4110 C.ar  1 <1>  -0.1430 
 21 C        0.4700    -4.0700    -0.0600 C.ar  1 <1>   0.0830 
 22 C        0.9650    -2.2220    -1.5100 C.ar  1 <1>  -0.1500 
 23 O       -4.1570    -3.5560     1.6810 O.3   1 <1>  -0.6800 
 24 C       -1.4940     6.4950     0.1350 C.3   1 <1>  -0.0970 
 25 O        0.7070    -5.3030     0.4530 O.3   1 <1>  -0.3620 
 26 C        1.3100    -3.4580    -0.9950 C.ar  1 <1>   0.0830 
 27 C        0.6780    -6.3800    -0.4580 C.3   1 <1>   0.0400 
 28 O        2.4690    -4.0130    -1.4250 O.3   1 <1>  -0.3630 
 29 C        3.4870    -4.1580    -0.4590 C.3   1 <1>   0.0400 
 30 H       -2.3200    -1.7110     1.4550 H     1 <1>   0.0800 
 31 H       -3.6670     1.1710    -0.8790 H     1 <1>   0.0800 
 32 H       -2.1100     1.0220    -1.6390 H     1 <1>   0.0800 
 33 H       -3.3170     2.7650     2.2210 H     1 <1>   0.1500 
 34 H       -3.2620    -3.1370    -0.6760 H     1 <1>   0.0800 
 35 H       -2.6240    -1.2240    -2.4210 H     1 <1>   0.0800 
 36 H       -4.0170    -0.2290    -2.7770 H     1 <1>   0.0800 
 37 H        0.0760     4.4930    -0.8750 H     1 <1>   0.1500 
 38 H       -3.1940     5.1720     1.7760 H     1 <1>   0.1500 
 39 H       -1.2820    -3.8860     1.1180 H     1 <1>   0.1500 
 40 H       -0.4100    -0.6150    -1.4960 H     1 <1>   0.1500 
 41 H       -5.5330    -2.8420     0.4060 H     1 <1>   0.0800 
 42 H       -4.7810    -1.6600     1.4710 H     1 <1>   0.0800 
 43 H        1.9190     0.9630    -0.3880 H     1 <1>   0.0800 
 44 H        0.6640     0.4770     0.7380 H     1 <1>   0.0800 
 45 H        1.5220     2.0010     0.9790 H     1 <1>   0.0800 
 46 H        1.6050    -1.7600    -2.2410 H     1 <1>   0.1500 
 47 H       -4.2420    -4.4220     1.2350 H     1 <1>   0.4000 
 48 H       -1.2100     7.0200     1.0300 H     1 <1>   0.0800 
 49 H       -2.4560     6.8510    -0.1870 H     1 <1>   0.0800 
 50 H       -0.7750     6.7140    -0.6340 H     1 <1>   0.0800 
 51 H        0.7500    -7.2950     0.1010 H     1 <1>   0.0800 
 52 H        1.5080    -6.2990    -1.1350 H     1 <1>   0.0800 
 53 H       -0.2510    -6.3510    -1.0000 H     1 <1>   0.0800 
 54 H        4.3740    -4.5100    -0.9550 H     1 <1>   0.0800 
 55 H        3.1760    -4.8690     0.2840 H     1 <1>   0.0800 
 56 H        3.6730    -3.2010    -0.0050 H     1 <1>   0.0800 
@<TRIPOS>BOND
  1   1   2  2   
  2   2   3  am  
  3   2   4  1   
  4   3   5  1   
  5   3   6  1   
  6   4   7  ar  
  7   4   8  ar  
  8   5   9  1   
  9   5  10  1   
 10   5  30  1   
 11   6  11  1   
 12   6  31  1   
 13   6  32  1   
 14   7  12  1   
 15   7  13  ar  
 16   8  14  ar  
 17   8  33  1   
 18   9  15  ar  
 19   9  16  ar  
 20  10  17  1   
 21  10  18  1   
 22  10  34  1   
 23  11  17  1   
 24  11  35  1   
 25  11  36  1   
 26  12  19  1   
 27  13  20  ar  
 28  13  37  1   
 29  14  20  ar  
 30  14  38  1   
 31  15  21  ar  
 32  15  39  1   
 33  16  22  ar  
 34  16  40  1   
 35  18  23  1   
 36  18  41  1   
 37  18  42  1   
 38  19  43  1   
 39  19  44  1   
 40  19  45  1   
 41  20  24  1   
 42  21  25  1   
 43  21  26  ar  
 44  22  26  ar  
 45  22  46  1   
 46  23  47  1   
 47  24  48  1   
 48  24  49  1   
 49  24  50  1   
 50  25  27  1   
 51  26  28  1   
 52  27  51  1   
 53  27  52  1   
 54  27  53  1   
 55  28  29  1   
 56  29  54  1   
 57  29  55  1   
 58  29  56  1   
@<TRIPOS>SUBSTRUCTURE
  1 ****   3 GROUP 4 **** **** 0

# MOE 2024.06 (io_trps.svl 2023.06)
