@<TRIPOS>MOLECULE
NONAME
52 54 1 0 0 
SMALL
USER_CHARGES


@<TRIPOS>ATOM
  1 O       -1.3900    -0.2950     0.7550 O.2   1 <1>  -0.5700 
  2 C       -2.5950    -0.3950     0.9020 C.2   1 <1>   0.5410 
  3 C       -3.2960    -1.5950     0.6300 C.2   1 <1>  -0.1360 
  4 C       -3.3900     0.6930     1.3510 C.2   1 <1>  -0.1360 
  5 C       -4.6480    -1.6910     0.7800 C.2   1 <1>   0.0910 
  6 C       -4.7270     0.5530     1.4940 C.2   1 <1>  -0.0620 
  7 O       -5.3280    -0.6080     1.2150 O.3   1 <1>  -0.1530 
  8 C       -5.4170    -2.8980     0.5320 C.2   1 <1>   0.6160 
  9 C       -5.6710     1.6410     1.9680 C.3   1 <1>  -0.1020 
 10 O       -4.8630    -3.9740     0.6710 O.2   1 <1>  -0.5700 
 11 N       -6.7420    -2.8980     0.1360 N.am  1 <1>  -0.6600 
 12 C       -7.5650    -4.1360     0.3130 C.3   1 <1>   0.1400 
 13 C       -7.3880    -1.7320    -0.5380 C.3   1 <1>   0.1400 
 14 C       -7.4510    -5.0620    -0.9050 C.3   1 <1>   0.1400 
 15 C       -8.2870    -2.0980    -1.7280 C.3   1 <1>  -0.1600 
 16 N       -8.2370    -4.5380    -2.0650 N.am  1 <1>  -0.6600 
 17 C       -7.7600    -3.2380    -2.6070 C.3   1 <1>   0.1400 
 18 C       -9.3990    -5.1080    -2.5370 C.2   1 <1>   0.5690 
 19 O      -10.0060    -4.6240    -3.4670 O.2   1 <1>  -0.5700 
 20 C       -9.9770    -6.3860    -1.9340 C.3   1 <1>   0.1810 
 21 O      -10.2870    -6.2180    -0.5570 O.3   1 <1>  -0.3630 
 22 C      -10.7880    -7.2370     0.1900 C.ar  1 <1>   0.0820 
 23 C      -11.0080    -6.9980     1.5440 C.ar  1 <1>  -0.1430 
 24 C      -11.0810    -8.4910    -0.3440 C.ar  1 <1>  -0.1500 
 25 C      -11.5100    -8.0100     2.3460 C.ar  1 <1>  -0.1500 
 26 C      -10.7030    -5.6380     2.1570 C.3   1 <1>  -0.0970 
 27 C      -11.5830    -9.4930     0.4660 C.ar  1 <1>  -0.1500 
 28 C      -11.7970    -9.2540     1.8110 C.ar  1 <1>  -0.1500 
 29 H       -2.7050    -2.4300     0.3030 H     1 <1>   0.1500 
 30 H       -2.8670     1.6060     1.5640 H     1 <1>   0.1500 
 31 H       -6.1730     1.3240     2.8640 H     1 <1>   0.0800 
 32 H       -6.4070     1.8440     1.2110 H     1 <1>   0.0800 
 33 H       -5.1310     2.5470     2.1770 H     1 <1>   0.0800 
 34 H       -8.5960    -3.8830     0.4890 H     1 <1>   0.0800 
 35 H       -7.2100    -4.6680     1.1790 H     1 <1>   0.0800 
 36 H       -6.6180    -1.0780    -0.9080 H     1 <1>   0.0800 
 37 H       -7.9630    -1.1830     0.1880 H     1 <1>   0.0800 
 38 H       -7.7960    -6.0380    -0.6240 H     1 <1>   0.0800 
 39 H       -6.4160    -5.1610    -1.1840 H     1 <1>   0.0800 
 40 H       -8.3820    -1.2190    -2.3400 H     1 <1>   0.0800 
 41 H       -9.2790    -2.3360    -1.3840 H     1 <1>   0.0800 
 42 H       -6.6840    -3.2250    -2.6510 H     1 <1>   0.0800 
 43 H       -8.1300    -3.1120    -3.6110 H     1 <1>   0.0800 
 44 H       -9.2650    -7.1830    -2.0310 H     1 <1>   0.0800 
 45 H      -10.8840    -6.6420    -2.4500 H     1 <1>   0.0800 
 46 H      -10.9300    -8.7100    -1.3830 H     1 <1>   0.1500 
 47 H      -11.6820    -7.8380     3.3940 H     1 <1>   0.1500 
 48 H      -11.1280    -4.8570     1.5530 H     1 <1>   0.0800 
 49 H       -9.6390    -5.4970     2.2130 H     1 <1>   0.0800 
 50 H      -11.1130    -5.5610     3.1470 H     1 <1>   0.0800 
 51 H      -11.8100   -10.4600     0.0510 H     1 <1>   0.1500 
 52 H      -12.1880   -10.0330     2.4420 H     1 <1>   0.1500 
@<TRIPOS>BOND
  1   1   2  2   
  2   2   3  1   
  3   2   4  1   
  4   3   5  2   
  5   3  29  1   
  6   4   6  2   
  7   4  30  1   
  8   5   7  1   
  9   5   8  1   
 10   6   7  1   
 11   6   9  1   
 12   8  10  2   
 13   8  11  am  
 14   9  31  1   
 15   9  32  1   
 16   9  33  1   
 17  11  12  1   
 18  11  13  1   
 19  12  14  1   
 20  12  34  1   
 21  12  35  1   
 22  13  15  1   
 23  13  36  1   
 24  13  37  1   
 25  14  16  1   
 26  14  38  1   
 27  14  39  1   
 28  15  17  1   
 29  15  40  1   
 30  15  41  1   
 31  16  17  1   
 32  16  18  am  
 33  17  42  1   
 34  17  43  1   
 35  18  19  2   
 36  18  20  1   
 37  20  21  1   
 38  20  44  1   
 39  20  45  1   
 40  21  22  1   
 41  22  23  ar  
 42  22  24  ar  
 43  23  25  ar  
 44  23  26  1   
 45  24  27  ar  
 46  24  46  1   
 47  25  28  ar  
 48  25  47  1   
 49  26  48  1   
 50  26  49  1   
 51  26  50  1   
 52  27  28  ar  
 53  27  51  1   
 54  28  52  1   
@<TRIPOS>SUBSTRUCTURE
  1 ****  12 GROUP 4 **** **** 0

# MOE 2024.06 (io_trps.svl 2023.06)
