@<TRIPOS>MOLECULE
NONAME
45 47 1 0 0 
SMALL
USER_CHARGES


@<TRIPOS>ATOM
  1 O       -2.3830     0.5340     3.4080 O.2   1 <1>  -0.5700 
  2 C       -2.3880     1.0480     2.3140 C.2   1 <1>   0.5690 
  3 N       -3.0110     0.4470     1.2530 N.am  1 <1>  -0.6600 
  4 C       -1.6940     2.3960     2.1600 C.3   1 <1>   0.0440 
  5 C       -3.1020     0.9670    -0.1340 C.3   1 <1>   0.1400 
  6 C       -3.5420    -0.9380     1.3180 C.3   1 <1>   0.1400 
  7 C       -0.6350     2.4170     1.0600 C.ar  1 <1>  -0.1440 
  8 C       -4.1030     0.0410    -0.8200 C.3   1 <1>   0.2000 
  9 C       -3.9040    -1.3110    -0.1290 C.3   1 <1>  -0.0800 
 10 C        0.3080     1.4050     0.9780 C.ar  1 <1>  -0.1500 
 11 C       -0.6110     3.4400     0.1240 C.ar  1 <1>  -0.1500 
 12 O       -5.3820     0.4860    -0.5280 O.3   1 <1>  -0.6800 
 13 C       -2.7830    -2.1150    -0.8180 C.3   1 <1>  -0.0170 
 14 C        1.2540     1.4080    -0.0310 C.ar  1 <1>  -0.1500 
 15 C        0.3370     3.4440    -0.8840 C.ar  1 <1>  -0.1500 
 16 C       -2.6530    -3.5170    -0.2450 C.ar  1 <1>   0.1670 
 17 C        1.2720     2.4260    -0.9700 C.ar  1 <1>  -0.1440 
 18 N       -1.7100    -3.7000     0.6640 N.ar  1 <1>  -0.6200 
 19 C       -3.5060    -4.5180    -0.6900 C.ar  1 <1>  -0.1500 
 20 C        2.3130     2.4280    -2.0750 C.3   1 <1>  -0.0970 
 21 C       -1.6130    -4.9250     1.1540 C.ar  1 <1>   0.1600 
 22 C       -3.3940    -5.7900    -0.1720 C.ar  1 <1>  -0.1500 
 23 C       -2.4150    -5.9890     0.7780 C.ar  1 <1>  -0.1500 
 24 H       -2.4470     3.1370     1.9690 H     1 <1>   0.0800 
 25 H       -1.2220     2.6460     3.0920 H     1 <1>   0.0800 
 26 H       -3.4230     1.9940    -0.1610 H     1 <1>   0.0800 
 27 H       -2.1400     0.8760    -0.6080 H     1 <1>   0.0800 
 28 H       -2.8100    -1.6010     1.7470 H     1 <1>   0.0800 
 29 H       -4.4210    -0.9460     1.9400 H     1 <1>   0.0800 
 30 H       -3.9910     0.0100    -1.8900 H     1 <1>   0.0800 
 31 H       -4.8090    -1.8930    -0.1600 H     1 <1>   0.0800 
 32 H        0.3080     0.6030     1.6980 H     1 <1>   0.1500 
 33 H       -1.3270     4.2410     0.1730 H     1 <1>   0.1500 
 34 H       -5.4480     0.6250     0.4390 H     1 <1>   0.4000 
 35 H       -1.8400    -1.6040    -0.7170 H     1 <1>   0.0800 
 36 H       -2.9940    -2.1970    -1.8690 H     1 <1>   0.0800 
 37 H        1.9770     0.6130    -0.0800 H     1 <1>   0.1500 
 38 H        0.3440     4.2450    -1.6030 H     1 <1>   0.1500 
 39 H       -4.2520    -4.3050    -1.4330 H     1 <1>   0.1500 
 40 H        2.5640     1.4210    -2.3560 H     1 <1>   0.0800 
 41 H        3.2030     2.9260    -1.7340 H     1 <1>   0.0800 
 42 H        1.9400     2.9400    -2.9440 H     1 <1>   0.0800 
 43 H       -0.8510    -5.0900     1.8970 H     1 <1>   0.1500 
 44 H       -4.0380    -6.5900    -0.4930 H     1 <1>   0.1500 
 45 H       -2.2730    -6.9560     1.2250 H     1 <1>   0.1500 
@<TRIPOS>BOND
  1   1   2  2   
  2   2   3  am  
  3   2   4  1   
  4   3   5  1   
  5   3   6  1   
  6   4   7  1   
  7   4  24  1   
  8   4  25  1   
  9   5   8  1   
 10   5  26  1   
 11   5  27  1   
 12   6   9  1   
 13   6  28  1   
 14   6  29  1   
 15   7  10  ar  
 16   7  11  ar  
 17   8   9  1   
 18   8  12  1   
 19   8  30  1   
 20   9  13  1   
 21   9  31  1   
 22  10  14  ar  
 23  10  32  1   
 24  11  15  ar  
 25  11  33  1   
 26  12  34  1   
 27  13  16  1   
 28  13  35  1   
 29  13  36  1   
 30  14  17  ar  
 31  14  37  1   
 32  15  17  ar  
 33  15  38  1   
 34  16  18  ar  
 35  16  19  ar  
 36  17  20  1   
 37  18  21  ar  
 38  19  22  ar  
 39  19  39  1   
 40  20  40  1   
 41  20  41  1   
 42  20  42  1   
 43  21  23  ar  
 44  21  43  1   
 45  22  23  ar  
 46  22  44  1   
 47  23  45  1   
@<TRIPOS>SUBSTRUCTURE
  1 ****   3 GROUP 4 **** **** 0

# MOE 2024.06 (io_trps.svl 2023.06)
