@<TRIPOS>MOLECULE
NONAME
53 56 1 0 0 
SMALL
USER_CHARGES


@<TRIPOS>ATOM
  1 O       -1.5050    -1.5360     0.4150 O.3   1 <1>  -0.3630 
  2 C       -2.3740    -0.4960     0.3910 C.ar  1 <1>   0.0830 
  3 C       -0.3910    -1.5810    -0.4490 C.3   1 <1>   0.0400 
  4 C       -2.3090     0.5500    -0.5250 C.ar  1 <1>  -0.1500 
  5 C       -3.3750    -0.5000     1.3490 C.ar  1 <1>  -0.1500 
  6 C       -3.2460     1.5680    -0.4820 C.ar  1 <1>  -0.1500 
  7 C       -4.3090     0.5170     1.3940 C.ar  1 <1>  -0.1500 
  8 C       -4.2600     1.5540     0.4700 C.ar  1 <1>  -0.0230 
  9 N       -5.2460     2.5670     0.4800 N.pl3 1 <1>   0.3260 
 10 C       -6.4550     2.5420    -0.1390 C.2   1 <1>   0.0060 
 11 C       -5.2270     3.7650     1.0980 C.2   1 <1>  -0.3020 
 12 N       -7.1750     3.6080     0.0400 N.2   1 <1>  -0.5650 
 13 C       -6.8860     1.3470    -0.9730 C.3   1 <1>   0.5230 
 14 C       -6.3960     4.3820     0.8230 C.2   1 <1>   0.0770 
 15 N       -8.3370     1.5000    -1.2730 N.4   1 <1>  -0.9590 
 16 C       -9.1750     1.0750    -0.1110 C.3   1 <1>   0.4230 
 17 C       -8.7040     0.9640    -2.6170 C.3   1 <1>   0.2630 
 18 C       -9.2910    -0.4470     0.0200 C.3   1 <1>  -0.1600 
 19 C      -10.6160     1.5620    -0.2620 C.3   1 <1>  -0.1600 
 20 C      -10.5710    -0.8600    -0.7240 C.3   1 <1>  -0.0800 
 21 C      -11.4140     0.4100    -0.8920 C.3   1 <1>  -0.0800 
 22 C      -11.4560    -1.8830     0.0040 C.3   1 <1>  -0.1600 
 23 C      -12.7770     0.1220    -0.2460 C.3   1 <1>  -0.1600 
 24 C      -12.8770    -1.3980    -0.2480 C.3   1 <1>   0.2000 
 25 O      -13.7150    -1.8250     0.7560 O.3   1 <1>  -0.6800 
 26 H        0.1710    -2.4700    -0.2220 H     1 <1>   0.0800 
 27 H        0.2190    -0.7110    -0.2800 H     1 <1>   0.0800 
 28 H       -0.7380    -1.6200    -1.4660 H     1 <1>   0.0800 
 29 H       -1.5380     0.5860    -1.2720 H     1 <1>   0.1500 
 30 H       -3.4070    -1.3070     2.0610 H     1 <1>   0.1500 
 31 H       -3.1820     2.3750    -1.1920 H     1 <1>   0.1500 
 32 H       -5.0710     0.5000     2.1550 H     1 <1>   0.1500 
 33 H       -4.3920     4.0990     1.6870 H     1 <1>   0.1500 
 34 H       -6.6990     0.4280    -0.4430 H     1 <1>   0.0800 
 35 H       -6.3160     1.3420    -1.8870 H     1 <1>   0.0800 
 36 H       -6.7200     5.3580     1.1530 H     1 <1>   0.1500 
 37 H       -8.4310     2.5340    -1.2800 H     1 <1>   0.4500 
 38 H       -8.7540     1.4940     0.7900 H     1 <1>   0.0800 
 39 H       -8.5960    -0.1080    -2.6360 H     1 <1>   0.0800 
 40 H       -8.0690     1.3900    -3.3770 H     1 <1>   0.0800 
 41 H       -9.7250     1.2130    -2.8510 H     1 <1>   0.0800 
 42 H       -8.4270    -0.9760    -0.3390 H     1 <1>   0.0800 
 43 H       -9.4000    -0.6660     1.0680 H     1 <1>   0.0800 
 44 H      -10.9880     1.7610     0.7270 H     1 <1>   0.0800 
 45 H      -10.6910     2.4720    -0.8300 H     1 <1>   0.0800 
 46 H      -10.3270    -1.2440    -1.7000 H     1 <1>   0.0800 
 47 H      -11.5620     0.5920    -1.9440 H     1 <1>   0.0800 
 48 H      -11.2580    -1.8790     1.0620 H     1 <1>   0.0800 
 49 H      -11.3130    -2.8770    -0.3830 H     1 <1>   0.0800 
 50 H      -13.5820     0.5640    -0.8050 H     1 <1>   0.0800 
 51 H      -12.8040     0.4820     0.7670 H     1 <1>   0.0800 
 52 H      -13.2500    -1.7610    -1.1920 H     1 <1>   0.0800 
 53 H      -13.4120    -1.4920     1.6200 H     1 <1>   0.4000 
@<TRIPOS>BOND
  1   1   2  1   
  2   1   3  1   
  3   2   4  ar  
  4   2   5  ar  
  5   3  26  1   
  6   3  27  1   
  7   3  28  1   
  8   4   6  ar  
  9   4  29  1   
 10   5   7  ar  
 11   5  30  1   
 12   6   8  ar  
 13   6  31  1   
 14   7   8  ar  
 15   7  32  1   
 16   8   9  1   
 17   9  10  1   
 18   9  11  1   
 19  10  12  2   
 20  10  13  1   
 21  11  14  2   
 22  11  33  1   
 23  12  14  1   
 24  13  15  1   
 25  13  34  1   
 26  13  35  1   
 27  14  36  1   
 28  15  16  1   
 29  15  17  1   
 30  15  37  1   
 31  16  18  1   
 32  16  19  1   
 33  16  38  1   
 34  17  39  1   
 35  17  40  1   
 36  17  41  1   
 37  18  20  1   
 38  18  42  1   
 39  18  43  1   
 40  19  21  1   
 41  19  44  1   
 42  19  45  1   
 43  20  21  1   
 44  20  22  1   
 45  20  46  1   
 46  21  23  1   
 47  21  47  1   
 48  22  24  1   
 49  22  48  1   
 50  22  49  1   
 51  23  24  1   
 52  23  50  1   
 53  23  51  1   
 54  24  25  1   
 55  24  52  1   
 56  25  53  1   
@<TRIPOS>SUBSTRUCTURE
  1 ****  13 GROUP 4 **** **** 0

# MOE 2024.06 (io_trps.svl 2023.06)
