@<TRIPOS>MOLECULE
NONAME
51 53 1 0 0 
SMALL
USER_CHARGES


@<TRIPOS>ATOM
  1 O        0.3100     0.5560    -1.3560 O.2   1 <1>  -0.5700 
  2 C        0.2530     1.7580    -1.5190 C.2   1 <1>   0.5440 
  3 N        1.1900     2.2840    -2.3380 N.am  1 <1>  -0.8000 
  4 C       -0.7700     2.5660    -0.8900 C.ar  1 <1>   0.0860 
  5 C       -0.6010     3.9330    -0.5830 C.ar  1 <1>   0.4100 
  6 C       -1.9970     1.9930    -0.5850 C.ar  1 <1>  -0.1500 
  7 N       -1.5730     4.6950    -0.0840 N.ar  1 <1>  -0.6200 
  8 N        0.6080     4.5940    -0.7520 N.pl3 1 <1>  -0.8380 
  9 C       -2.9930     2.7750    -0.0420 C.ar  1 <1>  -0.1430 
 10 C       -2.7290     4.1220     0.1770 C.ar  1 <1>   0.1670 
 11 C        0.6100     5.9840    -1.3230 C.3   1 <1>   0.2090 
 12 C        1.7370     4.2620     0.1680 C.3   1 <1>   0.2090 
 13 C       -4.3370     2.1390     0.2910 C.3   1 <1>  -0.0970 
 14 C       -3.7890     5.0420     0.7550 C.3   1 <1>  -0.0970 
 15 C        0.6920     7.0960    -0.2660 C.3   1 <1>   0.2090 
 16 C        1.5550     4.9280     1.5370 C.3   1 <1>  -0.1600 
 17 N        2.0380     7.1160     0.3880 N.pl3 1 <1>  -0.8380 
 18 C        2.1550     6.3350     1.6430 C.3   1 <1>   0.2090 
 19 C        2.7400     8.3190     0.3530 C.ar  1 <1>   0.1000 
 20 C        3.9500     8.4250    -0.3350 C.ar  1 <1>  -0.1430 
 21 C        2.2400     9.4360     1.0120 C.ar  1 <1>  -0.1500 
 22 C        4.6290     9.6330    -0.3530 C.ar  1 <1>  -0.1500 
 23 C        4.5280     7.2230    -1.0670 C.3   1 <1>  -0.0970 
 24 C        2.9210    10.6390     0.9910 C.ar  1 <1>  -0.1500 
 25 C        4.1190    10.7380     0.3070 C.ar  1 <1>  -0.1500 
 26 H        1.9340     1.6940    -2.7060 H     1 <1>   0.3700 
 27 H        1.3390     3.3000    -2.3180 H     1 <1>   0.3700 
 28 H       -2.1570     0.9470    -0.7840 H     1 <1>   0.1500 
 29 H       -0.2930     6.1260    -1.8910 H     1 <1>   0.0800 
 30 H        1.4380     6.0910    -2.0000 H     1 <1>   0.0800 
 31 H        2.6730     4.5610    -0.2740 H     1 <1>   0.0800 
 32 H        1.7660     3.1950     0.3090 H     1 <1>   0.0800 
 33 H       -4.3000     1.0720     0.1620 H     1 <1>   0.0800 
 34 H       -5.1010     2.5320    -0.3550 H     1 <1>   0.0800 
 35 H       -4.6010     2.3420     1.3130 H     1 <1>   0.0800 
 36 H       -3.4830     6.0690     0.6620 H     1 <1>   0.0800 
 37 H       -3.9300     4.8200     1.7960 H     1 <1>   0.0800 
 38 H       -4.7180     4.9200     0.2320 H     1 <1>   0.0800 
 39 H       -0.0860     6.9620     0.4650 H     1 <1>   0.0800 
 40 H        0.5270     8.0400    -0.7550 H     1 <1>   0.0800 
 41 H        2.0370     4.3190     2.2780 H     1 <1>   0.0800 
 42 H        0.5110     4.9570     1.7930 H     1 <1>   0.0800 
 43 H        3.2020     6.2510     1.8800 H     1 <1>   0.0800 
 44 H        1.6810     6.8720     2.4460 H     1 <1>   0.0800 
 45 H        1.3110     9.3540     1.5440 H     1 <1>   0.1500 
 46 H        5.5610     9.7220    -0.8820 H     1 <1>   0.1500 
 47 H        3.8310     6.8850    -1.8100 H     1 <1>   0.0800 
 48 H        4.7020     6.4250    -0.3680 H     1 <1>   0.0800 
 49 H        5.4560     7.4690    -1.5490 H     1 <1>   0.0800 
 50 H        2.5220    11.4950     1.5060 H     1 <1>   0.1500 
 51 H        4.6530    11.6710     0.2870 H     1 <1>   0.1500 
@<TRIPOS>BOND
  1   1   2  2   
  2   2   3  am  
  3   2   4  1   
  4   3  26  1   
  5   3  27  1   
  6   4   5  ar  
  7   4   6  ar  
  8   5   7  ar  
  9   5   8  1   
 10   6   9  ar  
 11   6  28  1   
 12   7  10  ar  
 13   8  11  1   
 14   8  12  1   
 15   9  10  ar  
 16   9  13  1   
 17  10  14  1   
 18  11  15  1   
 19  11  29  1   
 20  11  30  1   
 21  12  16  1   
 22  12  31  1   
 23  12  32  1   
 24  13  33  1   
 25  13  34  1   
 26  13  35  1   
 27  14  36  1   
 28  14  37  1   
 29  14  38  1   
 30  15  17  1   
 31  15  39  1   
 32  15  40  1   
 33  16  18  1   
 34  16  41  1   
 35  16  42  1   
 36  17  18  1   
 37  17  19  1   
 38  18  43  1   
 39  18  44  1   
 40  19  20  ar  
 41  19  21  ar  
 42  20  22  ar  
 43  20  23  1   
 44  21  24  ar  
 45  21  45  1   
 46  22  25  ar  
 47  22  46  1   
 48  23  47  1   
 49  23  48  1   
 50  23  49  1   
 51  24  25  ar  
 52  24  50  1   
 53  25  51  1   
@<TRIPOS>SUBSTRUCTURE
  1 ****   8 GROUP 4 **** **** 0

# MOE 2024.06 (io_trps.svl 2023.06)
