@<TRIPOS>MOLECULE
NONAME
35 36 1 0 0 
SMALL
USER_CHARGES


@<TRIPOS>ATOM
  1 O       -6.0950     4.8800     0.8970 O.2   1 <1>  -0.5700 
  2 C       -5.1750     4.4680     0.2570 C.2   1 <1>   0.4490 
  3 C       -5.0990     3.0470    -0.2990 C.3   1 <1>  -0.0190 
  4 C       -6.4070     2.2630    -0.0890 C.3   1 <1>  -0.1600 
  5 C       -3.9370     2.2680     0.3380 C.3   1 <1>  -0.1600 
  6 C       -6.2830     0.8150    -0.5700 C.3   1 <1>   0.1100 
  7 C       -3.8890     0.8100    -0.1400 C.3   1 <1>   0.1100 
  8 N       -5.1750     0.1220     0.1250 N.3   1 <1>  -0.3020 
  9 N       -5.1820    -1.3440    -0.1960 N.4   1 <1>  -0.6940 
 10 C       -6.2960    -2.0070     0.5550 C.3   1 <1>   0.3430 
 11 C       -3.8940    -2.0460     0.1170 C.3   1 <1>   0.3430 
 12 C       -6.4400    -3.4670     0.1160 C.3   1 <1>  -0.1600 
 13 C       -3.9630    -3.5100    -0.3310 C.3   1 <1>  -0.1600 
 14 C       -5.1370    -4.2480     0.3210 C.3   1 <1>  -0.1600 
 15 H       -4.3290     5.0950     0.0350 H     1 <1>   0.0600 
 16 H       -4.9210     3.1290    -1.3570 H     1 <1>   0.0800 
 17 H       -7.2050     2.7510    -0.6220 H     1 <1>   0.0800 
 18 H       -6.6720     2.2650     0.9550 H     1 <1>   0.0800 
 19 H       -4.0410     2.2800     1.4100 H     1 <1>   0.0800 
 20 H       -3.0050     2.7490     0.0980 H     1 <1>   0.0800 
 21 H       -6.1100     0.8000    -1.6330 H     1 <1>   0.0800 
 22 H       -7.2160     0.3190    -0.3740 H     1 <1>   0.0800 
 23 H       -3.0920     0.3280     0.3980 H     1 <1>   0.0800 
 24 H       -3.6680     0.7750    -1.1930 H     1 <1>   0.0800 
 25 H       -5.3630    -1.4800    -1.2000 H     1 <1>   0.4500 
 26 H       -7.2250    -1.4940     0.3730 H     1 <1>   0.0800 
 27 H       -6.0870    -1.9670     1.6110 H     1 <1>   0.0800 
 28 H       -3.7100    -2.0010     1.1780 H     1 <1>   0.0800 
 29 H       -3.0790    -1.5680    -0.3990 H     1 <1>   0.0800 
 30 H       -6.7360    -3.5040    -0.9190 H     1 <1>   0.0800 
 31 H       -7.2240    -3.9300     0.6900 H     1 <1>   0.0800 
 32 H       -3.0430    -4.0020    -0.0640 H     1 <1>   0.0800 
 33 H       -4.0490    -3.5530    -1.4030 H     1 <1>   0.0800 
 34 H       -5.2300    -5.2360    -0.0990 H     1 <1>   0.0800 
 35 H       -4.9490    -4.3590     1.3770 H     1 <1>   0.0800 
@<TRIPOS>BOND
  1   1   2  2   
  2   2   3  1   
  3   2  15  1   
  4   3   4  1   
  5   3   5  1   
  6   3  16  1   
  7   4   6  1   
  8   4  17  1   
  9   4  18  1   
 10   5   7  1   
 11   5  19  1   
 12   5  20  1   
 13   6   8  1   
 14   6  21  1   
 15   6  22  1   
 16   7   8  1   
 17   7  23  1   
 18   7  24  1   
 19   8   9  1   
 20   9  10  1   
 21   9  11  1   
 22   9  25  1   
 23  10  12  1   
 24  10  26  1   
 25  10  27  1   
 26  11  13  1   
 27  11  28  1   
 28  11  29  1   
 29  12  14  1   
 30  12  30  1   
 31  12  31  1   
 32  13  14  1   
 33  13  32  1   
 34  13  33  1   
 35  14  34  1   
 36  14  35  1   
@<TRIPOS>SUBSTRUCTURE
  1 ****   8 GROUP 4 **** **** 0

# MOE 2024.06 (io_trps.svl 2023.06)
