@<TRIPOS>MOLECULE
NONAME
44 47 1 0 0 
SMALL
USER_CHARGES


@<TRIPOS>ATOM
  1 O       -0.7780     1.1820    -1.9120 O.2   1 <1>  -0.5700 
  2 C       -1.7950     1.6160    -1.4240 C.2   1 <1>   0.5690 
  3 N       -2.7010     0.7910    -0.8060 N.am  1 <1>  -0.6600 
  4 C       -1.9950     3.1120    -1.4920 C.3   1 <1>   0.1570 
  5 C       -2.4550    -0.6840    -0.6920 C.3   1 <1>   0.1400 
  6 C       -3.8910     1.2410    -0.0090 C.3   1 <1>   0.1400 
  7 N       -1.6660     3.6710    -0.1830 N.pl3 1 <1>   0.3140 
  8 C       -3.7510    -1.4970    -0.8720 C.3   1 <1>   0.3440 
  9 C       -5.1110     0.3170    -0.2250 C.3   1 <1>   0.2950 
 10 N       -2.5450     4.2630     0.6070 N.2   1 <1>  -0.4180 
 11 C       -0.5030     3.6190     0.4620 C.2   1 <1>   0.2710 
 12 O       -4.7470    -1.0150    -0.0110 O.3   1 <1>  -0.5600 
 13 C       -3.4980    -2.9730    -0.5830 C.ar  1 <1>  -0.1440 
 14 C       -6.3040     0.6080     0.7020 C.3   1 <1>  -0.1950 
 15 N       -1.9090     4.5580     1.6810 N.2   1 <1>   0.0000 
 16 N       -0.6360     4.1660     1.6130 N.2   1 <1>  -0.3380 
 17 N        0.6770     3.0550     0.0000 N.pl3 1 <1>  -0.8840 
 18 C       -3.5720    -3.4770     0.7090 C.ar  1 <1>  -0.1500 
 19 C       -3.1710    -3.8320    -1.6230 C.ar  1 <1>  -0.1500 
 20 C       -6.6220     1.9700     1.2440 C.3   1 <1>  -0.2000 
 21 C       -6.1720     0.8740     2.1700 C.3   1 <1>  -0.2000 
 22 C       -3.3220    -4.8160     0.9570 C.ar  1 <1>  -0.1500 
 23 C       -2.9200    -5.1710    -1.3770 C.ar  1 <1>  -0.1500 
 24 C       -2.9950    -5.6630    -0.0860 C.ar  1 <1>  -0.1500 
 25 H       -3.0060     3.3550    -1.7510 H     1 <1>   0.0800 
 26 H       -1.3320     3.5350    -2.2230 H     1 <1>   0.0800 
 27 H       -1.7410    -1.0060    -1.4300 H     1 <1>   0.0800 
 28 H       -2.0420    -0.8990     0.2770 H     1 <1>   0.0800 
 29 H       -3.6250     1.2420     1.0330 H     1 <1>   0.0800 
 30 H       -4.1740     2.2410    -0.2760 H     1 <1>   0.0800 
 31 H       -4.1070    -1.3920    -1.8820 H     1 <1>   0.0800 
 32 H       -5.4450     0.4120    -1.2450 H     1 <1>   0.0800 
 33 H       -7.1500     0.0120     0.4070 H     1 <1>   0.1000 
 34 H        0.6000     2.2280    -0.6120 H     1 <1>   0.4000 
 35 H        1.3910     2.9350     0.7240 H     1 <1>   0.4000 
 36 H       -3.8300    -2.8260     1.5270 H     1 <1>   0.1500 
 37 H       -3.1080    -3.4660    -2.6330 H     1 <1>   0.1500 
 38 H       -5.9550     2.8040     1.1070 H     1 <1>   0.1000 
 39 H       -7.6520     2.2810     1.2840 H     1 <1>   0.1000 
 40 H       -6.8910     0.4240     2.8330 H     1 <1>   0.1000 
 41 H       -5.1960     0.9360     2.6170 H     1 <1>   0.1000 
 42 H       -3.3840    -5.1960     1.9610 H     1 <1>   0.1500 
 43 H       -2.6680    -5.8300    -2.1890 H     1 <1>   0.1500 
 44 H       -2.8000    -6.7040     0.1060 H     1 <1>   0.1500 
@<TRIPOS>BOND
  1   1   2  2   
  2   2   3  am  
  3   2   4  1   
  4   3   5  1   
  5   3   6  1   
  6   4   7  1   
  7   4  25  1   
  8   4  26  1   
  9   5   8  1   
 10   5  27  1   
 11   5  28  1   
 12   6   9  1   
 13   6  29  1   
 14   6  30  1   
 15   7  10  1   
 16   7  11  1   
 17   8  12  1   
 18   8  13  1   
 19   8  31  1   
 20   9  12  1   
 21   9  14  1   
 22   9  32  1   
 23  10  15  2   
 24  11  16  2   
 25  11  17  1   
 26  13  18  ar  
 27  13  19  ar  
 28  14  20  1   
 29  14  21  1   
 30  14  33  1   
 31  15  16  1   
 32  17  34  1   
 33  17  35  1   
 34  18  22  ar  
 35  18  36  1   
 36  19  23  ar  
 37  19  37  1   
 38  20  21  1   
 39  20  38  1   
 40  20  39  1   
 41  21  40  1   
 42  21  41  1   
 43  22  24  ar  
 44  22  42  1   
 45  23  24  ar  
 46  23  43  1   
 47  24  44  1   
@<TRIPOS>SUBSTRUCTURE
  1 ****   3 GROUP 4 **** **** 0

# MOE 2024.06 (io_trps.svl 2023.06)
