@<TRIPOS>MOLECULE
NONAME
38 39 1 0 0 
SMALL
USER_CHARGES


@<TRIPOS>ATOM
  1 O        0.5120     1.2780     0.3530 O.2   1 <1>  -0.5700 
  2 C        1.4560     0.5100     0.3520 C.2   1 <1>   0.7150 
  3 N        2.5380     0.8220     1.1060 N.am  1 <1>  -0.7300 
  4 C        1.4830    -0.6850    -0.4500 C.2   1 <1>  -0.2370 
  5 C        2.7380     2.0680     1.8540 C.3   1 <1>   0.4000 
  6 N        0.4190    -1.1740    -1.1750 N.pl3 1 <1>   0.0480 
  7 C        2.5400    -1.5400    -0.6550 C.2   1 <1>  -0.1500 
  8 C        3.9110     2.8290     1.2380 C.2   1 <1>   0.0060 
  9 C        2.9700     1.6950     3.3170 C.3   1 <1>  -0.2400 
 10 C        0.8230    -2.3020    -1.8070 C.2   1 <1>  -0.3020 
 11 C       -0.9440    -0.6160    -1.2730 C.3   1 <1>   0.0160 
 12 C        2.1220    -2.5550    -1.5080 C.2   1 <1>  -0.1500 
 13 N        5.0850     2.9550     1.7560 N.2   1 <1>  -0.5650 
 14 N        3.8400     3.4600     0.0540 N.pl3 1 <1>   0.3140 
 15 C        5.7120     3.6960     0.8360 C.2   1 <1>   0.3660 
 16 N        5.0140     4.0250    -0.1970 N.2   1 <1>  -0.7070 
 17 C        2.7150     3.5640    -0.9040 C.3   1 <1>   0.0960 
 18 C        2.9030     2.5930    -2.0810 C.3   1 <1>  -0.1600 
 19 C        1.6640     2.5620    -2.9810 C.3   1 <1>  -0.2400 
 20 H        3.3520     0.2110     1.0750 H     1 <1>   0.3700 
 21 H        1.8550     2.6830     1.7990 H     1 <1>   0.0800 
 22 H        3.5330    -1.4700    -0.2480 H     1 <1>   0.1500 
 23 H        3.8410     1.0730     3.4150 H     1 <1>   0.0800 
 24 H        2.1120     1.1800     3.7090 H     1 <1>   0.0800 
 25 H        3.1260     2.5890     3.8940 H     1 <1>   0.0800 
 26 H        0.1700    -2.8760    -2.4410 H     1 <1>   0.1500 
 27 H       -1.3650    -0.5330    -0.2880 H     1 <1>   0.0800 
 28 H       -1.5590    -1.2600    -1.8730 H     1 <1>   0.0800 
 29 H       -0.8970     0.3580    -1.7240 H     1 <1>   0.0800 
 30 H        2.7290    -3.3750    -1.8540 H     1 <1>   0.1500 
 31 H        6.7410     3.9880     0.9720 H     1 <1>   0.1500 
 32 H        2.6780     4.5740    -1.2690 H     1 <1>   0.0800 
 33 H        1.7940     3.3580    -0.3930 H     1 <1>   0.0800 
 34 H        3.0880     1.6000    -1.7100 H     1 <1>   0.0800 
 35 H        3.7580     2.9000    -2.6590 H     1 <1>   0.0800 
 36 H        0.8010     2.2420    -2.4220 H     1 <1>   0.0800 
 37 H        1.8180     1.8730    -3.7930 H     1 <1>   0.0800 
 38 H        1.4700     3.5380    -3.3920 H     1 <1>   0.0800 
@<TRIPOS>BOND
  1   1   2  2   
  2   2   3  am  
  3   2   4  1   
  4   3   5  1   
  5   3  20  1   
  6   4   6  1   
  7   4   7  2   
  8   5   8  1   
  9   5   9  1   
 10   5  21  1   
 11   6  10  1   
 12   6  11  1   
 13   7  12  1   
 14   7  22  1   
 15   8  13  2   
 16   8  14  1   
 17   9  23  1   
 18   9  24  1   
 19   9  25  1   
 20  10  12  2   
 21  10  26  1   
 22  11  27  1   
 23  11  28  1   
 24  11  29  1   
 25  12  30  1   
 26  13  15  1   
 27  14  16  1   
 28  14  17  1   
 29  15  16  2   
 30  15  31  1   
 31  17  18  1   
 32  17  32  1   
 33  17  33  1   
 34  18  19  1   
 35  18  34  1   
 36  18  35  1   
 37  19  36  1   
 38  19  37  1   
 39  19  38  1   
@<TRIPOS>SUBSTRUCTURE
  1 ****   3 GROUP 4 **** **** 0

# MOE 2024.06 (io_trps.svl 2023.06)
