@<TRIPOS>MOLECULE
NONAME
51 52 1 0 0 
SMALL
USER_CHARGES


@<TRIPOS>ATOM
  1 O       -0.6900    -0.4060    -2.1440 O.2   1 <1>  -0.5700 
  2 C       -1.3880     0.2160    -1.3800 C.2   1 <1>   0.5690 
  3 N       -2.1660    -0.4120    -0.4370 N.am  1 <1>  -0.6600 
  4 C       -1.3510     1.7340    -1.5080 C.3   1 <1>  -0.0990 
  5 C       -2.1230    -1.9000    -0.3250 C.3   1 <1>   0.3200 
  6 C       -2.9670     0.3110     0.6010 C.3   1 <1>   0.1400 
  7 C       -0.2460     2.3600    -0.6420 C.3   1 <1>  -0.1600 
  8 C       -3.5240    -2.4760    -0.2720 C.2   1 <1>  -0.3320 
  9 C       -4.3860     0.6180     0.1060 C.3   1 <1>   0.1200 
 10 C       -0.2330     3.8910    -0.7750 C.3   1 <1>  -0.1600 
 11 N       -4.1890    -2.7780     0.8600 N.pl3 1 <1>   0.0330 
 12 C       -4.3540    -2.7860    -1.2910 C.2   1 <1>   0.0770 
 13 O       -5.0610     1.2990     1.1080 O.3   1 <1>  -0.6800 
 14 C        0.7680     4.5830     0.1700 C.3   1 <1>  -0.0800 
 15 C       -5.3900    -3.2430     0.4530 C.2   1 <1>   0.0060 
 16 N       -5.5270    -3.2620    -0.8310 N.2   1 <1>  -0.5650 
 17 C        0.5800     6.1090     0.0940 C.3   1 <1>  -0.1600 
 18 C        2.2290     4.2100    -0.1530 C.3   1 <1>  -0.1600 
 19 C       -6.4640    -3.6950     1.4180 C.3   1 <1>  -0.0600 
 20 C        1.5680     6.8510     1.0040 C.3   1 <1>  -0.1600 
 21 C        3.2200     4.9580     0.7510 C.3   1 <1>  -0.1600 
 22 C        3.0150     6.4750     0.6690 C.3   1 <1>  -0.1600 
 23 H       -2.3050     2.1540    -1.2590 H     1 <1>   0.0800 
 24 H       -1.1620     1.9710    -2.5400 H     1 <1>   0.0800 
 25 H       -1.5700    -2.1770     0.5560 H     1 <1>   0.0800 
 26 H       -1.6160    -2.3280    -1.1730 H     1 <1>   0.0800 
 27 H       -2.4810     1.2330     0.8610 H     1 <1>   0.0800 
 28 H       -3.0230    -0.2880     1.4920 H     1 <1>   0.0800 
 29 H        0.7000     1.9540    -0.9560 H     1 <1>   0.0800 
 30 H       -0.3950     2.0900     0.3890 H     1 <1>   0.0800 
 31 H       -4.9320    -0.2830    -0.1090 H     1 <1>   0.0800 
 32 H       -4.3630     1.2420    -0.7690 H     1 <1>   0.0800 
 33 H       -1.2200     4.2600    -0.5530 H     1 <1>   0.0800 
 34 H       -0.0080     4.1600    -1.7940 H     1 <1>   0.0800 
 35 H       -3.8710    -2.6770     1.8280 H     1 <1>   0.2700 
 36 H       -4.1680    -2.6840    -2.3480 H     1 <1>   0.1500 
 37 H       -5.9860     1.4720     0.8370 H     1 <1>   0.4000 
 38 H        0.5540     4.2720     1.1790 H     1 <1>   0.0800 
 39 H       -0.4240     6.3660     0.3850 H     1 <1>   0.0800 
 40 H        0.7240     6.4380    -0.9210 H     1 <1>   0.0800 
 41 H        2.4400     4.4480    -1.1810 H     1 <1>   0.0800 
 42 H        2.3820     3.1550    -0.0200 H     1 <1>   0.0800 
 43 H       -6.7460    -2.8840     2.0640 H     1 <1>   0.0800 
 44 H       -6.1070    -4.5180     2.0090 H     1 <1>   0.0800 
 45 H       -7.3320    -4.0160     0.8700 H     1 <1>   0.0800 
 46 H        1.3630     6.6020     2.0310 H     1 <1>   0.0800 
 47 H        1.4360     7.9130     0.8900 H     1 <1>   0.0800 
 48 H        4.2270     4.7140     0.4590 H     1 <1>   0.0800 
 49 H        3.0840     4.6360     1.7690 H     1 <1>   0.0800 
 50 H        3.6850     6.9680     1.3530 H     1 <1>   0.0800 
 51 H        3.2510     6.8130    -0.3260 H     1 <1>   0.0800 
@<TRIPOS>BOND
  1   1   2  2   
  2   2   3  am  
  3   2   4  1   
  4   3   5  1   
  5   3   6  1   
  6   4   7  1   
  7   4  23  1   
  8   4  24  1   
  9   5   8  1   
 10   5  25  1   
 11   5  26  1   
 12   6   9  1   
 13   6  27  1   
 14   6  28  1   
 15   7  10  1   
 16   7  29  1   
 17   7  30  1   
 18   8  11  1   
 19   8  12  2   
 20   9  13  1   
 21   9  31  1   
 22   9  32  1   
 23  10  14  1   
 24  10  33  1   
 25  10  34  1   
 26  11  15  1   
 27  11  35  1   
 28  12  16  1   
 29  12  36  1   
 30  13  37  1   
 31  14  17  1   
 32  14  18  1   
 33  14  38  1   
 34  15  16  2   
 35  15  19  1   
 36  17  20  1   
 37  17  39  1   
 38  17  40  1   
 39  18  21  1   
 40  18  41  1   
 41  18  42  1   
 42  19  43  1   
 43  19  44  1   
 44  19  45  1   
 45  20  22  1   
 46  20  46  1   
 47  20  47  1   
 48  21  22  1   
 49  21  48  1   
 50  21  49  1   
 51  22  50  1   
 52  22  51  1   
@<TRIPOS>SUBSTRUCTURE
  1 ****   3 GROUP 4 **** **** 0

# MOE 2024.06 (io_trps.svl 2023.06)
