@<TRIPOS>MOLECULE
NONAME
54 56 1 0 0 
SMALL
USER_CHARGES


@<TRIPOS>ATOM
  1 S       -0.8280     0.1000     1.0580 S.o2  1 <1>   1.4470 
  2 O       -0.1370    -0.8840     1.8540 O.2   1 <1>  -0.6500 
  3 O       -1.3540     1.2820     1.6940 O.2   1 <1>  -0.6500 
  4 N        0.3970     0.6750     0.1040 N.am  1 <1>  -0.9780 
  5 C       -2.0020    -0.6770    -0.1020 C.ar  1 <1>  -0.0090 
  6 C       -2.8530     0.0400    -0.9530 C.ar  1 <1>  -0.1430 
  7 C       -2.0450    -2.0640    -0.1490 C.ar  1 <1>  -0.1500 
  8 C       -3.7290    -0.6410    -1.7980 C.ar  1 <1>  -0.1430 
  9 C       -2.8170     1.5710    -0.9430 C.3   1 <1>  -0.0970 
 10 C       -2.9050    -2.7670    -0.9810 C.ar  1 <1>   0.0860 
 11 C       -3.7390    -2.0240    -1.8060 C.ar  1 <1>  -0.1500 
 12 C       -4.7000     0.0720    -2.7330 C.3   1 <1>  -0.0970 
 13 C       -2.9290    -4.2170    -0.9750 C.2   1 <1>   0.5440 
 14 O       -1.8940    -4.8400    -1.1200 O.2   1 <1>  -0.5700 
 15 N       -4.1020    -4.9070    -0.7890 N.am  1 <1>  -0.6600 
 16 C       -5.3530    -4.3210    -0.2610 C.3   1 <1>   0.1400 
 17 C       -4.1750    -6.3830    -0.7960 C.3   1 <1>   0.1400 
 18 C       -6.0700    -5.4790     0.4450 C.3   1 <1>  -0.0800 
 19 C       -5.5820    -6.7350    -0.3010 C.3   1 <1>  -0.0800 
 20 C       -7.6180    -5.3450     0.5790 C.3   1 <1>   0.2800 
 21 C       -6.5380    -7.0950    -1.4490 C.3   1 <1>  -0.1600 
 22 O       -8.1180    -4.5380    -0.4260 O.3   1 <1>  -0.6800 
 23 C       -8.2870    -6.7220     0.4090 C.3   1 <1>  -0.1600 
 24 C       -8.0480    -4.7110     1.9190 C.3   1 <1>  -0.1600 
 25 C       -7.9540    -7.4110    -0.9330 C.3   1 <1>  -0.1600 
 26 C       -7.5180    -3.2910     2.1850 C.3   1 <1>  -0.2400 
 27 H        1.1050    -0.0520     0.1650 H     1 <1>   0.4200 
 28 H        0.7600     1.4580     0.6390 H     1 <1>   0.4200 
 29 H       -1.3910    -2.6390     0.4850 H     1 <1>   0.1500 
 30 H       -3.3000     2.0060    -1.7960 H     1 <1>   0.0800 
 31 H       -1.8040     1.9280    -0.9540 H     1 <1>   0.0800 
 32 H       -3.3040     1.9420    -0.0580 H     1 <1>   0.0800 
 33 H       -4.4030    -2.5580    -2.4630 H     1 <1>   0.1500 
 34 H       -5.3620    -0.6250    -3.2140 H     1 <1>   0.0800 
 35 H       -4.1560     0.5990    -3.4960 H     1 <1>   0.0800 
 36 H       -5.3020     0.7700    -2.1800 H     1 <1>   0.0800 
 37 H       -5.1500    -3.5110     0.4170 H     1 <1>   0.0800 
 38 H       -5.9210    -3.9530    -1.0970 H     1 <1>   0.0800 
 39 H       -3.9870    -6.7610    -1.7860 H     1 <1>   0.0800 
 40 H       -3.4310    -6.7720    -0.1220 H     1 <1>   0.0800 
 41 H       -5.6560    -5.5450     1.4350 H     1 <1>   0.0800 
 42 H       -5.5210    -7.5760     0.3690 H     1 <1>   0.0800 
 43 H       -6.5920    -6.2590    -2.1270 H     1 <1>   0.0800 
 44 H       -6.1590    -7.9360    -2.0030 H     1 <1>   0.0800 
 45 H       -9.0900    -4.5260    -0.3730 H     1 <1>   0.4000 
 46 H       -7.9400    -7.3570     1.2050 H     1 <1>   0.0800 
 47 H       -9.3540    -6.6420     0.5190 H     1 <1>   0.0800 
 48 H       -9.1230    -4.6880     1.9640 H     1 <1>   0.0800 
 49 H       -7.7200    -5.3480     2.7220 H     1 <1>   0.0800 
 50 H       -8.0640    -8.4740    -0.8100 H     1 <1>   0.0800 
 51 H       -8.6630    -7.0990    -1.6810 H     1 <1>   0.0800 
 52 H       -7.7770    -2.6280     1.3790 H     1 <1>   0.0800 
 53 H       -6.4490    -3.2960     2.3010 H     1 <1>   0.0800 
 54 H       -7.9480    -2.9050     3.0920 H     1 <1>   0.0800 
@<TRIPOS>BOND
  1   1   2  2   
  2   1   3  2   
  3   1   4  am  
  4   1   5  1   
  5   4  27  1   
  6   4  28  1   
  7   5   6  ar  
  8   5   7  ar  
  9   6   8  ar  
 10   6   9  1   
 11   7  10  ar  
 12   7  29  1   
 13   8  11  ar  
 14   8  12  1   
 15   9  30  1   
 16   9  31  1   
 17   9  32  1   
 18  10  11  ar  
 19  10  13  1   
 20  11  33  1   
 21  12  34  1   
 22  12  35  1   
 23  12  36  1   
 24  13  14  2   
 25  13  15  am  
 26  15  16  1   
 27  15  17  1   
 28  16  18  1   
 29  16  37  1   
 30  16  38  1   
 31  17  19  1   
 32  17  39  1   
 33  17  40  1   
 34  18  19  1   
 35  18  20  1   
 36  18  41  1   
 37  19  21  1   
 38  19  42  1   
 39  20  22  1   
 40  20  23  1   
 41  20  24  1   
 42  21  25  1   
 43  21  43  1   
 44  21  44  1   
 45  22  45  1   
 46  23  25  1   
 47  23  46  1   
 48  23  47  1   
 49  24  26  1   
 50  24  48  1   
 51  24  49  1   
 52  25  50  1   
 53  25  51  1   
 54  26  52  1   
 55  26  53  1   
 56  26  54  1   
@<TRIPOS>SUBSTRUCTURE
  1 ****  10 GROUP 4 **** **** 0

# MOE 2024.06 (io_trps.svl 2023.06)
