@<TRIPOS>MOLECULE
NONAME
45 46 1 0 0 
SMALL
USER_CHARGES


@<TRIPOS>ATOM
  1 O       -1.4810     0.7510    -2.1970 O.2   1 <1>  -0.5700 
  2 C       -1.9010     1.1610    -1.1300 C.2   1 <1>   0.5440 
  3 N       -3.0240     0.5730    -0.5900 N.am  1 <1>  -0.6600 
  4 C       -1.2100     2.2560    -0.4740 C.ar  1 <1>   0.0860 
  5 C       -3.5380    -0.7310    -1.1380 C.3   1 <1>   0.1400 
  6 C       -3.8550     1.2160     0.4810 C.3   1 <1>   0.1400 
  7 C       -0.8920     2.2230     0.8850 C.ar  1 <1>  -0.1500 
  8 C       -0.8240     3.3880    -1.1930 C.ar  1 <1>  -0.1500 
  9 C       -4.4250    -1.4290    -0.0990 C.3   1 <1>   0.2000 
 10 C       -5.3370     0.9270     0.2310 C.3   1 <1>  -0.1600 
 11 C       -0.2370     3.2750     1.4970 C.ar  1 <1>  -0.1500 
 12 C       -0.1670     4.4440    -0.5900 C.ar  1 <1>  -0.1500 
 13 O       -4.8010    -2.6950    -0.5140 O.3   1 <1>  -0.6800 
 14 C       -5.6670    -0.5980     0.3220 C.3   1 <1>  -0.1060 
 15 C        0.1310     4.3940     0.7690 C.ar  1 <1>   0.0820 
 16 C       -5.8980    -1.0470     1.7760 C.2   1 <1>   0.9060 
 17 C       -6.9740    -0.8740    -0.4950 C.3   1 <1>  -0.1600 
 18 O        0.7690     5.3810     1.4380 O.3   1 <1>  -0.3630 
 19 O       -5.7640    -0.2470     2.7090 O.co2 1 <1>  -0.9000 
 20 O       -6.1580    -2.2430     1.9790 O.co2 1 <1>  -0.9000 
 21 C       -6.8870    -0.7450    -2.0290 C.3   1 <1>  -0.1600 
 22 C        1.2150     6.5500     0.7870 C.3   1 <1>   0.0400 
 23 C       -8.2510    -1.0060    -2.6730 C.3   1 <1>  -0.2400 
 24 H       -4.0980    -0.5360    -2.0330 H     1 <1>   0.0800 
 25 H       -2.7060    -1.3680    -1.3790 H     1 <1>   0.0800 
 26 H       -3.5730     0.8280     1.4450 H     1 <1>   0.0800 
 27 H       -3.6990     2.2810     0.4820 H     1 <1>   0.0800 
 28 H       -1.1610     1.3550     1.4630 H     1 <1>   0.1500 
 29 H       -1.0480     3.4240    -2.2460 H     1 <1>   0.1500 
 30 H       -3.8010    -1.5840     0.7660 H     1 <1>   0.0800 
 31 H       -5.9320     1.4710     0.9430 H     1 <1>   0.0800 
 32 H       -5.5770     1.3260    -0.7340 H     1 <1>   0.0800 
 33 H       -0.0030     3.2350     2.5460 H     1 <1>   0.1500 
 34 H        0.1070     5.2920    -1.1890 H     1 <1>   0.1500 
 35 H       -5.3840    -3.0390     0.2100 H     1 <1>   0.4000 
 36 H       -7.3120    -1.8720    -0.2720 H     1 <1>   0.0800 
 37 H       -7.7380    -0.2100    -0.1290 H     1 <1>   0.0800 
 38 H       -6.5530     0.2340    -2.3170 H     1 <1>   0.0800 
 39 H       -6.1850    -1.4640    -2.4120 H     1 <1>   0.0800 
 40 H        1.6970     7.1750     1.5170 H     1 <1>   0.0800 
 41 H        0.3660     7.0630     0.3710 H     1 <1>   0.0800 
 42 H        1.9160     6.2760     0.0190 H     1 <1>   0.0800 
 43 H       -8.9750    -0.2910    -2.3230 H     1 <1>   0.0800 
 44 H       -8.5950    -1.9960    -2.4260 H     1 <1>   0.0800 
 45 H       -8.1750    -0.9260    -3.7420 H     1 <1>   0.0800 
@<TRIPOS>BOND
  1   1   2  2   
  2   2   3  am  
  3   2   4  1   
  4   3   5  1   
  5   3   6  1   
  6   4   7  ar  
  7   4   8  ar  
  8   5   9  1   
  9   5  24  1   
 10   5  25  1   
 11   6  10  1   
 12   6  26  1   
 13   6  27  1   
 14   7  11  ar  
 15   7  28  1   
 16   8  12  ar  
 17   8  29  1   
 18   9  13  1   
 19   9  14  1   
 20   9  30  1   
 21  10  14  1   
 22  10  31  1   
 23  10  32  1   
 24  11  15  ar  
 25  11  33  1   
 26  12  15  ar  
 27  12  34  1   
 28  13  35  1   
 29  14  16  1   
 30  14  17  1   
 31  15  18  1   
 32  16  19  ar  
 33  16  20  ar  
 34  17  21  1   
 35  17  36  1   
 36  17  37  1   
 37  18  22  1   
 38  21  23  1   
 39  21  38  1   
 40  21  39  1   
 41  22  40  1   
 42  22  41  1   
 43  22  42  1   
 44  23  43  1   
 45  23  44  1   
 46  23  45  1   
@<TRIPOS>SUBSTRUCTURE
  1 ****   6 GROUP 4 **** **** 0

# MOE 2024.06 (io_trps.svl 2023.06)
