@<TRIPOS>MOLECULE
NONAME
44 46 1 0 0 
SMALL
USER_CHARGES


@<TRIPOS>ATOM
  1 O       -0.1480     0.2800    -0.7870 O.2   1 <1>  -0.5700 
  2 C       -1.1820     0.8950    -0.6940 C.2   1 <1>   0.5690 
  3 N       -2.3870     0.2700    -0.5440 N.am  1 <1>  -0.6600 
  4 C       -1.0810     2.4020    -0.7030 C.3   1 <1>  -0.0990 
  5 C       -3.7250     0.9050    -0.4080 C.3   1 <1>   0.1400 
  6 C       -2.4980    -1.2040    -0.4130 C.3   1 <1>   0.1400 
  7 C       -0.6150     2.8670     0.6780 C.3   1 <1>   0.0960 
  8 C       -4.7090    -0.2600    -0.3100 C.3   1 <1>   0.2000 
  9 C       -3.8840    -1.4440     0.1840 C.3   1 <1>  -0.0800 
 10 N       -0.5380     4.3360     0.7250 N.pl3 1 <1>   0.3140 
 11 O       -5.7380     0.0130     0.5760 O.3   1 <1>  -0.6800 
 12 C       -4.4860    -2.8090    -0.1840 C.3   1 <1>   0.0210 
 13 N       -1.5850     5.0890     0.9750 N.2   1 <1>  -0.4180 
 14 C        0.4940     5.1400     0.5220 C.2   1 <1>   0.0060 
 15 C       -3.5600    -3.9390     0.2230 C.2   1 <1>   0.1080 
 16 N       -1.1770     6.3050     0.9230 N.2   1 <1>   0.0000 
 17 N        0.1200     6.3550     0.6400 N.2   1 <1>  -0.3380 
 18 C        1.9090     4.7000     0.1930 C.3   1 <1>  -0.0600 
 19 N       -3.1130    -4.0810     1.4320 N.2   1 <1>  -0.7070 
 20 C       -3.0810    -4.9240    -0.6340 C.2   1 <1>  -0.1500 
 21 N       -2.3290    -5.1740     1.3780 N.pl3 1 <1>   0.3000 
 22 C       -2.2930    -5.7020     0.1360 C.2   1 <1>  -0.3320 
 23 C       -1.4930    -6.9340    -0.2430 C.3   1 <1>  -0.0600 
 24 H       -0.3610     2.6880    -1.4480 H     1 <1>   0.0800 
 25 H       -2.0230     2.8520    -0.9530 H     1 <1>   0.0800 
 26 H       -3.7490     1.5020     0.4870 H     1 <1>   0.0800 
 27 H       -3.9450     1.5110    -1.2700 H     1 <1>   0.0800 
 28 H       -2.4150    -1.6500    -1.3900 H     1 <1>   0.0800 
 29 H       -1.7240    -1.6000     0.2240 H     1 <1>   0.0800 
 30 H        0.3500     2.4530     0.9040 H     1 <1>   0.0800 
 31 H       -1.3110     2.5410     1.4300 H     1 <1>   0.0800 
 32 H       -5.1390    -0.4550    -1.2790 H     1 <1>   0.0800 
 33 H       -3.7770    -1.3870     1.2530 H     1 <1>   0.0800 
 34 H       -5.4060     0.0070     1.4950 H     1 <1>   0.4000 
 35 H       -4.6660    -2.8610    -1.2430 H     1 <1>   0.0800 
 36 H       -5.4260    -2.9350     0.3220 H     1 <1>   0.0800 
 37 H        2.5310     5.5640     0.0330 H     1 <1>   0.0800 
 38 H        1.9170     4.1040    -0.7010 H     1 <1>   0.0800 
 39 H        2.3190     4.1290     1.0060 H     1 <1>   0.0800 
 40 H       -3.3060    -5.0210    -1.6810 H     1 <1>   0.1500 
 41 H       -1.8340    -5.5330     2.2030 H     1 <1>   0.2700 
 42 H       -1.6270    -7.1550    -1.2870 H     1 <1>   0.0800 
 43 H       -1.8210    -7.7820     0.3320 H     1 <1>   0.0800 
 44 H       -0.4460    -6.7690    -0.0600 H     1 <1>   0.0800 
@<TRIPOS>BOND
  1   1   2  2   
  2   2   3  am  
  3   2   4  1   
  4   3   5  1   
  5   3   6  1   
  6   4   7  1   
  7   4  24  1   
  8   4  25  1   
  9   5   8  1   
 10   5  26  1   
 11   5  27  1   
 12   6   9  1   
 13   6  28  1   
 14   6  29  1   
 15   7  10  1   
 16   7  30  1   
 17   7  31  1   
 18   8   9  1   
 19   8  11  1   
 20   8  32  1   
 21   9  12  1   
 22   9  33  1   
 23  10  13  1   
 24  10  14  1   
 25  11  34  1   
 26  12  15  1   
 27  12  35  1   
 28  12  36  1   
 29  13  16  2   
 30  14  17  2   
 31  14  18  1   
 32  15  19  2   
 33  15  20  1   
 34  16  17  1   
 35  18  37  1   
 36  18  38  1   
 37  18  39  1   
 38  19  21  1   
 39  20  22  2   
 40  20  40  1   
 41  21  22  1   
 42  21  41  1   
 43  22  23  1   
 44  23  42  1   
 45  23  43  1   
 46  23  44  1   
@<TRIPOS>SUBSTRUCTURE
  1 ****   3 GROUP 4 **** **** 0

# MOE 2024.06 (io_trps.svl 2023.06)
