@<TRIPOS>MOLECULE
NONAME
56 59 1 0 0 
SMALL
USER_CHARGES


@<TRIPOS>ATOM
  1 S       -1.7570     1.3090     0.1750 S.3   1 <1>  -0.0800 
  2 C       -0.0880     1.7610     0.5570 C.2   1 <1>  -0.0450 
  3 C       -1.5890    -0.2540     0.9430 C.2   1 <1>  -0.1100 
  4 C        0.4220     3.0560     0.1760 C.2   1 <1>   0.7150 
  5 C        0.4870     0.7370     1.2390 C.2   1 <1>  -0.1500 
  6 C       -0.3520    -0.3960     1.4510 C.2   1 <1>  -0.1500 
  7 O        1.3200     3.5620     0.8320 O.2   1 <1>  -0.5700 
  8 N       -0.0410     3.7550    -0.9190 N.am  1 <1>  -0.6600 
  9 C        0.2200     5.2160    -1.0290 C.3   1 <1>   0.1400 
 10 C       -0.3130     3.1070    -2.2340 C.3   1 <1>   0.1400 
 11 C        1.4830     5.4190    -1.8750 C.3   1 <1>   0.2890 
 12 C        0.8490     3.3800    -3.2080 C.3   1 <1>  -0.1600 
 13 N        1.8570     6.8470    -1.9250 N.pl3 1 <1>  -0.8690 
 14 C        1.2470     4.8690    -3.2840 C.3   1 <1>  -0.1600 
 15 C        2.5330     7.5420    -0.9980 C.ar  1 <1>   0.4100 
 16 N        2.7830     8.7920    -1.3090 N.ar  1 <1>  -0.6200 
 17 C        2.9400     6.9780     0.2260 C.ar  1 <1>  -0.1500 
 18 C        3.4510     9.5330    -0.4340 C.ar  1 <1>   0.7710 
 19 C        3.6100     7.7500     1.1130 C.ar  1 <1>   0.2180 
 20 N        3.8500     9.0330     0.7510 N.ar  1 <1>  -0.1790 
 21 N        3.7330    10.8300    -0.7360 N.pl3 1 <1>  -0.8380 
 22 C        4.0900     7.2500     2.4690 C.3   1 <1>  -0.0170 
 23 C        3.1910    11.4920    -1.9830 C.3   1 <1>   0.2090 
 24 C        4.5940    11.7900     0.0420 C.3   1 <1>   0.2090 
 25 C        5.6190     7.2900     2.5930 C.3   1 <1>  -0.2400 
 26 C        4.3070    12.1920    -2.7770 C.3   1 <1>   0.1200 
 27 C        5.6380    12.4660    -0.8670 C.3   1 <1>   0.1200 
 28 O        5.0150    13.0760    -1.9550 O.3   1 <1>  -0.5600 
 29 H       -2.4420    -0.9090     0.9350 H     1 <1>   0.1500 
 30 H        1.4970     0.7540     1.6090 H     1 <1>   0.1500 
 31 H        0.0100    -1.2640     1.9760 H     1 <1>   0.1500 
 32 H        0.3540     5.6400    -0.0500 H     1 <1>   0.0800 
 33 H       -0.6220     5.6960    -1.4950 H     1 <1>   0.0800 
 34 H       -1.2310     3.5030    -2.6350 H     1 <1>   0.0800 
 35 H       -0.4310     2.0430    -2.1190 H     1 <1>   0.0800 
 36 H        2.2910     4.8660    -1.4250 H     1 <1>   0.0800 
 37 H        0.5770     3.0300    -4.1890 H     1 <1>   0.0800 
 38 H        1.7000     2.8020    -2.8890 H     1 <1>   0.0800 
 39 H        1.5900     7.3410    -2.7820 H     1 <1>   0.4000 
 40 H        2.1450     4.9710    -3.8680 H     1 <1>   0.0800 
 41 H        0.4580     5.4230    -3.7610 H     1 <1>   0.0800 
 42 H        2.7120     5.9510     0.4430 H     1 <1>   0.1500 
 43 H        4.3290     9.6740     1.3660 H     1 <1>   0.4570 
 44 H        3.7600     6.2340     2.6100 H     1 <1>   0.0800 
 45 H        3.6450     7.8400     3.2530 H     1 <1>   0.0800 
 46 H        2.4560    12.2270    -1.7020 H     1 <1>   0.0800 
 47 H        2.7040    10.7900    -2.6370 H     1 <1>   0.0800 
 48 H        5.1140    11.2980     0.8420 H     1 <1>   0.0800 
 49 H        3.9710    12.5580     0.4720 H     1 <1>   0.0800 
 50 H        6.0750     6.7000     1.8160 H     1 <1>   0.0800 
 51 H        5.9170     6.8750     3.5420 H     1 <1>   0.0800 
 52 H        5.9970     8.2950     2.5360 H     1 <1>   0.0800 
 53 H        3.8850    12.7630    -3.5850 H     1 <1>   0.0800 
 54 H        4.9940    11.4720    -3.1870 H     1 <1>   0.0800 
 55 H        6.3520    11.7490    -1.2360 H     1 <1>   0.0800 
 56 H        6.1670    13.2310    -0.3250 H     1 <1>   0.0800 
@<TRIPOS>BOND
  1   1   2  1   
  2   1   3  1   
  3   2   4  1   
  4   2   5  2   
  5   3   6  2   
  6   3  29  1   
  7   4   7  2   
  8   4   8  am  
  9   5   6  1   
 10   5  30  1   
 11   6  31  1   
 12   8   9  1   
 13   8  10  1   
 14   9  11  1   
 15   9  32  1   
 16   9  33  1   
 17  10  12  1   
 18  10  34  1   
 19  10  35  1   
 20  11  13  1   
 21  11  14  1   
 22  11  36  1   
 23  12  14  1   
 24  12  37  1   
 25  12  38  1   
 26  13  15  1   
 27  13  39  1   
 28  14  40  1   
 29  14  41  1   
 30  15  16  ar  
 31  15  17  ar  
 32  16  18  ar  
 33  17  19  ar  
 34  17  42  1   
 35  18  20  ar  
 36  18  21  1   
 37  19  20  ar  
 38  19  22  1   
 39  20  43  1   
 40  21  23  1   
 41  21  24  1   
 42  22  25  1   
 43  22  44  1   
 44  22  45  1   
 45  23  26  1   
 46  23  46  1   
 47  23  47  1   
 48  24  27  1   
 49  24  48  1   
 50  24  49  1   
 51  25  50  1   
 52  25  51  1   
 53  25  52  1   
 54  26  28  1   
 55  26  53  1   
 56  26  54  1   
 57  27  28  1   
 58  27  55  1   
 59  27  56  1   
@<TRIPOS>SUBSTRUCTURE
  1 ****  17 GROUP 4 **** **** 0

# MOE 2024.06 (io_trps.svl 2023.06)
