@<TRIPOS>MOLECULE
NONAME
53 55 1 0 0 
SMALL
USER_CHARGES


@<TRIPOS>ATOM
  1 O       -0.1560     0.2140     0.3000 O.2   1 <1>  -0.5700 
  2 C       -1.0800     0.9750     0.4810 C.2   1 <1>   0.5690 
  3 N       -2.2990     0.5340     0.9380 N.am  1 <1>  -0.6600 
  4 C       -0.8590     2.4510     0.1780 C.3   1 <1>  -0.0990 
  5 C       -3.4720     1.4090     1.2040 C.3   1 <1>   0.1400 
  6 C       -2.5250    -0.9180     1.1790 C.3   1 <1>   0.1400 
  7 C        0.5250     2.7650    -0.4280 C.3   1 <1>  -0.0990 
  8 C       -4.6040     1.1480     0.2030 C.3   1 <1>  -0.1600 
  9 C       -3.1390    -1.5540    -0.0720 C.3   1 <1>  -0.1600 
 10 C        0.7470     4.2390    -0.7370 C.2   1 <1>   0.5690 
 11 C       -5.3250    -0.1880     0.4420 C.3   1 <1>  -0.1600 
 12 C       -4.6650    -1.4080    -0.2210 C.3   1 <1>  -0.1600 
 13 O       -0.1140     5.0300    -0.4260 O.2   1 <1>  -0.5700 
 14 N        1.9050     4.6500    -1.3510 N.am  1 <1>  -0.6600 
 15 C        2.0890     6.0870    -1.7390 C.3   1 <1>   0.1400 
 16 C        2.9930     3.7360    -1.8090 C.3   1 <1>   0.0600 
 17 C        2.1910     7.0290    -0.5280 C.3   1 <1>   0.2000 
 18 O        2.5850     8.3150    -0.9970 O.3   1 <1>  -0.3630 
 19 C        3.2330     6.6170     0.5350 C.3   1 <1>  -0.0170 
 20 C        3.6370     8.7580    -0.2900 C.ar  1 <1>   0.0820 
 21 C        4.0840     7.8470     0.6300 C.ar  1 <1>  -0.1440 
 22 C        4.2400     9.9930    -0.4370 C.ar  1 <1>  -0.1500 
 23 C        5.1580     8.1420     1.4470 C.ar  1 <1>  -0.1500 
 24 C        5.3200    10.2990     0.3770 C.ar  1 <1>  -0.1500 
 25 C        5.7760     9.3790     1.3140 C.ar  1 <1>  -0.1500 
 26 H       -0.9700     3.0030     1.0930 H     1 <1>   0.0800 
 27 H       -1.6170     2.7750    -0.5110 H     1 <1>   0.0800 
 28 H       -3.1940     2.4460     1.1480 H     1 <1>   0.0800 
 29 H       -3.8230     1.2330     2.2070 H     1 <1>   0.0800 
 30 H       -3.1570    -1.0660     2.0370 H     1 <1>   0.0800 
 31 H       -1.5830    -1.3960     1.3880 H     1 <1>   0.0800 
 32 H        0.6370     2.2040    -1.3380 H     1 <1>   0.0800 
 33 H        1.2840     2.4470     0.2620 H     1 <1>   0.0800 
 34 H       -4.2330     1.2110    -0.8050 H     1 <1>   0.0800 
 35 H       -5.3250     1.9370     0.3270 H     1 <1>   0.0800 
 36 H       -2.9060    -2.6040    -0.0630 H     1 <1>   0.0800 
 37 H       -2.6490    -1.1400    -0.9370 H     1 <1>   0.0800 
 38 H       -6.3260    -0.1090     0.0520 H     1 <1>   0.0800 
 39 H       -5.4200    -0.3590     1.5010 H     1 <1>   0.0800 
 40 H       -5.1320    -2.2890     0.1870 H     1 <1>   0.0800 
 41 H       -4.8940    -1.3960    -1.2730 H     1 <1>   0.0800 
 42 H        1.2490     6.3910    -2.3390 H     1 <1>   0.0800 
 43 H        2.9810     6.1880    -2.3320 H     1 <1>   0.0800 
 44 H        2.9590     2.7930    -1.2960 H     1 <1>   0.0800 
 45 H        3.9530     4.1850    -1.6190 H     1 <1>   0.0800 
 46 H        2.8940     3.5620    -2.8670 H     1 <1>   0.0800 
 47 H        1.2250     7.1500    -0.0700 H     1 <1>   0.0800 
 48 H        3.8220     5.7760     0.2220 H     1 <1>   0.0800 
 49 H        2.7520     6.3930     1.4690 H     1 <1>   0.0800 
 50 H        3.8680    10.6880    -1.1670 H     1 <1>   0.1500 
 51 H        5.5100     7.4290     2.1720 H     1 <1>   0.1500 
 52 H        5.8060    11.2540     0.2830 H     1 <1>   0.1500 
 53 H        6.6140     9.6270     1.9420 H     1 <1>   0.1500 
@<TRIPOS>BOND
  1   1   2  2   
  2   2   3  am  
  3   2   4  1   
  4   3   5  1   
  5   3   6  1   
  6   4   7  1   
  7   4  26  1   
  8   4  27  1   
  9   5   8  1   
 10   5  28  1   
 11   5  29  1   
 12   6   9  1   
 13   6  30  1   
 14   6  31  1   
 15   7  10  1   
 16   7  32  1   
 17   7  33  1   
 18   8  11  1   
 19   8  34  1   
 20   8  35  1   
 21   9  12  1   
 22   9  36  1   
 23   9  37  1   
 24  10  13  2   
 25  10  14  am  
 26  11  12  1   
 27  11  38  1   
 28  11  39  1   
 29  12  40  1   
 30  12  41  1   
 31  14  15  1   
 32  14  16  1   
 33  15  17  1   
 34  15  42  1   
 35  15  43  1   
 36  16  44  1   
 37  16  45  1   
 38  16  46  1   
 39  17  18  1   
 40  17  19  1   
 41  17  47  1   
 42  18  20  1   
 43  19  21  1   
 44  19  48  1   
 45  19  49  1   
 46  20  21  ar  
 47  20  22  ar  
 48  21  23  ar  
 49  22  24  ar  
 50  22  50  1   
 51  23  25  ar  
 52  23  51  1   
 53  24  25  ar  
 54  24  52  1   
 55  25  53  1   
@<TRIPOS>SUBSTRUCTURE
  1 ****  10 GROUP 4 **** **** 0

# MOE 2024.06 (io_trps.svl 2023.06)
