@<TRIPOS>MOLECULE
NONAME
49 53 1 0 0 
SMALL
USER_CHARGES


@<TRIPOS>ATOM
  1 O        0.2110     0.6350     0.3820 O.2   1 <1>  -0.5700 
  2 C       -0.2500     1.7450     0.1610 C.2   1 <1>   0.5440 
  3 N       -1.6270     1.8350     0.0090 N.am  1 <1>  -0.6600 
  4 C        0.6820     2.8700     0.0300 C.ar  1 <1>   0.3960 
  5 C       -2.3550     3.0490    -0.4770 C.3   1 <1>   0.1400 
  6 C       -2.4860     0.6310     0.2360 C.3   1 <1>   0.1400 
  7 N        0.4040     4.0800     0.6110 N.ar  1 <1>  -0.6200 
  8 C        1.8550     2.6920    -0.6680 C.ar  1 <1>  -0.1500 
  9 C       -3.4730     3.4640     0.5060 C.3   1 <1>   0.1440 
 10 C       -3.9870     0.9650     0.2230 C.3   1 <1>  -0.1600 
 11 C        1.2700     5.0370     0.4730 C.ar  1 <1>   0.1600 
 12 C        2.7970     3.7180    -0.8310 C.ar  1 <1>   0.0000 
 13 C       -4.3390     4.4840    -0.2160 C.ar  1 <1>   0.1670 
 14 C       -4.2770     2.2410     1.0290 C.3   1 <1>  -0.1600 
 15 C       -2.9140     4.3050     1.6830 C.3   1 <1>  -0.1600 
 16 C        2.4880     4.9470    -0.2330 C.ar  1 <1>   0.0000 
 17 C        4.0030     3.5820    -1.5430 C.ar  1 <1>  -0.1500 
 18 N       -5.2350     4.2150    -1.1400 N.ar  1 <1>  -0.6200 
 19 C       -4.0600     5.7550     0.1950 C.ar  1 <1>  -0.1430 
 20 C       -2.9800     5.7770     1.2470 C.3   1 <1>  -0.0170 
 21 C        3.3980     6.0140    -0.3670 C.ar  1 <1>  -0.1500 
 22 C        4.8720     4.6330    -1.6590 C.ar  1 <1>  -0.1500 
 23 C       -5.8560     5.2790    -1.6290 C.ar  1 <1>   0.4770 
 24 C       -4.7630     6.7830    -0.3810 C.ar  1 <1>   0.1600 
 25 C        4.5660     5.8620    -1.0660 C.ar  1 <1>  -0.1500 
 26 N       -5.6740     6.5530    -1.3040 N.ar  1 <1>  -0.6200 
 27 C       -6.9010     5.0110    -2.6840 C.3   1 <1>  -0.0970 
 28 H       -2.8010     2.8090    -1.4270 H     1 <1>   0.0800 
 29 H       -1.6920     3.8740    -0.6510 H     1 <1>   0.0800 
 30 H       -2.2270     0.2090     1.1930 H     1 <1>   0.0800 
 31 H       -2.2680    -0.1060    -0.5180 H     1 <1>   0.0800 
 32 H        2.0660     1.7330    -1.1040 H     1 <1>   0.1500 
 33 H       -4.5360     0.1380     0.6380 H     1 <1>   0.0800 
 34 H       -4.3200     1.0920    -0.7930 H     1 <1>   0.0800 
 35 H        1.0480     5.9830     0.9340 H     1 <1>   0.1500 
 36 H       -5.3310     2.4560     1.0090 H     1 <1>   0.0800 
 37 H       -4.0080     2.0400     2.0510 H     1 <1>   0.0800 
 38 H       -1.9210     4.0050     1.9660 H     1 <1>   0.0800 
 39 H       -3.5550     4.1940     2.5400 H     1 <1>   0.0800 
 40 H        4.2320     2.6330    -1.9950 H     1 <1>   0.1500 
 41 H       -2.0470     6.0830     0.8050 H     1 <1>   0.0800 
 42 H       -3.2300     6.4250     2.0690 H     1 <1>   0.0800 
 43 H        3.1620     6.9580     0.0910 H     1 <1>   0.1500 
 44 H        5.7950     4.5290    -2.2040 H     1 <1>   0.1500 
 45 H       -4.5800     7.8020    -0.0880 H     1 <1>   0.1500 
 46 H        5.2600     6.6790    -1.1670 H     1 <1>   0.1500 
 47 H       -6.7030     4.0760    -3.1750 H     1 <1>   0.0800 
 48 H       -6.8940     5.7970    -3.4150 H     1 <1>   0.0800 
 49 H       -7.8680     4.9680    -2.2200 H     1 <1>   0.0800 
@<TRIPOS>BOND
  1   1   2  2   
  2   2   3  am  
  3   2   4  1   
  4   3   5  1   
  5   3   6  1   
  6   4   7  ar  
  7   4   8  ar  
  8   5   9  1   
  9   5  28  1   
 10   5  29  1   
 11   6  10  1   
 12   6  30  1   
 13   6  31  1   
 14   7  11  ar  
 15   8  12  ar  
 16   8  32  1   
 17   9  13  1   
 18   9  14  1   
 19   9  15  1   
 20  10  14  1   
 21  10  33  1   
 22  10  34  1   
 23  11  16  ar  
 24  11  35  1   
 25  12  16  ar  
 26  12  17  ar  
 27  13  18  ar  
 28  13  19  ar  
 29  14  36  1   
 30  14  37  1   
 31  15  20  1   
 32  15  38  1   
 33  15  39  1   
 34  16  21  ar  
 35  17  22  ar  
 36  17  40  1   
 37  18  23  ar  
 38  19  20  1   
 39  19  24  ar  
 40  20  41  1   
 41  20  42  1   
 42  21  25  ar  
 43  21  43  1   
 44  22  25  ar  
 45  22  44  1   
 46  23  26  ar  
 47  23  27  1   
 48  24  26  ar  
 49  24  45  1   
 50  25  46  1   
 51  27  47  1   
 52  27  48  1   
 53  27  49  1   
@<TRIPOS>SUBSTRUCTURE
  1 ****   5 GROUP 4 **** **** 0

# MOE 2024.06 (io_trps.svl 2023.06)
