@<TRIPOS>MOLECULE
NONAME
48 50 1 0 0 
SMALL
USER_CHARGES


@<TRIPOS>ATOM
  1 O       -1.8640     0.0230    -2.3680 O.2   1 <1>  -0.5700 
  2 C       -1.8990     0.4040    -1.2240 C.2   1 <1>   0.5690 
  3 N       -1.9410    -0.4600    -0.1830 N.am  1 <1>  -0.7300 
  4 C       -1.9100     1.8910    -0.9330 C.3   1 <1>  -0.0990 
  5 C       -1.8820    -1.9350    -0.3040 C.3   1 <1>   0.2200 
  6 C       -0.5560     2.3800    -0.3890 C.3   1 <1>  -0.1600 
  7 C       -3.2430    -2.5680    -0.0440 C.3   1 <1>  -0.0800 
  8 C       -1.0880    -2.4920     0.8700 C.3   1 <1>   0.1200 
  9 C       -0.5350     3.8980    -0.1480 C.3   1 <1>  -0.0800 
 10 C       -3.2880    -2.6790     1.4840 C.3   1 <1>   0.1200 
 11 C       -4.4510    -1.8420    -0.6650 C.3   1 <1>  -0.0160 
 12 O       -1.9800    -2.4890     1.9430 O.3   1 <1>  -0.5600 
 13 C        0.8200     4.3920     0.3480 C.3   1 <1>  -0.1600 
 14 C       -1.5040     4.3740     0.9340 C.3   1 <1>  -0.1600 
 15 C       -5.7340    -2.6230    -0.4240 C.ar  1 <1>  -0.1440 
 16 C        0.5290     5.7500     0.9850 C.3   1 <1>  -0.1600 
 17 C       -0.9390     5.7100     1.4240 C.3   1 <1>  -0.1600 
 18 C       -6.0910    -3.6920    -1.2220 C.ar  1 <1>  -0.1500 
 19 C       -6.6050    -2.3090     0.5990 C.ar  1 <1>  -0.1500 
 20 C       -7.2650    -4.3790    -0.9610 C.ar  1 <1>   0.1600 
 21 C       -7.7550    -3.0620     0.7740 C.ar  1 <1>   0.1600 
 22 N       -8.1050    -4.0910     0.0200 N.ar  1 <1>  -0.6200 
 23 H       -1.9790    -0.1210     0.7800 H     1 <1>   0.3700 
 24 H       -2.1410     2.4130    -1.8430 H     1 <1>   0.0800 
 25 H       -2.6930     2.0940    -0.2270 H     1 <1>   0.0800 
 26 H       -1.4640    -2.2230    -1.2540 H     1 <1>   0.0800 
 27 H        0.2110     2.1320    -1.1040 H     1 <1>   0.0800 
 28 H       -0.3260     1.8650     0.5270 H     1 <1>   0.0800 
 29 H       -3.2170    -3.5690    -0.4370 H     1 <1>   0.0800 
 30 H       -0.2240    -1.8980     1.1100 H     1 <1>   0.0800 
 31 H       -0.7960    -3.5110     0.6850 H     1 <1>   0.0800 
 32 H       -0.7650     4.4120    -1.0670 H     1 <1>   0.0800 
 33 H       -3.6350    -3.6470     1.8030 H     1 <1>   0.0800 
 34 H       -3.9000    -1.9100     1.9230 H     1 <1>   0.0800 
 35 H       -4.2940    -1.7310    -1.7240 H     1 <1>   0.0800 
 36 H       -4.5530    -0.8550    -0.2500 H     1 <1>   0.0800 
 37 H        1.1990     3.7240     1.1030 H     1 <1>   0.0800 
 38 H        1.5390     4.4670    -0.4490 H     1 <1>   0.0800 
 39 H       -2.5070     4.4830     0.5570 H     1 <1>   0.0800 
 40 H       -1.5090     3.6750     1.7520 H     1 <1>   0.0800 
 41 H        1.1880     5.9410     1.8140 H     1 <1>   0.0800 
 42 H        0.6600     6.5270     0.2510 H     1 <1>   0.0800 
 43 H       -1.4750     6.5280     0.9730 H     1 <1>   0.0800 
 44 H       -1.0270     5.7870     2.4950 H     1 <1>   0.0800 
 45 H       -5.4670    -3.9960    -2.0430 H     1 <1>   0.1500 
 46 H       -6.4040    -1.4880     1.2610 H     1 <1>   0.1500 
 47 H       -7.5260    -5.2100    -1.5940 H     1 <1>   0.1500 
 48 H       -8.4230    -2.8030     1.5780 H     1 <1>   0.1500 
@<TRIPOS>BOND
  1   1   2  2   
  2   2   3  am  
  3   2   4  1   
  4   3   5  1   
  5   3  23  1   
  6   4   6  1   
  7   4  24  1   
  8   4  25  1   
  9   5   7  1   
 10   5   8  1   
 11   5  26  1   
 12   6   9  1   
 13   6  27  1   
 14   6  28  1   
 15   7  10  1   
 16   7  11  1   
 17   7  29  1   
 18   8  12  1   
 19   8  30  1   
 20   8  31  1   
 21   9  13  1   
 22   9  14  1   
 23   9  32  1   
 24  10  12  1   
 25  10  33  1   
 26  10  34  1   
 27  11  15  1   
 28  11  35  1   
 29  11  36  1   
 30  13  16  1   
 31  13  37  1   
 32  13  38  1   
 33  14  17  1   
 34  14  39  1   
 35  14  40  1   
 36  15  18  ar  
 37  15  19  ar  
 38  16  17  1   
 39  16  41  1   
 40  16  42  1   
 41  17  43  1   
 42  17  44  1   
 43  18  20  ar  
 44  18  45  1   
 45  19  21  ar  
 46  19  46  1   
 47  20  22  ar  
 48  20  47  1   
 49  21  22  ar  
 50  21  48  1   
@<TRIPOS>SUBSTRUCTURE
  1 ****   3 GROUP 4 **** **** 0

# MOE 2024.06 (io_trps.svl 2023.06)
