@<TRIPOS>MOLECULE
NONAME
58 61 1 0 0 
SMALL
USER_CHARGES


@<TRIPOS>ATOM
  1 O        0.2350     1.1920     1.0320 O.3   1 <1>  -0.3630 
  2 C       -1.1040     1.3340     0.8060 C.ar  1 <1>   0.0830 
  3 C        0.7850     0.0610     1.6690 C.3   1 <1>   0.0400 
  4 C       -1.5410     2.5100     0.1330 C.ar  1 <1>   0.3100 
  5 C       -2.0100     0.3770     1.2110 C.ar  1 <1>  -0.1500 
  6 N       -0.6240     3.4380    -0.2550 N.ar  1 <1>  -0.6200 
  7 C       -2.9290     2.6710    -0.1100 C.ar  1 <1>   0.0000 
  8 C       -3.3720     0.5460     0.9680 C.ar  1 <1>  -0.1500 
  9 C       -1.0510     4.4990    -0.8750 C.ar  1 <1>   0.4100 
 10 C       -3.3590     3.8420    -0.7800 C.ar  1 <1>  -0.1440 
 11 C       -3.8180     1.6660     0.3230 C.ar  1 <1>  -0.1500 
 12 N       -0.1280     5.4410    -1.2590 N.pl3 1 <1>  -0.8380 
 13 C       -2.4050     4.7360    -1.1500 C.ar  1 <1>  -0.1500 
 14 C       -4.8260     4.1080    -1.0840 C.3   1 <1>  -0.0970 
 15 C        0.3680     6.2960    -0.1550 C.3   1 <1>   0.4330 
 16 C        1.0230     4.9660    -2.0700 C.3   1 <1>   0.2090 
 17 C       -0.4400     7.5900    -0.0410 C.ar  1 <1>  -0.1430 
 18 C        1.8380     6.5560    -0.4710 C.3   1 <1>  -0.1600 
 19 C        2.2670     5.3370    -1.2750 C.3   1 <1>  -0.1600 
 20 C       -0.7980     8.0740     1.2070 C.ar  1 <1>  -0.1500 
 21 C       -0.8290     8.2950    -1.1710 C.ar  1 <1>  -0.1500 
 22 C       -1.5260     9.2450     1.3260 C.ar  1 <1>  -0.1500 
 23 C       -1.5570     9.4660    -1.0570 C.ar  1 <1>  -0.1500 
 24 C       -1.9040     9.9530     0.1940 C.ar  1 <1>  -0.1430 
 25 C       -2.6880    11.2430     0.3220 C.3   1 <1>   0.4860 
 26 N       -1.7570    12.3210     0.7640 N.4   1 <1>  -0.9590 
 27 C       -2.4960    13.5560     1.1650 C.3   1 <1>   0.2630 
 28 C       -0.7240    12.6170    -0.2780 C.3   1 <1>   0.2630 
 29 H        1.8510     0.1920     1.7140 H     1 <1>   0.0800 
 30 H        0.5490    -0.8140     1.0910 H     1 <1>   0.0800 
 31 H        0.3830    -0.0090     2.6640 H     1 <1>   0.0800 
 32 H       -1.7060    -0.5170     1.7200 H     1 <1>   0.1500 
 33 H       -4.0620    -0.2140     1.2930 H     1 <1>   0.1500 
 34 H       -4.8700     1.7800     0.1440 H     1 <1>   0.1500 
 35 H       -2.6410     5.6500    -1.6600 H     1 <1>   0.1500 
 36 H       -5.2200     3.3270    -1.7090 H     1 <1>   0.0800 
 37 H       -4.9450     5.0440    -1.5980 H     1 <1>   0.0800 
 38 H       -5.3900     4.1490    -0.1700 H     1 <1>   0.0800 
 39 H        0.3040     5.7400     0.7670 H     1 <1>   0.0800 
 40 H        1.0140     5.4820    -3.0140 H     1 <1>   0.0800 
 41 H        0.9750     3.9040    -2.2480 H     1 <1>   0.0800 
 42 H        2.4160     6.6810     0.4250 H     1 <1>   0.0800 
 43 H        1.9260     7.4410    -1.0760 H     1 <1>   0.0800 
 44 H        3.1090     5.5330    -1.9150 H     1 <1>   0.0800 
 45 H        2.5040     4.5230    -0.6120 H     1 <1>   0.0800 
 46 H       -0.5140     7.5320     2.0930 H     1 <1>   0.1500 
 47 H       -0.5660     7.9160    -2.1450 H     1 <1>   0.1500 
 48 H       -1.7950     9.5860     2.3120 H     1 <1>   0.1500 
 49 H       -1.8470     9.9810    -1.9570 H     1 <1>   0.1500 
 50 H       -3.4730    11.1080     1.0480 H     1 <1>   0.0800 
 51 H       -3.1370    11.4980    -0.6240 H     1 <1>   0.0800 
 52 H       -1.2620    11.9380     1.5830 H     1 <1>   0.4500 
 53 H       -3.0290    13.9660     0.3220 H     1 <1>   0.0800 
 54 H       -1.8070    14.3010     1.5300 H     1 <1>   0.0800 
 55 H       -3.2040    13.3340     1.9470 H     1 <1>   0.0800 
 56 H       -1.1910    12.9800    -1.1800 H     1 <1>   0.0800 
 57 H       -0.1660    11.7240    -0.5150 H     1 <1>   0.0800 
 58 H       -0.0340    13.3650     0.0790 H     1 <1>   0.0800 
@<TRIPOS>BOND
  1   1   2  1   
  2   1   3  1   
  3   2   4  ar  
  4   2   5  ar  
  5   3  29  1   
  6   3  30  1   
  7   3  31  1   
  8   4   6  ar  
  9   4   7  ar  
 10   5   8  ar  
 11   5  32  1   
 12   6   9  ar  
 13   7  10  ar  
 14   7  11  ar  
 15   8  11  ar  
 16   8  33  1   
 17   9  12  1   
 18   9  13  ar  
 19  10  13  ar  
 20  10  14  1   
 21  11  34  1   
 22  12  15  1   
 23  12  16  1   
 24  13  35  1   
 25  14  36  1   
 26  14  37  1   
 27  14  38  1   
 28  15  17  1   
 29  15  18  1   
 30  15  39  1   
 31  16  19  1   
 32  16  40  1   
 33  16  41  1   
 34  17  20  ar  
 35  17  21  ar  
 36  18  19  1   
 37  18  42  1   
 38  18  43  1   
 39  19  44  1   
 40  19  45  1   
 41  20  22  ar  
 42  20  46  1   
 43  21  23  ar  
 44  21  47  1   
 45  22  24  ar  
 46  22  48  1   
 47  23  24  ar  
 48  23  49  1   
 49  24  25  1   
 50  25  26  1   
 51  25  50  1   
 52  25  51  1   
 53  26  27  1   
 54  26  28  1   
 55  26  52  1   
 56  27  53  1   
 57  27  54  1   
 58  27  55  1   
 59  28  56  1   
 60  28  57  1   
 61  28  58  1   
@<TRIPOS>SUBSTRUCTURE
  1 ****   9 GROUP 4 **** **** 0

# MOE 2024.06 (io_trps.svl 2023.06)
