@<TRIPOS>MOLECULE
NONAME
54 56 1 0 0 
SMALL
USER_CHARGES


@<TRIPOS>ATOM
  1 F       -1.1260    -0.7970    -0.3610 F     1 <1>  -0.1900 
  2 C       -2.2840    -0.1910    -0.4310 C.ar  1 <1>   0.1900 
  3 C       -2.4070     1.1250    -0.8900 C.ar  1 <1>   0.0830 
  4 C       -3.3850    -0.9220    -0.0300 C.ar  1 <1>  -0.1500 
  5 O       -1.4020     1.9450    -1.3110 O.3   1 <1>  -0.3630 
  6 C       -3.6780     1.6750    -0.9300 C.ar  1 <1>  -0.1500 
  7 C       -4.6400    -0.3430    -0.0840 C.ar  1 <1>  -0.1500 
  8 C       -0.0420     1.5700    -1.2890 C.3   1 <1>   0.0400 
  9 C       -4.8170     0.9690    -0.5320 C.ar  1 <1>   0.0530 
 10 C       -6.1220     1.5860    -0.5940 C.2   1 <1>   0.0870 
 11 O       -6.3410     2.5900    -1.4050 O.3   1 <1>  -0.0190 
 12 C       -7.2970     1.3380     0.0430 C.2   1 <1>  -0.0860 
 13 N       -7.5710     3.0300    -1.3560 N.2   1 <1>  -0.4100 
 14 C       -8.1680     2.2970    -0.4820 C.2   1 <1>   0.3720 
 15 C       -7.6210     0.3560     1.0270 C.2   1 <1>   0.7160 
 16 N       -9.5170     2.4500    -0.1210 N.pl3 1 <1>  -0.8210 
 17 O       -7.0730     0.4150     2.1130 O.2   1 <1>  -0.5700 
 18 N       -8.5020    -0.6800     0.7770 N.am  1 <1>  -0.6600 
 19 C       -9.7180     2.9450     1.2690 C.3   1 <1>   0.1290 
 20 C      -10.3630     3.1900    -1.0990 C.3   1 <1>   0.1290 
 21 C       -8.8640    -1.6730     1.8270 C.3   1 <1>   0.1400 
 22 C       -9.2380    -0.8270    -0.5110 C.3   1 <1>   0.1400 
 23 C       -8.7070    -3.0970     1.2780 C.3   1 <1>  -0.1600 
 24 C       -9.0640    -2.2510    -1.0480 C.3   1 <1>  -0.1600 
 25 C       -9.4890    -3.3340    -0.0320 C.3   1 <1>   0.0000 
 26 C      -11.0110    -3.2900     0.2610 C.3   1 <1>   0.1200 
 27 C       -9.1040    -4.7200    -0.5810 C.3   1 <1>  -0.2400 
 28 O      -11.7550    -3.5140    -0.8890 O.3   1 <1>  -0.6800 
 29 H       -3.2590    -1.9310     0.3190 H     1 <1>   0.1500 
 30 H       -3.7800     2.6870    -1.2790 H     1 <1>   0.1500 
 31 H       -5.4870    -0.9250     0.2270 H     1 <1>   0.1500 
 32 H        0.5390     2.4020    -1.6420 H     1 <1>   0.0800 
 33 H        0.0990     0.7250    -1.9390 H     1 <1>   0.0800 
 34 H        0.2390     1.3320    -0.2780 H     1 <1>   0.0800 
 35 H       -9.1290     2.3720     1.9640 H     1 <1>   0.0800 
 36 H      -10.7540     2.8520     1.5440 H     1 <1>   0.0800 
 37 H       -9.4240     3.9780     1.3370 H     1 <1>   0.0800 
 38 H      -10.2060     2.7970    -2.0890 H     1 <1>   0.0800 
 39 H      -10.1040     4.2350    -1.0960 H     1 <1>   0.0800 
 40 H      -11.4030     3.0790    -0.8450 H     1 <1>   0.0800 
 41 H       -9.8780    -1.4980     2.1390 H     1 <1>   0.0800 
 42 H       -8.2340    -1.5620     2.6930 H     1 <1>   0.0800 
 43 H       -8.8720    -0.1350    -1.2490 H     1 <1>   0.0800 
 44 H      -10.2780    -0.6050    -0.3480 H     1 <1>   0.0800 
 45 H       -9.0270    -3.7980     2.0280 H     1 <1>   0.0800 
 46 H       -7.6580    -3.2690     1.1110 H     1 <1>   0.0800 
 47 H       -8.0250    -2.3830    -1.2990 H     1 <1>   0.0800 
 48 H       -9.6190    -2.3550    -1.9630 H     1 <1>   0.0800 
 49 H      -11.3110    -2.3380     0.6610 H     1 <1>   0.0800 
 50 H      -11.2790    -4.0550     0.9700 H     1 <1>   0.0800 
 51 H       -8.0430    -4.7880    -0.7460 H     1 <1>   0.0800 
 52 H       -9.6010    -4.9110    -1.5170 H     1 <1>   0.0800 
 53 H       -9.3900    -5.4920     0.1110 H     1 <1>   0.0800 
 54 H      -11.5000    -2.8840    -1.5880 H     1 <1>   0.4000 
@<TRIPOS>BOND
  1   1   2  1   
  2   2   3  ar  
  3   2   4  ar  
  4   3   5  1   
  5   3   6  ar  
  6   4   7  ar  
  7   4  29  1   
  8   5   8  1   
  9   6   9  ar  
 10   6  30  1   
 11   7   9  ar  
 12   7  31  1   
 13   8  32  1   
 14   8  33  1   
 15   8  34  1   
 16   9  10  1   
 17  10  11  1   
 18  10  12  2   
 19  11  13  1   
 20  12  14  1   
 21  12  15  1   
 22  13  14  2   
 23  14  16  1   
 24  15  17  2   
 25  15  18  am  
 26  16  19  1   
 27  16  20  1   
 28  18  21  1   
 29  18  22  1   
 30  19  35  1   
 31  19  36  1   
 32  19  37  1   
 33  20  38  1   
 34  20  39  1   
 35  20  40  1   
 36  21  23  1   
 37  21  41  1   
 38  21  42  1   
 39  22  24  1   
 40  22  43  1   
 41  22  44  1   
 42  23  25  1   
 43  23  45  1   
 44  23  46  1   
 45  24  25  1   
 46  24  47  1   
 47  24  48  1   
 48  25  26  1   
 49  25  27  1   
 50  26  28  1   
 51  26  49  1   
 52  26  50  1   
 53  27  51  1   
 54  27  52  1   
 55  27  53  1   
 56  28  54  1   
@<TRIPOS>SUBSTRUCTURE
  1 ****  12 GROUP 4 **** **** 0

# MOE 2024.06 (io_trps.svl 2023.06)
