@<TRIPOS>MOLECULE
NONAME
54 56 1 0 0 
SMALL
USER_CHARGES


@<TRIPOS>ATOM
  1 O       -0.8720     0.5660     2.5280 O.2   1 <1>  -0.5700 
  2 C       -1.5430     1.0860     1.6560 C.2   1 <1>   0.5440 
  3 N       -2.2220     0.2750     0.7710 N.am  1 <1>  -0.6600 
  4 C       -1.5990     2.5320     1.5780 C.ar  1 <1>   0.0860 
  5 C       -2.3330    -1.2000     1.0370 C.3   1 <1>   0.1400 
  6 C       -2.8270     0.7620    -0.4980 C.3   1 <1>   0.1400 
  7 C       -0.4400     3.2830     1.4210 C.ar  1 <1>  -0.1500 
  8 C       -2.8080     3.2200     1.6580 C.ar  1 <1>  -0.1500 
  9 C       -3.5420    -1.8590     0.3410 C.3   1 <1>   0.2000 
 10 C       -4.3230     0.4110    -0.5560 C.3   1 <1>  -0.1600 
 11 C       -0.4660     4.6650     1.3210 C.ar  1 <1>   0.1170 
 12 C       -2.8530     4.5990     1.5630 C.ar  1 <1>  -0.1500 
 13 O       -3.1780    -2.2900    -0.9270 O.3   1 <1>  -0.6800 
 14 C       -4.7190    -0.8720     0.2230 C.3   1 <1>  -0.0800 
 15 N        0.7490     5.3430     1.1640 N.am  1 <1>  -0.5470 
 16 C       -1.6910     5.3310     1.3940 C.ar  1 <1>  -0.1430 
 17 C       -5.9590    -1.5540    -0.3750 C.3   1 <1>   0.1200 
 18 C        1.1810     6.0340     0.0670 C.2   1 <1>   0.5690 
 19 C       -1.7830     6.8490     1.2930 C.3   1 <1>  -0.0970 
 20 O       -7.0220    -0.6630    -0.3820 O.3   1 <1>  -0.6800 
 21 O        0.5210     6.1320    -0.9390 O.2   1 <1>  -0.5700 
 22 C        2.5590     6.6920     0.1370 C.3   1 <1>  -0.0190 
 23 C        2.5450     8.2020    -0.1120 C.3   1 <1>  -0.1600 
 24 C        3.5510     6.1740    -0.9070 C.3   1 <1>  -0.1600 
 25 C        3.9850     8.5540    -0.4900 C.3   1 <1>  -0.1600 
 26 C        4.6250     7.2600    -1.0100 C.3   1 <1>  -0.1600 
 27 H       -1.4220    -1.6940     0.7470 H     1 <1>   0.0800 
 28 H       -2.4490    -1.3350     2.0980 H     1 <1>   0.0800 
 29 H       -2.6950     1.8230    -0.6210 H     1 <1>   0.0800 
 30 H       -2.3140     0.2870    -1.3160 H     1 <1>   0.0800 
 31 H        0.5010     2.7660     1.3690 H     1 <1>   0.1500 
 32 H       -3.7180     2.6630     1.7960 H     1 <1>   0.1500 
 33 H       -3.8360    -2.7350     0.8940 H     1 <1>   0.0800 
 34 H       -4.8920     1.2380    -0.1710 H     1 <1>   0.0800 
 35 H       -4.5970     0.3080    -1.5920 H     1 <1>   0.0800 
 36 H       -3.8040     5.1000     1.6230 H     1 <1>   0.1500 
 37 H       -2.8390    -1.5330    -1.4400 H     1 <1>   0.4000 
 38 H       -4.9610    -0.5820     1.2310 H     1 <1>   0.0800 
 39 H        1.4150     5.2320     1.9250 H     1 <1>   0.3700 
 40 H       -6.2460    -2.4170     0.2010 H     1 <1>   0.0800 
 41 H       -5.7760    -1.8580    -1.3920 H     1 <1>   0.0800 
 42 H       -2.7450     7.2000     1.6180 H     1 <1>   0.0800 
 43 H       -1.6350     7.1540     0.2730 H     1 <1>   0.0800 
 44 H       -1.0310     7.3120     1.9060 H     1 <1>   0.0800 
 45 H       -7.2840    -0.4300     0.5280 H     1 <1>   0.4000 
 46 H        2.9840     6.5230     1.1100 H     1 <1>   0.0800 
 47 H        1.8980     8.4220    -0.9450 H     1 <1>   0.0800 
 48 H        2.2050     8.7520     0.7490 H     1 <1>   0.0800 
 49 H        3.9640     5.2190    -0.6340 H     1 <1>   0.0800 
 50 H        3.0520     6.0800    -1.8570 H     1 <1>   0.0800 
 51 H        4.0050     9.3290    -1.2370 H     1 <1>   0.0800 
 52 H        4.5200     8.8960     0.3800 H     1 <1>   0.0800 
 53 H        5.4700     7.0020    -0.3950 H     1 <1>   0.0800 
 54 H        4.9580     7.3690    -2.0280 H     1 <1>   0.0800 
@<TRIPOS>BOND
  1   1   2  2   
  2   2   3  am  
  3   2   4  1   
  4   3   5  1   
  5   3   6  1   
  6   4   7  ar  
  7   4   8  ar  
  8   5   9  1   
  9   5  27  1   
 10   5  28  1   
 11   6  10  1   
 12   6  29  1   
 13   6  30  1   
 14   7  11  ar  
 15   7  31  1   
 16   8  12  ar  
 17   8  32  1   
 18   9  13  1   
 19   9  14  1   
 20   9  33  1   
 21  10  14  1   
 22  10  34  1   
 23  10  35  1   
 24  11  15  1   
 25  11  16  ar  
 26  12  16  ar  
 27  12  36  1   
 28  13  37  1   
 29  14  17  1   
 30  14  38  1   
 31  15  18  am  
 32  15  39  1   
 33  16  19  1   
 34  17  20  1   
 35  17  40  1   
 36  17  41  1   
 37  18  21  2   
 38  18  22  1   
 39  19  42  1   
 40  19  43  1   
 41  19  44  1   
 42  20  45  1   
 43  22  23  1   
 44  22  24  1   
 45  22  46  1   
 46  23  25  1   
 47  23  47  1   
 48  23  48  1   
 49  24  26  1   
 50  24  49  1   
 51  24  50  1   
 52  25  26  1   
 53  25  51  1   
 54  25  52  1   
 55  26  53  1   
 56  26  54  1   
@<TRIPOS>SUBSTRUCTURE
  1 ****   7 GROUP 4 **** **** 0

# MOE 2024.06 (io_trps.svl 2023.06)
