@<TRIPOS>MOLECULE
NONAME
47 50 1 0 0 
SMALL
USER_CHARGES


@<TRIPOS>ATOM
  1 S       -0.9510     0.3520     0.4360 S.3   1 <1>  -0.0800 
  2 C       -0.3590     1.8940     1.0090 C.2   1 <1>  -0.1100 
  3 C       -1.1190     0.9780    -1.1890 C.2   1 <1>  -0.1100 
  4 C       -0.2800     2.8110     0.0130 C.2   1 <1>  -0.0860 
  5 C       -0.7340     2.2650    -1.2420 C.2   1 <1>  -0.1500 
  6 C        0.1830     4.1790     0.1300 C.2   1 <1>   0.7160 
  7 O       -0.0800     5.0060    -0.7210 O.2   1 <1>  -0.5700 
  8 N        1.0190     4.5650     1.1540 N.am  1 <1>  -0.6600 
  9 C        2.3160     3.8620     1.3510 C.3   1 <1>   0.1400 
 10 C        0.9000     5.9290     1.7340 C.3   1 <1>   0.1400 
 11 C        3.2550     4.1110     0.1510 C.3   1 <1>   0.3430 
 12 C        2.0850     6.8250     1.3550 C.3   1 <1>  -0.1600 
 13 N        3.7200     5.5340    -0.0150 N.4   1 <1>  -0.9590 
 14 C        2.6310     6.5660    -0.0510 C.3   1 <1>   0.3430 
 15 C        4.5670     5.6480    -1.2330 C.3   1 <1>   0.4860 
 16 C        5.3440     6.9480    -1.1570 C.ar  1 <1>  -0.1430 
 17 C        6.4160     7.0690    -0.2760 C.ar  1 <1>  -0.1500 
 18 C        4.9810     8.0230    -1.9660 C.ar  1 <1>  -0.1500 
 19 C        7.0930     8.2710    -0.2110 C.ar  1 <1>  -0.1430 
 20 C        5.6690     9.2240    -1.8910 C.ar  1 <1>  -0.1500 
 21 C        6.7200     9.3240    -1.0020 C.ar  1 <1>   0.0830 
 22 C        8.2660     8.6960     0.6230 C.3   1 <1>  -0.0170 
 23 O        7.4770    10.4160    -0.8160 O.3   1 <1>  -0.3630 
 24 C        8.4830    10.1460     0.1500 C.3   1 <1>   0.1200 
 25 H       -0.1290     1.9680     2.0570 H     1 <1>   0.1500 
 26 H       -1.4990     0.3080    -1.9410 H     1 <1>   0.1500 
 27 H       -0.7530     2.8770    -2.1280 H     1 <1>   0.1500 
 28 H        2.1370     2.8050     1.4340 H     1 <1>   0.0800 
 29 H        2.7820     4.1820     2.2670 H     1 <1>   0.0800 
 30 H        0.8200     5.8570     2.8060 H     1 <1>   0.0800 
 31 H       -0.0110     6.3820     1.3760 H     1 <1>   0.0800 
 32 H        2.7400     3.7970    -0.7430 H     1 <1>   0.0800 
 33 H        4.1170     3.4740     0.2640 H     1 <1>   0.0800 
 34 H        2.8670     6.7450     2.0880 H     1 <1>   0.0800 
 35 H        1.7340     7.8410     1.3940 H     1 <1>   0.0800 
 36 H        4.3310     5.7900     0.7700 H     1 <1>   0.4500 
 37 H        3.0360     7.4960    -0.4180 H     1 <1>   0.0800 
 38 H        1.8380     6.2670    -0.7170 H     1 <1>   0.0800 
 39 H        3.9540     5.6310    -2.1200 H     1 <1>   0.0800 
 40 H        5.2650     4.8280    -1.2830 H     1 <1>   0.0800 
 41 H        6.7330     6.2530     0.3500 H     1 <1>   0.1500 
 42 H        4.1640     7.9420    -2.6630 H     1 <1>   0.1500 
 43 H        5.4080    10.0680    -2.5040 H     1 <1>   0.1500 
 44 H        9.1340     8.0940     0.4200 H     1 <1>   0.0800 
 45 H        8.0360     8.6670     1.6730 H     1 <1>   0.0800 
 46 H        9.4410    10.2690    -0.3230 H     1 <1>   0.0800 
 47 H        8.3720    10.8500     0.9560 H     1 <1>   0.0800 
@<TRIPOS>BOND
  1   1   2  1   
  2   1   3  1   
  3   2   4  2   
  4   2  25  1   
  5   3   5  2   
  6   3  26  1   
  7   4   5  1   
  8   4   6  1   
  9   5  27  1   
 10   6   7  2   
 11   6   8  am  
 12   8   9  1   
 13   8  10  1   
 14   9  11  1   
 15   9  28  1   
 16   9  29  1   
 17  10  12  1   
 18  10  30  1   
 19  10  31  1   
 20  11  13  1   
 21  11  32  1   
 22  11  33  1   
 23  12  14  1   
 24  12  34  1   
 25  12  35  1   
 26  13  14  1   
 27  13  15  1   
 28  13  36  1   
 29  14  37  1   
 30  14  38  1   
 31  15  16  1   
 32  15  39  1   
 33  15  40  1   
 34  16  17  ar  
 35  16  18  ar  
 36  17  19  ar  
 37  17  41  1   
 38  18  20  ar  
 39  18  42  1   
 40  19  21  ar  
 41  19  22  1   
 42  20  21  ar  
 43  20  43  1   
 44  21  23  1   
 45  22  24  1   
 46  22  44  1   
 47  22  45  1   
 48  23  24  1   
 49  24  46  1   
 50  24  47  1   
@<TRIPOS>SUBSTRUCTURE
  1 ****  13 GROUP 4 **** **** 0

# MOE 2024.06 (io_trps.svl 2023.06)
