@<TRIPOS>MOLECULE
NONAME
42 43 1 0 0 
SMALL
USER_CHARGES


@<TRIPOS>ATOM
  1 S        0.3010     0.5540     0.2140 S.3   1 <1>  -0.4600 
  2 C        0.3570     2.3600     0.0770 C.3   1 <1>   0.0700 
  3 C       -1.4720     0.2040     0.3100 C.3   1 <1>   0.0700 
  4 C        1.8240     2.7840     0.0960 C.3   1 <1>  -0.0990 
  5 C       -1.6360    -1.3090     0.4180 C.3   1 <1>  -0.2400 
  6 C        1.9450     4.2710    -0.1360 C.2   1 <1>   0.5690 
  7 O        1.4120     5.0210     0.6430 O.2   1 <1>  -0.5700 
  8 N        2.6350     4.6980    -1.2230 N.am  1 <1>  -0.7300 
  9 C        2.9270     6.0970    -1.5910 C.3   1 <1>   0.3640 
 10 C        3.7540     6.7740    -0.4810 C.ar  1 <1>  -0.1440 
 11 C        1.6430     6.7460    -2.1060 C.3   1 <1>  -0.2400 
 12 C        3.3390     7.8140     0.3700 C.ar  1 <1>  -0.0230 
 13 C        5.0460     6.2820    -0.3370 C.ar  1 <1>  -0.1500 
 14 N        2.0520     8.4150     0.3410 N.pl3 1 <1>   0.5930 
 15 C        4.2330     8.3140     1.3140 C.ar  1 <1>  -0.1500 
 16 C        5.9200     6.7870     0.6090 C.ar  1 <1>  -0.1500 
 17 N        1.7760     9.5420    -0.3700 N.2   1 <1>  -0.7070 
 18 C        0.9850     8.0940     1.1120 C.2   1 <1>  -0.3020 
 19 C        5.5110     7.8100     1.4380 C.ar  1 <1>  -0.1500 
 20 C        0.5660     9.8720    -0.0450 C.2   1 <1>   0.1390 
 21 C        0.0140     9.0000     0.8830 C.2   1 <1>  -0.1500 
 22 H       -0.1820     2.7730     0.9120 H     1 <1>   0.0800 
 23 H       -0.1230     2.6290    -0.8480 H     1 <1>   0.0800 
 24 H       -1.9300     0.5910    -0.5830 H     1 <1>   0.0800 
 25 H       -1.8570     0.7080     1.1800 H     1 <1>   0.0800 
 26 H        2.3640     2.2470    -0.6610 H     1 <1>   0.0800 
 27 H        2.2520     2.5500     1.0530 H     1 <1>   0.0800 
 28 H       -1.2120    -1.7900    -0.4460 H     1 <1>   0.0800 
 29 H       -2.6780    -1.5630     0.4780 H     1 <1>   0.0800 
 30 H       -1.1390    -1.6730     1.3000 H     1 <1>   0.0800 
 31 H        3.0560     4.0060    -1.8390 H     1 <1>   0.3700 
 32 H        3.5810     6.0590    -2.4450 H     1 <1>   0.0800 
 33 H        0.8770     6.7450    -1.3540 H     1 <1>   0.0800 
 34 H        1.2820     6.2090    -2.9620 H     1 <1>   0.0800 
 35 H        1.8420     7.7580    -2.4090 H     1 <1>   0.0800 
 36 H        5.3900     5.4830    -0.9690 H     1 <1>   0.1500 
 37 H        3.9200     9.1160     1.9600 H     1 <1>   0.1500 
 38 H        6.9140     6.3840     0.6980 H     1 <1>   0.1500 
 39 H        0.9980     7.2400     1.7640 H     1 <1>   0.1500 
 40 H        6.1840     8.2120     2.1760 H     1 <1>   0.1500 
 41 H        0.0560    10.7300    -0.4520 H     1 <1>   0.1500 
 42 H       -0.9710     9.0610     1.3100 H     1 <1>   0.1500 
@<TRIPOS>BOND
  1   1   2  1   
  2   1   3  1   
  3   2   4  1   
  4   2  22  1   
  5   2  23  1   
  6   3   5  1   
  7   3  24  1   
  8   3  25  1   
  9   4   6  1   
 10   4  26  1   
 11   4  27  1   
 12   5  28  1   
 13   5  29  1   
 14   5  30  1   
 15   6   7  2   
 16   6   8  am  
 17   8   9  1   
 18   8  31  1   
 19   9  10  1   
 20   9  11  1   
 21   9  32  1   
 22  10  12  ar  
 23  10  13  ar  
 24  11  33  1   
 25  11  34  1   
 26  11  35  1   
 27  12  14  1   
 28  12  15  ar  
 29  13  16  ar  
 30  13  36  1   
 31  14  17  1   
 32  14  18  1   
 33  15  19  ar  
 34  15  37  1   
 35  16  19  ar  
 36  16  38  1   
 37  17  20  2   
 38  18  21  2   
 39  18  39  1   
 40  19  40  1   
 41  20  21  1   
 42  20  41  1   
 43  21  42  1   
@<TRIPOS>SUBSTRUCTURE
  1 ****   7 GROUP 4 **** **** 0

# MOE 2024.06 (io_trps.svl 2023.06)
