@<TRIPOS>MOLECULE
NONAME
41 43 1 0 0 
SMALL
USER_CHARGES


@<TRIPOS>ATOM
  1 O        1.8190    -0.2660     2.1940 O.3   1 <1>  -0.6800 
  2 C        1.5010    -0.2370     0.8350 C.3   1 <1>   0.2000 
  3 C        2.1800    -1.3900     0.0910 C.3   1 <1>  -0.0800 
  4 C        2.1290     1.0040     0.1970 C.3   1 <1>   0.2090 
  5 C        3.5780    -0.8740    -0.2690 C.3   1 <1>   0.2090 
  6 C        2.2050    -2.7500     0.8120 C.3   1 <1>   0.0210 
  7 N        3.5230     0.6110    -0.1620 N.pl3 1 <1>  -0.8380 
  8 C        2.9250    -3.7960    -0.0180 C.2   1 <1>   0.1080 
  9 C        4.6120     1.3160     0.2280 C.ar  1 <1>   0.1000 
 10 N        2.6120    -4.0570    -1.2490 N.2   1 <1>  -0.7070 
 11 C        3.9860    -4.5750     0.4300 C.2   1 <1>  -0.1500 
 12 C        5.6630     1.6210    -0.6550 C.ar  1 <1>  -0.1440 
 13 C        4.7290     1.7590     1.5510 C.ar  1 <1>  -0.1500 
 14 N        3.4710    -5.0240    -1.6220 N.pl3 1 <1>   0.3000 
 15 C        4.3170    -5.3520    -0.6220 C.2   1 <1>  -0.3320 
 16 C        6.7450     2.3350    -0.2040 C.ar  1 <1>   0.2110 
 17 C        5.5910     1.1680    -2.1110 C.3   1 <1>  -0.0970 
 18 C        5.8230     2.4690     1.9610 C.ar  1 <1>   0.2110 
 19 C        5.4020    -6.4070    -0.7360 C.3   1 <1>  -0.0600 
 20 N        6.8180     2.7530     1.0850 N.ar  1 <1>  -0.1790 
 21 H        1.3560    -1.0050     2.6340 H     1 <1>   0.4000 
 22 H        0.4300    -0.2420     0.7340 H     1 <1>   0.0800 
 23 H        1.6550    -1.5210    -0.8390 H     1 <1>   0.0800 
 24 H        2.0950     1.8510     0.8580 H     1 <1>   0.0800 
 25 H        1.6020     1.2470    -0.7090 H     1 <1>   0.0800 
 26 H        3.8440    -1.1770    -1.2680 H     1 <1>   0.0800 
 27 H        4.3120    -1.2540     0.4220 H     1 <1>   0.0800 
 28 H        1.1990    -3.0870     0.9850 H     1 <1>   0.0800 
 29 H        2.7030    -2.6630     1.7610 H     1 <1>   0.0800 
 30 H        4.4290    -4.5460     1.4100 H     1 <1>   0.1500 
 31 H        3.9410     1.5160     2.2430 H     1 <1>   0.1500 
 32 H        3.4540    -5.4380    -2.5620 H     1 <1>   0.2700 
 33 H        7.5580     2.5800    -0.8680 H     1 <1>   0.1500 
 34 H        4.6420     1.4460    -2.5340 H     1 <1>   0.0800 
 35 H        5.6870     0.0990    -2.1690 H     1 <1>   0.0800 
 36 H        6.3690     1.6140    -2.7050 H     1 <1>   0.0800 
 37 H        5.9110     2.8080     2.9810 H     1 <1>   0.1500 
 38 H        5.9400    -6.4850     0.1920 H     1 <1>   0.0800 
 39 H        6.0970    -6.1450    -1.5130 H     1 <1>   0.0800 
 40 H        4.9670    -7.3650    -0.9610 H     1 <1>   0.0800 
 41 H        7.6350     3.2870     1.3990 H     1 <1>   0.4570 
@<TRIPOS>BOND
  1   1   2  1   
  2   1  21  1   
  3   2   3  1   
  4   2   4  1   
  5   2  22  1   
  6   3   5  1   
  7   3   6  1   
  8   3  23  1   
  9   4   7  1   
 10   4  24  1   
 11   4  25  1   
 12   5   7  1   
 13   5  26  1   
 14   5  27  1   
 15   6   8  1   
 16   6  28  1   
 17   6  29  1   
 18   7   9  1   
 19   8  10  2   
 20   8  11  1   
 21   9  12  ar  
 22   9  13  ar  
 23  10  14  1   
 24  11  15  2   
 25  11  30  1   
 26  12  16  ar  
 27  12  17  1   
 28  13  18  ar  
 29  13  31  1   
 30  14  15  1   
 31  14  32  1   
 32  15  19  1   
 33  16  20  ar  
 34  16  33  1   
 35  17  34  1   
 36  17  35  1   
 37  17  36  1   
 38  18  20  ar  
 39  18  37  1   
 40  19  38  1   
 41  19  39  1   
 42  19  40  1   
 43  20  41  1   
@<TRIPOS>SUBSTRUCTURE
  1 ****   5 GROUP 4 **** **** 0

# MOE 2024.06 (io_trps.svl 2023.06)
