@<TRIPOS>MOLECULE
NONAME
49 51 1 0 0 
SMALL
USER_CHARGES


@<TRIPOS>ATOM
  1 O       -0.6200     0.1900    -0.8490 O.2   1 <1>  -0.5700 
  2 C       -1.5520     0.7880    -0.3430 C.2   1 <1>   0.5440 
  3 N       -2.4610     0.0360     0.3920 N.am  1 <1>  -0.6600 
  4 C       -1.6590     2.2350    -0.5390 C.ar  1 <1>   0.3960 
  5 C       -3.5260     0.6000     1.2800 C.3   1 <1>   0.1400 
  6 C       -2.5020    -1.4540     0.2960 C.3   1 <1>   0.1400 
  7 N       -2.8400     2.7930    -0.7940 N.ar  1 <1>  -0.6200 
  8 C       -0.5240     3.0220    -0.4660 C.ar  1 <1>  -0.1500 
  9 C       -4.9320     0.1430     0.8270 C.3   1 <1>   0.4230 
 10 C       -3.8940    -1.9160    -0.1720 C.3   1 <1>   0.3430 
 11 C       -2.8330     4.1010    -0.9310 C.ar  1 <1>   0.7200 
 12 C       -0.6500     4.3780    -0.6340 C.ar  1 <1>   0.1670 
 13 N       -5.0160    -1.3700     0.6880 N.4   1 <1>  -0.9590 
 14 C       -5.3520     0.8470    -0.4840 C.3   1 <1>   0.1200 
 15 N       -1.8120     4.9300    -0.8620 N.ar  1 <1>  -0.6200 
 16 N       -4.0120     4.6680    -1.1840 N.pl3 1 <1>  -0.9000 
 17 C        0.5510     5.2980    -0.5630 C.3   1 <1>  -0.0970 
 18 C       -6.3850    -1.7410     0.1850 C.3   1 <1>   0.4230 
 19 O       -6.6240     0.4190    -0.8840 O.3   1 <1>  -0.5600 
 20 C       -6.7470    -0.9580    -1.1010 C.3   1 <1>   0.1200 
 21 C       -6.5050    -3.2650     0.0120 C.3   1 <1>  -0.1600 
 22 C       -7.9640    -3.7260    -0.1300 C.3   1 <1>  -0.1600 
 23 C       -8.0470    -5.2520    -0.2160 C.3   1 <1>  -0.2400 
 24 H       -3.3540     0.2550     2.2850 H     1 <1>   0.0800 
 25 H       -3.4840     1.6730     1.3140 H     1 <1>   0.0800 
 26 H       -1.7660    -1.8150    -0.4020 H     1 <1>   0.0800 
 27 H       -2.2710    -1.8820     1.2560 H     1 <1>   0.0800 
 28 H        0.4330     2.5680    -0.2810 H     1 <1>   0.1500 
 29 H       -5.6310     0.4620     1.5830 H     1 <1>   0.0800 
 30 H       -3.9170    -2.9930    -0.1680 H     1 <1>   0.0800 
 31 H       -4.0270    -1.5890    -1.1900 H     1 <1>   0.0800 
 32 H       -4.9120    -1.7700     1.6270 H     1 <1>   0.4500 
 33 H       -4.6520     0.6540    -1.2780 H     1 <1>   0.0800 
 34 H       -5.4030     1.9110    -0.3300 H     1 <1>   0.0800 
 35 H       -4.6650     4.1220    -1.7380 H     1 <1>   0.4000 
 36 H       -3.9420     5.6480    -1.4540 H     1 <1>   0.4000 
 37 H        1.4530     4.7460    -0.3720 H     1 <1>   0.0800 
 38 H        0.4090     6.0160     0.2250 H     1 <1>   0.0800 
 39 H        0.6560     5.8260    -1.4930 H     1 <1>   0.0800 
 40 H       -7.1050    -1.4510     0.9330 H     1 <1>   0.0800 
 41 H       -7.7690    -1.1440    -1.3780 H     1 <1>   0.0800 
 42 H       -6.1150    -1.2370    -1.9270 H     1 <1>   0.0800 
 43 H       -5.9610    -3.5860    -0.8600 H     1 <1>   0.0800 
 44 H       -6.0880    -3.7510     0.8770 H     1 <1>   0.0800 
 45 H       -8.5410    -3.3950     0.7190 H     1 <1>   0.0800 
 46 H       -8.4100    -3.3100    -1.0180 H     1 <1>   0.0800 
 47 H       -7.6460    -5.7090     0.6720 H     1 <1>   0.0800 
 48 H       -7.5030    -5.6170    -1.0700 H     1 <1>   0.0800 
 49 H       -9.0740    -5.5580    -0.3170 H     1 <1>   0.0800 
@<TRIPOS>BOND
  1   1   2  2   
  2   2   3  am  
  3   2   4  1   
  4   3   5  1   
  5   3   6  1   
  6   4   7  ar  
  7   4   8  ar  
  8   5   9  1   
  9   5  24  1   
 10   5  25  1   
 11   6  10  1   
 12   6  26  1   
 13   6  27  1   
 14   7  11  ar  
 15   8  12  ar  
 16   8  28  1   
 17   9  13  1   
 18   9  14  1   
 19   9  29  1   
 20  10  13  1   
 21  10  30  1   
 22  10  31  1   
 23  11  15  ar  
 24  11  16  1   
 25  12  15  ar  
 26  12  17  1   
 27  13  18  1   
 28  13  32  1   
 29  14  19  1   
 30  14  33  1   
 31  14  34  1   
 32  16  35  1   
 33  16  36  1   
 34  17  37  1   
 35  17  38  1   
 36  17  39  1   
 37  18  20  1   
 38  18  21  1   
 39  18  40  1   
 40  19  20  1   
 41  20  41  1   
 42  20  42  1   
 43  21  22  1   
 44  21  43  1   
 45  21  44  1   
 46  22  23  1   
 47  22  45  1   
 48  22  46  1   
 49  23  47  1   
 50  23  48  1   
 51  23  49  1   
@<TRIPOS>SUBSTRUCTURE
  1 ****   3 GROUP 4 **** **** 0

# MOE 2024.06 (io_trps.svl 2023.06)
