@<TRIPOS>MOLECULE
NONAME
60 63 1 0 0 
SMALL
USER_CHARGES


@<TRIPOS>ATOM
  1 O       -0.7780     1.1400    -1.7800 O.2   1 <1>  -0.5700 
  2 C       -1.1650     1.5170    -0.7000 C.2   1 <1>   0.5690 
  3 N       -1.9950     0.7410     0.0690 N.am  1 <1>  -0.6600 
  4 C       -0.6540     2.8750    -0.2200 C.3   1 <1>  -0.0190 
  5 C       -2.4210    -0.6160    -0.4160 C.3   1 <1>   0.1400 
  6 C       -2.6420     1.1350     1.3550 C.3   1 <1>   0.1400 
  7 C        0.7150     2.7570     0.5060 C.3   1 <1>   0.4230 
  8 C       -0.6250     3.9180    -1.3610 C.3   1 <1>  -0.1600 
  9 C       -3.8330    -0.6130    -1.0240 C.3   1 <1>   0.1400 
 10 C       -3.9220     1.9530     1.1220 C.3   1 <1>  -0.1600 
 11 N        1.5740     3.9670     0.2620 N.4   1 <1>  -0.9590 
 12 C        1.5630     1.5170     0.1610 C.3   1 <1>  -0.1600 
 13 C       -0.1810     5.2990    -0.8430 C.3   1 <1>  -0.1600 
 14 N       -4.8450    -0.0090    -0.0980 N.am  1 <1>  -0.6600 
 15 C       -4.7990     1.4750    -0.0420 C.3   1 <1>   0.1400 
 16 C        0.8100     5.2390     0.3260 C.3   1 <1>   0.3430 
 17 C        2.7750     3.9940     1.1390 C.3   1 <1>   0.3430 
 18 C        2.8710     1.4690     0.9640 C.3   1 <1>  -0.1600 
 19 C       -5.7790    -0.7160     0.6270 C.2   1 <1>   0.5690 
 20 C        3.6500     2.7810     0.8250 C.3   1 <1>  -0.1600 
 21 O       -6.5550    -0.1320     1.3530 O.2   1 <1>  -0.5700 
 22 C       -5.8320    -2.2660     0.5660 C.3   1 <1>   0.2610 
 23 O       -6.2000    -2.7160    -0.7090 O.3   1 <1>  -0.5600 
 24 C       -6.8680    -2.9320     1.4740 C.3   1 <1>  -0.1600 
 25 C       -7.5880    -2.7480    -0.8130 C.3   1 <1>   0.1200 
 26 C       -8.1110    -3.0010     0.5990 C.3   1 <1>  -0.1600 
 27 H       -1.3520     3.2520     0.4990 H     1 <1>   0.0800 
 28 H       -1.7310    -0.9770    -1.1590 H     1 <1>   0.0800 
 29 H       -2.3910    -1.3150     0.4010 H     1 <1>   0.0800 
 30 H       -2.9050     0.2430     1.9000 H     1 <1>   0.0800 
 31 H       -1.9560     1.6850     1.9730 H     1 <1>   0.0800 
 32 H        0.5010     2.7010     1.5610 H     1 <1>   0.0800 
 33 H        0.0590     3.5860    -2.1250 H     1 <1>   0.0800 
 34 H       -1.5980     3.9940    -1.8190 H     1 <1>   0.0800 
 35 H       -4.1020    -1.6200    -1.2810 H     1 <1>   0.0800 
 36 H       -3.8150    -0.0550    -1.9440 H     1 <1>   0.0800 
 37 H       -3.6740     2.9850     0.9580 H     1 <1>   0.0800 
 38 H       -4.5110     1.9180     2.0210 H     1 <1>   0.0800 
 39 H        1.9090     3.8690    -0.7050 H     1 <1>   0.4500 
 40 H        1.0120     0.6200     0.3850 H     1 <1>   0.0800 
 41 H        1.7790     1.5060    -0.8940 H     1 <1>   0.0800 
 42 H       -1.0430     5.8550    -0.5180 H     1 <1>   0.0800 
 43 H        0.2570     5.8550    -1.6540 H     1 <1>   0.0800 
 44 H       -4.4070     1.8540    -0.9700 H     1 <1>   0.0800 
 45 H       -5.7970     1.8680     0.0700 H     1 <1>   0.0800 
 46 H        0.2730     5.2860     1.2600 H     1 <1>   0.0800 
 47 H        1.4760     6.0850     0.2760 H     1 <1>   0.0800 
 48 H        3.3410     4.8960     0.9690 H     1 <1>   0.0800 
 49 H        2.4750     3.9690     2.1750 H     1 <1>   0.0800 
 50 H        2.6460     1.2950     2.0040 H     1 <1>   0.0800 
 51 H        3.4780     0.6460     0.6220 H     1 <1>   0.0800 
 52 H        4.0400     2.8710    -0.1750 H     1 <1>   0.0800 
 53 H        4.4920     2.7690     1.4960 H     1 <1>   0.0800 
 54 H       -4.8520    -2.6490     0.7830 H     1 <1>   0.0800 
 55 H       -6.5310    -3.9250     1.7120 H     1 <1>   0.0800 
 56 H       -7.0310    -2.3920     2.3900 H     1 <1>   0.0800 
 57 H       -7.9190    -1.7920    -1.1840 H     1 <1>   0.0800 
 58 H       -7.8660    -3.5290    -1.4990 H     1 <1>   0.0800 
 59 H       -8.8130    -2.2300     0.8670 H     1 <1>   0.0800 
 60 H       -8.5950    -3.9590     0.6710 H     1 <1>   0.0800 
@<TRIPOS>BOND
  1   1   2  2   
  2   2   3  am  
  3   2   4  1   
  4   3   5  1   
  5   3   6  1   
  6   4   7  1   
  7   4   8  1   
  8   4  27  1   
  9   5   9  1   
 10   5  28  1   
 11   5  29  1   
 12   6  10  1   
 13   6  30  1   
 14   6  31  1   
 15   7  11  1   
 16   7  12  1   
 17   7  32  1   
 18   8  13  1   
 19   8  33  1   
 20   8  34  1   
 21   9  14  1   
 22   9  35  1   
 23   9  36  1   
 24  10  15  1   
 25  10  37  1   
 26  10  38  1   
 27  11  16  1   
 28  11  17  1   
 29  11  39  1   
 30  12  18  1   
 31  12  40  1   
 32  12  41  1   
 33  13  16  1   
 34  13  42  1   
 35  13  43  1   
 36  14  15  1   
 37  14  19  am  
 38  15  44  1   
 39  15  45  1   
 40  16  46  1   
 41  16  47  1   
 42  17  20  1   
 43  17  48  1   
 44  17  49  1   
 45  18  20  1   
 46  18  50  1   
 47  18  51  1   
 48  19  21  2   
 49  19  22  1   
 50  20  52  1   
 51  20  53  1   
 52  22  23  1   
 53  22  24  1   
 54  22  54  1   
 55  23  25  1   
 56  24  26  1   
 57  24  55  1   
 58  24  56  1   
 59  25  26  1   
 60  25  57  1   
 61  25  58  1   
 62  26  59  1   
 63  26  60  1   
@<TRIPOS>SUBSTRUCTURE
  1 ****   3 GROUP 4 **** **** 0

# MOE 2024.06 (io_trps.svl 2023.06)
