@<TRIPOS>MOLECULE
NONAME
44 46 1 0 0 
SMALL
USER_CHARGES


@<TRIPOS>ATOM
  1 O        0.7750     0.0190     0.8510 O.2   1 <1>  -0.5700 
  2 C        1.7450    -0.7090     0.7660 C.2   1 <1>   0.5440 
  3 N        3.0050    -0.1450     0.7520 N.am  1 <1>  -0.6600 
  4 C        1.5400    -2.1420     0.6810 C.ar  1 <1>   0.0860 
  5 C        4.2000    -0.8240     0.1580 C.3   1 <1>   0.1400 
  6 C        3.2130     1.2460     1.2430 C.3   1 <1>   0.1400 
  7 C        0.6140    -2.7050    -0.1800 C.ar  1 <1>  -0.1500 
  8 C        2.2420    -3.0520     1.4610 C.ar  1 <1>  -0.1500 
  9 C        4.7910    -0.0510    -1.0310 C.3   1 <1>   0.1400 
 10 C        3.2580     2.2220     0.0630 C.3   1 <1>  -0.1600 
 11 C        0.4520    -4.0770    -0.2420 C.ar  1 <1>   0.3920 
 12 C        2.0110    -4.4070     1.3310 C.ar  1 <1>   0.1600 
 13 N        5.4810     1.1970    -0.5880 N.am  1 <1>  -0.6600 
 14 C        4.6630     2.4410    -0.5160 C.3   1 <1>   0.1400 
 15 O       -0.4670    -4.5460    -1.1120 O.3   1 <1>  -0.3630 
 16 N        1.1400    -4.9440     0.4950 N.ar  1 <1>  -0.6200 
 17 C        6.7900     1.1400    -0.1450 C.2   1 <1>   0.7160 
 18 C       -0.7230    -5.9330    -1.2230 C.3   1 <1>   0.0400 
 19 O        7.2480     0.0500     0.1540 O.2   1 <1>  -0.5700 
 20 C        7.6190     2.3220    -0.0190 C.2   1 <1>  -0.0860 
 21 C        7.6450     3.4820    -0.7570 C.2   1 <1>  -0.3020 
 22 C        8.6340     2.4870     0.9450 C.2   1 <1>  -0.1500 
 23 N        8.5960     4.3210    -0.2870 N.pl3 1 <1>   0.0330 
 24 C        9.2010     3.7050     0.7600 C.2   1 <1>  -0.3020 
 25 H        3.9270    -1.8000    -0.2000 H     1 <1>   0.0800 
 26 H        4.9540    -0.9540     0.9140 H     1 <1>   0.0800 
 27 H        4.1200     1.3020     1.8210 H     1 <1>   0.0800 
 28 H        2.3970     1.5170     1.8920 H     1 <1>   0.0800 
 29 H        0.0110    -2.0740    -0.8070 H     1 <1>   0.1500 
 30 H        2.9660    -2.6940     2.1710 H     1 <1>   0.1500 
 31 H        4.0190     0.1790    -1.7440 H     1 <1>   0.0800 
 32 H        5.5100    -0.6820    -1.5250 H     1 <1>   0.0800 
 33 H        2.8980     3.1760     0.4010 H     1 <1>   0.0800 
 34 H        2.5800     1.8950    -0.7060 H     1 <1>   0.0800 
 35 H        2.5720    -5.0890     1.9480 H     1 <1>   0.1500 
 36 H        5.1640     3.1550     0.1140 H     1 <1>   0.0800 
 37 H        4.5830     2.8680    -1.5010 H     1 <1>   0.0800 
 38 H       -1.4880    -6.0780    -1.9630 H     1 <1>   0.0800 
 39 H       -1.0560    -6.3020    -0.2690 H     1 <1>   0.0800 
 40 H        0.1820    -6.4310    -1.5230 H     1 <1>   0.0800 
 41 H        7.0270     3.7310    -1.6010 H     1 <1>   0.1500 
 42 H        8.8870     1.7440     1.6830 H     1 <1>   0.1500 
 43 H        8.8330     5.2490    -0.6570 H     1 <1>   0.2700 
 44 H       10.0030     4.1610     1.3130 H     1 <1>   0.1500 
@<TRIPOS>BOND
  1   1   2  2   
  2   2   3  am  
  3   2   4  1   
  4   3   5  1   
  5   3   6  1   
  6   4   7  ar  
  7   4   8  ar  
  8   5   9  1   
  9   5  25  1   
 10   5  26  1   
 11   6  10  1   
 12   6  27  1   
 13   6  28  1   
 14   7  11  ar  
 15   7  29  1   
 16   8  12  ar  
 17   8  30  1   
 18   9  13  1   
 19   9  31  1   
 20   9  32  1   
 21  10  14  1   
 22  10  33  1   
 23  10  34  1   
 24  11  15  1   
 25  11  16  ar  
 26  12  16  ar  
 27  12  35  1   
 28  13  14  1   
 29  13  17  am  
 30  14  36  1   
 31  14  37  1   
 32  15  18  1   
 33  17  19  2   
 34  17  20  1   
 35  18  38  1   
 36  18  39  1   
 37  18  40  1   
 38  20  21  2   
 39  20  22  1   
 40  21  23  1   
 41  21  41  1   
 42  22  24  2   
 43  22  42  1   
 44  23  24  1   
 45  23  43  1   
 46  24  44  1   
@<TRIPOS>SUBSTRUCTURE
  1 ****   5 GROUP 4 **** **** 0

# MOE 2024.06 (io_trps.svl 2023.06)
