@<TRIPOS>MOLECULE
NONAME
27 27 1 0 0 
SMALL
USER_CHARGES


@<TRIPOS>ATOM
  1 O        6.0720     0.9020     1.2620 O.2   1 <1>  -0.5700 
  2 C        6.3610     0.5780     0.1350 C.2   1 <1>   0.6590 
  3 O        5.6150     0.9300    -0.9090 O.3   1 <1>  -0.4300 
  4 C        7.6310    -0.2450    -0.1820 C.3   1 <1>   0.2510 
  5 C        4.4280     1.6790    -0.7510 C.3   1 <1>   0.0400 
  6 N        7.7150    -1.5090     0.5720 N.3   1 <1>  -0.9900 
  7 C        8.8930     0.5980     0.0810 C.3   1 <1>  -0.1600 
  8 C       10.2100    -0.0180    -0.4350 C.3   1 <1>  -0.0800 
  9 C       10.7950    -1.1380     0.4330 C.3   1 <1>   0.1200 
 10 C       11.3390     0.9990    -0.4610 C.3   1 <1>  -0.1600 
 11 O       12.1670    -0.9150     0.5270 O.3   1 <1>  -0.5600 
 12 C       12.5700     0.1270    -0.2970 C.3   1 <1>   0.1200 
 13 H        7.5980    -0.4870    -1.2300 H     1 <1>   0.0800 
 14 H        3.9940     1.8410    -1.7220 H     1 <1>   0.0800 
 15 H        4.6690     2.6210    -0.2900 H     1 <1>   0.0800 
 16 H        3.7480     1.1240    -0.1280 H     1 <1>   0.0800 
 17 H        7.5490    -1.2940     1.5650 H     1 <1>   0.3600 
 18 H        8.6570    -1.8960     0.4900 H     1 <1>   0.3600 
 19 H        8.9680     0.8210     1.1320 H     1 <1>   0.0800 
 20 H        8.7530     1.5370    -0.4260 H     1 <1>   0.0800 
 21 H       10.0670    -0.4000    -1.4320 H     1 <1>   0.0800 
 22 H       10.6360    -2.1080    -0.0060 H     1 <1>   0.0800 
 23 H       10.3990    -1.1160     1.4330 H     1 <1>   0.0800 
 24 H       11.2770     1.6700     0.3790 H     1 <1>   0.0800 
 25 H       11.3680     1.5680    -1.3730 H     1 <1>   0.0800 
 26 H       13.3920     0.6470     0.1640 H     1 <1>   0.0800 
 27 H       12.8770    -0.2960    -1.2380 H     1 <1>   0.0800 
@<TRIPOS>BOND
  1   1   2  2   
  2   2   3  1   
  3   2   4  1   
  4   3   5  1   
  5   4   6  1   
  6   4   7  1   
  7   4  13  1   
  8   5  14  1   
  9   5  15  1   
 10   5  16  1   
 11   6  17  1   
 12   6  18  1   
 13   7   8  1   
 14   7  19  1   
 15   7  20  1   
 16   8   9  1   
 17   8  10  1   
 18   8  21  1   
 19   9  11  1   
 20   9  22  1   
 21   9  23  1   
 22  10  12  1   
 23  10  24  1   
 24  10  25  1   
 25  11  12  1   
 26  12  26  1   
 27  12  27  1   
@<TRIPOS>SUBSTRUCTURE
  1 ****   7 GROUP 4 **** **** 0

# MOE 2024.06 (io_trps.svl 2023.06)
