@<TRIPOS>MOLECULE
NONAME
44 47 1 0 0 
SMALL
USER_CHARGES


@<TRIPOS>ATOM
  1 S        1.1360    -1.6910     2.2970 S.3   1 <1>  -0.0800 
  2 C        0.4780    -1.6570     0.6620 C.2   1 <1>   0.3250 
  3 C       -0.4590    -1.6050     2.9540 C.2   1 <1>  -0.1100 
  4 N       -0.8140    -1.5870     0.6770 N.2   1 <1>  -0.5650 
  5 C        1.4070    -1.7040    -0.4630 C.ar  1 <1>   0.6730 
  6 C       -1.3720    -1.5500     1.9620 C.2   1 <1>   0.1410 
  7 N        0.8990    -1.5830    -1.7010 N.ar  1 <1>  -0.6200 
  8 N        2.7160    -1.8630    -0.2050 N.ar  1 <1>  -0.6200 
  9 C       -2.8160    -1.4910     2.1940 C.2   1 <1>   0.7160 
 10 C        1.7390    -1.6270    -2.7060 C.ar  1 <1>   0.1600 
 11 C        3.5330    -1.9030    -1.2290 C.ar  1 <1>   0.1600 
 12 O       -3.2530    -1.9810     3.2220 O.2   1 <1>  -0.5700 
 13 N       -3.7210    -0.9070     1.3240 N.am  1 <1>  -0.6600 
 14 C        3.0880    -1.7880    -2.5210 C.ar  1 <1>  -0.1500 
 15 C       -5.1600    -1.3000     1.3130 C.3   1 <1>   0.1400 
 16 C       -3.3650     0.0320     0.2280 C.3   1 <1>   0.1400 
 17 C       -5.4870    -2.0460     0.0040 C.3   1 <1>   0.0000 
 18 C       -3.6420    -0.6380    -1.1230 C.3   1 <1>  -0.1600 
 19 C       -6.9650    -2.4820    -0.0140 C.3   1 <1>   0.2000 
 20 C       -5.0900    -1.1590    -1.2140 C.3   1 <1>  -0.1600 
 21 C       -4.7790    -3.4120    -0.0650 C.3   1 <1>  -0.1600 
 22 O       -7.8200    -1.4820    -0.4390 O.3   1 <1>  -0.6800 
 23 C       -7.0490    -3.6850    -0.9520 C.3   1 <1>  -0.1600 
 24 C       -5.6350    -4.2810    -0.9930 C.3   1 <1>  -0.1600 
 25 H       -0.5780    -1.6090     4.0220 H     1 <1>   0.1500 
 26 H        1.3390    -1.5330    -3.7030 H     1 <1>   0.1500 
 27 H        4.5850    -2.0310    -1.0320 H     1 <1>   0.1500 
 28 H        3.7670    -1.8230    -3.3530 H     1 <1>   0.1500 
 29 H       -5.3910    -1.9250     2.1580 H     1 <1>   0.0800 
 30 H       -5.7670    -0.4140     1.3860 H     1 <1>   0.0800 
 31 H       -3.9730     0.9150     0.3210 H     1 <1>   0.0800 
 32 H       -2.3370     0.3400     0.2930 H     1 <1>   0.0800 
 33 H       -3.4670     0.0750    -1.9090 H     1 <1>   0.0800 
 34 H       -2.9400    -1.4400    -1.2640 H     1 <1>   0.0800 
 35 H       -7.2720    -2.7800     0.9760 H     1 <1>   0.0800 
 36 H       -5.2160    -1.7000    -2.1350 H     1 <1>   0.0800 
 37 H       -5.7320    -0.2970    -1.2500 H     1 <1>   0.0800 
 38 H       -3.7590    -3.3490    -0.4020 H     1 <1>   0.0800 
 39 H       -4.7730    -3.8590     0.9150 H     1 <1>   0.0800 
 40 H       -7.5850    -1.2240    -1.3500 H     1 <1>   0.4000 
 41 H       -7.7550    -4.4020    -0.5710 H     1 <1>   0.0800 
 42 H       -7.3420    -3.3860    -1.9430 H     1 <1>   0.0800 
 43 H       -5.6280    -5.3080    -0.6710 H     1 <1>   0.0800 
 44 H       -5.2490    -4.2300    -1.9970 H     1 <1>   0.0800 
@<TRIPOS>BOND
  1   1   2  1   
  2   1   3  1   
  3   2   4  2   
  4   2   5  1   
  5   3   6  2   
  6   3  25  1   
  7   4   6  1   
  8   5   7  ar  
  9   5   8  ar  
 10   6   9  1   
 11   7  10  ar  
 12   8  11  ar  
 13   9  12  2   
 14   9  13  am  
 15  10  14  ar  
 16  10  26  1   
 17  11  14  ar  
 18  11  27  1   
 19  13  15  1   
 20  13  16  1   
 21  14  28  1   
 22  15  17  1   
 23  15  29  1   
 24  15  30  1   
 25  16  18  1   
 26  16  31  1   
 27  16  32  1   
 28  17  19  1   
 29  17  20  1   
 30  17  21  1   
 31  18  20  1   
 32  18  33  1   
 33  18  34  1   
 34  19  22  1   
 35  19  23  1   
 36  19  35  1   
 37  20  36  1   
 38  20  37  1   
 39  21  24  1   
 40  21  38  1   
 41  21  39  1   
 42  22  40  1   
 43  23  24  1   
 44  23  41  1   
 45  23  42  1   
 46  24  43  1   
 47  24  44  1   
@<TRIPOS>SUBSTRUCTURE
  1 ****   4 GROUP 4 **** **** 0

# MOE 2024.06 (io_trps.svl 2023.06)
