@<TRIPOS>MOLECULE
NONAME
54 57 1 0 0 
SMALL
USER_CHARGES


@<TRIPOS>ATOM
  1 O       -0.4230     0.6530    -0.2320 O.2   1 <1>  -0.5700 
  2 C       -0.3340     1.8540    -0.1190 C.2   1 <1>   0.5690 
  3 N       -1.3980     2.6540     0.2090 N.am  1 <1>  -0.5090 
  4 C        1.0300     2.4890    -0.3980 C.3   1 <1>   0.1810 
  5 C       -1.2940     4.1480     0.1680 C.3   1 <1>   0.3640 
  6 C       -2.7070     2.1030     0.6390 C.3   1 <1>   0.0490 
  7 O        1.1260     3.8230     0.0380 O.3   1 <1>  -0.5600 
  8 C       -2.4290     4.7340    -0.6720 C.ar  1 <1>  -0.1440 
  9 C        0.0610     4.6450    -0.3940 C.3   1 <1>   0.2610 
 10 C       -3.2500     2.4960     1.9790 C.3   1 <1>  -0.2000 
 11 C       -2.7560     1.1040     1.7530 C.3   1 <1>  -0.2000 
 12 C       -3.1400     5.8300    -0.2000 C.ar  1 <1>   0.1600 
 13 C       -2.7670     4.2100    -1.9080 C.ar  1 <1>  -0.1500 
 14 C        0.3150     6.1190    -0.0280 C.2   1 <1>   0.5690 
 15 N       -4.1330     6.4230    -0.8430 N.ar  1 <1>  -0.6200 
 16 C       -3.7990     4.8170    -2.5890 C.ar  1 <1>  -0.1500 
 17 O       -0.2740     6.5890     0.9230 O.2   1 <1>  -0.5700 
 18 N        1.1690     6.8940    -0.7800 N.am  1 <1>  -0.6600 
 19 C       -4.4400     5.9040    -2.0200 C.ar  1 <1>   0.1600 
 20 C        1.2900     8.3580    -0.5150 C.3   1 <1>   0.1400 
 21 C        1.9940     6.3810    -1.9100 C.3   1 <1>   0.0600 
 22 C        2.1990     8.6500     0.6930 C.3   1 <1>  -0.0800 
 23 C        2.2380    10.1590     0.9770 C.3   1 <1>  -0.1600 
 24 C        3.6370     8.1340     0.5090 C.3   1 <1>  -0.1600 
 25 C        3.2210    10.4790     2.1080 C.3   1 <1>   0.1200 
 26 C        4.5340     8.5860     1.6670 C.3   1 <1>   0.1200 
 27 O        4.4780     9.9740     1.7810 O.3   1 <1>  -0.5600 
 28 H        1.2300     2.4590    -1.4540 H     1 <1>   0.0800 
 29 H        1.7910     1.9250     0.1110 H     1 <1>   0.0800 
 30 H       -1.3920     4.4930     1.1820 H     1 <1>   0.0800 
 31 H       -3.3960     1.9790    -0.1800 H     1 <1>   0.1000 
 32 H        0.0220     4.5810    -1.4650 H     1 <1>   0.0800 
 33 H       -2.6760     3.1280     2.6330 H     1 <1>   0.1000 
 34 H       -4.3100     2.6490     2.0800 H     1 <1>   0.1000 
 35 H       -3.4740     0.3050     1.6910 H     1 <1>   0.1000 
 36 H       -1.8300     0.7920     2.2020 H     1 <1>   0.1000 
 37 H       -2.8770     6.2480     0.7580 H     1 <1>   0.1500 
 38 H       -2.2570     3.3580    -2.3250 H     1 <1>   0.1500 
 39 H       -4.1100     4.4530    -3.5510 H     1 <1>   0.1500 
 40 H       -5.2460     6.3710    -2.5600 H     1 <1>   0.1500 
 41 H        1.6700     8.8570    -1.3890 H     1 <1>   0.0800 
 42 H        0.3080     8.7540    -0.3170 H     1 <1>   0.0800 
 43 H        2.9020     6.9520    -1.9960 H     1 <1>   0.0800 
 44 H        1.4420     6.4670    -2.8300 H     1 <1>   0.0800 
 45 H        2.2640     5.3530    -1.7480 H     1 <1>   0.0800 
 46 H        1.7730     8.1670     1.5570 H     1 <1>   0.0800 
 47 H        1.2580    10.5050     1.2530 H     1 <1>   0.0800 
 48 H        2.5450    10.6970     0.0970 H     1 <1>   0.0800 
 49 H        4.0510     8.5070    -0.4100 H     1 <1>   0.0800 
 50 H        3.6380     7.0600     0.4680 H     1 <1>   0.0800 
 51 H        2.9040    10.0400     3.0390 H     1 <1>   0.0800 
 52 H        3.3180    11.5430     2.2370 H     1 <1>   0.0800 
 53 H        5.5580     8.3120     1.4810 H     1 <1>   0.0800 
 54 H        4.2170     8.1500     2.6000 H     1 <1>   0.0800 
@<TRIPOS>BOND
  1   1   2  2   
  2   2   3  am  
  3   2   4  1   
  4   3   5  1   
  5   3   6  1   
  6   4   7  1   
  7   4  28  1   
  8   4  29  1   
  9   5   8  1   
 10   5   9  1   
 11   5  30  1   
 12   6  10  1   
 13   6  11  1   
 14   6  31  1   
 15   7   9  1   
 16   8  12  ar  
 17   8  13  ar  
 18   9  14  1   
 19   9  32  1   
 20  10  11  1   
 21  10  33  1   
 22  10  34  1   
 23  11  35  1   
 24  11  36  1   
 25  12  15  ar  
 26  12  37  1   
 27  13  16  ar  
 28  13  38  1   
 29  14  17  2   
 30  14  18  am  
 31  15  19  ar  
 32  16  19  ar  
 33  16  39  1   
 34  18  20  1   
 35  18  21  1   
 36  19  40  1   
 37  20  22  1   
 38  20  41  1   
 39  20  42  1   
 40  21  43  1   
 41  21  44  1   
 42  21  45  1   
 43  22  23  1   
 44  22  24  1   
 45  22  46  1   
 46  23  25  1   
 47  23  47  1   
 48  23  48  1   
 49  24  26  1   
 50  24  49  1   
 51  24  50  1   
 52  25  27  1   
 53  25  51  1   
 54  25  52  1   
 55  26  27  1   
 56  26  53  1   
 57  26  54  1   
@<TRIPOS>SUBSTRUCTURE
  1 ****  14 GROUP 4 **** **** 0

# MOE 2024.06 (io_trps.svl 2023.06)
