@<TRIPOS>MOLECULE
NONAME
46 47 1 0 0 
SMALL
USER_CHARGES


@<TRIPOS>ATOM
  1 CL       0.4420     0.7060     1.9750 Cl    1 <1>  -0.1770 
  2 C        1.6970     1.2480     0.8850 C.ar  1 <1>   0.1770 
  3 C        2.4790     0.3380     0.1920 C.ar  1 <1>   0.1900 
  4 C        1.9080     2.6020     0.7180 C.ar  1 <1>  -0.1500 
  5 F        2.2870    -0.9440     0.3470 F     1 <1>  -0.1900 
  6 C        3.4700     0.7620    -0.6720 C.ar  1 <1>  -0.1500 
  7 C        2.9070     3.0680    -0.1400 C.ar  1 <1>   0.0860 
  8 C        3.6740     2.1230    -0.8330 C.ar  1 <1>  -0.1500 
  9 C        3.1230     4.4930    -0.3120 C.2   1 <1>   0.5440 
 10 O        2.1620     5.2070    -0.5270 O.2   1 <1>  -0.5700 
 11 N        4.3770     5.0660    -0.2320 N.am  1 <1>  -0.6600 
 12 C        5.5240     4.4310     0.4930 C.3   1 <1>   0.1400 
 13 C        4.6180     6.4310    -0.7860 C.3   1 <1>   0.1400 
 14 C        6.0330     5.2860     1.6630 C.3   1 <1>   0.1400 
 15 C        4.5390     7.4770     0.3320 C.3   1 <1>  -0.1600 
 16 N        6.7220     6.5150     1.1700 N.am  1 <1>  -0.6600 
 17 C        5.8670     7.7350     1.0600 C.3   1 <1>   0.1400 
 18 C        8.0370     6.4390     0.7590 C.2   1 <1>   0.5690 
 19 O        8.6120     5.3720     0.7700 O.2   1 <1>  -0.5700 
 20 C        8.8050     7.6990     0.2770 C.3   1 <1>   0.2610 
 21 O        8.3640     8.1100    -0.9870 O.3   1 <1>  -0.6800 
 22 C       10.3540     7.5720     0.2440 C.3   1 <1>  -0.0800 
 23 C       11.0180     8.9580     0.2020 C.3   1 <1>  -0.2400 
 24 C       10.8980     6.7220    -0.9220 C.3   1 <1>  -0.2400 
 25 H        1.2940     3.3080     1.2490 H     1 <1>   0.1500 
 26 H        4.0630     0.0390    -1.2060 H     1 <1>   0.1500 
 27 H        4.4360     2.4700    -1.5110 H     1 <1>   0.1500 
 28 H        6.3320     4.2530    -0.1960 H     1 <1>   0.0800 
 29 H        5.2240     3.4810     0.8950 H     1 <1>   0.0800 
 30 H        3.8640     6.6500    -1.5240 H     1 <1>   0.0800 
 31 H        5.5740     6.4690    -1.2800 H     1 <1>   0.0800 
 32 H        6.7300     4.7030     2.2400 H     1 <1>   0.0800 
 33 H        5.2150     5.5470     2.3120 H     1 <1>   0.0800 
 34 H        3.7770     7.1940     1.0350 H     1 <1>   0.0800 
 35 H        4.2240     8.4100    -0.1000 H     1 <1>   0.0800 
 36 H        5.6640     8.1130     2.0470 H     1 <1>   0.0800 
 37 H        6.3880     8.5060     0.5230 H     1 <1>   0.0800 
 38 H        8.5590     8.4890     0.9620 H     1 <1>   0.0800 
 39 H        8.6620     7.4500    -1.6430 H     1 <1>   0.4000 
 40 H       10.6550     7.1000     1.1650 H     1 <1>   0.0800 
 41 H       10.7490     9.4800    -0.7000 H     1 <1>   0.0800 
 42 H       12.0890     8.8610     0.2340 H     1 <1>   0.0800 
 43 H       10.7090     9.5500     1.0440 H     1 <1>   0.0800 
 44 H       10.7120     7.1960    -1.8690 H     1 <1>   0.0800 
 45 H       10.4530     5.7440    -0.9300 H     1 <1>   0.0800 
 46 H       11.9620     6.5960    -0.8170 H     1 <1>   0.0800 
@<TRIPOS>BOND
  1   1   2  1   
  2   2   3  ar  
  3   2   4  ar  
  4   3   5  1   
  5   3   6  ar  
  6   4   7  ar  
  7   4  25  1   
  8   6   8  ar  
  9   6  26  1   
 10   7   8  ar  
 11   7   9  1   
 12   8  27  1   
 13   9  10  2   
 14   9  11  am  
 15  11  12  1   
 16  11  13  1   
 17  12  14  1   
 18  12  28  1   
 19  12  29  1   
 20  13  15  1   
 21  13  30  1   
 22  13  31  1   
 23  14  16  1   
 24  14  32  1   
 25  14  33  1   
 26  15  17  1   
 27  15  34  1   
 28  15  35  1   
 29  16  17  1   
 30  16  18  am  
 31  17  36  1   
 32  17  37  1   
 33  18  19  2   
 34  18  20  1   
 35  20  21  1   
 36  20  22  1   
 37  20  38  1   
 38  21  39  1   
 39  22  23  1   
 40  22  24  1   
 41  22  40  1   
 42  23  41  1   
 43  23  42  1   
 44  23  43  1   
 45  24  44  1   
 46  24  45  1   
 47  24  46  1   
@<TRIPOS>SUBSTRUCTURE
  1 ****  12 GROUP 4 **** **** 0

# MOE 2024.06 (io_trps.svl 2023.06)
