@<TRIPOS>MOLECULE
NONAME
52 54 1 0 0 
SMALL
USER_CHARGES


@<TRIPOS>ATOM
  1 O       -1.1220    -0.6760    -0.9000 O.2   1 <1>  -0.5700 
  2 C       -2.0750    -1.2380    -0.3920 C.2   1 <1>   0.6950 
  3 N       -2.0670    -2.6120    -0.3770 N.2   1 <1>  -0.6610 
  4 C       -3.1700    -0.4850     0.1670 C.ar  1 <1>   0.0860 
  5 C       -3.0580    -3.2210     0.1500 C.2   1 <1>   0.4390 
  6 C       -4.2270    -1.2080     0.7220 C.ar  1 <1>   0.1000 
  7 C       -3.2410     0.9120     0.1850 C.ar  1 <1>  -0.1500 
  8 N       -4.1320    -2.5860     0.6930 N.pl3 1 <1>  -0.5500 
  9 C       -3.0680    -4.7330     0.1680 C.3   1 <1>  -0.0990 
 10 C       -5.3210    -0.5490     1.2780 C.ar  1 <1>  -0.1500 
 11 C       -4.3260     1.5620     0.7360 C.ar  1 <1>  -0.1500 
 12 C       -3.7680    -5.2580    -1.0830 C.3   1 <1>   0.1400 
 13 C       -5.3700     0.8290     1.2850 C.ar  1 <1>  -0.1500 
 14 N       -3.8790    -6.7380    -1.0140 N.am  1 <1>  -0.7300 
 15 C       -4.9270    -7.3920    -0.4380 C.2   1 <1>   0.5690 
 16 O       -5.8260    -6.7910     0.1030 O.2   1 <1>  -0.5700 
 17 C       -5.0180    -8.9290    -0.4620 C.3   1 <1>   0.4040 
 18 N       -6.4450    -9.4220    -0.4470 N.4   1 <1>  -0.9590 
 19 C       -6.6130   -10.7870     0.0960 C.3   1 <1>   0.3430 
 20 C       -7.1610    -9.2190    -1.7240 C.3   1 <1>   0.3430 
 21 C       -7.0680   -10.6620     1.5480 C.3   1 <1>  -0.1600 
 22 C       -8.4740    -8.4880    -1.4390 C.3   1 <1>  -0.1600 
 23 C       -8.5590   -10.3150     1.7230 C.3   1 <1>  -0.1600 
 24 C       -9.4280    -9.1830    -0.4470 C.3   1 <1>  -0.1600 
 25 C       -9.0630    -9.0240     1.0470 C.3   1 <1>  -0.1600 
 26 H       -2.4300     1.4780    -0.2420 H     1 <1>   0.1500 
 27 H       -4.8860    -3.1420     1.1010 H     1 <1>   0.4000 
 28 H       -3.5710    -5.0770     1.0530 H     1 <1>   0.0800 
 29 H       -2.0530    -5.0860     0.1900 H     1 <1>   0.0800 
 30 H       -6.1300    -1.1170     1.7030 H     1 <1>   0.1500 
 31 H       -4.3670     2.6390     0.7440 H     1 <1>   0.1500 
 32 H       -3.2110    -4.9740    -1.9610 H     1 <1>   0.0800 
 33 H       -4.7530    -4.8260    -1.1570 H     1 <1>   0.0800 
 34 H       -6.2150     1.3420     1.7130 H     1 <1>   0.1500 
 35 H       -3.0790    -7.2340    -1.4190 H     1 <1>   0.3700 
 36 H       -4.5080    -9.2940     0.4120 H     1 <1>   0.0800 
 37 H       -4.5090    -9.3040    -1.3320 H     1 <1>   0.0800 
 38 H       -6.9360    -8.7910     0.2110 H     1 <1>   0.4500 
 39 H       -5.6820   -11.3280     0.0410 H     1 <1>   0.0800 
 40 H       -7.3590   -11.3300    -0.4620 H     1 <1>   0.0800 
 41 H       -7.3610   -10.1670    -2.1980 H     1 <1>   0.0800 
 42 H       -6.5680    -8.6200    -2.3970 H     1 <1>   0.0800 
 43 H       -6.4560    -9.9470     2.0710 H     1 <1>   0.0800 
 44 H       -6.9040   -11.6140     2.0220 H     1 <1>   0.0800 
 45 H       -8.9910    -8.3950    -2.3790 H     1 <1>   0.0800 
 46 H       -8.2670    -7.4840    -1.1090 H     1 <1>   0.0800 
 47 H       -8.7370   -10.2160     2.7820 H     1 <1>   0.0800 
 48 H       -9.1620   -11.1450     1.3970 H     1 <1>   0.0800 
 49 H       -9.5510   -10.2210    -0.7080 H     1 <1>   0.0800 
 50 H      -10.3960    -8.7280    -0.5810 H     1 <1>   0.0800 
 51 H       -8.3870    -8.2030     1.2140 H     1 <1>   0.0800 
 52 H       -9.9740    -8.7550     1.5570 H     1 <1>   0.0800 
@<TRIPOS>BOND
  1   1   2  2   
  2   2   3  1   
  3   2   4  1   
  4   3   5  2   
  5   4   6  ar  
  6   4   7  ar  
  7   5   8  1   
  8   5   9  1   
  9   6   8  1   
 10   6  10  ar  
 11   7  11  ar  
 12   7  26  1   
 13   8  27  1   
 14   9  12  1   
 15   9  28  1   
 16   9  29  1   
 17  10  13  ar  
 18  10  30  1   
 19  11  13  ar  
 20  11  31  1   
 21  12  14  1   
 22  12  32  1   
 23  12  33  1   
 24  13  34  1   
 25  14  15  am  
 26  14  35  1   
 27  15  16  2   
 28  15  17  1   
 29  17  18  1   
 30  17  36  1   
 31  17  37  1   
 32  18  19  1   
 33  18  20  1   
 34  18  38  1   
 35  19  21  1   
 36  19  39  1   
 37  19  40  1   
 38  20  22  1   
 39  20  41  1   
 40  20  42  1   
 41  21  23  1   
 42  21  43  1   
 43  21  44  1   
 44  22  24  1   
 45  22  45  1   
 46  22  46  1   
 47  23  25  1   
 48  23  47  1   
 49  23  48  1   
 50  24  25  1   
 51  24  49  1   
 52  24  50  1   
 53  25  51  1   
 54  25  52  1   
@<TRIPOS>SUBSTRUCTURE
  1 ****  12 GROUP 4 **** **** 0

# MOE 2024.06 (io_trps.svl 2023.06)
