@<TRIPOS>MOLECULE
NONAME
48 49 1 0 0 
SMALL
USER_CHARGES


@<TRIPOS>ATOM
  1 O       -2.8540    -1.2800     0.7310 O.3   1 <1>  -0.3630 
  2 C       -2.8490     0.0290     0.3910 C.ar  1 <1>   0.0830 
  3 C       -1.6100    -1.9470     0.7510 C.3   1 <1>   0.0400 
  4 C       -3.2560     0.3900    -0.8900 C.ar  1 <1>  -0.1440 
  5 C       -2.4820     1.0030     1.3170 C.ar  1 <1>  -0.1440 
  6 C       -3.2550     1.7270    -1.2550 C.ar  1 <1>  -0.1500 
  7 C       -3.7120    -0.6550    -1.8910 C.3   1 <1>   0.4870 
  8 C       -2.4860     2.3320     0.9290 C.ar  1 <1>  -0.1500 
  9 C       -2.0920     0.6620     2.7490 C.3   1 <1>  -0.0960 
 10 C       -2.8650     2.7010    -0.3510 C.ar  1 <1>  -0.1440 
 11 N       -4.7820    -1.4880    -1.2960 N.4   1 <1>  -0.9590 
 12 C       -2.8600     4.1660    -0.7500 C.3   1 <1>  -0.0970 
 13 C       -5.1140    -2.6810    -2.1160 C.3   1 <1>   0.5240 
 14 C       -5.9680    -0.7060    -0.8270 C.3   1 <1>   0.3430 
 15 C       -5.2930    -3.8610    -1.1720 C.2   1 <1>   0.0460 
 16 C       -6.6190    -1.3260     0.4170 C.3   1 <1>   0.1200 
 17 N       -4.4660    -4.0050    -0.1150 N.2   1 <1>  -0.5650 
 18 C       -6.2130    -4.8500    -1.2000 C.2   1 <1>  -0.3020 
 19 O       -7.7610    -0.5990     0.7090 O.3   1 <1>  -0.6800 
 20 C       -4.8920    -5.0750     0.4720 C.2   1 <1>   0.0060 
 21 N       -5.9550    -5.6400    -0.1410 N.pl3 1 <1>   0.0330 
 22 C       -4.2690    -5.6540     1.7250 C.3   1 <1>  -0.0600 
 23 H       -1.7920    -2.9940     0.9180 H     1 <1>   0.0800 
 24 H       -1.0060    -1.5510     1.5470 H     1 <1>   0.0800 
 25 H       -1.1170    -1.8040    -0.1940 H     1 <1>   0.0800 
 26 H       -3.5580     2.0270    -2.2430 H     1 <1>   0.1500 
 27 H       -2.8690    -1.2750    -2.1490 H     1 <1>   0.0800 
 28 H       -4.0710    -0.1720    -2.7840 H     1 <1>   0.0800 
 29 H       -2.1950     3.0940     1.6330 H     1 <1>   0.1500 
 30 H       -2.6230    -0.2070     3.0920 H     1 <1>   0.0800 
 31 H       -2.3310     1.4780     3.4080 H     1 <1>   0.0800 
 32 H       -1.0350     0.4740     2.8070 H     1 <1>   0.0800 
 33 H       -4.3390    -1.8960    -0.4440 H     1 <1>   0.4500 
 34 H       -2.7290     4.2720    -1.8120 H     1 <1>   0.0800 
 35 H       -2.0560     4.6850    -0.2590 H     1 <1>   0.0800 
 36 H       -3.7900     4.6240    -0.4670 H     1 <1>   0.0800 
 37 H       -4.2980    -2.9090    -2.7810 H     1 <1>   0.0800 
 38 H       -6.0070    -2.5190    -2.6960 H     1 <1>   0.0800 
 39 H       -6.6990    -0.6380    -1.6150 H     1 <1>   0.0800 
 40 H       -5.6620     0.2930    -0.5630 H     1 <1>   0.0800 
 41 H       -5.9520    -1.2680     1.2600 H     1 <1>   0.0800 
 42 H       -6.9160    -2.3450     0.2460 H     1 <1>   0.0800 
 43 H       -7.0180    -5.0420    -1.8890 H     1 <1>   0.1500 
 44 H       -8.1680    -0.9010     1.5490 H     1 <1>   0.4000 
 45 H       -6.4490    -6.4920     0.1450 H     1 <1>   0.2700 
 46 H       -3.4520    -5.0340     2.0490 H     1 <1>   0.0800 
 47 H       -3.8940    -6.6420     1.5300 H     1 <1>   0.0800 
 48 H       -4.9980    -5.7000     2.5140 H     1 <1>   0.0800 
@<TRIPOS>BOND
  1   1   2  1   
  2   1   3  1   
  3   2   4  ar  
  4   2   5  ar  
  5   3  23  1   
  6   3  24  1   
  7   3  25  1   
  8   4   6  ar  
  9   4   7  1   
 10   5   8  ar  
 11   5   9  1   
 12   6  10  ar  
 13   6  26  1   
 14   7  11  1   
 15   7  27  1   
 16   7  28  1   
 17   8  10  ar  
 18   8  29  1   
 19   9  30  1   
 20   9  31  1   
 21   9  32  1   
 22  10  12  1   
 23  11  13  1   
 24  11  14  1   
 25  11  33  1   
 26  12  34  1   
 27  12  35  1   
 28  12  36  1   
 29  13  15  1   
 30  13  37  1   
 31  13  38  1   
 32  14  16  1   
 33  14  39  1   
 34  14  40  1   
 35  15  17  1   
 36  15  18  2   
 37  16  19  1   
 38  16  41  1   
 39  16  42  1   
 40  17  20  2   
 41  18  21  1   
 42  18  43  1   
 43  19  44  1   
 44  20  21  1   
 45  20  22  1   
 46  21  45  1   
 47  22  46  1   
 48  22  47  1   
 49  22  48  1   
@<TRIPOS>SUBSTRUCTURE
  1 ****  11 GROUP 4 **** **** 0

# MOE 2024.06 (io_trps.svl 2023.06)
