@<TRIPOS>MOLECULE
NONAME
52 53 1 0 0 
SMALL
USER_CHARGES


@<TRIPOS>ATOM
  1 S        1.0110     0.4580    -1.8210 S.o2  1 <1>   1.3330 
  2 O        1.2150    -0.9670    -1.9610 O.2   1 <1>  -0.6500 
  3 O        0.4720     1.2150    -2.9270 O.2   1 <1>  -0.6500 
  4 N       -0.0240     0.7040    -0.4960 N.am  1 <1>  -0.8490 
  5 C        2.5610     1.1920    -1.2910 C.3   1 <1>  -0.0550 
  6 C       -0.6000     2.0540    -0.4540 C.3   1 <1>   0.1160 
  7 C       -1.0980    -0.2920    -0.4430 C.3   1 <1>   0.1160 
  8 C        3.2860     0.4050    -0.1770 C.3   1 <1>  -0.0800 
  9 C        4.6680     0.9300     0.1860 C.3   1 <1>   0.2200 
 10 C        2.5720     0.3730     1.1800 C.3   1 <1>   0.1200 
 11 N        4.6600     2.4080     0.3000 N.am  1 <1>  -0.7300 
 12 C        4.8280     0.3370     1.5780 C.3   1 <1>   0.1200 
 13 O        3.5660     0.4500     2.1620 O.3   1 <1>  -0.5600 
 14 C        5.0740     3.2800    -0.6640 C.2   1 <1>   0.5440 
 15 O        5.4240     2.8210    -1.7340 O.2   1 <1>  -0.5700 
 16 C        5.0590     4.7110    -0.4280 C.ar  1 <1>   0.0860 
 17 C        4.8450     5.6070    -1.4730 C.ar  1 <1>  -0.1500 
 18 C        5.2500     5.2540     0.8430 C.ar  1 <1>  -0.1500 
 19 C        4.8070     6.9760    -1.2790 C.ar  1 <1>   0.0820 
 20 C        5.2100     6.6190     1.0630 C.ar  1 <1>  -0.1500 
 21 O        4.5890     7.7120    -2.4040 O.3   1 <1>  -0.3620 
 22 C        4.9790     7.5020     0.0110 C.ar  1 <1>   0.0820 
 23 C        5.2310     8.9550    -2.5880 C.3   1 <1>   0.0400 
 24 O        4.9000     8.8460     0.2130 O.3   1 <1>  -0.3630 
 25 C        5.0020     9.4360     1.4880 C.3   1 <1>   0.1200 
 26 C        4.8400    10.9440     1.3210 C.3   1 <1>  -0.2400 
 27 H        3.2160     1.2390    -2.1400 H     1 <1>   0.0800 
 28 H        2.3840     2.1990    -0.9720 H     1 <1>   0.0800 
 29 H       -1.1740     2.1830     0.4470 H     1 <1>   0.0800 
 30 H       -1.2430     2.2160    -1.3050 H     1 <1>   0.0800 
 31 H        0.1810     2.7940    -0.4680 H     1 <1>   0.0800 
 32 H       -1.7300    -0.1170     0.4100 H     1 <1>   0.0800 
 33 H       -0.6800    -1.2810    -0.3540 H     1 <1>   0.0800 
 34 H       -1.6930    -0.2490    -1.3410 H     1 <1>   0.0800 
 35 H        3.4000    -0.6140    -0.5050 H     1 <1>   0.0800 
 36 H        5.4350     0.6010    -0.4950 H     1 <1>   0.0800 
 37 H        2.0110    -0.5360     1.3160 H     1 <1>   0.0800 
 38 H        1.9230     1.2220     1.3110 H     1 <1>   0.0800 
 39 H        4.2370     2.7510     1.1660 H     1 <1>   0.3700 
 40 H        5.5560     0.8570     2.1750 H     1 <1>   0.0800 
 41 H        5.0760    -0.7090     1.5230 H     1 <1>   0.0800 
 42 H        4.7050     5.2240    -2.4690 H     1 <1>   0.1500 
 43 H        5.4400     4.5980     1.6740 H     1 <1>   0.1500 
 44 H        5.3610     6.9740     2.0640 H     1 <1>   0.1500 
 45 H        5.2520     9.1680    -3.6410 H     1 <1>   0.0800 
 46 H        6.2340     8.8960    -2.2030 H     1 <1>   0.0800 
 47 H        4.6690     9.7150    -2.0760 H     1 <1>   0.0800 
 48 H        4.2220     9.0360     2.1130 H     1 <1>   0.0800 
 49 H        5.9700     9.2020     1.8970 H     1 <1>   0.0800 
 50 H        3.8780    11.1660     0.8940 H     1 <1>   0.0800 
 51 H        5.6140    11.3310     0.6840 H     1 <1>   0.0800 
 52 H        4.9100    11.4270     2.2790 H     1 <1>   0.0800 
@<TRIPOS>BOND
  1   1   2  2   
  2   1   3  2   
  3   1   4  am  
  4   1   5  1   
  5   4   6  1   
  6   4   7  1   
  7   5   8  1   
  8   5  27  1   
  9   5  28  1   
 10   6  29  1   
 11   6  30  1   
 12   6  31  1   
 13   7  32  1   
 14   7  33  1   
 15   7  34  1   
 16   8   9  1   
 17   8  10  1   
 18   8  35  1   
 19   9  11  1   
 20   9  12  1   
 21   9  36  1   
 22  10  13  1   
 23  10  37  1   
 24  10  38  1   
 25  11  14  am  
 26  11  39  1   
 27  12  13  1   
 28  12  40  1   
 29  12  41  1   
 30  14  15  2   
 31  14  16  1   
 32  16  17  ar  
 33  16  18  ar  
 34  17  19  ar  
 35  17  42  1   
 36  18  20  ar  
 37  18  43  1   
 38  19  21  1   
 39  19  22  ar  
 40  20  22  ar  
 41  20  44  1   
 42  21  23  1   
 43  22  24  1   
 44  23  45  1   
 45  23  46  1   
 46  23  47  1   
 47  24  25  1   
 48  25  26  1   
 49  25  48  1   
 50  25  49  1   
 51  26  50  1   
 52  26  51  1   
 53  26  52  1   
@<TRIPOS>SUBSTRUCTURE
  1 ****  14 GROUP 4 **** **** 0

# MOE 2024.06 (io_trps.svl 2023.06)
