@<TRIPOS>MOLECULE
NONAME
46 47 1 0 0 
SMALL
USER_CHARGES


@<TRIPOS>ATOM
  1 O       -2.4710     0.8540    -1.1650 O.2   1 <1>  -0.5700 
  2 C       -3.1210     1.2460    -0.2220 C.2   1 <1>   0.5690 
  3 N       -4.2610     0.5830     0.1740 N.am  1 <1>  -0.6600 
  4 C       -2.6100     2.5080     0.4910 C.3   1 <1>  -0.0190 
  5 C       -4.6880    -0.6540    -0.5500 C.3   1 <1>   0.2840 
  6 C       -5.1800     1.0050     1.2680 C.3   1 <1>   0.1400 
  7 C       -2.5010     3.7020    -0.4790 C.3   1 <1>  -0.1600 
  8 C       -1.2510     2.2520     1.1870 C.3   1 <1>  -0.1600 
  9 C       -4.5010    -1.8800     0.3320 C.ar  1 <1>  -0.1440 
 10 C       -4.6280     0.5830     2.6300 C.3   1 <1>  -0.2400 
 11 C       -2.1280     5.0120     0.2480 C.3   1 <1>   0.2000 
 12 C       -0.4470     3.5360     1.4790 C.3   1 <1>  -0.1600 
 13 C       -5.5940    -2.5770     0.8260 C.ar  1 <1>  -0.1500 
 14 C       -3.2210    -2.3090     0.6490 C.ar  1 <1>  -0.1500 
 15 O       -1.3340     5.7920    -0.6120 O.3   1 <1>  -0.5600 
 16 C       -1.3550     4.7660     1.5700 C.3   1 <1>   0.2000 
 17 C       -5.4070    -3.6880     1.6310 C.ar  1 <1>  -0.1500 
 18 C       -3.0330    -3.4190     1.4530 C.ar  1 <1>  -0.1500 
 19 C       -2.0270     6.4620    -1.6200 C.3   1 <1>   0.0400 
 20 O       -0.5650     5.8630     1.8470 O.3   1 <1>  -0.6800 
 21 C       -4.1270    -4.1090     1.9450 C.ar  1 <1>  -0.1500 
 22 H       -3.3080     2.7950     1.2510 H     1 <1>   0.0800 
 23 H       -5.7190    -0.5590    -0.8390 H     1 <1>   0.0800 
 24 H       -4.1180    -0.7890    -1.4530 H     1 <1>   0.0800 
 25 H       -5.3240     2.0700     1.2360 H     1 <1>   0.0800 
 26 H       -6.1450     0.5500     1.1240 H     1 <1>   0.0800 
 27 H       -3.4360     3.8320    -0.9930 H     1 <1>   0.0800 
 28 H       -1.7450     3.4700    -1.2110 H     1 <1>   0.0800 
 29 H       -1.4300     1.7230     2.1070 H     1 <1>   0.0800 
 30 H       -0.6420     1.6130     0.5700 H     1 <1>   0.0800 
 31 H       -3.6660     1.0210     2.8120 H     1 <1>   0.0800 
 32 H       -4.5410    -0.4870     2.6860 H     1 <1>   0.0800 
 33 H       -5.3000     0.9040     3.4050 H     1 <1>   0.0800 
 34 H       -3.0190     5.5670     0.4900 H     1 <1>   0.0800 
 35 H        0.2550     3.6930     0.6780 H     1 <1>   0.0800 
 36 H        0.1050     3.4180     2.3950 H     1 <1>   0.0800 
 37 H       -6.5940    -2.2600     0.5890 H     1 <1>   0.1500 
 38 H       -2.3690    -1.7700     0.2680 H     1 <1>   0.1500 
 39 H       -2.0420     4.6410     2.3890 H     1 <1>   0.0800 
 40 H       -6.2580    -4.2250     2.0130 H     1 <1>   0.1500 
 41 H       -2.0370    -3.7450     1.6950 H     1 <1>   0.1500 
 42 H       -1.3160     7.0380    -2.1860 H     1 <1>   0.0800 
 43 H       -2.7540     7.1190    -1.1770 H     1 <1>   0.0800 
 44 H       -2.5040     5.7460    -2.2670 H     1 <1>   0.0800 
 45 H       -0.3040     6.2290     0.9710 H     1 <1>   0.4000 
 46 H       -3.9820    -4.9720     2.5710 H     1 <1>   0.1500 
@<TRIPOS>BOND
  1   1   2  2   
  2   2   3  am  
  3   2   4  1   
  4   3   5  1   
  5   3   6  1   
  6   4   7  1   
  7   4   8  1   
  8   4  22  1   
  9   5   9  1   
 10   5  23  1   
 11   5  24  1   
 12   6  10  1   
 13   6  25  1   
 14   6  26  1   
 15   7  11  1   
 16   7  27  1   
 17   7  28  1   
 18   8  12  1   
 19   8  29  1   
 20   8  30  1   
 21   9  13  ar  
 22   9  14  ar  
 23  10  31  1   
 24  10  32  1   
 25  10  33  1   
 26  11  15  1   
 27  11  16  1   
 28  11  34  1   
 29  12  16  1   
 30  12  35  1   
 31  12  36  1   
 32  13  17  ar  
 33  13  37  1   
 34  14  18  ar  
 35  14  38  1   
 36  15  19  1   
 37  16  20  1   
 38  16  39  1   
 39  17  21  ar  
 40  17  40  1   
 41  18  21  ar  
 42  18  41  1   
 43  19  42  1   
 44  19  43  1   
 45  19  44  1   
 46  20  45  1   
 47  21  46  1   
@<TRIPOS>SUBSTRUCTURE
  1 ****   2 GROUP 4 **** **** 0

# MOE 2024.06 (io_trps.svl 2023.06)
