@<TRIPOS>MOLECULE
NONAME
22 22 1 0 0 
SMALL
USER_CHARGES


@<TRIPOS>ATOM
  1 O       -5.2980     0.8360    -1.9740 O.3   1 <1>  -0.6800 
  2 C       -4.9400     1.1820    -0.6810 C.3   1 <1>   0.2800 
  3 C       -5.0860    -0.0840     0.2210 C.3   1 <1>   0.4720 
  4 C       -5.8530     2.3360    -0.2560 C.3   1 <1>  -0.2400 
  5 C       -3.4840     1.6490    -0.7530 C.3   1 <1>  -0.2400 
  6 N       -4.7420    -1.3440    -0.5210 N.4   1 <1>  -0.8440 
  7 C       -6.5130    -0.6640     0.3770 C.3   1 <1>   0.0000 
  8 C       -5.8490    -2.0430     0.2000 C.3   1 <1>   0.4720 
  9 H       -5.2820     1.6340    -2.5450 H     1 <1>   0.4000 
 10 H       -4.5660    -0.0280     1.1610 H     1 <1>   0.0000 
 11 H       -6.8890     2.0520    -0.3040 H     1 <1>   0.0800 
 12 H       -5.7030     3.1950    -0.8860 H     1 <1>   0.0800 
 13 H       -5.6320     2.6300     0.7560 H     1 <1>   0.0800 
 14 H       -2.8450     0.8660    -1.1220 H     1 <1>   0.0800 
 15 H       -3.1380     1.9340     0.2240 H     1 <1>   0.0800 
 16 H       -3.3880     2.5060    -1.3970 H     1 <1>   0.0800 
 17 H       -3.7980    -1.6940    -0.3500 H     1 <1>   0.4500 
 18 H       -4.9460    -1.1480    -1.5150 H     1 <1>   0.4500 
 19 H       -7.1850    -0.4220    -0.4290 H     1 <1>   0.0000 
 20 H       -6.9430    -0.5100     1.3500 H     1 <1>   0.0000 
 21 H       -5.5010    -2.4690     1.1240 H     1 <1>   0.0000 
 22 H       -6.3880    -2.7220    -0.4360 H     1 <1>   0.0000 
@<TRIPOS>BOND
  1   1   2  1   
  2   1   9  1   
  3   2   3  1   
  4   2   4  1   
  5   2   5  1   
  6   3   6  1   
  7   3   7  1   
  8   3  10  1   
  9   4  11  1   
 10   4  12  1   
 11   4  13  1   
 12   5  14  1   
 13   5  15  1   
 14   5  16  1   
 15   6   8  1   
 16   6  17  1   
 17   6  18  1   
 18   7   8  1   
 19   7  19  1   
 20   7  20  1   
 21   8  21  1   
 22   8  22  1   
@<TRIPOS>SUBSTRUCTURE
  1 ****   3 GROUP 4 **** **** 0

# MOE 2024.06 (io_trps.svl 2023.06)
