@<TRIPOS>MOLECULE
NONAME
54 57 1 0 0 
SMALL
USER_CHARGES


@<TRIPOS>ATOM
  1 N       -0.1990    -1.3890     1.1740 N.ar  1 <1>  -0.6200 
  2 C        0.9700    -1.3400     0.5490 C.ar  1 <1>   0.7710 
  3 C       -0.5120    -2.5200     1.7590 C.ar  1 <1>   0.4100 
  4 N        1.8630    -2.3400     0.6240 N.ar  1 <1>  -0.1790 
  5 N        1.2750    -0.2440    -0.1880 N.pl3 1 <1>  -0.8380 
  6 N       -1.7810    -2.6010     2.1720 N.pl3 1 <1>  -0.8690 
  7 C        0.4030    -3.5770     1.9070 C.ar  1 <1>  -0.1500 
  8 C        1.6220    -3.4710     1.3270 C.ar  1 <1>   0.2170 
  9 C        2.3790    -0.0920    -1.1730 C.3   1 <1>   0.2090 
 10 C        0.3770     0.9410    -0.2390 C.3   1 <1>   0.2090 
 11 C       -2.6780    -3.7720     2.0950 C.3   1 <1>   0.3040 
 12 C        2.7010    -4.5450     1.4310 C.3   1 <1>  -0.0170 
 13 C        1.9630     1.0820    -2.0470 C.3   1 <1>  -0.1600 
 14 C        1.0850     1.9400    -1.1440 C.3   1 <1>  -0.1600 
 15 C       -3.5790    -3.6250     0.8510 C.3   1 <1>  -0.1900 
 16 C        3.6470    -4.6080     0.2200 C.3   1 <1>  -0.2400 
 17 C       -5.0540    -3.4750     1.1140 C.3   1 <1>  -0.2000 
 18 C       -4.2780    -2.3170     0.5810 C.3   1 <1>  -0.2000 
 19 C       -3.2030    -4.5350    -0.3400 C.3   1 <1>   0.1910 
 20 N       -1.7560    -4.5670    -0.6700 N.pl3 1 <1>   0.0480 
 21 C       -0.9770    -3.6520    -1.3040 C.2   1 <1>   0.0060 
 22 C       -0.9510    -5.6330    -0.5020 C.2   1 <1>  -0.3020 
 23 N        0.2410    -4.0480    -1.5020 N.2   1 <1>  -0.5650 
 24 C       -1.4900    -2.3010    -1.7630 C.3   1 <1>  -0.0600 
 25 C        0.2480    -5.3070    -1.0240 C.2   1 <1>   0.0770 
 26 H        2.7020    -2.2250     0.0760 H     1 <1>   0.4570 
 27 H       -2.2980    -1.7190     2.1290 H     1 <1>   0.4000 
 28 H        0.1110    -4.4390     2.4760 H     1 <1>   0.1500 
 29 H        2.5080    -0.9800    -1.7700 H     1 <1>   0.0800 
 30 H        3.2930     0.1480    -0.6550 H     1 <1>   0.0800 
 31 H        0.2150     1.3480     0.7460 H     1 <1>   0.0800 
 32 H       -0.5690     0.6550    -0.6680 H     1 <1>   0.0800 
 33 H       -3.2790    -3.7960     2.9880 H     1 <1>   0.0800 
 34 H       -2.1140    -4.6880     2.0540 H     1 <1>   0.0800 
 35 H        2.2230    -5.5030     1.5480 H     1 <1>   0.0800 
 36 H        3.2830    -4.3670     2.3190 H     1 <1>   0.0800 
 37 H        1.3840     0.7150    -2.8770 H     1 <1>   0.0800 
 38 H        2.8120     1.6230    -2.4270 H     1 <1>   0.0800 
 39 H        1.6970     2.5870    -0.5400 H     1 <1>   0.0800 
 40 H        0.3850     2.5400    -1.6990 H     1 <1>   0.0800 
 41 H        3.0940    -4.7030    -0.6990 H     1 <1>   0.0800 
 42 H        4.2890    -5.4680     0.3110 H     1 <1>   0.0800 
 43 H        4.2740    -3.7370     0.1680 H     1 <1>   0.0800 
 44 H       -5.4230    -3.4060     2.1240 H     1 <1>   0.1000 
 45 H       -5.7680    -3.9460     0.4580 H     1 <1>   0.1000 
 46 H       -4.4570    -2.0090    -0.4350 H     1 <1>   0.1000 
 47 H       -4.1300    -1.4740     1.2340 H     1 <1>   0.1000 
 48 H       -3.7410    -4.2280    -1.2190 H     1 <1>   0.0800 
 49 H       -3.5090    -5.5410    -0.1140 H     1 <1>   0.0800 
 50 H       -1.2710    -6.5550    -0.0500 H     1 <1>   0.1500 
 51 H       -1.9030    -1.7550    -0.9360 H     1 <1>   0.0800 
 52 H       -2.2480    -2.4320    -2.5130 H     1 <1>   0.0800 
 53 H       -0.6860    -1.7270    -2.1860 H     1 <1>   0.0800 
 54 H        1.1220    -5.9320    -1.0890 H     1 <1>   0.1500 
@<TRIPOS>BOND
  1   1   2  ar  
  2   1   3  ar  
  3   2   4  ar  
  4   2   5  1   
  5   3   6  1   
  6   3   7  ar  
  7   4   8  ar  
  8   4  26  1   
  9   5   9  1   
 10   5  10  1   
 11   6  11  1   
 12   6  27  1   
 13   7   8  ar  
 14   7  28  1   
 15   8  12  1   
 16   9  13  1   
 17   9  29  1   
 18   9  30  1   
 19  10  14  1   
 20  10  31  1   
 21  10  32  1   
 22  11  15  1   
 23  11  33  1   
 24  11  34  1   
 25  12  16  1   
 26  12  35  1   
 27  12  36  1   
 28  13  14  1   
 29  13  37  1   
 30  13  38  1   
 31  14  39  1   
 32  14  40  1   
 33  15  17  1   
 34  15  18  1   
 35  15  19  1   
 36  16  41  1   
 37  16  42  1   
 38  16  43  1   
 39  17  18  1   
 40  17  44  1   
 41  17  45  1   
 42  18  46  1   
 43  18  47  1   
 44  19  20  1   
 45  19  48  1   
 46  19  49  1   
 47  20  21  1   
 48  20  22  1   
 49  21  23  2   
 50  21  24  1   
 51  22  25  2   
 52  22  50  1   
 53  23  25  1   
 54  24  51  1   
 55  24  52  1   
 56  24  53  1   
 57  25  54  1   
@<TRIPOS>SUBSTRUCTURE
  1 ****   1 GROUP 4 **** **** 0

# MOE 2024.06 (io_trps.svl 2023.06)
