@<TRIPOS>MOLECULE
NONAME
41 42 1 0 0 
SMALL
USER_CHARGES


@<TRIPOS>ATOM
  1 O       -0.2490    -0.7960    -0.0530 O.3   1 <1>  -0.5600 
  2 C       -0.2420    -2.1720     0.0750 C.3   1 <1>   0.1200 
  3 C        1.0150    -0.2230    -0.1680 C.3   1 <1>   0.0400 
  4 C       -1.7010    -2.6020     0.2080 C.3   1 <1>  -0.1600 
  5 C       -1.8130    -4.1190     0.3100 C.3   1 <1>   0.3430 
  6 N       -3.2270    -4.5110     0.5470 N.4   1 <1>  -0.9590 
  7 C       -4.1900    -4.1890    -0.5430 C.3   1 <1>   0.3430 
  8 C       -3.4190    -5.9610     0.8460 C.3   1 <1>   0.3430 
  9 C       -5.4100    -5.0450    -0.2060 C.3   1 <1>   0.2000 
 10 C       -4.7930    -6.3580     0.2750 C.3   1 <1>  -0.0800 
 11 O       -6.0540    -4.4540     0.8750 O.3   1 <1>  -0.6800 
 12 C       -4.6540    -7.3760    -0.8740 C.3   1 <1>  -0.0170 
 13 C       -3.8000    -8.5620    -0.4540 C.ar  1 <1>  -0.1430 
 14 C       -2.5840    -8.8340    -1.0510 C.ar  1 <1>  -0.1500 
 15 C       -4.1930    -9.4270     0.5490 C.ar  1 <1>  -0.1500 
 16 C       -1.8310    -9.9110    -0.6120 C.ar  1 <1>   0.1600 
 17 C       -3.3630   -10.4740     0.9150 C.ar  1 <1>   0.1600 
 18 N       -2.1880   -10.7260     0.3650 N.ar  1 <1>  -0.6200 
 19 H        0.2140    -2.5960    -0.8040 H     1 <1>   0.0800 
 20 H        0.3250    -2.4350     0.9540 H     1 <1>   0.0800 
 21 H        0.8920     0.8420    -0.2630 H     1 <1>   0.0800 
 22 H        1.5050    -0.6100    -1.0450 H     1 <1>   0.0800 
 23 H        1.5880    -0.4420     0.7170 H     1 <1>   0.0800 
 24 H       -2.1080    -2.1460     1.0940 H     1 <1>   0.0800 
 25 H       -2.2330    -2.2470    -0.6560 H     1 <1>   0.0800 
 26 H       -1.2030    -4.4630     1.1300 H     1 <1>   0.0800 
 27 H       -1.4500    -4.5750    -0.5970 H     1 <1>   0.0800 
 28 H       -3.5920    -3.9990     1.3680 H     1 <1>   0.4500 
 29 H       -4.4420    -3.1410    -0.5660 H     1 <1>   0.0800 
 30 H       -3.7850    -4.4880    -1.4950 H     1 <1>   0.0800 
 31 H       -2.6410    -6.5470     0.3840 H     1 <1>   0.0800 
 32 H       -3.3920    -6.1300     1.9110 H     1 <1>   0.0800 
 33 H       -6.1050    -5.1400    -1.0250 H     1 <1>   0.0800 
 34 H       -5.3920    -6.8050     1.0490 H     1 <1>   0.0800 
 35 H       -6.9390    -4.8500     1.0260 H     1 <1>   0.4000 
 36 H       -4.2120    -6.9110    -1.7380 H     1 <1>   0.0800 
 37 H       -5.6280    -7.7330    -1.1640 H     1 <1>   0.0800 
 38 H       -2.2080    -8.2300    -1.8570 H     1 <1>   0.1500 
 39 H       -5.1340    -9.3060     1.0540 H     1 <1>   0.1500 
 40 H       -0.8860   -10.1140    -1.0880 H     1 <1>   0.1500 
 41 H       -3.6820   -11.1390     1.7000 H     1 <1>   0.1500 
@<TRIPOS>BOND
  1   1   2  1   
  2   1   3  1   
  3   2   4  1   
  4   2  19  1   
  5   2  20  1   
  6   3  21  1   
  7   3  22  1   
  8   3  23  1   
  9   4   5  1   
 10   4  24  1   
 11   4  25  1   
 12   5   6  1   
 13   5  26  1   
 14   5  27  1   
 15   6   7  1   
 16   6   8  1   
 17   6  28  1   
 18   7   9  1   
 19   7  29  1   
 20   7  30  1   
 21   8  10  1   
 22   8  31  1   
 23   8  32  1   
 24   9  10  1   
 25   9  11  1   
 26   9  33  1   
 27  10  12  1   
 28  10  34  1   
 29  11  35  1   
 30  12  13  1   
 31  12  36  1   
 32  12  37  1   
 33  13  14  ar  
 34  13  15  ar  
 35  14  16  ar  
 36  14  38  1   
 37  15  17  ar  
 38  15  39  1   
 39  16  18  ar  
 40  16  40  1   
 41  17  18  ar  
 42  17  41  1   
@<TRIPOS>SUBSTRUCTURE
  1 ****   8 GROUP 4 **** **** 0

# MOE 2024.06 (io_trps.svl 2023.06)
