@<TRIPOS>MOLECULE
NONAME
52 55 1 0 0 
SMALL
USER_CHARGES


@<TRIPOS>ATOM
  1 O        0.1650     0.9600    -0.6560 O.2   1 <1>  -0.5700 
  2 C       -0.4760     1.7220     0.0430 C.2   1 <1>   0.5440 
  3 N       -1.8300     1.5050     0.2060 N.am  1 <1>  -0.6600 
  4 C        0.2000     2.8520     0.6530 C.ar  1 <1>   0.0860 
  5 C       -2.7850     2.5420     0.7130 C.3   1 <1>   0.1400 
  6 C       -2.5010     0.2810    -0.3190 C.3   1 <1>   0.1400 
  7 C        0.1420     3.0900     2.0260 C.ar  1 <1>  -0.1500 
  8 C        0.9370     3.7450    -0.1230 C.ar  1 <1>  -0.1500 
  9 C       -3.7690     2.9720    -0.3910 C.3   1 <1>   0.1440 
 10 C       -3.4810     0.6630    -1.4350 C.3   1 <1>  -0.1600 
 11 C        0.7700     4.1830     2.5950 C.ar  1 <1>  -0.1500 
 12 C        1.5680     4.8390     0.4410 C.ar  1 <1>  -0.1500 
 13 C       -4.7330     3.9810     0.2030 C.ar  1 <1>   0.1670 
 14 C       -4.4870     1.7320    -0.9690 C.3   1 <1>  -0.1600 
 15 C       -3.0590     3.8030    -1.4940 C.3   1 <1>  -0.1600 
 16 C        1.4840     5.0670     1.8040 C.ar  1 <1>  -0.1430 
 17 N       -5.7140     3.7020     1.0250 N.ar  1 <1>  -0.6200 
 18 C       -4.4440     5.2480    -0.2050 C.ar  1 <1>  -0.1430 
 19 C       -3.2530     5.2850    -1.1300 C.3   1 <1>  -0.0170 
 20 C        2.1780     6.2670     2.4230 C.3   1 <1>  -0.0970 
 21 C       -6.4320     4.7510     1.4360 C.ar  1 <1>   0.7200 
 22 C       -5.2340     6.2640     0.2670 C.ar  1 <1>   0.1600 
 23 N       -6.2310     6.0270     1.0860 N.ar  1 <1>  -0.6200 
 24 N       -7.4820     4.4920     2.2990 N.pl3 1 <1>  -0.8380 
 25 C       -7.9360     3.0990     2.5690 C.3   1 <1>   0.1290 
 26 C       -8.4120     5.5700     2.7370 C.3   1 <1>   0.1290 
 27 H       -2.2650     3.4100     1.0730 H     1 <1>   0.0800 
 28 H       -3.3400     2.1280     1.5380 H     1 <1>   0.0800 
 29 H       -3.0320    -0.1960     0.4860 H     1 <1>   0.0800 
 30 H       -1.7770    -0.4210    -0.6960 H     1 <1>   0.0800 
 31 H       -0.4040     2.4040     2.6490 H     1 <1>   0.1500 
 32 H        1.0140     3.5670    -1.1810 H     1 <1>   0.1500 
 33 H       -4.0130    -0.2160    -1.7520 H     1 <1>   0.0800 
 34 H       -2.9190     1.0240    -2.2790 H     1 <1>   0.0800 
 35 H        0.7030     4.3400     3.6580 H     1 <1>   0.1500 
 36 H        2.1300     5.5100    -0.1850 H     1 <1>   0.1500 
 37 H       -5.1290     2.0210    -1.7820 H     1 <1>   0.0800 
 38 H       -5.1120     1.3060    -0.2030 H     1 <1>   0.0800 
 39 H       -3.5430     3.6270    -2.4390 H     1 <1>   0.0800 
 40 H       -2.0190     3.5520    -1.6010 H     1 <1>   0.0800 
 41 H       -3.4420     5.8860    -2.0030 H     1 <1>   0.0800 
 42 H       -2.3940     5.6610    -0.6020 H     1 <1>   0.0800 
 43 H        1.6970     6.5520     3.3420 H     1 <1>   0.0800 
 44 H        2.1470     7.1060     1.7510 H     1 <1>   0.0800 
 45 H        3.2050     6.0260     2.6300 H     1 <1>   0.0800 
 46 H       -5.0460     7.2820    -0.0270 H     1 <1>   0.1500 
 47 H       -7.0900     2.4650     2.7700 H     1 <1>   0.0800 
 48 H       -8.4620     2.7200     1.7110 H     1 <1>   0.0800 
 49 H       -8.5870     3.0730     3.4250 H     1 <1>   0.0800 
 50 H       -7.8630     6.4690     2.9620 H     1 <1>   0.0800 
 51 H       -8.9430     5.2720     3.6240 H     1 <1>   0.0800 
 52 H       -9.1170     5.7780     1.9520 H     1 <1>   0.0800 
@<TRIPOS>BOND
  1   1   2  2   
  2   2   3  am  
  3   2   4  1   
  4   3   5  1   
  5   3   6  1   
  6   4   7  ar  
  7   4   8  ar  
  8   5   9  1   
  9   5  27  1   
 10   5  28  1   
 11   6  10  1   
 12   6  29  1   
 13   6  30  1   
 14   7  11  ar  
 15   7  31  1   
 16   8  12  ar  
 17   8  32  1   
 18   9  13  1   
 19   9  14  1   
 20   9  15  1   
 21  10  14  1   
 22  10  33  1   
 23  10  34  1   
 24  11  16  ar  
 25  11  35  1   
 26  12  16  ar  
 27  12  36  1   
 28  13  17  ar  
 29  13  18  ar  
 30  14  37  1   
 31  14  38  1   
 32  15  19  1   
 33  15  39  1   
 34  15  40  1   
 35  16  20  1   
 36  17  21  ar  
 37  18  19  1   
 38  18  22  ar  
 39  19  41  1   
 40  19  42  1   
 41  20  43  1   
 42  20  44  1   
 43  20  45  1   
 44  21  23  ar  
 45  21  24  1   
 46  22  23  ar  
 47  22  46  1   
 48  24  25  1   
 49  24  26  1   
 50  25  47  1   
 51  25  48  1   
 52  25  49  1   
 53  26  50  1   
 54  26  51  1   
 55  26  52  1   
@<TRIPOS>SUBSTRUCTURE
  1 ****   5 GROUP 4 **** **** 0

# MOE 2024.06 (io_trps.svl 2023.06)
