@<TRIPOS>MOLECULE
NONAME
35 37 1 0 0 
SMALL
USER_CHARGES


@<TRIPOS>ATOM
  1 S        0.1600    -0.7310    -0.7850 S.3   1 <1>  -0.4600 
  2 C       -1.2290     0.4330    -0.6040 C.3   1 <1>   0.2510 
  3 C       -0.7400    -2.2880    -0.5230 C.3   1 <1>   0.2510 
  4 C       -2.3990    -0.4750    -0.3040 C.2   1 <1>   0.1080 
  5 C       -2.1560    -1.8320    -0.2600 C.2   1 <1>  -0.1810 
  6 N       -3.6350    -0.1730    -0.0700 N.2   1 <1>  -0.7070 
  7 C       -3.3490    -2.4060     0.0180 C.2   1 <1>  -0.0880 
  8 N       -4.2400    -1.3710     0.1270 N.pl3 1 <1>   0.3140 
  9 N       -3.5890    -3.7920     0.1840 N.am  1 <1>  -0.4940 
 10 C       -5.6590    -1.4070     0.5050 C.3   1 <1>   0.0160 
 11 C       -4.6580    -4.5710    -0.2010 C.2   1 <1>   0.5440 
 12 O       -5.6500    -4.0560    -0.6720 O.2   1 <1>  -0.5700 
 13 C       -4.6120    -6.0020    -0.0350 C.ar  1 <1>   0.0860 
 14 C       -3.4490    -6.7420    -0.1450 C.ar  1 <1>   0.1600 
 15 C       -5.7470    -6.7370     0.2480 C.ar  1 <1>   0.1600 
 16 N       -3.3990    -8.0420     0.0350 N.ar  1 <1>  -0.6200 
 17 N       -5.7360    -8.0400     0.4320 N.ar  1 <1>  -0.6200 
 18 C       -4.5550    -8.6270     0.3150 C.ar  1 <1>   0.4770 
 19 C       -4.5230   -10.1330     0.5200 C.3   1 <1>  -0.0170 
 20 C       -4.7400   -10.9010    -0.7920 C.3   1 <1>  -0.2400 
 21 H       -1.3570     0.9620    -1.5310 H     1 <1>   0.0800 
 22 H       -1.0150     1.1000     0.2100 H     1 <1>   0.0800 
 23 H       -0.3020    -2.7860     0.3230 H     1 <1>   0.0800 
 24 H       -0.6580    -2.8740    -1.4200 H     1 <1>   0.0800 
 25 H       -2.8140    -4.2930     0.6180 H     1 <1>   0.3700 
 26 H       -5.9290    -0.4700     0.9530 H     1 <1>   0.0800 
 27 H       -5.8230    -2.2030     1.2060 H     1 <1>   0.0800 
 28 H       -6.2500    -1.5680    -0.3770 H     1 <1>   0.0800 
 29 H       -2.5260    -6.2490    -0.3960 H     1 <1>   0.1500 
 30 H       -6.6940    -6.2270     0.3250 H     1 <1>   0.1500 
 31 H       -5.2880   -10.4060     1.2250 H     1 <1>   0.0800 
 32 H       -3.5740   -10.4090     0.9440 H     1 <1>   0.0800 
 33 H       -5.6950   -10.6430    -1.2160 H     1 <1>   0.0800 
 34 H       -4.7140   -11.9600    -0.6120 H     1 <1>   0.0800 
 35 H       -3.9690   -10.6480    -1.4990 H     1 <1>   0.0800 
@<TRIPOS>BOND
  1   1   2  1   
  2   1   3  1   
  3   2   4  1   
  4   2  21  1   
  5   2  22  1   
  6   3   5  1   
  7   3  23  1   
  8   3  24  1   
  9   4   5  1   
 10   4   6  2   
 11   5   7  2   
 12   6   8  1   
 13   7   8  1   
 14   7   9  1   
 15   8  10  1   
 16   9  11  am  
 17   9  25  1   
 18  10  26  1   
 19  10  27  1   
 20  10  28  1   
 21  11  12  2   
 22  11  13  1   
 23  13  14  ar  
 24  13  15  ar  
 25  14  16  ar  
 26  14  29  1   
 27  15  17  ar  
 28  15  30  1   
 29  16  18  ar  
 30  17  18  ar  
 31  18  19  1   
 32  19  20  1   
 33  19  31  1   
 34  19  32  1   
 35  20  33  1   
 36  20  34  1   
 37  20  35  1   
@<TRIPOS>SUBSTRUCTURE
  1 ****   9 GROUP 4 **** **** 0

# MOE 2024.06 (io_trps.svl 2023.06)
