@<TRIPOS>MOLECULE
NONAME
47 48 1 0 0 
SMALL
USER_CHARGES


@<TRIPOS>ATOM
  1 S        0.7110     0.0640    -1.1420 S.o2  1 <1>   1.3330 
  2 O        1.2860     0.7460    -2.2750 O.2   1 <1>  -0.6500 
  3 O        0.9540    -1.3400    -0.9160 O.2   1 <1>  -0.6500 
  4 N        1.1860     0.9000     0.3060 N.am  1 <1>  -0.6930 
  5 C       -1.0480     0.3270    -1.1400 C.3   1 <1>  -0.1350 
  6 C        1.1560     2.2820     0.4210 C.ar  1 <1>   0.1990 
  7 C        1.5320     0.0640     1.4820 C.3   1 <1>   0.1160 
  8 C        1.8790     3.1000    -0.4400 C.ar  1 <1>  -0.1500 
  9 C        0.3940     2.8970     1.4090 C.ar  1 <1>  -0.1500 
 10 C        1.8390     4.4760    -0.3250 C.ar  1 <1>  -0.1500 
 11 C        0.3570     4.2730     1.5270 C.ar  1 <1>  -0.1500 
 12 C        1.0820     5.1040     0.6700 C.ar  1 <1>   0.0860 
 13 C        1.0400     6.5450     0.8210 C.2   1 <1>   0.5440 
 14 O        0.0670     7.0810     1.3070 O.2   1 <1>  -0.5700 
 15 N        2.1240     7.3030     0.4480 N.am  1 <1>  -0.4940 
 16 C        2.2500     8.6740     0.3580 C.2   1 <1>   0.4420 
 17 S        3.8390     9.2880     0.0260 S.3   1 <1>  -0.0800 
 18 N        1.3850     9.6170     0.4660 N.2   1 <1>  -0.3380 
 19 C        3.1540    10.8760     0.0740 C.2   1 <1>   0.1980 
 20 N        1.9070    10.8690     0.3040 N.2   1 <1>  -0.3380 
 21 C        4.0570    12.0690    -0.1500 C.3   1 <1>   0.0200 
 22 C        3.2270    13.3500     0.0000 C.3   1 <1>   0.3430 
 23 N        4.0450    14.6020    -0.1380 N.4   1 <1>  -0.9590 
 24 C        3.2280    15.7800     0.2900 C.3   1 <1>   0.2630 
 25 C        4.5460    14.8100    -1.5360 C.3   1 <1>   0.2630 
 26 H       -1.4910    -0.1570    -1.9880 H     1 <1>   0.0800 
 27 H       -1.2650     1.3760    -1.1920 H     1 <1>   0.0800 
 28 H       -1.4830    -0.0750    -0.2470 H     1 <1>   0.0800 
 29 H        0.6750    -0.5080     1.7900 H     1 <1>   0.0800 
 30 H        1.8630     0.6810     2.3000 H     1 <1>   0.0800 
 31 H        2.3270    -0.6140     1.2200 H     1 <1>   0.0800 
 32 H        2.4790     2.6470    -1.2100 H     1 <1>   0.1500 
 33 H       -0.1790     2.2890     2.0850 H     1 <1>   0.1500 
 34 H        2.3980     5.0650    -1.0300 H     1 <1>   0.1500 
 35 H       -0.2450     4.7250     2.2980 H     1 <1>   0.1500 
 36 H        2.9690     6.7780     0.2460 H     1 <1>   0.3700 
 37 H        4.4760    11.9980    -1.1360 H     1 <1>   0.0800 
 38 H        4.8440    12.0480     0.5820 H     1 <1>   0.0800 
 39 H        2.7610    13.3330     0.9730 H     1 <1>   0.0800 
 40 H        2.4360    13.3450    -0.7340 H     1 <1>   0.0800 
 41 H        4.8550    14.5370     0.4990 H     1 <1>   0.4500 
 42 H        2.3630    15.8880    -0.3450 H     1 <1>   0.0800 
 43 H        3.8120    16.6840     0.2320 H     1 <1>   0.0800 
 44 H        2.8930    15.6550     1.3070 H     1 <1>   0.0800 
 45 H        3.7200    14.8670    -2.2260 H     1 <1>   0.0800 
 46 H        5.1880    13.9970    -1.8330 H     1 <1>   0.0800 
 47 H        5.1090    15.7270    -1.5980 H     1 <1>   0.0800 
@<TRIPOS>BOND
  1   1   2  2   
  2   1   3  2   
  3   1   4  am  
  4   1   5  1   
  5   4   6  1   
  6   4   7  1   
  7   5  26  1   
  8   5  27  1   
  9   5  28  1   
 10   6   8  ar  
 11   6   9  ar  
 12   7  29  1   
 13   7  30  1   
 14   7  31  1   
 15   8  10  ar  
 16   8  32  1   
 17   9  11  ar  
 18   9  33  1   
 19  10  12  ar  
 20  10  34  1   
 21  11  12  ar  
 22  11  35  1   
 23  12  13  1   
 24  13  14  2   
 25  13  15  am  
 26  15  16  1   
 27  15  36  1   
 28  16  17  1   
 29  16  18  2   
 30  17  19  1   
 31  18  20  1   
 32  19  20  2   
 33  19  21  1   
 34  21  22  1   
 35  21  37  1   
 36  21  38  1   
 37  22  23  1   
 38  22  39  1   
 39  22  40  1   
 40  23  24  1   
 41  23  25  1   
 42  23  41  1   
 43  24  42  1   
 44  24  43  1   
 45  24  44  1   
 46  25  45  1   
 47  25  46  1   
 48  25  47  1   
@<TRIPOS>SUBSTRUCTURE
  1 ****  15 GROUP 4 **** **** 0

# MOE 2024.06 (io_trps.svl 2023.06)
