@<TRIPOS>MOLECULE
NONAME
38 40 1 0 0 
SMALL
USER_CHARGES


@<TRIPOS>ATOM
  1 S       -0.3230     0.0760    -0.8300 S.3   1 <1>  -0.0800 
  2 C       -0.6930    -1.4880    -0.1070 C.2   1 <1>   0.4620 
  3 C        1.2230    -0.5410    -1.3390 C.2   1 <1>  -0.1100 
  4 N        0.2450    -2.3560    -0.2540 N.2   1 <1>  -0.5650 
  5 N       -1.9000    -1.6870     0.5270 N.pl3 1 <1>  -0.8220 
  6 C        1.3180    -1.8180    -0.9410 C.2   1 <1>   0.0770 
  7 C       -2.1560    -2.9950     1.1930 C.3   1 <1>   0.2090 
  8 C       -3.1540    -1.0110     0.0880 C.3   1 <1>   0.2090 
  9 C       -2.8130    -3.9470     0.1630 C.3   1 <1>   0.4230 
 10 C       -3.8680    -1.9300    -0.9140 C.3   1 <1>  -0.1600 
 11 N       -3.0160    -5.3590     0.6420 N.4   1 <1>  -0.9590 
 12 C       -4.1500    -3.3440    -0.3250 C.3   1 <1>  -0.1060 
 13 C       -3.5270    -6.2410    -0.4360 C.3   1 <1>   0.3430 
 14 C       -1.8580    -5.9500     1.3630 C.3   1 <1>   0.2630 
 15 C       -5.1110    -3.2490     0.8760 C.2   1 <1>   0.9060 
 16 C       -4.7470    -4.2390    -1.4370 C.3   1 <1>  -0.1600 
 17 C       -4.8520    -5.7040    -0.9850 C.3   1 <1>  -0.1600 
 18 O       -5.0280    -4.0980     1.7800 O.co2 1 <1>  -0.9000 
 19 O       -5.9340    -2.3370     0.9240 O.co2 1 <1>  -0.9000 
 20 H        1.8810     0.1180    -1.8750 H     1 <1>   0.1500 
 21 H        2.1690    -2.4550    -1.1160 H     1 <1>   0.1500 
 22 H       -1.2230    -3.3970     1.5420 H     1 <1>   0.0800 
 23 H       -2.7960    -2.8420     2.0440 H     1 <1>   0.0800 
 24 H       -3.7850    -0.8300     0.9440 H     1 <1>   0.0800 
 25 H       -2.9470    -0.0590    -0.3680 H     1 <1>   0.0800 
 26 H       -2.1410    -3.9810    -0.6780 H     1 <1>   0.0800 
 27 H       -4.7970    -1.4660    -1.2000 H     1 <1>   0.0800 
 28 H       -3.2610    -2.0040    -1.7990 H     1 <1>   0.0800 
 29 H       -3.8170    -5.2200     1.3170 H     1 <1>   0.4500 
 30 H       -2.8030    -6.2920    -1.2320 H     1 <1>   0.0800 
 31 H       -3.6840    -7.2350    -0.0500 H     1 <1>   0.0800 
 32 H       -0.9940    -5.9810     0.7190 H     1 <1>   0.0800 
 33 H       -2.0940    -6.9500     1.6850 H     1 <1>   0.0800 
 34 H       -1.6240    -5.3610     2.2350 H     1 <1>   0.0800 
 35 H       -5.7270    -3.8740    -1.6990 H     1 <1>   0.0800 
 36 H       -4.1300    -4.1870    -2.3170 H     1 <1>   0.0800 
 37 H       -5.1630    -6.3120    -1.8150 H     1 <1>   0.0800 
 38 H       -5.6090    -5.7970    -0.2230 H     1 <1>   0.0800 
@<TRIPOS>BOND
  1   1   2  1   
  2   1   3  1   
  3   2   4  2   
  4   2   5  1   
  5   3   6  2   
  6   3  20  1   
  7   4   6  1   
  8   5   7  1   
  9   5   8  1   
 10   6  21  1   
 11   7   9  1   
 12   7  22  1   
 13   7  23  1   
 14   8  10  1   
 15   8  24  1   
 16   8  25  1   
 17   9  11  1   
 18   9  12  1   
 19   9  26  1   
 20  10  12  1   
 21  10  27  1   
 22  10  28  1   
 23  11  13  1   
 24  11  14  1   
 25  11  29  1   
 26  12  15  1   
 27  12  16  1   
 28  13  17  1   
 29  13  30  1   
 30  13  31  1   
 31  14  32  1   
 32  14  33  1   
 33  14  34  1   
 34  15  18  ar  
 35  15  19  ar  
 36  16  17  1   
 37  16  35  1   
 38  16  36  1   
 39  17  37  1   
 40  17  38  1   
@<TRIPOS>SUBSTRUCTURE
  1 ****   9 GROUP 4 **** **** 0

# MOE 2024.06 (io_trps.svl 2023.06)
