@<TRIPOS>MOLECULE
NONAME
20 20 1 0 0 
SMALL
USER_CHARGES


@<TRIPOS>ATOM
  1 O       -0.2430    -0.1710    -0.0260 O.2   1 <1>  -0.5700 
  2 C       -1.3060    -0.7660    -0.0120 C.2   1 <1>   0.8060 
  3 O       -2.4410    -0.0530     0.0030 O.3   1 <1>  -0.4300 
  4 C       -1.3990    -2.1900    -0.0040 C.2   1 <1>  -0.0860 
  5 C       -2.4210     1.3570    -0.0090 C.3   1 <1>   0.1200 
  6 C       -2.4820    -3.0310    -0.0190 C.2   1 <1>  -0.0680 
  7 C       -0.3020    -3.0610     0.0280 C.2   1 <1>   0.1390 
  8 C       -3.8640     1.8500     0.0120 C.3   1 <1>  -0.2400 
  9 N       -3.8300    -2.6890    -0.0580 N.pl3 1 <1>  -0.8840 
 10 N       -1.9910    -4.2900     0.0000 N.pl3 1 <1>   0.3000 
 11 N       -0.6360    -4.3100     0.0330 N.2   1 <1>  -0.7070 
 12 H       -1.9130     1.6840    -0.9010 H     1 <1>   0.0800 
 13 H       -1.8830     1.6990     0.8600 H     1 <1>   0.0800 
 14 H        0.7210    -2.7200     0.0470 H     1 <1>   0.1500 
 15 H       -4.3910     1.4930    -0.8550 H     1 <1>   0.0800 
 16 H       -3.8790     2.9240     0.0010 H     1 <1>   0.0800 
 17 H       -4.3610     1.5100     0.9030 H     1 <1>   0.0800 
 18 H       -4.5680    -3.3280     0.2600 H     1 <1>   0.4000 
 19 H       -4.0840    -1.6940     0.0280 H     1 <1>   0.4000 
 20 H       -2.5500    -5.1490    -0.0220 H     1 <1>   0.2700 
@<TRIPOS>BOND
  1   1   2  2   
  2   2   3  1   
  3   2   4  1   
  4   3   5  1   
  5   4   6  2   
  6   4   7  1   
  7   5   8  1   
  8   5  12  1   
  9   5  13  1   
 10   6   9  1   
 11   6  10  1   
 12   7  11  2   
 13   7  14  1   
 14   8  15  1   
 15   8  16  1   
 16   8  17  1   
 17   9  18  1   
 18   9  19  1   
 19  10  11  1   
 20  10  20  1   
@<TRIPOS>SUBSTRUCTURE
  1 ****   4 GROUP 4 **** **** 0

# MOE 2024.06 (io_trps.svl 2023.06)
