@<TRIPOS>MOLECULE
NONAME
42 44 1 0 0 
SMALL
USER_CHARGES


@<TRIPOS>ATOM
  1 O       -0.4850     0.2230     0.2170 O.2   1 <1>  -0.5700 
  2 C       -1.5360     0.8410     0.2760 C.2   1 <1>   0.5440 
  3 N       -2.6970     0.0960     0.1610 N.am  1 <1>  -0.6600 
  4 C       -1.5060     2.3040     0.4380 C.ar  1 <1>   0.3960 
  5 C       -4.0720     0.6290    -0.0020 C.3   1 <1>   0.1400 
  6 C       -2.6910    -1.3820     0.0460 C.3   1 <1>   0.1400 
  7 N       -2.5310     2.9530     1.0250 N.ar  1 <1>  -0.6200 
  8 C       -0.3920     3.0030    -0.0230 C.ar  1 <1>  -0.1500 
  9 C       -4.9140    -0.5770    -0.4170 C.3   1 <1>   0.2000 
 10 C       -4.1610    -1.7980     0.1070 C.3   1 <1>  -0.0800 
 11 C       -2.4330     4.2650     1.1430 C.ar  1 <1>   0.1600 
 12 C       -0.3010     4.3710     0.1020 C.ar  1 <1>   0.0830 
 13 O       -6.1860    -0.5280     0.1340 O.3   1 <1>  -0.6800 
 14 C       -4.4750    -3.0790    -0.6800 C.3   1 <1>  -0.0170 
 15 C       -1.3610     5.0170     0.7070 C.ar  1 <1>  -0.1500 
 16 O        0.8050     4.9840    -0.3710 O.3   1 <1>  -0.3630 
 17 C       -3.6980    -4.2630    -0.1260 C.ar  1 <1>  -0.1430 
 18 C        0.9840     6.3780    -0.2590 C.3   1 <1>   0.0400 
 19 C       -4.1380    -4.9630     0.9790 C.ar  1 <1>  -0.1500 
 20 C       -2.5170    -4.6980    -0.6930 C.ar  1 <1>  -0.1500 
 21 C       -3.3950    -6.0310     1.4540 C.ar  1 <1>   0.1600 
 22 C       -1.8490    -5.7780    -0.1390 C.ar  1 <1>   0.1600 
 23 N       -2.2600    -6.4550     0.9220 N.ar  1 <1>  -0.6200 
 24 H       -4.4080     1.0260     0.9400 H     1 <1>   0.0800 
 25 H       -4.0950     1.3950    -0.7570 H     1 <1>   0.0800 
 26 H       -2.2500    -1.6520    -0.8980 H     1 <1>   0.0800 
 27 H       -2.1200    -1.8250     0.8450 H     1 <1>   0.0800 
 28 H        0.4190     2.4690    -0.4840 H     1 <1>   0.1500 
 29 H       -5.0080    -0.6030    -1.4890 H     1 <1>   0.0800 
 30 H       -4.4030    -1.9470     1.1450 H     1 <1>   0.0800 
 31 H       -3.2570     4.7720     1.6170 H     1 <1>   0.1500 
 32 H       -6.1300    -0.4700     1.1070 H     1 <1>   0.4000 
 33 H       -4.2340    -2.9410    -1.7190 H     1 <1>   0.0800 
 34 H       -5.5300    -3.2860    -0.6170 H     1 <1>   0.0800 
 35 H       -1.3720     6.0800     0.8470 H     1 <1>   0.1500 
 36 H        1.9350     6.6280    -0.6940 H     1 <1>   0.0800 
 37 H        0.9770     6.6490     0.7820 H     1 <1>   0.0800 
 38 H        0.1960     6.8760    -0.7940 H     1 <1>   0.0800 
 39 H       -5.0500    -4.6870     1.4760 H     1 <1>   0.1500 
 40 H       -2.1060    -4.2090    -1.5570 H     1 <1>   0.1500 
 41 H       -3.7530    -6.5650     2.3170 H     1 <1>   0.1500 
 42 H       -0.9290    -6.1030    -0.5920 H     1 <1>   0.1500 
@<TRIPOS>BOND
  1   1   2  2   
  2   2   3  am  
  3   2   4  1   
  4   3   5  1   
  5   3   6  1   
  6   4   7  ar  
  7   4   8  ar  
  8   5   9  1   
  9   5  24  1   
 10   5  25  1   
 11   6  10  1   
 12   6  26  1   
 13   6  27  1   
 14   7  11  ar  
 15   8  12  ar  
 16   8  28  1   
 17   9  10  1   
 18   9  13  1   
 19   9  29  1   
 20  10  14  1   
 21  10  30  1   
 22  11  15  ar  
 23  11  31  1   
 24  12  15  ar  
 25  12  16  1   
 26  13  32  1   
 27  14  17  1   
 28  14  33  1   
 29  14  34  1   
 30  15  35  1   
 31  16  18  1   
 32  17  19  ar  
 33  17  20  ar  
 34  18  36  1   
 35  18  37  1   
 36  18  38  1   
 37  19  21  ar  
 38  19  39  1   
 39  20  22  ar  
 40  20  40  1   
 41  21  23  ar  
 42  21  41  1   
 43  22  23  ar  
 44  22  42  1   
@<TRIPOS>SUBSTRUCTURE
  1 ****   3 GROUP 4 **** **** 0

# MOE 2024.06 (io_trps.svl 2023.06)
