@<TRIPOS>MOLECULE
NONAME
47 49 1 0 0 
SMALL
USER_CHARGES


@<TRIPOS>ATOM
  1 S        0.2630     1.2660    -0.1580 S.3   1 <1>  -0.0800 
  2 C        1.6060     0.2080     0.2140 C.2   1 <1>   0.1980 
  3 C       -0.7070     0.3990     0.9980 C.2   1 <1>  -0.1400 
  4 N        1.3490    -0.6760     1.0900 N.2   1 <1>  -0.5650 
  5 C        2.9100     0.4360    -0.5230 C.3   1 <1>   0.0200 
  6 C        0.0430    -0.5760     1.5390 C.2   1 <1>   0.0460 
  7 C       -2.1380     0.8710     1.1740 C.3   1 <1>  -0.0600 
  8 C        3.6390     1.6810     0.0010 C.3   1 <1>  -0.1600 
  9 C       -0.3720    -1.5840     2.5890 C.3   1 <1>  -0.0590 
 10 C        4.9790     1.8750    -0.7040 C.3   1 <1>   0.2090 
 11 N        5.6230     3.0900    -0.1710 N.pl3 1 <1>  -0.8690 
 12 C        6.2810     3.9650    -0.9940 C.ar  1 <1>   0.4100 
 13 N        5.9770     5.2240    -0.7680 N.ar  1 <1>  -0.6200 
 14 C        7.1920     3.5580    -1.9800 C.ar  1 <1>   0.1600 
 15 C        6.6100     6.0890    -1.5820 C.ar  1 <1>   0.3960 
 16 N        7.8220     4.3720    -2.8000 N.ar  1 <1>  -0.6200 
 17 C        6.3930     7.5350    -1.4800 C.2   1 <1>   0.5440 
 18 C        7.4970     5.6380    -2.5680 C.ar  1 <1>   0.1600 
 19 O        6.4890     8.2140    -2.4890 O.2   1 <1>  -0.5700 
 20 N        6.1120     8.2000    -0.2980 N.am  1 <1>  -0.6600 
 21 C        6.0750     7.5970     1.0550 C.3   1 <1>   0.1400 
 22 C        5.9910     9.6730    -0.2190 C.3   1 <1>   0.1400 
 23 C        5.8060     8.7600     2.0050 C.3   1 <1>  -0.1600 
 24 C        6.2570    10.0030     1.2440 C.3   1 <1>  -0.1600 
 25 H        2.7030     0.5360    -1.5730 H     1 <1>   0.0800 
 26 H        3.5290    -0.4330    -0.3840 H     1 <1>   0.0800 
 27 H       -2.6620     0.7990     0.2380 H     1 <1>   0.0800 
 28 H       -2.1450     1.8950     1.5000 H     1 <1>   0.0800 
 29 H       -2.6510     0.2720     1.9030 H     1 <1>   0.0800 
 30 H        3.8050     1.5660     1.0580 H     1 <1>   0.0800 
 31 H        3.0210     2.5470    -0.1610 H     1 <1>   0.0800 
 32 H       -1.3950    -1.4400     2.8810 H     1 <1>   0.0800 
 33 H        0.2560    -1.4790     3.4540 H     1 <1>   0.0800 
 34 H       -0.2570    -2.5780     2.1960 H     1 <1>   0.0800 
 35 H        4.8230     1.9770    -1.7660 H     1 <1>   0.0800 
 36 H        5.6190     1.0270    -0.5240 H     1 <1>   0.0800 
 37 H        5.0220     3.6010     0.4830 H     1 <1>   0.4000 
 38 H        7.3920     2.5070    -2.0730 H     1 <1>   0.1500 
 39 H        7.9650     6.3750    -3.1980 H     1 <1>   0.1500 
 40 H        7.0270     7.1430     1.2690 H     1 <1>   0.0800 
 41 H        5.2940     6.8590     1.1250 H     1 <1>   0.0800 
 42 H        4.9910     9.9550    -0.4970 H     1 <1>   0.0800 
 43 H        6.6980    10.1590    -0.8700 H     1 <1>   0.0800 
 44 H        6.3240     8.6400     2.9390 H     1 <1>   0.0800 
 45 H        4.7480     8.8150     2.1960 H     1 <1>   0.0800 
 46 H        5.7340    10.8900     1.5550 H     1 <1>   0.0800 
 47 H        7.3140    10.1530     1.3800 H     1 <1>   0.0800 
@<TRIPOS>BOND
  1   1   2  1   
  2   1   3  1   
  3   2   4  2   
  4   2   5  1   
  5   3   6  2   
  6   3   7  1   
  7   4   6  1   
  8   5   8  1   
  9   5  25  1   
 10   5  26  1   
 11   6   9  1   
 12   7  27  1   
 13   7  28  1   
 14   7  29  1   
 15   8  10  1   
 16   8  30  1   
 17   8  31  1   
 18   9  32  1   
 19   9  33  1   
 20   9  34  1   
 21  10  11  1   
 22  10  35  1   
 23  10  36  1   
 24  11  12  1   
 25  11  37  1   
 26  12  13  ar  
 27  12  14  ar  
 28  13  15  ar  
 29  14  16  ar  
 30  14  38  1   
 31  15  17  1   
 32  15  18  ar  
 33  16  18  ar  
 34  17  19  2   
 35  17  20  am  
 36  18  39  1   
 37  20  21  1   
 38  20  22  1   
 39  21  23  1   
 40  21  40  1   
 41  21  41  1   
 42  22  24  1   
 43  22  42  1   
 44  22  43  1   
 45  23  24  1   
 46  23  44  1   
 47  23  45  1   
 48  24  46  1   
 49  24  47  1   
@<TRIPOS>SUBSTRUCTURE
  1 ****  11 GROUP 4 **** **** 0

# MOE 2024.06 (io_trps.svl 2023.06)
