@<TRIPOS>MOLECULE
NONAME
41 43 1 0 0 
SMALL
USER_CHARGES


@<TRIPOS>ATOM
  1 O       -0.1300     0.3230    -0.1730 O.3   1 <1>  -0.3630 
  2 C        1.0770     0.8230    -0.5300 C.ar  1 <1>   0.0830 
  3 C       -1.3310     0.9310    -0.5960 C.3   1 <1>   0.2640 
  4 C        2.1870     0.1640    -0.0290 C.ar  1 <1>  -0.1500 
  5 C        1.2500     1.9320    -1.3530 C.ar  1 <1>  -0.1500 
  6 C       -2.5060     0.1660    -0.0080 C.ar  1 <1>  -0.1440 
  7 C        3.4710     0.5900    -0.3380 C.ar  1 <1>  -0.1440 
  8 C        2.5270     2.3650    -1.6620 C.ar  1 <1>  -0.1500 
  9 C       -2.7150     0.1620     1.3630 C.ar  1 <1>  -0.1500 
 10 C       -3.3800    -0.5300    -0.8300 C.ar  1 <1>  -0.1500 
 11 C        3.6310     1.6990    -1.1580 C.ar  1 <1>  -0.1500 
 12 C        4.6640    -0.1750     0.2100 C.3   1 <1>   0.3330 
 13 C       -3.7870    -0.5240     1.9070 C.ar  1 <1>  -0.1500 
 14 C       -4.4530    -1.2170    -0.2870 C.ar  1 <1>  -0.1500 
 15 N        5.7140     0.7610     0.6340 N.3   1 <1>  -0.9000 
 16 C        5.2020    -1.1390    -0.8760 C.3   1 <1>   0.3430 
 17 C       -4.6580    -1.2140     1.0810 C.ar  1 <1>  -0.1500 
 18 C        6.9230     0.0810     1.1230 C.3   1 <1>   0.1100 
 19 N        6.4840    -1.8300    -0.4700 N.4   1 <1>  -0.9060 
 20 C        7.5080    -0.8530     0.0390 C.3   1 <1>   0.3430 
 21 H       -1.3610     0.9110    -1.6710 H     1 <1>   0.0800 
 22 H       -1.3390     1.9480    -0.2450 H     1 <1>   0.0800 
 23 H        2.0170    -0.6860     0.6080 H     1 <1>   0.1500 
 24 H        0.4140     2.4680    -1.7590 H     1 <1>   0.1500 
 25 H        2.6620     3.2250    -2.2950 H     1 <1>   0.1500 
 26 H       -2.0390     0.6920     2.0110 H     1 <1>   0.1500 
 27 H       -3.2310    -0.5440    -1.8950 H     1 <1>   0.1500 
 28 H        4.6160     2.0580    -1.4080 H     1 <1>   0.1500 
 29 H        4.3420    -0.7500     1.0620 H     1 <1>   0.0800 
 30 H       -3.9420    -0.5230     2.9710 H     1 <1>   0.1500 
 31 H       -5.1270    -1.7560    -0.9300 H     1 <1>   0.1500 
 32 H        5.3200     1.3820     1.3580 H     1 <1>   0.3600 
 33 H        5.3740    -0.5580    -1.7670 H     1 <1>   0.0800 
 34 H        4.4420    -1.8680    -1.1040 H     1 <1>   0.0800 
 35 H       -5.4910    -1.7480     1.5030 H     1 <1>   0.1500 
 36 H        6.6970    -0.4820     2.0130 H     1 <1>   0.0800 
 37 H        7.6600     0.8230     1.3820 H     1 <1>   0.0800 
 38 H        6.8650    -2.3490    -1.2710 H     1 <1>   0.4500 
 39 H        6.2780    -2.5130     0.2680 H     1 <1>   0.4500 
 40 H        8.3580    -1.3810     0.4400 H     1 <1>   0.0800 
 41 H        7.8560    -0.2390    -0.7770 H     1 <1>   0.0800 
@<TRIPOS>BOND
  1   1   2  1   
  2   1   3  1   
  3   2   4  ar  
  4   2   5  ar  
  5   3   6  1   
  6   3  21  1   
  7   3  22  1   
  8   4   7  ar  
  9   4  23  1   
 10   5   8  ar  
 11   5  24  1   
 12   6   9  ar  
 13   6  10  ar  
 14   7  11  ar  
 15   7  12  1   
 16   8  11  ar  
 17   8  25  1   
 18   9  13  ar  
 19   9  26  1   
 20  10  14  ar  
 21  10  27  1   
 22  11  28  1   
 23  12  15  1   
 24  12  16  1   
 25  12  29  1   
 26  13  17  ar  
 27  13  30  1   
 28  14  17  ar  
 29  14  31  1   
 30  15  18  1   
 31  15  32  1   
 32  16  19  1   
 33  16  33  1   
 34  16  34  1   
 35  17  35  1   
 36  18  20  1   
 37  18  36  1   
 38  18  37  1   
 39  19  20  1   
 40  19  38  1   
 41  19  39  1   
 42  20  40  1   
 43  20  41  1   
@<TRIPOS>SUBSTRUCTURE
  1 ****   4 GROUP 4 **** **** 0

# MOE 2024.06 (io_trps.svl 2023.06)
