@<TRIPOS>MOLECULE
NONAME
51 52 1 0 0 
SMALL
USER_CHARGES


@<TRIPOS>ATOM
  1 S        0.2150     0.6740     1.3180 S.3   1 <1>  -0.3320 
  2 C        0.2960     2.2610     0.5340 C.ar  1 <1>   0.7720 
  3 C       -1.4470     0.6240     2.1350 C.3   1 <1>  -0.0100 
  4 N        1.4440     2.4990    -0.1240 N.ar  1 <1>  -0.1790 
  5 N       -0.6990     3.0770     0.6310 N.ar  1 <1>  -0.6200 
  6 C        1.6510     3.6630    -0.7620 C.ar  1 <1>   0.4610 
  7 C       -0.5460     4.2490     0.0070 C.ar  1 <1>   0.4100 
  8 N        2.8440     3.8800    -1.4070 N.pl3 1 <1>  -0.8380 
  9 C        0.6030     4.5690    -0.6900 C.ar  1 <1>  -0.1500 
 10 N       -1.5890     5.0760     0.1160 N.pl3 1 <1>  -0.9000 
 11 C        3.1990     5.2060    -2.0180 C.3   1 <1>   0.2090 
 12 C        3.8160     2.7990    -1.8000 C.3   1 <1>   0.1290 
 13 C        3.6820     6.2220    -0.9590 C.3   1 <1>  -0.0800 
 14 C        3.9470     7.5890    -1.6170 C.3   1 <1>  -0.1600 
 15 C        4.9530     5.7540    -0.2240 C.3   1 <1>  -0.1600 
 16 C        4.5000     8.6160    -0.6250 C.3   1 <1>   0.3430 
 17 C        5.4890     6.8170     0.7400 C.3   1 <1>   0.3430 
 18 N        5.7460     8.0880     0.0060 N.4   1 <1>  -0.9590 
 19 C        6.3720     9.0910     0.9340 C.3   1 <1>   0.3430 
 20 C        6.9380    10.3170     0.2070 C.3   1 <1>   0.1200 
 21 O        7.5120    11.1300     1.1710 O.3   1 <1>  -0.5600 
 22 C        8.0980    12.2940     0.6740 C.3   1 <1>   0.0400 
 23 H       -1.5460    -0.3280     2.6260 H     1 <1>   0.0800 
 24 H       -2.1990     0.7410     1.3750 H     1 <1>   0.0800 
 25 H       -1.4950     1.4280     2.8490 H     1 <1>   0.0800 
 26 H        2.1530     1.7790    -0.1130 H     1 <1>   0.4570 
 27 H        0.6580     5.5240    -1.1690 H     1 <1>   0.1500 
 28 H       -1.6810     5.9880    -0.3380 H     1 <1>   0.4000 
 29 H       -2.4180     4.7880     0.6460 H     1 <1>   0.4000 
 30 H        2.3450     5.6010    -2.5430 H     1 <1>   0.0800 
 31 H        3.9730     5.0730    -2.7570 H     1 <1>   0.0800 
 32 H        3.4630     1.8170    -1.5430 H     1 <1>   0.0800 
 33 H        4.7640     2.9620    -1.3170 H     1 <1>   0.0800 
 34 H        3.9700     2.8160    -2.8670 H     1 <1>   0.0800 
 35 H        2.8960     6.3530    -0.2350 H     1 <1>   0.0800 
 36 H        3.0300     7.9750    -2.0280 H     1 <1>   0.0800 
 37 H        4.6430     7.4840    -2.4320 H     1 <1>   0.0800 
 38 H        5.7230     5.5020    -0.9320 H     1 <1>   0.0800 
 39 H        4.7340     4.8670     0.3440 H     1 <1>   0.0800 
 40 H        3.7630     8.8170     0.1370 H     1 <1>   0.0800 
 41 H        4.7070     9.5380    -1.1440 H     1 <1>   0.0800 
 42 H        6.4010     6.4620     1.1950 H     1 <1>   0.0800 
 43 H        4.7680     6.9890     1.5240 H     1 <1>   0.0800 
 44 H        6.4230     7.8810    -0.7410 H     1 <1>   0.4500 
 45 H        7.1840     8.6250     1.4680 H     1 <1>   0.0800 
 46 H        5.6440     9.4230     1.6560 H     1 <1>   0.0800 
 47 H        6.1610    10.8770    -0.2840 H     1 <1>   0.0800 
 48 H        7.7030    10.0290    -0.4930 H     1 <1>   0.0800 
 49 H        8.5090    12.8430     1.5030 H     1 <1>   0.0800 
 50 H        7.3500    12.8920     0.1820 H     1 <1>   0.0800 
 51 H        8.8880    12.0350    -0.0110 H     1 <1>   0.0800 
@<TRIPOS>BOND
  1   1   2  1   
  2   1   3  1   
  3   2   4  ar  
  4   2   5  ar  
  5   3  23  1   
  6   3  24  1   
  7   3  25  1   
  8   4   6  ar  
  9   4  26  1   
 10   5   7  ar  
 11   6   8  1   
 12   6   9  ar  
 13   7   9  ar  
 14   7  10  1   
 15   8  11  1   
 16   8  12  1   
 17   9  27  1   
 18  10  28  1   
 19  10  29  1   
 20  11  13  1   
 21  11  30  1   
 22  11  31  1   
 23  12  32  1   
 24  12  33  1   
 25  12  34  1   
 26  13  14  1   
 27  13  15  1   
 28  13  35  1   
 29  14  16  1   
 30  14  36  1   
 31  14  37  1   
 32  15  17  1   
 33  15  38  1   
 34  15  39  1   
 35  16  18  1   
 36  16  40  1   
 37  16  41  1   
 38  17  18  1   
 39  17  42  1   
 40  17  43  1   
 41  18  19  1   
 42  18  44  1   
 43  19  20  1   
 44  19  45  1   
 45  19  46  1   
 46  20  21  1   
 47  20  47  1   
 48  20  48  1   
 49  21  22  1   
 50  22  49  1   
 51  22  50  1   
 52  22  51  1   
@<TRIPOS>SUBSTRUCTURE
  1 ****  13 GROUP 4 **** **** 0

# MOE 2024.06 (io_trps.svl 2023.06)
