@<TRIPOS>MOLECULE
NONAME
46 48 1 0 0 
SMALL
USER_CHARGES


@<TRIPOS>ATOM
  1 O       -1.2200     0.4340    -0.6660 O.2   1 <1>  -0.5700 
  2 C       -1.9270     1.3050    -0.1840 C.2   1 <1>   0.7160 
  3 N       -3.1430     0.9000     0.3530 N.am  1 <1>  -0.6600 
  4 C       -1.4380     2.6790    -0.2440 C.2   1 <1>   0.1410 
  5 C       -3.5300    -0.5470     0.3630 C.3   1 <1>   0.1400 
  6 C       -4.2760     1.8060     0.7010 C.3   1 <1>   0.1400 
  7 N       -1.9840     3.7560     0.3690 N.2   1 <1>  -0.2270 
  8 C       -0.3460     3.1230    -0.9140 C.2   1 <1>  -0.3020 
  9 C       -4.3230    -0.9440    -0.8940 C.3   1 <1>   0.1400 
 10 C       -4.9890     2.3200    -0.5570 C.3   1 <1>  -0.1600 
 11 N       -1.2880     4.8000     0.0960 N.2   1 <1>  -0.4180 
 12 N       -0.2780     4.4280    -0.6870 N.pl3 1 <1>   0.3000 
 13 N       -5.5100    -0.0570    -1.1240 N.am  1 <1>  -0.6600 
 14 C       -5.1670     1.2840    -1.6750 C.3   1 <1>   0.1400 
 15 C       -6.8210    -0.4110    -0.9020 C.2   1 <1>   0.5690 
 16 O       -7.7210     0.3750    -1.1000 O.2   1 <1>  -0.5700 
 17 C       -7.2070    -1.7820    -0.3360 C.3   1 <1>   0.1810 
 18 O       -6.8520    -2.8440    -1.1930 O.3   1 <1>  -0.5600 
 19 C       -7.1740    -4.1200    -0.7230 C.3   1 <1>   0.2630 
 20 C       -8.6820    -4.2910    -0.5890 C.ar  1 <1>  -0.1430 
 21 C       -9.2310    -4.7840     0.5860 C.ar  1 <1>  -0.1500 
 22 C       -9.5210    -3.9550    -1.6400 C.ar  1 <1>  -0.1500 
 23 C      -10.6010    -4.9370     0.7080 C.ar  1 <1>  -0.1500 
 24 C      -10.8910    -4.1070    -1.5200 C.ar  1 <1>  -0.1500 
 25 C      -11.4320    -4.5970    -0.3450 C.ar  1 <1>  -0.1500 
 26 H       -4.1210    -0.7560     1.2370 H     1 <1>   0.0800 
 27 H       -2.6490    -1.1620     0.4270 H     1 <1>   0.0800 
 28 H       -3.9420     2.6250     1.3120 H     1 <1>   0.0800 
 29 H       -4.9910     1.2600     1.2930 H     1 <1>   0.0800 
 30 H        0.3520     2.5690    -1.5150 H     1 <1>   0.1500 
 31 H       -4.6260    -1.9690    -0.8020 H     1 <1>   0.0800 
 32 H       -3.6700    -0.8900    -1.7480 H     1 <1>   0.0800 
 33 H       -4.4520     3.1630    -0.9510 H     1 <1>   0.0800 
 34 H       -5.9610     2.6810    -0.2690 H     1 <1>   0.0800 
 35 H        0.4250     5.0900    -1.0340 H     1 <1>   0.2700 
 36 H       -4.2560     1.2110    -2.2440 H     1 <1>   0.0800 
 37 H       -5.9420     1.6100    -2.3490 H     1 <1>   0.0800 
 38 H       -8.2720    -1.7980    -0.1890 H     1 <1>   0.0800 
 39 H       -6.7190    -1.9240     0.6100 H     1 <1>   0.0800 
 40 H       -6.6750    -4.2740     0.2180 H     1 <1>   0.0800 
 41 H       -6.7930    -4.8300    -1.4360 H     1 <1>   0.0800 
 42 H       -8.5970    -5.0530     1.4130 H     1 <1>   0.1500 
 43 H       -9.1040    -3.5670    -2.5550 H     1 <1>   0.1500 
 44 H      -11.0220    -5.3190     1.6210 H     1 <1>   0.1500 
 45 H      -11.5340    -3.8400    -2.3410 H     1 <1>   0.1500 
 46 H      -12.4980    -4.7140    -0.2520 H     1 <1>   0.1500 
@<TRIPOS>BOND
  1   1   2  2   
  2   2   3  am  
  3   2   4  1   
  4   3   5  1   
  5   3   6  1   
  6   4   7  1   
  7   4   8  2   
  8   5   9  1   
  9   5  26  1   
 10   5  27  1   
 11   6  10  1   
 12   6  28  1   
 13   6  29  1   
 14   7  11  2   
 15   8  12  1   
 16   8  30  1   
 17   9  13  1   
 18   9  31  1   
 19   9  32  1   
 20  10  14  1   
 21  10  33  1   
 22  10  34  1   
 23  11  12  1   
 24  12  35  1   
 25  13  14  1   
 26  13  15  am  
 27  14  36  1   
 28  14  37  1   
 29  15  16  2   
 30  15  17  1   
 31  17  18  1   
 32  17  38  1   
 33  17  39  1   
 34  18  19  1   
 35  19  20  1   
 36  19  40  1   
 37  19  41  1   
 38  20  21  ar  
 39  20  22  ar  
 40  21  23  ar  
 41  21  42  1   
 42  22  24  ar  
 43  22  43  1   
 44  23  25  ar  
 45  23  44  1   
 46  24  25  ar  
 47  24  45  1   
 48  25  46  1   
@<TRIPOS>SUBSTRUCTURE
  1 ****  13 GROUP 4 **** **** 0

# MOE 2024.06 (io_trps.svl 2023.06)
