@<TRIPOS>MOLECULE
NONAME
53 55 1 0 0 
SMALL
USER_CHARGES


@<TRIPOS>ATOM
  1 CL      -0.4730    -3.5260    -1.5370 Cl    1 <1>  -0.1770 
  2 C       -1.7830    -3.0940    -0.4600 C.ar  1 <1>   0.1770 
  3 C       -2.2630    -1.7940    -0.4360 C.ar  1 <1>   0.0820 
  4 C       -2.3120    -4.0770     0.3560 C.ar  1 <1>  -0.1500 
  5 O       -1.6790    -0.8690    -1.2410 O.3   1 <1>  -0.3630 
  6 C       -3.3260    -1.4930     0.4220 C.ar  1 <1>   0.0820 
  7 C       -3.3530    -3.7700     1.2220 C.ar  1 <1>  -0.1440 
  8 C       -1.0920     0.2650    -0.6110 C.3   1 <1>   0.1810 
  9 O       -3.8830    -0.2620     0.4910 O.3   1 <1>  -0.3630 
 10 C       -3.8490    -2.4730     1.2520 C.ar  1 <1>  -0.1500 
 11 C       -3.9440    -4.8490     2.1070 C.3   1 <1>   0.4870 
 12 C        0.0240     0.8490    -1.4680 C.2   1 <1>   0.5690 
 13 C       -4.6150     0.1730    -0.6370 C.3   1 <1>   0.0400 
 14 N       -4.8800    -5.6310     1.2710 N.4   1 <1>  -0.9590 
 15 O        0.3090     2.0140    -1.3550 O.2   1 <1>  -0.5700 
 16 N        0.7010     0.0720    -2.3380 N.am  1 <1>  -0.8000 
 17 C       -6.1860    -4.9730     0.9760 C.3   1 <1>   0.3430 
 18 C       -5.1820    -7.0130     1.7020 C.3   1 <1>   0.3430 
 19 C       -7.1680    -6.1150     0.6740 C.3   1 <1>   0.2000 
 20 C       -6.3770    -7.4220     0.8380 C.3   1 <1>  -0.0800 
 21 O       -8.2020    -6.0900     1.6020 O.3   1 <1>  -0.6800 
 22 C       -5.9520    -8.0430    -0.5180 C.3   1 <1>  -0.0170 
 23 C       -4.7650    -7.3840    -1.2200 C.ar  1 <1>   0.1670 
 24 N       -4.9020    -6.1120    -1.5700 N.ar  1 <1>  -0.6200 
 25 C       -3.6160    -8.1250    -1.4580 C.ar  1 <1>  -0.1500 
 26 C       -3.8780    -5.5730    -2.2200 C.ar  1 <1>   0.1600 
 27 C       -2.5470    -7.5430    -2.1060 C.ar  1 <1>  -0.1500 
 28 C       -2.6950    -6.2320    -2.5000 C.ar  1 <1>  -0.1500 
 29 H       -1.8980    -5.0700     0.3020 H     1 <1>   0.1500 
 30 H       -1.8540     1.0060    -0.4590 H     1 <1>   0.0800 
 31 H       -0.6880    -0.0330     0.3380 H     1 <1>   0.0800 
 32 H       -4.6510    -2.1970     1.9150 H     1 <1>   0.1500 
 33 H       -4.4580    -4.4140     2.9500 H     1 <1>   0.0800 
 34 H       -3.1520    -5.4820     2.4710 H     1 <1>   0.0800 
 35 H       -5.0120     1.1490    -0.4240 H     1 <1>   0.0800 
 36 H       -5.4190    -0.5180    -0.8190 H     1 <1>   0.0800 
 37 H       -3.9660     0.2230    -1.4920 H     1 <1>   0.0800 
 38 H       -4.4490    -5.7190     0.3270 H     1 <1>   0.4500 
 39 H        1.4400     0.4730    -2.9160 H     1 <1>   0.3700 
 40 H        0.4570    -0.9070    -2.4990 H     1 <1>   0.3700 
 41 H       -6.5370    -4.4050     1.8220 H     1 <1>   0.0800 
 42 H       -6.0890    -4.3270     0.1190 H     1 <1>   0.0800 
 43 H       -4.3400    -7.6700     1.5530 H     1 <1>   0.0800 
 44 H       -5.4650    -7.0180     2.7420 H     1 <1>   0.0800 
 45 H       -7.6040    -6.0060    -0.3060 H     1 <1>   0.0800 
 46 H       -6.9720    -8.1570     1.3520 H     1 <1>   0.0800 
 47 H       -7.9360    -6.3910     2.4920 H     1 <1>   0.4000 
 48 H       -6.7910    -8.0340    -1.1930 H     1 <1>   0.0800 
 49 H       -5.7160    -9.0790    -0.3500 H     1 <1>   0.0800 
 50 H       -3.5480    -9.1550    -1.1560 H     1 <1>   0.1500 
 51 H       -3.9820    -4.5510    -2.5470 H     1 <1>   0.1500 
 52 H       -1.6410    -8.0910    -2.3090 H     1 <1>   0.1500 
 53 H       -1.9040    -5.7270    -3.0260 H     1 <1>   0.1500 
@<TRIPOS>BOND
  1   1   2  1   
  2   2   3  ar  
  3   2   4  ar  
  4   3   5  1   
  5   3   6  ar  
  6   4   7  ar  
  7   4  29  1   
  8   5   8  1   
  9   6   9  1   
 10   6  10  ar  
 11   7  10  ar  
 12   7  11  1   
 13   8  12  1   
 14   8  30  1   
 15   8  31  1   
 16   9  13  1   
 17  10  32  1   
 18  11  14  1   
 19  11  33  1   
 20  11  34  1   
 21  12  15  2   
 22  12  16  am  
 23  13  35  1   
 24  13  36  1   
 25  13  37  1   
 26  14  17  1   
 27  14  18  1   
 28  14  38  1   
 29  16  39  1   
 30  16  40  1   
 31  17  19  1   
 32  17  41  1   
 33  17  42  1   
 34  18  20  1   
 35  18  43  1   
 36  18  44  1   
 37  19  20  1   
 38  19  21  1   
 39  19  45  1   
 40  20  22  1   
 41  20  46  1   
 42  21  47  1   
 43  22  23  1   
 44  22  48  1   
 45  22  49  1   
 46  23  24  ar  
 47  23  25  ar  
 48  24  26  ar  
 49  25  27  ar  
 50  25  50  1   
 51  26  28  ar  
 52  26  51  1   
 53  27  28  ar  
 54  27  52  1   
 55  28  53  1   
@<TRIPOS>SUBSTRUCTURE
  1 ****   4 GROUP 4 **** **** 0

# MOE 2024.06 (io_trps.svl 2023.06)
