@<TRIPOS>MOLECULE
NONAME
43 45 1 0 0 
SMALL
USER_CHARGES


@<TRIPOS>ATOM
  1 F       -0.1570     1.0880    -1.3020 F     1 <1>  -0.1900 
  2 C       -1.2040     1.4050    -0.5760 C.ar  1 <1>   0.1900 
  3 C       -1.1590     2.5450     0.2360 C.ar  1 <1>   0.1000 
  4 C       -2.3110     0.5830    -0.6550 C.ar  1 <1>  -0.1500 
  5 N       -0.0550     3.4030     0.3420 N.pl3 1 <1>  -0.8380 
  6 C       -2.2970     2.8300     0.9810 C.ar  1 <1>  -0.1500 
  7 C       -3.4290     0.8960     0.1010 C.ar  1 <1>  -0.1500 
  8 C        0.2520     4.1900    -0.8900 C.3   1 <1>   0.2090 
  9 C        1.1420     2.8080     1.0100 C.3   1 <1>   0.2090 
 10 C       -3.4180     2.0180     0.9150 C.ar  1 <1>  -0.1500 
 11 C        1.3670     5.2250    -0.6320 C.3   1 <1>   0.3430 
 12 C        2.2410     3.8670     1.2360 C.3   1 <1>   0.3430 
 13 N        2.6080     4.6030    -0.0310 N.4   1 <1>  -0.9590 
 14 C        3.6700     5.6210     0.2670 C.3   1 <1>   0.3430 
 15 C        4.2870     6.2510    -0.9880 C.3   1 <1>   0.0960 
 16 N        5.2970     7.2310    -0.5690 N.pl3 1 <1>   0.3140 
 17 N        5.2370     7.8280     0.6350 N.2   1 <1>  -0.7070 
 18 C        6.3620     7.6530    -1.2750 C.2   1 <1>  -0.3020 
 19 C        6.2640     8.6180     0.6650 C.2   1 <1>   0.1080 
 20 C        7.0100     8.5520    -0.5060 C.2   1 <1>  -0.1500 
 21 C        6.5830     9.4980     1.8520 C.3   1 <1>  -0.0590 
 22 H       -2.3000    -0.2820    -1.2930 H     1 <1>   0.1500 
 23 H       -2.2990     3.6970     1.6160 H     1 <1>   0.1500 
 24 H       -4.3040     0.2700     0.0560 H     1 <1>   0.1500 
 25 H       -0.6410     4.7020    -1.2090 H     1 <1>   0.0800 
 26 H        0.5500     3.5270    -1.6830 H     1 <1>   0.0800 
 27 H        1.5330     2.0030     0.4120 H     1 <1>   0.0800 
 28 H        0.8450     2.3970     1.9600 H     1 <1>   0.0800 
 29 H       -4.2880     2.2590     1.5020 H     1 <1>   0.1500 
 30 H        0.9780     5.9720     0.0410 H     1 <1>   0.0800 
 31 H        1.6080     5.7120    -1.5620 H     1 <1>   0.0800 
 32 H        3.1120     3.3830     1.6460 H     1 <1>   0.0800 
 33 H        1.8800     4.5700     1.9690 H     1 <1>   0.0800 
 34 H        2.9680     3.9000    -0.6920 H     1 <1>   0.4500 
 35 H        4.4640     5.1590     0.8320 H     1 <1>   0.0800 
 36 H        3.2510     6.4070     0.8780 H     1 <1>   0.0800 
 37 H        3.5460     6.7720    -1.5620 H     1 <1>   0.0800 
 38 H        4.7680     5.5040    -1.5910 H     1 <1>   0.0800 
 39 H        6.6020     7.3060    -2.2630 H     1 <1>   0.1500 
 40 H        7.9050     9.1080    -0.7240 H     1 <1>   0.1500 
 41 H        5.7610    10.1630     2.0380 H     1 <1>   0.0800 
 42 H        7.4680    10.0770     1.6630 H     1 <1>   0.0800 
 43 H        6.7430     8.8870     2.7210 H     1 <1>   0.0800 
@<TRIPOS>BOND
  1   1   2  1   
  2   2   3  ar  
  3   2   4  ar  
  4   3   5  1   
  5   3   6  ar  
  6   4   7  ar  
  7   4  22  1   
  8   5   8  1   
  9   5   9  1   
 10   6  10  ar  
 11   6  23  1   
 12   7  10  ar  
 13   7  24  1   
 14   8  11  1   
 15   8  25  1   
 16   8  26  1   
 17   9  12  1   
 18   9  27  1   
 19   9  28  1   
 20  10  29  1   
 21  11  13  1   
 22  11  30  1   
 23  11  31  1   
 24  12  13  1   
 25  12  32  1   
 26  12  33  1   
 27  13  14  1   
 28  13  34  1   
 29  14  15  1   
 30  14  35  1   
 31  14  36  1   
 32  15  16  1   
 33  15  37  1   
 34  15  38  1   
 35  16  17  1   
 36  16  18  1   
 37  17  19  2   
 38  18  20  2   
 39  18  39  1   
 40  19  20  1   
 41  19  21  1   
 42  20  40  1   
 43  21  41  1   
 44  21  42  1   
 45  21  43  1   
@<TRIPOS>SUBSTRUCTURE
  1 ****  13 GROUP 4 **** **** 0

# MOE 2024.06 (io_trps.svl 2023.06)
