@<TRIPOS>MOLECULE
NONAME
45 47 1 0 0 
SMALL
USER_CHARGES


@<TRIPOS>ATOM
  1 F        1.0210     0.6470     2.2290 F     1 <1>  -0.1900 
  2 C        1.6840     0.9150     1.1320 C.ar  1 <1>   0.1900 
  3 C        2.0840    -0.1240     0.2990 C.ar  1 <1>   0.0820 
  4 C        1.9470     2.2380     0.8310 C.ar  1 <1>  -0.1500 
  5 O        1.8180    -1.4150     0.6140 O.3   1 <1>  -0.3630 
  6 C        2.7810     0.1830    -0.8610 C.ar  1 <1>  -0.1500 
  7 C        2.6340     2.5310    -0.3370 C.ar  1 <1>  -0.1500 
  8 C        0.8160    -2.0720    -0.1210 C.3   1 <1>   0.2000 
  9 C        3.0500     1.5060    -1.1760 C.ar  1 <1>  -0.1500 
 10 C       -0.5530    -1.5900     0.3700 C.3   1 <1>  -0.1600 
 11 C        0.9960    -3.5710     0.1190 C.3   1 <1>  -0.1600 
 12 C       -1.6790    -2.4360    -0.2140 C.3   1 <1>   0.3430 
 13 C       -0.1680    -4.3680    -0.4620 C.3   1 <1>   0.3430 
 14 N       -1.4530    -3.8730     0.1150 N.4   1 <1>  -0.9590 
 15 C       -2.6280    -4.6770    -0.3560 C.3   1 <1>   0.3430 
 16 C       -2.6720    -6.0920     0.2340 C.3   1 <1>   0.0200 
 17 C       -3.9030    -6.8060    -0.2920 C.2   1 <1>   0.0060 
 18 N       -4.6860    -6.2760    -1.1750 N.2   1 <1>  -0.5650 
 19 N       -4.2880    -8.0450     0.1060 N.pl3 1 <1>   0.0480 
 20 C       -5.6350    -7.2110    -1.3680 C.2   1 <1>   0.0770 
 21 C       -5.4070    -8.2930    -0.5960 C.2   1 <1>  -0.3020 
 22 C       -3.6620    -8.9550     1.0830 C.3   1 <1>   0.0160 
 23 H        1.6210     3.0180     1.4950 H     1 <1>   0.1500 
 24 H        3.1210    -0.6050    -1.5090 H     1 <1>   0.1500 
 25 H        2.8500     3.5550    -0.5900 H     1 <1>   0.1500 
 26 H        0.9480    -1.8450    -1.1660 H     1 <1>   0.0800 
 27 H        3.5900     1.7430    -2.0770 H     1 <1>   0.1500 
 28 H       -0.7030    -0.5680     0.0720 H     1 <1>   0.0800 
 29 H       -0.5960    -1.6350     1.4450 H     1 <1>   0.0800 
 30 H        1.0700    -3.7670     1.1740 H     1 <1>   0.0800 
 31 H        1.9100    -3.8950    -0.3460 H     1 <1>   0.0800 
 32 H       -1.7110    -2.3060    -1.2850 H     1 <1>   0.0800 
 33 H       -2.6220    -2.1070     0.1940 H     1 <1>   0.0800 
 34 H       -0.0310    -5.4120    -0.2300 H     1 <1>   0.0800 
 35 H       -0.1830    -4.2590    -1.5350 H     1 <1>   0.0800 
 36 H       -1.3980    -3.9420     1.1410 H     1 <1>   0.4500 
 37 H       -2.6190    -4.7480    -1.4320 H     1 <1>   0.0800 
 38 H       -3.5430    -4.1780    -0.0780 H     1 <1>   0.0800 
 39 H       -2.7300    -6.0400     1.3060 H     1 <1>   0.0800 
 40 H       -1.8040    -6.6530    -0.0580 H     1 <1>   0.0800 
 41 H       -6.4450    -7.0560    -2.0630 H     1 <1>   0.1500 
 42 H       -5.9720    -9.2040    -0.5140 H     1 <1>   0.1500 
 43 H       -2.6310    -9.1110     0.8210 H     1 <1>   0.0800 
 44 H       -4.1750    -9.9000     1.0720 H     1 <1>   0.0800 
 45 H       -3.7300    -8.5270     2.0660 H     1 <1>   0.0800 
@<TRIPOS>BOND
  1   1   2  1   
  2   2   3  ar  
  3   2   4  ar  
  4   3   5  1   
  5   3   6  ar  
  6   4   7  ar  
  7   4  23  1   
  8   5   8  1   
  9   6   9  ar  
 10   6  24  1   
 11   7   9  ar  
 12   7  25  1   
 13   8  10  1   
 14   8  11  1   
 15   8  26  1   
 16   9  27  1   
 17  10  12  1   
 18  10  28  1   
 19  10  29  1   
 20  11  13  1   
 21  11  30  1   
 22  11  31  1   
 23  12  14  1   
 24  12  32  1   
 25  12  33  1   
 26  13  14  1   
 27  13  34  1   
 28  13  35  1   
 29  14  15  1   
 30  14  36  1   
 31  15  16  1   
 32  15  37  1   
 33  15  38  1   
 34  16  17  1   
 35  16  39  1   
 36  16  40  1   
 37  17  18  2   
 38  17  19  1   
 39  18  20  1   
 40  19  21  1   
 41  19  22  1   
 42  20  21  2   
 43  20  41  1   
 44  21  42  1   
 45  22  43  1   
 46  22  44  1   
 47  22  45  1   
@<TRIPOS>SUBSTRUCTURE
  1 ****  14 GROUP 4 **** **** 0

# MOE 2024.06 (io_trps.svl 2023.06)
