@<TRIPOS>MOLECULE
NONAME
47 50 1 0 0 
SMALL
USER_CHARGES


@<TRIPOS>ATOM
  1 S       -0.1990    -0.4710     1.9170 S.o2  1 <1>   1.5000 
  2 O       -0.9860    -1.5810     2.4110 O.2   1 <1>  -0.6500 
  3 O        0.1390     0.6080     2.8200 O.2   1 <1>  -0.6500 
  4 N       -1.0680     0.2180     0.6350 N.am  1 <1>  -0.8490 
  5 C        1.2740    -1.1350     1.0990 C.2   1 <1>  -0.0220 
  6 C       -2.4690     0.4640     1.0140 C.3   1 <1>   0.1960 
  7 C       -0.4500     1.4550     0.1480 C.3   1 <1>   0.1960 
  8 S        2.7800    -0.2310     1.2100 S.3   1 <1>  -0.0800 
  9 C        1.4780    -2.2340     0.3440 C.2   1 <1>  -0.1500 
 10 C       -3.3210     0.9270    -0.1950 C.3   1 <1>   0.0000 
 11 C       -1.1870     1.9660    -1.0940 C.3   1 <1>  -0.1600 
 12 C        3.6600    -1.3920     0.2160 C.2   1 <1>   0.0400 
 13 C        2.8090    -2.3820    -0.1460 C.2   1 <1>  -0.1500 
 14 C       -4.7940     1.1730     0.1870 C.3   1 <1>   0.2000 
 15 C       -2.6810     2.1880    -0.8100 C.3   1 <1>  -0.1600 
 16 C       -3.4560    -0.2140    -1.2210 C.3   1 <1>  -0.1600 
 17 C        5.0490    -1.1640    -0.0650 C.2   1 <1>   0.1400 
 18 O       -4.9440     1.7280     1.4470 O.3   1 <1>  -0.6800 
 19 C       -5.5050    -0.1800     0.1190 C.3   1 <1>  -0.1600 
 20 C       -4.5910    -1.1000    -0.7010 C.3   1 <1>  -0.1600 
 21 O        5.6850    -0.1030     0.3810 O.3   1 <1>  -0.0190 
 22 C        5.9540    -1.8790    -0.7680 C.2   1 <1>  -0.1500 
 23 N        6.9350    -0.0740     0.0180 N.2   1 <1>  -0.4100 
 24 C        7.1220    -1.1370    -0.6780 C.2   1 <1>   0.1080 
 25 C        8.4510    -1.5040    -1.3010 C.3   1 <1>  -0.0590 
 26 H       -2.9000    -0.4380     1.4160 H     1 <1>   0.0800 
 27 H       -2.4930     1.2130     1.7880 H     1 <1>   0.0800 
 28 H       -0.4740     2.2090     0.9190 H     1 <1>   0.0800 
 29 H        0.5800     1.2740    -0.1110 H     1 <1>   0.0800 
 30 H        0.7160    -2.9600     0.1110 H     1 <1>   0.1500 
 31 H       -0.7420     2.8920    -1.4140 H     1 <1>   0.0800 
 32 H       -1.0640     1.2530    -1.8910 H     1 <1>   0.0800 
 33 H        3.0790    -3.2260    -0.7550 H     1 <1>   0.1500 
 34 H       -5.2430     1.8480    -0.5230 H     1 <1>   0.0800 
 35 H       -3.1880     2.4670    -1.7170 H     1 <1>   0.0800 
 36 H       -2.7860     3.0030    -0.1140 H     1 <1>   0.0800 
 37 H       -3.7440     0.1900    -2.1760 H     1 <1>   0.0800 
 38 H       -2.5440    -0.7720    -1.3490 H     1 <1>   0.0800 
 39 H       -4.8040     1.0490     2.1340 H     1 <1>   0.4000 
 40 H       -5.6610    -0.6010     1.0970 H     1 <1>   0.0800 
 41 H       -6.4560    -0.0630    -0.3720 H     1 <1>   0.0800 
 42 H       -4.1860    -1.8680    -0.0640 H     1 <1>   0.0800 
 43 H       -5.1210    -1.5700    -1.5120 H     1 <1>   0.0800 
 44 H        5.8210    -2.8080    -1.2870 H     1 <1>   0.1500 
 45 H        8.3740    -2.4320    -1.8360 H     1 <1>   0.0800 
 46 H        9.1940    -1.6020    -0.5310 H     1 <1>   0.0800 
 47 H        8.7550    -0.7290    -1.9800 H     1 <1>   0.0800 
@<TRIPOS>BOND
  1   1   2  2   
  2   1   3  2   
  3   1   4  am  
  4   1   5  1   
  5   4   6  1   
  6   4   7  1   
  7   5   8  1   
  8   5   9  2   
  9   6  10  1   
 10   6  26  1   
 11   6  27  1   
 12   7  11  1   
 13   7  28  1   
 14   7  29  1   
 15   8  12  1   
 16   9  13  1   
 17   9  30  1   
 18  10  14  1   
 19  10  15  1   
 20  10  16  1   
 21  11  15  1   
 22  11  31  1   
 23  11  32  1   
 24  12  13  2   
 25  12  17  1   
 26  13  33  1   
 27  14  18  1   
 28  14  19  1   
 29  14  34  1   
 30  15  35  1   
 31  15  36  1   
 32  16  20  1   
 33  16  37  1   
 34  16  38  1   
 35  17  21  1   
 36  17  22  2   
 37  18  39  1   
 38  19  20  1   
 39  19  40  1   
 40  19  41  1   
 41  20  42  1   
 42  20  43  1   
 43  21  23  1   
 44  22  24  1   
 45  22  44  1   
 46  23  24  2   
 47  24  25  1   
 48  25  45  1   
 49  25  46  1   
 50  25  47  1   
@<TRIPOS>SUBSTRUCTURE
  1 ****   5 GROUP 4 **** **** 0

# MOE 2024.06 (io_trps.svl 2023.06)
