@<TRIPOS>MOLECULE
NONAME
36 36 1 0 0 
SMALL
USER_CHARGES


@<TRIPOS>ATOM
  1 O       -4.8980     2.8010     1.6690 O.2   1 <1>  -0.5700 
  2 C       -5.2960     3.3750     0.6780 C.2   1 <1>   0.7800 
  3 O       -4.5850     4.2860     0.0270 O.3   1 <1>  -0.4300 
  4 N       -6.5090     3.0960     0.1590 N.am  1 <1>  -0.7300 
  5 C       -3.2970     4.7570     0.3650 C.3   1 <1>   0.2800 
  6 C       -7.5730     2.3180     0.8490 C.3   1 <1>   0.2200 
  7 C       -2.9580     5.7980    -0.7030 C.3   1 <1>  -0.2400 
  8 C       -2.2790     3.6130     0.2990 C.3   1 <1>  -0.2400 
  9 C       -3.3260     5.4340     1.7410 C.3   1 <1>  -0.2400 
 10 C       -8.8110     2.1510    -0.0630 C.3   1 <1>   0.2000 
 11 C       -7.0890     0.8770     1.0570 C.3   1 <1>   0.3430 
 12 O       -8.8140     3.0800    -1.1130 O.3   1 <1>  -0.5600 
 13 C       -8.6770     0.7460    -0.6760 C.3   1 <1>   0.3430 
 14 N       -7.3530     0.2140    -0.2450 N.4   1 <1>  -0.9060 
 15 C       -9.4040     4.3120    -0.8150 C.3   1 <1>   0.0400 
 16 H       -6.8260     3.6620    -0.6370 H     1 <1>   0.3700 
 17 H       -7.8180     2.7830     1.7890 H     1 <1>   0.0800 
 18 H       -1.9830     6.2150    -0.5220 H     1 <1>   0.0800 
 19 H       -3.6750     6.5990    -0.6870 H     1 <1>   0.0800 
 20 H       -2.9560     5.3470    -1.6790 H     1 <1>   0.0800 
 21 H       -1.2850     4.0020     0.4260 H     1 <1>   0.0800 
 22 H       -2.3300     3.1190    -0.6540 H     1 <1>   0.0800 
 23 H       -2.4460     2.8970     1.0820 H     1 <1>   0.0800 
 24 H       -2.3810     5.9070     1.9340 H     1 <1>   0.0800 
 25 H       -3.4950     4.7190     2.5240 H     1 <1>   0.0800 
 26 H       -4.0940     6.1860     1.7740 H     1 <1>   0.0800 
 27 H       -9.7370     2.2190     0.4830 H     1 <1>   0.0800 
 28 H       -7.6720     0.4090     1.8330 H     1 <1>   0.0800 
 29 H       -6.0450     0.8420     1.3270 H     1 <1>   0.0800 
 30 H       -8.7520     0.7920    -1.7500 H     1 <1>   0.0800 
 31 H       -9.4630     0.1160    -0.2900 H     1 <1>   0.0800 
 32 H       -7.3060    -0.8120    -0.2030 H     1 <1>   0.4500 
 33 H       -6.6370     0.5510    -0.9070 H     1 <1>   0.4500 
 34 H       -9.3190     4.9440    -1.6820 H     1 <1>   0.0800 
 35 H       -8.8940     4.7700     0.0150 H     1 <1>   0.0800 
 36 H      -10.4460     4.1640    -0.5840 H     1 <1>   0.0800 
@<TRIPOS>BOND
  1   1   2  2   
  2   2   3  1   
  3   2   4  am  
  4   3   5  1   
  5   4   6  1   
  6   4  16  1   
  7   5   7  1   
  8   5   8  1   
  9   5   9  1   
 10   6  10  1   
 11   6  11  1   
 12   6  17  1   
 13   7  18  1   
 14   7  19  1   
 15   7  20  1   
 16   8  21  1   
 17   8  22  1   
 18   8  23  1   
 19   9  24  1   
 20   9  25  1   
 21   9  26  1   
 22  10  12  1   
 23  10  13  1   
 24  10  27  1   
 25  11  14  1   
 26  11  28  1   
 27  11  29  1   
 28  12  15  1   
 29  13  14  1   
 30  13  30  1   
 31  13  31  1   
 32  14  32  1   
 33  14  33  1   
 34  15  34  1   
 35  15  35  1   
 36  15  36  1   
@<TRIPOS>SUBSTRUCTURE
  1 ****   4 GROUP 4 **** **** 0

# MOE 2024.06 (io_trps.svl 2023.06)
