@<TRIPOS>MOLECULE
NONAME
47 50 1 0 0 
SMALL
USER_CHARGES


@<TRIPOS>ATOM
  1 O        0.2220     0.7930     0.0810 O.2   1 <1>  -0.5700 
  2 C       -0.3750     1.8530     0.2090 C.2   1 <1>   0.7160 
  3 N       -1.7610     1.8150     0.0920 N.am  1 <1>  -0.6600 
  4 C        0.4080     3.0580     0.4900 C.2   1 <1>   0.2030 
  5 C       -2.6880     2.8960     0.5590 C.3   1 <1>   0.1400 
  6 C       -2.4800     0.5920    -0.3660 C.3   1 <1>   0.1400 
  7 N        0.0870     4.3230     0.2620 N.2   1 <1>  -0.7070 
  8 C        1.6880     3.0020     1.0580 C.2   1 <1>  -0.1500 
  9 C       -3.6470     3.3270    -0.5690 C.3   1 <1>   0.1430 
 10 C       -3.4440     0.9470    -1.5040 C.3   1 <1>  -0.1600 
 11 N        1.1270     5.0500     0.6800 N.pl3 1 <1>   0.3140 
 12 C        2.1150     4.2730     1.1680 C.2   1 <1>  -0.3320 
 13 C       -4.6480     4.3490    -0.0620 C.ar  1 <1>   0.1670 
 14 C       -4.3990     2.0940    -1.1190 C.3   1 <1>  -0.1600 
 15 C       -2.9210     4.1080    -1.6980 C.3   1 <1>  -0.1600 
 16 C        1.1220     6.5150     0.5870 C.3   1 <1>   0.0160 
 17 C        3.4360     4.7820     1.7200 C.3   1 <1>  -0.0600 
 18 N       -5.3570     4.2420     1.0420 N.ar  1 <1>  -0.6200 
 19 C       -4.7450     5.4190    -0.9000 C.ar  1 <1>  -0.1430 
 20 C       -3.8320     5.2830    -2.0920 C.3   1 <1>  -0.0160 
 21 C       -6.1680     5.2640     1.2730 C.ar  1 <1>   0.4770 
 22 C       -5.6200     6.4210    -0.5630 C.ar  1 <1>   0.1600 
 23 N       -6.3450     6.3520     0.5350 N.ar  1 <1>  -0.6200 
 24 C       -6.9940     5.1710     2.5330 C.3   1 <1>  -0.0970 
 25 H       -2.1580     3.7480     0.9350 H     1 <1>   0.0800 
 26 H       -3.2700     2.5090     1.3770 H     1 <1>   0.0800 
 27 H       -3.0280     0.1800     0.4640 H     1 <1>   0.0800 
 28 H       -1.7880    -0.1570    -0.7110 H     1 <1>   0.0800 
 29 H        2.1930     2.0920     1.3340 H     1 <1>   0.1500 
 30 H       -4.0190     0.0750    -1.7600 H     1 <1>   0.0800 
 31 H       -2.8670     1.2150    -2.3710 H     1 <1>   0.0800 
 32 H       -4.9960     2.3760    -1.9690 H     1 <1>   0.0800 
 33 H       -5.0710     1.7380    -0.3570 H     1 <1>   0.0800 
 34 H       -2.6760     3.4950    -2.5450 H     1 <1>   0.0800 
 35 H       -2.0060     4.5180    -1.3130 H     1 <1>   0.0800 
 36 H        0.1880     6.8380     0.1660 H     1 <1>   0.0800 
 37 H        1.9300     6.8300    -0.0440 H     1 <1>   0.0800 
 38 H        1.2360     6.9310     1.5700 H     1 <1>   0.0800 
 39 H        4.0450     3.9550     2.0400 H     1 <1>   0.0800 
 40 H        3.2650     5.4260     2.5630 H     1 <1>   0.0800 
 41 H        3.9720     5.3260     0.9620 H     1 <1>   0.0800 
 42 H       -4.4110     5.0390    -2.9660 H     1 <1>   0.0800 
 43 H       -3.2650     6.1810    -2.2650 H     1 <1>   0.0800 
 44 H       -5.7300     7.2850    -1.1950 H     1 <1>   0.1500 
 45 H       -6.3680     4.8750     3.3530 H     1 <1>   0.0800 
 46 H       -7.7680     4.4400     2.3960 H     1 <1>   0.0800 
 47 H       -7.4430     6.1200     2.7600 H     1 <1>   0.0800 
@<TRIPOS>BOND
  1   1   2  2   
  2   2   3  am  
  3   2   4  1   
  4   3   5  1   
  5   3   6  1   
  6   4   7  2   
  7   4   8  1   
  8   5   9  1   
  9   5  25  1   
 10   5  26  1   
 11   6  10  1   
 12   6  27  1   
 13   6  28  1   
 14   7  11  1   
 15   8  12  2   
 16   8  29  1   
 17   9  13  1   
 18   9  14  1   
 19   9  15  1   
 20  10  14  1   
 21  10  30  1   
 22  10  31  1   
 23  11  12  1   
 24  11  16  1   
 25  12  17  1   
 26  13  18  ar  
 27  13  19  ar  
 28  14  32  1   
 29  14  33  1   
 30  15  20  1   
 31  15  34  1   
 32  15  35  1   
 33  16  36  1   
 34  16  37  1   
 35  16  38  1   
 36  17  39  1   
 37  17  40  1   
 38  17  41  1   
 39  18  21  ar  
 40  19  20  1   
 41  19  22  ar  
 42  20  42  1   
 43  20  43  1   
 44  21  23  ar  
 45  21  24  1   
 46  22  23  ar  
 47  22  44  1   
 48  24  45  1   
 49  24  46  1   
 50  24  47  1   
@<TRIPOS>SUBSTRUCTURE
  1 ****   5 GROUP 4 **** **** 0

# MOE 2024.06 (io_trps.svl 2023.06)
