@<TRIPOS>MOLECULE
NONAME
50 53 1 0 0 
SMALL
USER_CHARGES


@<TRIPOS>ATOM
  1 O       -0.5960    -0.3310     1.3960 O.2   1 <1>  -0.5700 
  2 C       -1.1770     0.5780     0.8280 C.2   1 <1>   0.5440 
  3 N       -2.3620     0.2690     0.1980 N.am  1 <1>  -0.6600 
  4 C       -0.6750     1.9330     0.9380 C.ar  1 <1>   0.0860 
  5 C       -2.6790    -1.1190    -0.1980 C.3   1 <1>   0.1400 
  6 C       -3.5610     1.1380     0.3590 C.3   1 <1>   0.1400 
  7 C       -0.5450     2.7750    -0.1980 C.ar  1 <1>   0.3100 
  8 C       -0.3050     2.4150     2.1800 C.ar  1 <1>  -0.1500 
  9 C       -3.9360    -1.4700     0.6190 C.3   1 <1>   0.4230 
 10 C       -4.8600     0.4490    -0.1760 C.3   1 <1>  -0.1600 
 11 N       -0.8690     2.3190    -1.4440 N.ar  1 <1>  -0.6200 
 12 C       -0.0630     4.1000    -0.0160 C.ar  1 <1>   0.3100 
 13 C        0.1700     3.7120     2.3530 C.ar  1 <1>  -0.1500 
 14 N       -3.7350    -2.6620     1.5170 N.4   1 <1>  -0.9590 
 15 C       -5.2260    -1.1440    -0.2580 C.3   1 <1>   0.0000 
 16 C       -0.6990     3.1770    -2.4010 C.ar  1 <1>   0.1600 
 17 N        0.0840     4.9740    -1.0450 N.ar  1 <1>  -0.6200 
 18 C        0.2830     4.5380     1.2690 C.ar  1 <1>  -0.1500 
 19 C       -3.7560    -3.8960     0.7570 C.3   1 <1>   0.3430 
 20 C       -2.5110    -2.5370     2.3790 C.3   1 <1>   0.2630 
 21 C       -5.6440    -2.7000    -0.4530 C.3   1 <1>  -0.1600 
 22 C       -6.5440    -0.7330    -1.0900 C.3   1 <1>   0.1200 
 23 C       -0.2310     4.4890    -2.2030 C.ar  1 <1>   0.1600 
 24 C       -5.1870    -3.9570     0.3190 C.3   1 <1>  -0.1600 
 25 O       -7.5960    -0.5840    -0.1880 O.3   1 <1>  -0.6800 
 26 H       -2.8890    -1.1420    -1.2530 H     1 <1>   0.0800 
 27 H       -1.8520    -1.7790    -0.0150 H     1 <1>   0.0800 
 28 H       -3.6810     1.3670     1.4050 H     1 <1>   0.0800 
 29 H       -3.4000     2.0690    -0.1600 H     1 <1>   0.0800 
 30 H       -0.3790     1.7750     3.0440 H     1 <1>   0.1500 
 31 H       -3.9830    -0.7240     1.3890 H     1 <1>   0.0800 
 32 H       -5.6610     0.9870     0.3070 H     1 <1>   0.0800 
 33 H       -4.7930     0.8180    -1.1880 H     1 <1>   0.0800 
 34 H        0.4460     4.0540     3.3370 H     1 <1>   0.1500 
 35 H       -4.5580    -2.6810     2.1340 H     1 <1>   0.4500 
 36 H       -0.9280     2.8770    -3.4080 H     1 <1>   0.1500 
 37 H        0.6460     5.5450     1.3740 H     1 <1>   0.1500 
 38 H       -3.0840    -3.8500    -0.0850 H     1 <1>   0.0800 
 39 H       -3.5120    -4.7430     1.3780 H     1 <1>   0.0800 
 40 H       -1.6140    -2.5860     1.7830 H     1 <1>   0.0800 
 41 H       -2.4810    -3.3300     3.1080 H     1 <1>   0.0800 
 42 H       -2.5130    -1.5920     2.8980 H     1 <1>   0.0800 
 43 H       -6.7120    -2.8510    -0.3780 H     1 <1>   0.0800 
 44 H       -5.3820    -2.9280    -1.4750 H     1 <1>   0.0800 
 45 H       -6.8610    -1.4420    -1.8410 H     1 <1>   0.0800 
 46 H       -6.5290     0.1790    -1.6640 H     1 <1>   0.0800 
 47 H       -0.1310     5.1210    -3.0690 H     1 <1>   0.1500 
 48 H       -5.3260    -4.8270    -0.3010 H     1 <1>   0.0800 
 49 H       -5.8120    -4.0970     1.1860 H     1 <1>   0.0800 
 50 H       -8.4270    -0.3450    -0.6470 H     1 <1>   0.4000 
@<TRIPOS>BOND
  1   1   2  2   
  2   2   3  am  
  3   2   4  1   
  4   3   5  1   
  5   3   6  1   
  6   4   7  ar  
  7   4   8  ar  
  8   5   9  1   
  9   5  26  1   
 10   5  27  1   
 11   6  10  1   
 12   6  28  1   
 13   6  29  1   
 14   7  11  ar  
 15   7  12  ar  
 16   8  13  ar  
 17   8  30  1   
 18   9  14  1   
 19   9  15  1   
 20   9  31  1   
 21  10  15  1   
 22  10  32  1   
 23  10  33  1   
 24  11  16  ar  
 25  12  17  ar  
 26  12  18  ar  
 27  13  18  ar  
 28  13  34  1   
 29  14  19  1   
 30  14  20  1   
 31  14  35  1   
 32  15  21  1   
 33  15  22  1   
 34  16  23  ar  
 35  16  36  1   
 36  17  23  ar  
 37  18  37  1   
 38  19  24  1   
 39  19  38  1   
 40  19  39  1   
 41  20  40  1   
 42  20  41  1   
 43  20  42  1   
 44  21  24  1   
 45  21  43  1   
 46  21  44  1   
 47  22  25  1   
 48  22  45  1   
 49  22  46  1   
 50  23  47  1   
 51  24  48  1   
 52  24  49  1   
 53  25  50  1   
@<TRIPOS>SUBSTRUCTURE
  1 ****   3 GROUP 4 **** **** 0

# MOE 2024.06 (io_trps.svl 2023.06)
