@<TRIPOS>MOLECULE
NONAME
49 52 1 0 0 
SMALL
USER_CHARGES


@<TRIPOS>ATOM
  1 O       -0.4840    -0.2540    -0.5290 O.3   1 <1>  -0.3630 
  2 C       -0.5310    -1.5520    -0.1300 C.ar  1 <1>   0.0830 
  3 C       -0.6910     0.7430     0.4480 C.3   1 <1>   0.1200 
  4 C       -1.3990    -2.0290     0.8620 C.ar  1 <1>   0.0820 
  5 C        0.3550    -2.4210    -0.7420 C.ar  1 <1>  -0.1500 
  6 C       -2.1900     0.9900     0.6380 C.3   1 <1>  -0.1600 
  7 O       -2.3530    -1.2700     1.4660 O.3   1 <1>  -0.3630 
  8 C       -1.3260    -3.3530     1.2550 C.ar  1 <1>  -0.1500 
  9 C        0.4100    -3.7570    -0.3570 C.ar  1 <1>   0.0830 
 10 C       -3.0110    -0.3000     0.6790 C.3   1 <1>   0.1200 
 11 C       -0.4280    -4.2190     0.6500 C.ar  1 <1>  -0.1430 
 12 O        1.2500    -4.6630    -0.9290 O.3   1 <1>  -0.3630 
 13 C       -0.3660    -5.6700     1.0780 C.3   1 <1>   0.4860 
 14 C        2.2620    -4.2440    -1.8240 C.3   1 <1>   0.0400 
 15 N       -1.5100    -6.3960     0.4690 N.4   1 <1>  -0.9590 
 16 C       -1.7330    -7.7440     1.0650 C.3   1 <1>   0.3430 
 17 C       -1.4410    -6.4340    -1.0190 C.3   1 <1>   0.3430 
 18 C       -2.8710    -8.4900     0.3520 C.3   1 <1>  -0.1600 
 19 C       -2.8050    -6.8420    -1.5880 C.3   1 <1>  -0.1600 
 20 C       -3.6840    -7.5550    -0.5530 C.3   1 <1>   0.2580 
 21 O       -4.3210    -6.5740     0.2540 O.3   1 <1>  -0.5160 
 22 C       -5.0640    -8.0200    -1.0360 C.3   1 <1>   0.0000 
 23 C       -5.5790    -7.2480     0.1840 C.3   1 <1>   0.2580 
 24 H       -0.2010     1.6410     0.1140 H     1 <1>   0.0800 
 25 H       -0.2320     0.4190     1.3670 H     1 <1>   0.0800 
 26 H        0.9900    -2.0220    -1.5090 H     1 <1>   0.1500 
 27 H       -2.5520     1.6080    -0.1630 H     1 <1>   0.0800 
 28 H       -2.3400     1.5350     1.5530 H     1 <1>   0.0800 
 29 H       -1.9890    -3.6870     2.0340 H     1 <1>   0.1500 
 30 H       -3.1510    -0.7020    -0.3110 H     1 <1>   0.0800 
 31 H       -3.9760    -0.1180     1.1180 H     1 <1>   0.0800 
 32 H       -0.4250    -5.7220     2.1520 H     1 <1>   0.0800 
 33 H        0.5660    -6.1110     0.7650 H     1 <1>   0.0800 
 34 H        2.8520    -5.1010    -2.0930 H     1 <1>   0.0800 
 35 H        2.8840    -3.5140    -1.3350 H     1 <1>   0.0800 
 36 H        1.8040    -3.8270    -2.7040 H     1 <1>   0.0800 
 37 H       -2.3680    -5.8510     0.6730 H     1 <1>   0.4500 
 38 H       -1.9910    -7.6280     2.1060 H     1 <1>   0.0800 
 39 H       -0.8290    -8.3300     1.0080 H     1 <1>   0.0800 
 40 H       -0.6870    -7.1410    -1.3250 H     1 <1>   0.0800 
 41 H       -1.1700    -5.4660    -1.4110 H     1 <1>   0.0800 
 42 H       -3.5020    -8.9660     1.0810 H     1 <1>   0.0800 
 43 H       -2.4470    -9.2730    -0.2510 H     1 <1>   0.0800 
 44 H       -2.6370    -7.4920    -2.4270 H     1 <1>   0.0800 
 45 H       -3.3170    -5.9710    -1.9590 H     1 <1>   0.0800 
 46 H       -5.2220    -9.0830    -0.9830 H     1 <1>   0.0000 
 47 H       -5.3700    -7.5840    -1.9710 H     1 <1>   0.0000 
 48 H       -6.3670    -6.5470    -0.0220 H     1 <1>   0.0000 
 49 H       -5.7230    -7.8460     1.0670 H     1 <1>   0.0000 
@<TRIPOS>BOND
  1   1   2  1   
  2   1   3  1   
  3   2   4  ar  
  4   2   5  ar  
  5   3   6  1   
  6   3  24  1   
  7   3  25  1   
  8   4   7  1   
  9   4   8  ar  
 10   5   9  ar  
 11   5  26  1   
 12   6  10  1   
 13   6  27  1   
 14   6  28  1   
 15   7  10  1   
 16   8  11  ar  
 17   8  29  1   
 18   9  11  ar  
 19   9  12  1   
 20  10  30  1   
 21  10  31  1   
 22  11  13  1   
 23  12  14  1   
 24  13  15  1   
 25  13  32  1   
 26  13  33  1   
 27  14  34  1   
 28  14  35  1   
 29  14  36  1   
 30  15  16  1   
 31  15  17  1   
 32  15  37  1   
 33  16  18  1   
 34  16  38  1   
 35  16  39  1   
 36  17  19  1   
 37  17  40  1   
 38  17  41  1   
 39  18  20  1   
 40  18  42  1   
 41  18  43  1   
 42  19  20  1   
 43  19  44  1   
 44  19  45  1   
 45  20  21  1   
 46  20  22  1   
 47  21  23  1   
 48  22  23  1   
 49  22  46  1   
 50  22  47  1   
 51  23  48  1   
 52  23  49  1   
@<TRIPOS>SUBSTRUCTURE
  1 ****  11 GROUP 4 **** **** 0

# MOE 2024.06 (io_trps.svl 2023.06)
