@<TRIPOS>MOLECULE
NONAME
40 42 1 0 0 
SMALL
USER_CHARGES


@<TRIPOS>ATOM
  1 O       -0.6110     0.2400     0.2100 O.2   1 <1>  -0.5700 
  2 C       -1.6190     0.8250    -0.1490 C.2   1 <1>   0.7150 
  3 N       -2.7980     0.1100    -0.1930 N.am  1 <1>  -0.6600 
  4 C       -1.5670     2.2250    -0.5240 C.2   1 <1>   0.0550 
  5 C       -4.1520     0.7060    -0.2050 C.3   1 <1>   0.1400 
  6 C       -2.8650    -1.3320     0.1320 C.3   1 <1>   0.1400 
  7 O       -0.7240     3.0630     0.0750 O.3   1 <1>  -0.2800 
  8 C       -2.2700     2.9300    -1.4570 C.2   1 <1>  -0.1500 
  9 C       -5.0480    -0.3140     0.5120 C.3   1 <1>  -0.0800 
 10 C       -4.3540    -1.6670     0.2660 C.3   1 <1>  -0.0800 
 11 C       -0.8720     4.2620    -0.4400 C.2   1 <1>  -0.0100 
 12 C       -1.8210     4.2490    -1.3990 C.2   1 <1>  -0.1500 
 13 C       -6.5640    -0.2730     0.1460 C.3   1 <1>   0.2800 
 14 C       -4.9180    -2.3540    -0.9860 C.3   1 <1>  -0.1600 
 15 O       -6.7380     0.2320    -1.1290 O.3   1 <1>  -0.6800 
 16 C       -7.1460    -1.6990     0.1340 C.3   1 <1>  -0.1600 
 17 C       -7.3850     0.6230     1.1000 C.3   1 <1>  -0.1600 
 18 C       -6.4220    -2.6540    -0.8410 C.3   1 <1>  -0.1600 
 19 C       -6.9670     2.1030     1.1480 C.3   1 <1>  -0.2400 
 20 H       -4.1640     1.6580     0.2950 H     1 <1>   0.0800 
 21 H       -4.4450     0.8350    -1.2320 H     1 <1>   0.0800 
 22 H       -2.3880    -1.9120    -0.6390 H     1 <1>   0.0800 
 23 H       -2.3580    -1.5050     1.0670 H     1 <1>   0.0800 
 24 H       -3.0260     2.5620    -2.1290 H     1 <1>   0.1500 
 25 H       -4.9570    -0.1230     1.5660 H     1 <1>   0.0800 
 26 H       -4.4940    -2.3230     1.1080 H     1 <1>   0.0800 
 27 H       -0.2630     5.0680    -0.0680 H     1 <1>   0.1500 
 28 H       -2.1740     5.0640    -2.0060 H     1 <1>   0.1500 
 29 H       -4.7730    -1.7030    -1.8330 H     1 <1>   0.0800 
 30 H       -4.3860    -3.2680    -1.1850 H     1 <1>   0.0800 
 31 H       -7.6790     0.1720    -1.3720 H     1 <1>   0.4000 
 32 H       -7.0520    -2.1010     1.1280 H     1 <1>   0.0800 
 33 H       -8.1970    -1.6780    -0.0940 H     1 <1>   0.0800 
 34 H       -8.4220     0.5700     0.8210 H     1 <1>   0.0800 
 35 H       -7.3130     0.2210     2.0960 H     1 <1>   0.0800 
 36 H       -6.5560    -3.6640    -0.4950 H     1 <1>   0.0800 
 37 H       -6.8760    -2.5840    -1.8140 H     1 <1>   0.0800 
 38 H       -6.9730     2.5350     0.1630 H     1 <1>   0.0800 
 39 H       -5.9850     2.2120     1.5700 H     1 <1>   0.0800 
 40 H       -7.6550     2.6560     1.7630 H     1 <1>   0.0800 
@<TRIPOS>BOND
  1   1   2  2   
  2   2   3  am  
  3   2   4  1   
  4   3   5  1   
  5   3   6  1   
  6   4   7  1   
  7   4   8  2   
  8   5   9  1   
  9   5  20  1   
 10   5  21  1   
 11   6  10  1   
 12   6  22  1   
 13   6  23  1   
 14   7  11  1   
 15   8  12  1   
 16   8  24  1   
 17   9  10  1   
 18   9  13  1   
 19   9  25  1   
 20  10  14  1   
 21  10  26  1   
 22  11  12  2   
 23  11  27  1   
 24  12  28  1   
 25  13  15  1   
 26  13  16  1   
 27  13  17  1   
 28  14  18  1   
 29  14  29  1   
 30  14  30  1   
 31  15  31  1   
 32  16  18  1   
 33  16  32  1   
 34  16  33  1   
 35  17  19  1   
 36  17  34  1   
 37  17  35  1   
 38  18  36  1   
 39  18  37  1   
 40  19  38  1   
 41  19  39  1   
 42  19  40  1   
@<TRIPOS>SUBSTRUCTURE
  1 ****   5 GROUP 4 **** **** 0

# MOE 2024.06 (io_trps.svl 2023.06)
