@<TRIPOS>MOLECULE
NONAME
54 56 1 0 0 
SMALL
USER_CHARGES


@<TRIPOS>ATOM
  1 O        0.3010    -0.3000    -0.2930 O.3   1 <1>  -0.5600 
  2 C        1.5420    -0.8990    -0.5920 C.3   1 <1>   0.2000 
  3 C        0.2470     1.0880    -0.4550 C.3   1 <1>   0.1200 
  4 C        2.6860    -0.2630     0.2440 C.3   1 <1>   0.5660 
  5 C        1.4380    -2.4060    -0.3060 C.3   1 <1>   0.1200 
  6 C        1.2730     1.7730     0.4650 C.3   1 <1>   0.3430 
  7 N        2.6410     1.2280     0.2260 N.4   1 <1>  -0.9590 
  8 C        4.0550    -0.7160    -0.2490 C.ar  1 <1>  -0.1430 
  9 O        1.4640    -2.6400     1.0670 O.3   1 <1>  -0.6800 
 10 C        3.6840     1.8760     1.0620 C.3   1 <1>   0.5240 
 11 C        4.7970    -1.5810     0.5430 C.ar  1 <1>  -0.1500 
 12 C        4.5820    -0.2850    -1.4620 C.ar  1 <1>  -0.1500 
 13 C        4.1480     3.1100     0.2930 C.2   1 <1>   0.1080 
 14 C        6.0500    -2.0090     0.1430 C.ar  1 <1>   0.0830 
 15 C        5.8400    -0.7010    -1.8620 C.ar  1 <1>  -0.1500 
 16 N        3.8790     3.2970    -0.9710 N.2   1 <1>  -0.7070 
 17 C        4.8960     4.1510     0.8290 C.2   1 <1>  -0.1500 
 18 O        6.6950    -2.8720     0.9650 O.3   1 <1>  -0.3630 
 19 C        6.5880    -1.5460    -1.0620 C.ar  1 <1>   0.0830 
 20 N        4.4670     4.4780    -1.2690 N.pl3 1 <1>   0.3000 
 21 C        5.0840     5.0130    -0.1950 C.2   1 <1>  -0.3320 
 22 C        6.9880    -4.1520     0.4470 C.3   1 <1>   0.0400 
 23 O        7.8250    -1.8830    -1.4980 O.3   1 <1>  -0.3630 
 24 C        5.8250     6.3410    -0.2530 C.3   1 <1>   0.0200 
 25 C        8.9140    -1.3970    -0.7430 C.3   1 <1>   0.0400 
 26 C        6.4450     6.7140     1.0950 C.3   1 <1>  -0.2400 
 27 H        1.7250    -0.7570    -1.6420 H     1 <1>   0.0800 
 28 H        0.4290     1.3280    -1.4880 H     1 <1>   0.0800 
 29 H       -0.7490     1.4080    -0.1990 H     1 <1>   0.0800 
 30 H        2.5620    -0.5990     1.2600 H     1 <1>   0.0800 
 31 H        2.2690    -2.9330    -0.7450 H     1 <1>   0.0800 
 32 H        0.5190    -2.7960    -0.7100 H     1 <1>   0.0800 
 33 H        0.9820     1.6070     1.4890 H     1 <1>   0.0800 
 34 H        1.2670     2.8360     0.2790 H     1 <1>   0.0800 
 35 H        2.9300     1.5490    -0.7140 H     1 <1>   0.4500 
 36 H        1.1610    -3.5510     1.2670 H     1 <1>   0.4000 
 37 H        3.2940     2.1500     2.0270 H     1 <1>   0.0800 
 38 H        4.5280     1.2200     1.1930 H     1 <1>   0.0800 
 39 H        4.4110    -1.9470     1.4800 H     1 <1>   0.1500 
 40 H        4.0360     0.3790    -2.1100 H     1 <1>   0.1500 
 41 H        6.2560    -0.3660    -2.7970 H     1 <1>   0.1500 
 42 H        5.2450     4.2360     1.8440 H     1 <1>   0.1500 
 43 H        4.4370     4.8940    -2.2100 H     1 <1>   0.2700 
 44 H        7.3560    -4.7640     1.2500 H     1 <1>   0.0800 
 45 H        7.7390    -4.0670    -0.3180 H     1 <1>   0.0800 
 46 H        6.0880    -4.5780     0.0400 H     1 <1>   0.0800 
 47 H        6.6060     6.2830    -0.9920 H     1 <1>   0.0800 
 48 H        5.1420     7.1190    -0.5510 H     1 <1>   0.0800 
 49 H        9.8230    -1.6860    -1.2390 H     1 <1>   0.0800 
 50 H        8.8850    -1.8230     0.2440 H     1 <1>   0.0800 
 51 H        8.8480    -0.3250    -0.6890 H     1 <1>   0.0800 
 52 H        7.1510     5.9630     1.4020 H     1 <1>   0.0800 
 53 H        5.6810     6.8070     1.8460 H     1 <1>   0.0800 
 54 H        6.9600     7.6550     1.0140 H     1 <1>   0.0800 
@<TRIPOS>BOND
  1   1   2  1   
  2   1   3  1   
  3   2   4  1   
  4   2   5  1   
  5   2  27  1   
  6   3   6  1   
  7   3  28  1   
  8   3  29  1   
  9   4   7  1   
 10   4   8  1   
 11   4  30  1   
 12   5   9  1   
 13   5  31  1   
 14   5  32  1   
 15   6   7  1   
 16   6  33  1   
 17   6  34  1   
 18   7  10  1   
 19   7  35  1   
 20   8  11  ar  
 21   8  12  ar  
 22   9  36  1   
 23  10  13  1   
 24  10  37  1   
 25  10  38  1   
 26  11  14  ar  
 27  11  39  1   
 28  12  15  ar  
 29  12  40  1   
 30  13  16  2   
 31  13  17  1   
 32  14  18  1   
 33  14  19  ar  
 34  15  19  ar  
 35  15  41  1   
 36  16  20  1   
 37  17  21  2   
 38  17  42  1   
 39  18  22  1   
 40  19  23  1   
 41  20  21  1   
 42  20  43  1   
 43  21  24  1   
 44  22  44  1   
 45  22  45  1   
 46  22  46  1   
 47  23  25  1   
 48  24  26  1   
 49  24  47  1   
 50  24  48  1   
 51  25  49  1   
 52  25  50  1   
 53  25  51  1   
 54  26  52  1   
 55  26  53  1   
 56  26  54  1   
@<TRIPOS>SUBSTRUCTURE
  1 ****   8 GROUP 4 **** **** 0

# MOE 2024.06 (io_trps.svl 2023.06)
