@<TRIPOS>MOLECULE
NONAME
42 41 1 0 0 
SMALL
USER_CHARGES


@<TRIPOS>ATOM
  1 O        0.7000    -0.6650     1.1830 O.2   1 <1>  -0.5700 
  2 C        1.1510    -0.7020     0.0530 C.2   1 <1>   0.7800 
  3 O        2.1190     0.1450    -0.3160 O.3   1 <1>  -0.4300 
  4 N        0.7210    -1.6020    -0.8850 N.am  1 <1>  -0.6600 
  5 C        2.7100     1.1650     0.4580 C.3   1 <1>   0.2800 
  6 C       -0.4980    -2.4760    -0.6430 C.3   1 <1>   0.1140 
  7 C        1.3250    -1.7200    -2.2430 C.3   1 <1>   0.0600 
  8 C        3.7350     1.8220    -0.4680 C.3   1 <1>  -0.2400 
  9 C        3.4360     0.5620     1.6660 C.3   1 <1>  -0.2400 
 10 C        1.6570     2.2040     0.8620 C.3   1 <1>  -0.2400 
 11 C       -1.4670    -2.6060    -1.8510 C.2   1 <1>   0.9060 
 12 C        0.0000    -3.8410    -0.1040 C.3   1 <1>  -0.1600 
 13 O       -2.5540    -2.0110    -1.8180 O.co2 1 <1>  -0.9000 
 14 O       -1.1530    -3.3030    -2.8320 O.co2 1 <1>  -0.9000 
 15 C       -0.9640    -4.6300     0.8170 C.3   1 <1>   0.0000 
 16 C       -1.2260    -3.8620     2.1220 C.3   1 <1>  -0.2400 
 17 C       -0.2960    -5.9670     1.1710 C.3   1 <1>  -0.2400 
 18 C       -2.3030    -4.9280     0.1290 C.3   1 <1>  -0.2400 
 19 H       -1.0770    -2.0000     0.1230 H     1 <1>   0.0800 
 20 H        1.4130    -2.7590    -2.5100 H     1 <1>   0.0800 
 21 H        2.3010    -1.2710    -2.2750 H     1 <1>   0.0800 
 22 H        0.6870    -1.2350    -2.9620 H     1 <1>   0.0800 
 23 H        4.2410     2.6220     0.0400 H     1 <1>   0.0800 
 24 H        3.2450     2.2250    -1.3360 H     1 <1>   0.0800 
 25 H        4.4670     1.1000    -0.7830 H     1 <1>   0.0800 
 26 H        4.0030     1.3220     2.1710 H     1 <1>   0.0800 
 27 H        4.1080    -0.2140     1.3480 H     1 <1>   0.0800 
 28 H        2.7370     0.1540     2.3730 H     1 <1>   0.0800 
 29 H        2.1320     3.0500     1.3230 H     1 <1>   0.0800 
 30 H        0.9620     1.7940     1.5700 H     1 <1>   0.0800 
 31 H        1.1170     2.5410    -0.0040 H     1 <1>   0.0800 
 32 H        0.2550    -4.4530    -0.9510 H     1 <1>   0.0800 
 33 H        0.9060    -3.6710     0.4490 H     1 <1>   0.0800 
 34 H       -1.8050    -4.4600     2.8020 H     1 <1>   0.0800 
 35 H       -1.7720    -2.9560     1.9320 H     1 <1>   0.0800 
 36 H       -0.2980    -3.6000     2.5980 H     1 <1>   0.0800 
 37 H       -0.9250    -6.5460     1.8220 H     1 <1>   0.0800 
 38 H        0.6440    -5.7990     1.6660 H     1 <1>   0.0800 
 39 H       -0.1130    -6.5390     0.2780 H     1 <1>   0.0800 
 40 H       -2.9000    -5.5940     0.7240 H     1 <1>   0.0800 
 41 H       -2.1390    -5.3790    -0.8340 H     1 <1>   0.0800 
 42 H       -2.8680    -4.0250    -0.0190 H     1 <1>   0.0800 
@<TRIPOS>BOND
  1   1   2  2   
  2   2   3  1   
  3   2   4  am  
  4   3   5  1   
  5   4   6  1   
  6   4   7  1   
  7   5   8  1   
  8   5   9  1   
  9   5  10  1   
 10   6  11  1   
 11   6  12  1   
 12   6  19  1   
 13   7  20  1   
 14   7  21  1   
 15   7  22  1   
 16   8  23  1   
 17   8  24  1   
 18   8  25  1   
 19   9  26  1   
 20   9  27  1   
 21   9  28  1   
 22  10  29  1   
 23  10  30  1   
 24  10  31  1   
 25  11  13  ar  
 26  11  14  ar  
 27  12  15  1   
 28  12  32  1   
 29  12  33  1   
 30  15  16  1   
 31  15  17  1   
 32  15  18  1   
 33  16  34  1   
 34  16  35  1   
 35  16  36  1   
 36  17  37  1   
 37  17  38  1   
 38  17  39  1   
 39  18  40  1   
 40  18  41  1   
 41  18  42  1   
@<TRIPOS>SUBSTRUCTURE
  1 ****   4 GROUP 4 **** **** 0

# MOE 2024.06 (io_trps.svl 2023.06)
