@<TRIPOS>MOLECULE
NONAME
50 51 1 0 0 
SMALL
USER_CHARGES


@<TRIPOS>ATOM
  1 O        1.3900     0.0170     0.7750 O.3   1 <1>  -0.5600 
  2 C        2.4990    -0.6450     1.2980 C.3   1 <1>   0.1200 
  3 C        1.6610     1.2290     0.1230 C.3   1 <1>   0.1200 
  4 C        3.0600    -1.6020     0.2260 C.3   1 <1>  -0.0800 
  5 C        2.5010     1.0290    -1.1540 C.3   1 <1>   0.2090 
  6 C        4.0920    -0.9160    -0.7020 C.3   1 <1>   0.2090 
  7 C        1.9580    -2.3010    -0.6040 C.3   1 <1>   0.3430 
  8 N        3.9100     0.5700    -0.8540 N.pl3 1 <1>  -0.8380 
  9 N        0.7640    -2.6720     0.2130 N.4   1 <1>  -0.9590 
 10 C        4.8810     1.5170    -0.6740 C.ar  1 <1>   0.7710 
 11 C        1.0170    -3.7700     1.1970 C.3   1 <1>   0.2630 
 12 C       -0.4080    -3.0000    -0.6540 C.3   1 <1>   0.2630 
 13 N        4.5120     2.7640    -0.4240 N.ar  1 <1>  -0.6200 
 14 N        6.1810     1.1740    -0.7590 N.ar  1 <1>  -0.1790 
 15 C        5.4380     3.6890    -0.2470 C.ar  1 <1>   0.4100 
 16 C        7.1680     2.0840    -0.5740 C.ar  1 <1>   0.2110 
 17 N        5.0240     4.9630    -0.0020 N.pl3 1 <1>  -0.8380 
 18 C        6.8070     3.3600    -0.3100 C.ar  1 <1>  -0.1500 
 19 C        5.8570     6.1770    -0.2250 C.3   1 <1>   0.2090 
 20 C        3.6090     5.2790     0.3740 C.3   1 <1>   0.1290 
 21 C        6.4670     6.6250     1.1000 C.3   1 <1>  -0.2400 
 22 H        2.1560    -1.2040     2.1520 H     1 <1>   0.0800 
 23 H        3.2290     0.0690     1.6470 H     1 <1>   0.0800 
 24 H        2.1560     1.8970     0.8080 H     1 <1>   0.0800 
 25 H        0.7140     1.6650    -0.1400 H     1 <1>   0.0800 
 26 H        3.5960    -2.3790     0.7410 H     1 <1>   0.0800 
 27 H        2.5300     1.9680    -1.6830 H     1 <1>   0.0800 
 28 H        2.0080     0.3350    -1.8100 H     1 <1>   0.0800 
 29 H        4.0700    -1.3740    -1.6790 H     1 <1>   0.0800 
 30 H        5.0640    -1.1120    -0.2840 H     1 <1>   0.0800 
 31 H        2.3590    -3.1750    -1.0910 H     1 <1>   0.0800 
 32 H        1.6370    -1.6170    -1.3720 H     1 <1>   0.0800 
 33 H        0.5300    -1.7940     0.7290 H     1 <1>   0.4500 
 34 H        1.2780    -4.6810     0.6840 H     1 <1>   0.0800 
 35 H        0.1330    -3.9490     1.7890 H     1 <1>   0.0800 
 36 H        1.8210    -3.5040     1.8620 H     1 <1>   0.0800 
 37 H       -0.2050    -3.8790    -1.2440 H     1 <1>   0.0800 
 38 H       -0.6240    -2.1790    -1.3180 H     1 <1>   0.0800 
 39 H       -1.2800    -3.1850    -0.0480 H     1 <1>   0.0800 
 40 H        6.3830     0.2160    -1.0140 H     1 <1>   0.4570 
 41 H        8.1980     1.7710    -0.6420 H     1 <1>   0.1500 
 42 H        7.5430     4.1220    -0.1430 H     1 <1>   0.1500 
 43 H        5.2460     6.9660    -0.6310 H     1 <1>   0.0800 
 44 H        6.6330     5.9740    -0.9430 H     1 <1>   0.0800 
 45 H        3.1620     4.4530     0.8980 H     1 <1>   0.0800 
 46 H        3.0360     5.4830    -0.5140 H     1 <1>   0.0800 
 47 H        3.5750     6.1400     1.0190 H     1 <1>   0.0800 
 48 H        5.6940     6.8920     1.7970 H     1 <1>   0.0800 
 49 H        7.0880     7.4870     0.9390 H     1 <1>   0.0800 
 50 H        7.0690     5.8430     1.5250 H     1 <1>   0.0800 
@<TRIPOS>BOND
  1   1   2  1   
  2   1   3  1   
  3   2   4  1   
  4   2  22  1   
  5   2  23  1   
  6   3   5  1   
  7   3  24  1   
  8   3  25  1   
  9   4   6  1   
 10   4   7  1   
 11   4  26  1   
 12   5   8  1   
 13   5  27  1   
 14   5  28  1   
 15   6   8  1   
 16   6  29  1   
 17   6  30  1   
 18   7   9  1   
 19   7  31  1   
 20   7  32  1   
 21   8  10  1   
 22   9  11  1   
 23   9  12  1   
 24   9  33  1   
 25  10  13  ar  
 26  10  14  ar  
 27  11  34  1   
 28  11  35  1   
 29  11  36  1   
 30  12  37  1   
 31  12  38  1   
 32  12  39  1   
 33  13  15  ar  
 34  14  16  ar  
 35  14  40  1   
 36  15  17  1   
 37  15  18  ar  
 38  16  18  ar  
 39  16  41  1   
 40  17  19  1   
 41  17  20  1   
 42  18  42  1   
 43  19  21  1   
 44  19  43  1   
 45  19  44  1   
 46  20  45  1   
 47  20  46  1   
 48  20  47  1   
 49  21  48  1   
 50  21  49  1   
 51  21  50  1   
@<TRIPOS>SUBSTRUCTURE
  1 ****   8 GROUP 4 **** **** 0

# MOE 2024.06 (io_trps.svl 2023.06)
