@<TRIPOS>MOLECULE
NONAME
60 63 1 0 0 
SMALL
USER_CHARGES


@<TRIPOS>ATOM
  1 O       -1.3770     1.5520     3.6880 O.3   1 <1>  -0.5600 
  2 C       -2.4890     1.4680     2.8600 C.3   1 <1>   0.1200 
  3 C       -0.2500     1.6550     2.8830 C.3   1 <1>   0.1200 
  4 C       -2.2130     2.4360     1.7040 C.3   1 <1>   0.1900 
  5 C       -0.6730     2.4940     1.6760 C.3   1 <1>   0.2890 
  6 N       -2.8350     2.0270     0.4070 N.3   1 <1>  -0.8100 
  7 N       -0.2030     3.9070     1.8220 N.pl3 1 <1>  -0.8690 
  8 C       -2.5100     3.0060    -0.6600 C.3   1 <1>   0.1100 
  9 C       -4.3040     1.8630     0.5270 C.3   1 <1>   0.1100 
 10 C        0.6110     4.5940     0.9940 C.ar  1 <1>   0.4100 
 11 C       -3.1410     2.6210    -2.0140 C.3   1 <1>   0.3430 
 12 C       -4.9520     1.4620    -0.8150 C.3   1 <1>   0.3430 
 13 N        0.9730     4.0050    -0.1270 N.ar  1 <1>  -0.6200 
 14 C        1.0560     5.8900     1.3440 C.ar  1 <1>  -0.1440 
 15 N       -4.6290     2.4450    -1.9050 N.4   1 <1>  -0.9590 
 16 C        1.8220     4.6400    -0.9210 C.ar  1 <1>   0.7710 
 17 C        1.9280     6.5150     0.5080 C.ar  1 <1>   0.2180 
 18 C        0.5760     6.5540     2.6380 C.3   1 <1>  -0.0160 
 19 C       -5.2200     2.0230    -3.2090 C.3   1 <1>   0.2630 
 20 N        2.2900     5.8620    -0.6200 N.ar  1 <1>  -0.1790 
 21 N        2.2380     4.0430    -2.0730 N.pl3 1 <1>  -0.8380 
 22 C        2.5130     7.9010     0.7650 C.3   1 <1>  -0.0170 
 23 C        0.8720     8.0600     2.6750 C.3   1 <1>  -0.1600 
 24 C        2.9820     4.6940    -3.1990 C.3   1 <1>   0.1290 
 25 C        1.9910     2.5860    -2.3360 C.3   1 <1>   0.1290 
 26 C        2.3040     8.3520     2.2170 C.3   1 <1>  -0.1600 
 27 H       -2.5620     0.4520     2.5110 H     1 <1>   0.0800 
 28 H       -3.3610     1.7400     3.4270 H     1 <1>   0.0800 
 29 H        0.5540     2.1000     3.4420 H     1 <1>   0.0800 
 30 H        0.0240     0.6610     2.5740 H     1 <1>   0.0800 
 31 H       -2.5960     3.4000     1.9920 H     1 <1>   0.0800 
 32 H       -0.2770     2.0400     0.7860 H     1 <1>   0.0800 
 33 H       -0.4360     4.2950     2.7410 H     1 <1>   0.4000 
 34 H       -2.8420     3.9890    -0.3730 H     1 <1>   0.0800 
 35 H       -1.4440     3.0510    -0.7990 H     1 <1>   0.0800 
 36 H       -4.5250     1.0890     1.2420 H     1 <1>   0.0800 
 37 H       -4.7500     2.7770     0.8830 H     1 <1>   0.0800 
 38 H       -2.6910     1.7010    -2.3470 H     1 <1>   0.0800 
 39 H       -2.9140     3.3850    -2.7390 H     1 <1>   0.0800 
 40 H       -6.0200     1.3950    -0.6870 H     1 <1>   0.0800 
 41 H       -4.5870     0.4850    -1.0880 H     1 <1>   0.0800 
 42 H       -5.0300     3.3530    -1.6310 H     1 <1>   0.4500 
 43 H       -0.4860     6.4180     2.7540 H     1 <1>   0.0800 
 44 H        1.0630     6.0770     3.4710 H     1 <1>   0.0800 
 45 H       -4.8120     1.0730    -3.5150 H     1 <1>   0.0800 
 46 H       -5.0040     2.7530    -3.9730 H     1 <1>   0.0800 
 47 H       -6.2900     1.9260    -3.1220 H     1 <1>   0.0800 
 48 H        2.9560     6.2430    -1.2770 H     1 <1>   0.4570 
 49 H        3.5680     7.9080     0.5530 H     1 <1>   0.0800 
 50 H        2.0340     8.6060     0.1080 H     1 <1>   0.0800 
 51 H        0.1770     8.5790     2.0370 H     1 <1>   0.0800 
 52 H        0.7280     8.4270     3.6780 H     1 <1>   0.0800 
 53 H        2.6140     4.3220    -4.1420 H     1 <1>   0.0800 
 54 H        4.0320     4.4590    -3.1300 H     1 <1>   0.0800 
 55 H        2.8520     5.7610    -3.1990 H     1 <1>   0.0800 
 56 H        2.8820     2.1260    -2.7310 H     1 <1>   0.0800 
 57 H        1.1960     2.4730    -3.0530 H     1 <1>   0.0800 
 58 H        1.7230     2.0570    -1.4370 H     1 <1>   0.0800 
 59 H        2.9940     7.8340     2.8610 H     1 <1>   0.0800 
 60 H        2.5070     9.4070     2.3020 H     1 <1>   0.0800 
@<TRIPOS>BOND
  1   1   2  1   
  2   1   3  1   
  3   2   4  1   
  4   2  27  1   
  5   2  28  1   
  6   3   5  1   
  7   3  29  1   
  8   3  30  1   
  9   4   5  1   
 10   4   6  1   
 11   4  31  1   
 12   5   7  1   
 13   5  32  1   
 14   6   8  1   
 15   6   9  1   
 16   7  10  1   
 17   7  33  1   
 18   8  11  1   
 19   8  34  1   
 20   8  35  1   
 21   9  12  1   
 22   9  36  1   
 23   9  37  1   
 24  10  13  ar  
 25  10  14  ar  
 26  11  15  1   
 27  11  38  1   
 28  11  39  1   
 29  12  15  1   
 30  12  40  1   
 31  12  41  1   
 32  13  16  ar  
 33  14  17  ar  
 34  14  18  1   
 35  15  19  1   
 36  15  42  1   
 37  16  20  ar  
 38  16  21  1   
 39  17  20  ar  
 40  17  22  1   
 41  18  23  1   
 42  18  43  1   
 43  18  44  1   
 44  19  45  1   
 45  19  46  1   
 46  19  47  1   
 47  20  48  1   
 48  21  24  1   
 49  21  25  1   
 50  22  26  1   
 51  22  49  1   
 52  22  50  1   
 53  23  26  1   
 54  23  51  1   
 55  23  52  1   
 56  24  53  1   
 57  24  54  1   
 58  24  55  1   
 59  25  56  1   
 60  25  57  1   
 61  25  58  1   
 62  26  59  1   
 63  26  60  1   
@<TRIPOS>SUBSTRUCTURE
  1 ****  10 GROUP 4 **** **** 0

# MOE 2024.06 (io_trps.svl 2023.06)
