@<TRIPOS>MOLECULE
NONAME
50 53 1 0 0 
SMALL
USER_CHARGES


@<TRIPOS>ATOM
  1 O       -1.2010     0.4320     2.3010 O.2   1 <1>  -0.5700 
  2 C       -1.7310     0.9450     1.3410 C.2   1 <1>   0.6300 
  3 N       -2.3510     0.1860     0.3860 N.am  1 <1>  -0.6600 
  4 C       -1.6980     2.4750     1.2130 C.3   1 <1>   0.0320 
  5 C       -2.9130     0.6800    -0.8940 C.3   1 <1>   0.1400 
  6 C       -2.4180    -1.2910     0.4600 C.3   1 <1>   0.1400 
  7 C       -0.6080     2.9620     0.2650 C.ar  1 <1>  -0.0320 
  8 C       -1.9170     3.3060     2.4480 C.3   1 <1>  -0.2000 
  9 C       -2.9730     3.2590     1.3940 C.3   1 <1>  -0.2000 
 10 C       -3.1960    -0.5800    -1.7110 C.3   1 <1>   0.2000 
 11 C       -3.3370    -1.7060    -0.6890 C.3   1 <1>  -0.0800 
 12 C       -0.9080     3.6370    -0.9090 C.ar  1 <1>  -0.1500 
 13 C        0.7190     2.7180     0.5790 C.ar  1 <1>  -0.1500 
 14 O       -4.3600    -0.4560    -2.4520 O.3   1 <1>  -0.6800 
 15 C       -3.0110    -3.0910    -1.2670 C.3   1 <1>   0.0210 
 16 C        0.1030     4.0590    -1.7550 C.ar  1 <1>  -0.1500 
 17 C        1.7310     3.1390    -0.2660 C.ar  1 <1>  -0.1500 
 18 C       -3.0670    -4.1550    -0.1890 C.2   1 <1>   0.1080 
 19 C        1.4290     3.8100    -1.4390 C.ar  1 <1>  -0.1430 
 20 N       -4.1540    -4.4450     0.4560 N.2   1 <1>  -0.7070 
 21 C       -1.9840    -4.9170     0.2360 C.2   1 <1>  -0.1500 
 22 C        2.5420     4.2720    -2.3620 C.3   1 <1>  -0.0970 
 23 N       -3.7900    -5.4130     1.3180 N.pl3 1 <1>   0.3000 
 24 C       -2.4790    -5.7150     1.2050 C.2   1 <1>  -0.3320 
 25 C       -1.7710    -6.7630     2.0430 C.3   1 <1>  -0.0600 
 26 H       -3.8190     1.2250    -0.6990 H     1 <1>   0.0800 
 27 H       -2.2000     1.3010    -1.4050 H     1 <1>   0.0800 
 28 H       -1.4270    -1.6910     0.3300 H     1 <1>   0.0800 
 29 H       -2.8080    -1.6120     1.4120 H     1 <1>   0.0800 
 30 H       -2.0800     2.7950     3.3820 H     1 <1>   0.1000 
 31 H       -1.3350     4.2030     2.5670 H     1 <1>   0.1000 
 32 H       -3.1460     4.1520     0.8220 H     1 <1>   0.1000 
 33 H       -3.8810     2.7230     1.6070 H     1 <1>   0.1000 
 34 H       -2.3790    -0.7610    -2.3890 H     1 <1>   0.0800 
 35 H       -4.3400    -1.7180    -0.2990 H     1 <1>   0.0800 
 36 H       -1.9300     3.8370    -1.1730 H     1 <1>   0.1500 
 37 H        0.9640     2.1940     1.4870 H     1 <1>   0.1500 
 38 H       -5.1380    -0.4760    -1.8620 H     1 <1>   0.4000 
 39 H       -2.0320    -3.0860    -1.7120 H     1 <1>   0.0800 
 40 H       -3.7250    -3.3380    -2.0320 H     1 <1>   0.0800 
 41 H       -0.1470     4.5830    -2.6610 H     1 <1>   0.1500 
 42 H        2.7560     2.9420    -0.0040 H     1 <1>   0.1500 
 43 H       -0.9790    -4.8600    -0.1420 H     1 <1>   0.1500 
 44 H        2.1760     4.3920    -3.3660 H     1 <1>   0.0800 
 45 H        3.3380     3.5490    -2.3750 H     1 <1>   0.0800 
 46 H        2.9310     5.2130    -2.0190 H     1 <1>   0.0800 
 47 H       -4.4570    -5.8450     1.9680 H     1 <1>   0.2700 
 48 H       -0.7330    -6.8180     1.7660 H     1 <1>   0.0800 
 49 H       -2.2180    -7.7290     1.8880 H     1 <1>   0.0800 
 50 H       -1.8330    -6.5100     3.0870 H     1 <1>   0.0800 
@<TRIPOS>BOND
  1   1   2  2   
  2   2   3  am  
  3   2   4  1   
  4   3   5  1   
  5   3   6  1   
  6   4   7  1   
  7   4   8  1   
  8   4   9  1   
  9   5  10  1   
 10   5  26  1   
 11   5  27  1   
 12   6  11  1   
 13   6  28  1   
 14   6  29  1   
 15   7  12  ar  
 16   7  13  ar  
 17   8   9  1   
 18   8  30  1   
 19   8  31  1   
 20   9  32  1   
 21   9  33  1   
 22  10  11  1   
 23  10  14  1   
 24  10  34  1   
 25  11  15  1   
 26  11  35  1   
 27  12  16  ar  
 28  12  36  1   
 29  13  17  ar  
 30  13  37  1   
 31  14  38  1   
 32  15  18  1   
 33  15  39  1   
 34  15  40  1   
 35  16  19  ar  
 36  16  41  1   
 37  17  19  ar  
 38  17  42  1   
 39  18  20  2   
 40  18  21  1   
 41  19  22  1   
 42  20  23  1   
 43  21  24  2   
 44  21  43  1   
 45  22  44  1   
 46  22  45  1   
 47  22  46  1   
 48  23  24  1   
 49  23  47  1   
 50  24  25  1   
 51  25  48  1   
 52  25  49  1   
 53  25  50  1   
@<TRIPOS>SUBSTRUCTURE
  1 ****   3 GROUP 4 **** **** 0

# MOE 2024.06 (io_trps.svl 2023.06)
