@<TRIPOS>MOLECULE
NONAME
40 42 1 0 0 
SMALL
USER_CHARGES


@<TRIPOS>ATOM
  1 O        0.3080    -0.2230    -1.2400 O.2   1 <1>  -0.5700 
  2 C        1.1960    -0.6880    -0.5510 C.2   1 <1>   0.5440 
  3 N        2.1290     0.1440     0.0250 N.am  1 <1>  -0.4940 
  4 C        1.2770    -2.1180    -0.3270 C.ar  1 <1>   0.0860 
  5 C        2.2360     1.5540    -0.0340 C.2   1 <1>  -0.0880 
  6 C        0.1210    -2.9000    -0.2860 C.ar  1 <1>  -0.1500 
  7 C        2.5000    -2.7720    -0.1400 C.ar  1 <1>  -0.1500 
  8 N        3.3910     2.2270    -0.2830 N.pl3 1 <1>   0.3140 
  9 C        1.2820     2.5000     0.1450 C.2   1 <1>  -0.1810 
 10 C        0.1640    -4.2640    -0.0550 C.ar  1 <1>  -0.1430 
 11 C        2.5580    -4.1320     0.0930 C.ar  1 <1>  -0.1500 
 12 N        3.2060     3.5660    -0.2590 N.2   1 <1>  -0.7070 
 13 C        4.7070     1.6480    -0.6220 C.3   1 <1>   0.0960 
 14 C        1.9430     3.7130    -0.0090 C.2   1 <1>   0.1390 
 15 C       -0.1940     2.3300     0.4500 C.3   1 <1>  -0.0590 
 16 C        1.3960    -4.8830     0.1360 C.ar  1 <1>   0.0830 
 17 C       -1.1200    -5.0750    -0.0100 C.3   1 <1>  -0.0170 
 18 C        5.5060     1.3010     0.6420 C.3   1 <1>  -0.2400 
 19 O        1.5050    -6.2080     0.3720 O.3   1 <1>  -0.3620 
 20 C       -0.8810    -6.4080     0.7020 C.3   1 <1>  -0.1600 
 21 C        0.3960    -7.0620     0.1660 C.3   1 <1>   0.1200 
 22 H        2.8090    -0.3220     0.6220 H     1 <1>   0.3700 
 23 H       -0.8290    -2.4160    -0.4410 H     1 <1>   0.1500 
 24 H        3.4190    -2.2180    -0.1870 H     1 <1>   0.1500 
 25 H        3.5010    -4.6290     0.2380 H     1 <1>   0.1500 
 26 H        5.2460     2.3700    -1.2080 H     1 <1>   0.0800 
 27 H        4.5510     0.7720    -1.2240 H     1 <1>   0.0800 
 28 H        1.4670     4.6760     0.0700 H     1 <1>   0.1500 
 29 H       -0.3710     1.3760     0.9120 H     1 <1>   0.0800 
 30 H       -0.7580     2.3780    -0.4640 H     1 <1>   0.0800 
 31 H       -0.5310     3.1040     1.1150 H     1 <1>   0.0800 
 32 H       -1.4450    -5.2580    -1.0200 H     1 <1>   0.0800 
 33 H       -1.8920    -4.5250     0.4990 H     1 <1>   0.0800 
 34 H        5.6680     2.1900     1.2260 H     1 <1>   0.0800 
 35 H        6.4630     0.8950     0.3680 H     1 <1>   0.0800 
 36 H        4.9810     0.5760     1.2370 H     1 <1>   0.0800 
 37 H       -1.7200    -7.0620     0.5470 H     1 <1>   0.0800 
 38 H       -0.7720    -6.2460     1.7600 H     1 <1>   0.0800 
 39 H        0.5970    -7.9880     0.6740 H     1 <1>   0.0800 
 40 H        0.3170    -7.2460    -0.8910 H     1 <1>   0.0800 
@<TRIPOS>BOND
  1   1   2  2   
  2   2   3  am  
  3   2   4  1   
  4   3   5  1   
  5   3  22  1   
  6   4   6  ar  
  7   4   7  ar  
  8   5   8  1   
  9   5   9  2   
 10   6  10  ar  
 11   6  23  1   
 12   7  11  ar  
 13   7  24  1   
 14   8  12  1   
 15   8  13  1   
 16   9  14  1   
 17   9  15  1   
 18  10  16  ar  
 19  10  17  1   
 20  11  16  ar  
 21  11  25  1   
 22  12  14  2   
 23  13  18  1   
 24  13  26  1   
 25  13  27  1   
 26  14  28  1   
 27  15  29  1   
 28  15  30  1   
 29  15  31  1   
 30  16  19  1   
 31  17  20  1   
 32  17  32  1   
 33  17  33  1   
 34  18  34  1   
 35  18  35  1   
 36  18  36  1   
 37  19  21  1   
 38  20  21  1   
 39  20  37  1   
 40  20  38  1   
 41  21  39  1   
 42  21  40  1   
@<TRIPOS>SUBSTRUCTURE
  1 ****   2 GROUP 4 **** **** 0

# MOE 2024.06 (io_trps.svl 2023.06)
