@<TRIPOS>MOLECULE
NONAME
55 57 1 0 0 
SMALL
USER_CHARGES


@<TRIPOS>ATOM
  1 O       -0.3180     0.6350    -1.1090 O.2   1 <1>  -0.5700 
  2 C       -0.2950     1.7750    -0.7070 C.2   1 <1>   0.5690 
  3 N       -1.3650     2.3620    -0.0830 N.am  1 <1>  -0.6600 
  4 C        0.9890     2.5710    -0.9320 C.3   1 <1>   0.1810 
  5 C       -1.3130     3.8250     0.3000 C.3   1 <1>   0.3640 
  6 C       -2.5020     1.5060     0.3840 C.3   1 <1>   0.2200 
  7 O        1.1210     3.6460    -0.0390 O.3   1 <1>  -0.5600 
  8 C       -2.4510     4.5970    -0.3720 C.ar  1 <1>  -0.1440 
  9 C        0.0210     4.5360    -0.0650 C.3   1 <1>   0.2610 
 10 C       -3.6750     1.5720    -0.5910 C.3   1 <1>  -0.2400 
 11 C       -2.9460     1.8460     1.8090 C.3   1 <1>  -0.2400 
 12 C       -2.6840     4.4890    -1.7380 C.ar  1 <1>  -0.1500 
 13 C       -3.2580     5.4380     0.3820 C.ar  1 <1>  -0.1500 
 14 C        0.2960     5.7710     0.8190 C.2   1 <1>   0.5690 
 15 C       -3.7050     5.2050    -2.3370 C.ar  1 <1>  -0.1500 
 16 C       -4.2810     6.1530    -0.2160 C.ar  1 <1>  -0.1500 
 17 O       -0.4160     5.9770     1.7790 O.2   1 <1>  -0.5700 
 18 N        1.3320     6.6330     0.5230 N.am  1 <1>  -0.6600 
 19 C       -4.5050     6.0380    -1.5760 C.ar  1 <1>  -0.1500 
 20 C        2.2840     6.3900    -0.6060 C.3   1 <1>   0.1400 
 21 C        1.6300     7.7880     1.4270 C.3   1 <1>   0.1400 
 22 C        3.0090     7.6780    -0.9940 C.3   1 <1>  -0.1600 
 23 C        3.1430     7.9750     1.5470 C.3   1 <1>  -0.1600 
 24 C        3.8050     8.2670     0.1890 C.3   1 <1>   0.2800 
 25 O        3.8050     9.6420     0.0150 O.3   1 <1>  -0.6800 
 26 C        5.2770     7.7910     0.2010 C.3   1 <1>   0.1200 
 27 O        5.9570     8.2680    -0.9110 O.3   1 <1>  -0.6800 
 28 H        1.0110     2.9480    -1.9370 H     1 <1>   0.0800 
 29 H        1.8340     1.9220    -0.7860 H     1 <1>   0.0800 
 30 H       -1.4290     3.8810     1.3660 H     1 <1>   0.0800 
 31 H       -2.1640     0.4830     0.4030 H     1 <1>   0.0800 
 32 H       -0.0660     4.8920    -1.0740 H     1 <1>   0.0800 
 33 H       -4.1700     2.5240    -0.5450 H     1 <1>   0.0800 
 34 H       -4.3940     0.8140    -0.3410 H     1 <1>   0.0800 
 35 H       -3.3310     1.3910    -1.5930 H     1 <1>   0.0800 
 36 H       -3.4180     2.8100     1.8510 H     1 <1>   0.0800 
 37 H       -2.1030     1.8190     2.4760 H     1 <1>   0.0800 
 38 H       -3.6600     1.1150     2.1430 H     1 <1>   0.0800 
 39 H       -2.0760     3.8360    -2.3410 H     1 <1>   0.1500 
 40 H       -3.0900     5.5450     1.4410 H     1 <1>   0.1500 
 41 H       -3.8800     5.1110    -3.3950 H     1 <1>   0.1500 
 42 H       -4.9000     6.8020     0.3790 H     1 <1>   0.1500 
 43 H       -5.3000     6.5950    -2.0400 H     1 <1>   0.1500 
 44 H        3.0000     5.6430    -0.3050 H     1 <1>   0.0800 
 45 H        1.7540     6.0210    -1.4660 H     1 <1>   0.0800 
 46 H        1.1710     8.6760     1.0300 H     1 <1>   0.0800 
 47 H        1.2200     7.6100     2.4070 H     1 <1>   0.0800 
 48 H        2.2680     8.3760    -1.3420 H     1 <1>   0.0800 
 49 H        3.6670     7.4700    -1.8190 H     1 <1>   0.0800 
 50 H        3.5410     7.0630     1.9550 H     1 <1>   0.0800 
 51 H        3.3680     8.7590     2.2490 H     1 <1>   0.0800 
 52 H        2.8860     9.9680    -0.0200 H     1 <1>   0.4000 
 53 H        5.3370     6.7170     0.1960 H     1 <1>   0.0800 
 54 H        5.7780     8.1620     1.0790 H     1 <1>   0.0800 
 55 H        5.7100     9.2130    -1.0190 H     1 <1>   0.4000 
@<TRIPOS>BOND
  1   1   2  2   
  2   2   3  am  
  3   2   4  1   
  4   3   5  1   
  5   3   6  1   
  6   4   7  1   
  7   4  28  1   
  8   4  29  1   
  9   5   8  1   
 10   5   9  1   
 11   5  30  1   
 12   6  10  1   
 13   6  11  1   
 14   6  31  1   
 15   7   9  1   
 16   8  12  ar  
 17   8  13  ar  
 18   9  14  1   
 19   9  32  1   
 20  10  33  1   
 21  10  34  1   
 22  10  35  1   
 23  11  36  1   
 24  11  37  1   
 25  11  38  1   
 26  12  15  ar  
 27  12  39  1   
 28  13  16  ar  
 29  13  40  1   
 30  14  17  2   
 31  14  18  am  
 32  15  19  ar  
 33  15  41  1   
 34  16  19  ar  
 35  16  42  1   
 36  18  20  1   
 37  18  21  1   
 38  19  43  1   
 39  20  22  1   
 40  20  44  1   
 41  20  45  1   
 42  21  23  1   
 43  21  46  1   
 44  21  47  1   
 45  22  24  1   
 46  22  48  1   
 47  22  49  1   
 48  23  24  1   
 49  23  50  1   
 50  23  51  1   
 51  24  25  1   
 52  24  26  1   
 53  25  52  1   
 54  26  27  1   
 55  26  53  1   
 56  26  54  1   
 57  27  55  1   
@<TRIPOS>SUBSTRUCTURE
  1 ****   9 GROUP 4 **** **** 0

# MOE 2024.06 (io_trps.svl 2023.06)
