@<TRIPOS>MOLECULE
NONAME
47 49 1 0 0 
SMALL
USER_CHARGES


@<TRIPOS>ATOM
  1 O        0.5160    -0.1460     0.1690 O.2   1 <1>  -0.5700 
  2 C        1.4690    -0.8580     0.4190 C.2   1 <1>   0.5440 
  3 N        2.7160    -0.2840     0.5350 N.am  1 <1>  -0.6600 
  4 C        1.2770    -2.2880     0.5680 C.ar  1 <1>   0.0860 
  5 C        2.9440     1.1770     0.4160 C.3   1 <1>   0.1400 
  6 C        3.9900    -1.0200     0.3560 C.3   1 <1>   0.1400 
  7 C        1.7730    -2.9850     1.6710 C.ar  1 <1>  -0.1500 
  8 C        0.5810    -3.0180    -0.3960 C.ar  1 <1>  -0.1500 
  9 C        4.2700     1.2930    -0.3230 C.3   1 <1>  -0.0190 
 10 C        5.0500     0.0560     0.1320 C.3   1 <1>  -0.1600 
 11 C        1.5970    -4.3500     1.8000 C.ar  1 <1>  -0.1500 
 12 C        0.4000    -4.3830    -0.2770 C.ar  1 <1>  -0.1500 
 13 C        4.9710     2.6150    -0.0500 C.2   1 <1>   0.5690 
 14 C        0.9060    -5.0570     0.8290 C.ar  1 <1>   0.0820 
 15 O        5.2560     2.9120     1.0850 O.2   1 <1>  -0.5700 
 16 N        5.2590     3.4290    -1.1010 N.am  1 <1>  -0.7300 
 17 O        0.7620    -6.3930     0.9930 O.3   1 <1>  -0.1650 
 18 C        5.9360     4.7470    -0.9970 C.3   1 <1>   0.0600 
 19 C       -0.3230    -7.0650     0.5340 C.ar  1 <1>   0.0820 
 20 C       -0.1250    -8.2930    -0.0790 C.ar  1 <1>  -0.1500 
 21 C       -1.6090    -6.5610     0.6790 C.ar  1 <1>  -0.1500 
 22 C       -1.2040    -9.0150    -0.5630 C.ar  1 <1>  -0.1430 
 23 C       -2.6880    -7.2800     0.1980 C.ar  1 <1>  -0.1500 
 24 C       -2.4850    -8.5020    -0.4220 C.ar  1 <1>  -0.1500 
 25 C       -0.9940   -10.3580    -1.2390 C.3   1 <1>  -0.0970 
 26 H        3.0190     1.5990     1.4040 H     1 <1>   0.0800 
 27 H        2.1490     1.6660    -0.1220 H     1 <1>   0.0800 
 28 H        3.9140    -1.6620    -0.5060 H     1 <1>   0.0800 
 29 H        4.2190    -1.6080     1.2280 H     1 <1>   0.0800 
 30 H        2.2980    -2.4400     2.4370 H     1 <1>   0.1500 
 31 H        0.1790    -2.4950    -1.2480 H     1 <1>   0.1500 
 32 H        4.0650     1.2070    -1.3750 H     1 <1>   0.0800 
 33 H        5.7880    -0.2500    -0.5880 H     1 <1>   0.0800 
 34 H        5.5420     0.2550     1.0690 H     1 <1>   0.0800 
 35 H        1.9870    -4.8740     2.6540 H     1 <1>   0.1500 
 36 H       -0.1300    -4.9210    -1.0430 H     1 <1>   0.1500 
 37 H        4.9950     3.1410    -2.0450 H     1 <1>   0.3700 
 38 H        6.1750     4.9670     0.0300 H     1 <1>   0.0800 
 39 H        5.2890     5.5200    -1.3750 H     1 <1>   0.0800 
 40 H        6.8470     4.7350    -1.5690 H     1 <1>   0.0800 
 41 H        0.8760    -8.6730    -0.1730 H     1 <1>   0.1500 
 42 H       -1.7660    -5.6160     1.1690 H     1 <1>   0.1500 
 43 H       -3.6850    -6.8920     0.3070 H     1 <1>   0.1500 
 44 H       -3.3300    -9.0550    -0.7930 H     1 <1>   0.1500 
 45 H        0.0280   -10.4710    -1.5520 H     1 <1>   0.0800 
 46 H       -1.6260   -10.4410    -2.1050 H     1 <1>   0.0800 
 47 H       -1.2360   -11.1500    -0.5540 H     1 <1>   0.0800 
@<TRIPOS>BOND
  1   1   2  2   
  2   2   3  am  
  3   2   4  1   
  4   3   5  1   
  5   3   6  1   
  6   4   7  ar  
  7   4   8  ar  
  8   5   9  1   
  9   5  26  1   
 10   5  27  1   
 11   6  10  1   
 12   6  28  1   
 13   6  29  1   
 14   7  11  ar  
 15   7  30  1   
 16   8  12  ar  
 17   8  31  1   
 18   9  10  1   
 19   9  13  1   
 20   9  32  1   
 21  10  33  1   
 22  10  34  1   
 23  11  14  ar  
 24  11  35  1   
 25  12  14  ar  
 26  12  36  1   
 27  13  15  2   
 28  13  16  am  
 29  14  17  1   
 30  16  18  1   
 31  16  37  1   
 32  17  19  1   
 33  18  38  1   
 34  18  39  1   
 35  18  40  1   
 36  19  20  ar  
 37  19  21  ar  
 38  20  22  ar  
 39  20  41  1   
 40  21  23  ar  
 41  21  42  1   
 42  22  24  ar  
 43  22  25  1   
 44  23  24  ar  
 45  23  43  1   
 46  24  44  1   
 47  25  45  1   
 48  25  46  1   
 49  25  47  1   
@<TRIPOS>SUBSTRUCTURE
  1 ****   4 GROUP 4 **** **** 0

# MOE 2024.06 (io_trps.svl 2023.06)
