@<TRIPOS>MOLECULE
NONAME
54 56 1 0 0 
SMALL
USER_CHARGES


@<TRIPOS>ATOM
  1 O        0.4430     1.2950    -0.1480 O.2   1 <1>  -0.5700 
  2 C        0.2250     2.4620    -0.3480 C.2   1 <1>   0.5690 
  3 N       -0.5390     3.1790     0.5020 N.am  1 <1>  -0.7300 
  4 C        0.7810     3.1480    -1.5960 C.3   1 <1>   0.1810 
  5 C       -0.9440     4.5890     0.2660 C.3   1 <1>   0.3640 
  6 O        0.8440     4.5490    -1.4550 O.3   1 <1>  -0.5600 
  7 C       -2.4720     4.6380     0.2840 C.ar  1 <1>  -0.1440 
  8 C       -0.3790     5.1700    -1.0640 C.3   1 <1>   0.2610 
  9 C       -3.1260     5.6170     1.0200 C.ar  1 <1>  -0.1500 
 10 C       -3.2320     3.7180    -0.4290 C.ar  1 <1>  -0.1500 
 11 C       -0.1770     6.6910    -0.9680 C.2   1 <1>   0.5690 
 12 C       -4.5080     5.6760     1.0450 C.ar  1 <1>  -0.1500 
 13 C       -4.6150     3.7760    -0.4050 C.ar  1 <1>  -0.1500 
 14 O       -0.8820     7.3610    -0.2500 O.2   1 <1>  -0.5700 
 15 N        0.8160     7.2620    -1.7040 N.am  1 <1>  -0.7300 
 16 C       -5.2540     4.7550     0.3330 C.ar  1 <1>  -0.1500 
 17 C        1.1010     8.7120    -1.8080 C.3   1 <1>   0.1400 
 18 C        2.1510     9.1070    -0.7680 C.3   1 <1>  -0.0990 
 19 C        2.5650    10.5670    -0.8710 C.2   1 <1>   0.5690 
 20 O        2.1540    11.2110    -1.8090 O.2   1 <1>  -0.5700 
 21 N        3.3930    11.1200     0.0750 N.am  1 <1>  -0.6600 
 22 C        3.9710    10.3990     1.2450 C.3   1 <1>   0.1400 
 23 C        3.8090    12.5490    -0.0090 C.3   1 <1>   0.1400 
 24 C        5.5000    10.4700     1.1920 C.3   1 <1>  -0.1600 
 25 C        5.3370    12.6410    -0.0720 C.3   1 <1>  -0.1600 
 26 C        5.9970    11.9230     1.1150 C.3   1 <1>  -0.0800 
 27 C        7.5240    11.9670     0.9930 C.3   1 <1>  -0.2400 
 28 H       -0.9660     2.7030     1.2980 H     1 <1>   0.3700 
 29 H        0.1620     2.9150    -2.4420 H     1 <1>   0.0800 
 30 H        1.7780     2.7910    -1.7830 H     1 <1>   0.0800 
 31 H       -0.5650     5.1770     1.0840 H     1 <1>   0.0800 
 32 H       -1.0900     4.9920    -1.8500 H     1 <1>   0.0800 
 33 H       -2.5620     6.3490     1.5740 H     1 <1>   0.1500 
 34 H       -2.7560     2.9450    -1.0070 H     1 <1>   0.1500 
 35 H       -5.0020     6.4420     1.6170 H     1 <1>   0.1500 
 36 H       -5.1940     3.0570    -0.9590 H     1 <1>   0.1500 
 37 H        1.4480     6.6290    -2.2040 H     1 <1>   0.3700 
 38 H       -6.3290     4.8010     0.3530 H     1 <1>   0.1500 
 39 H        1.4540     8.9360    -2.8000 H     1 <1>   0.0800 
 40 H        0.1970     9.2750    -1.6380 H     1 <1>   0.0800 
 41 H        3.0270     8.5000    -0.8990 H     1 <1>   0.0800 
 42 H        1.7360     8.9340     0.2070 H     1 <1>   0.0800 
 43 H        3.6170    10.8650     2.1490 H     1 <1>   0.0800 
 44 H        3.6670     9.3690     1.2650 H     1 <1>   0.0800 
 45 H        3.3860    13.0220    -0.8800 H     1 <1>   0.0800 
 46 H        3.4450    13.0710     0.8590 H     1 <1>   0.0800 
 47 H        5.9050     9.9960     2.0680 H     1 <1>   0.0800 
 48 H        5.8420     9.9200     0.3330 H     1 <1>   0.0800 
 49 H        5.6670    12.2050    -0.9990 H     1 <1>   0.0800 
 50 H        5.6250    13.6770    -0.0770 H     1 <1>   0.0800 
 51 H        5.7130    12.4300     2.0230 H     1 <1>   0.0800 
 52 H        7.8470    11.4700     0.0950 H     1 <1>   0.0800 
 53 H        7.9810    11.4820     1.8370 H     1 <1>   0.0800 
 54 H        7.8660    12.9860     0.9620 H     1 <1>   0.0800 
@<TRIPOS>BOND
  1   1   2  2   
  2   2   3  am  
  3   2   4  1   
  4   3   5  1   
  5   3  28  1   
  6   4   6  1   
  7   4  29  1   
  8   4  30  1   
  9   5   7  1   
 10   5   8  1   
 11   5  31  1   
 12   6   8  1   
 13   7   9  ar  
 14   7  10  ar  
 15   8  11  1   
 16   8  32  1   
 17   9  12  ar  
 18   9  33  1   
 19  10  13  ar  
 20  10  34  1   
 21  11  14  2   
 22  11  15  am  
 23  12  16  ar  
 24  12  35  1   
 25  13  16  ar  
 26  13  36  1   
 27  15  17  1   
 28  15  37  1   
 29  16  38  1   
 30  17  18  1   
 31  17  39  1   
 32  17  40  1   
 33  18  19  1   
 34  18  41  1   
 35  18  42  1   
 36  19  20  2   
 37  19  21  am  
 38  21  22  1   
 39  21  23  1   
 40  22  24  1   
 41  22  43  1   
 42  22  44  1   
 43  23  25  1   
 44  23  45  1   
 45  23  46  1   
 46  24  26  1   
 47  24  47  1   
 48  24  48  1   
 49  25  26  1   
 50  25  49  1   
 51  25  50  1   
 52  26  27  1   
 53  26  51  1   
 54  27  52  1   
 55  27  53  1   
 56  27  54  1   
@<TRIPOS>SUBSTRUCTURE
  1 ****  11 GROUP 4 **** **** 0

# MOE 2024.06 (io_trps.svl 2023.06)
