@<TRIPOS>MOLECULE
NONAME
56 58 1 0 0 
SMALL
USER_CHARGES


@<TRIPOS>ATOM
  1 F       -1.7180     0.7660    -2.0740 F     1 <1>  -0.1900 
  2 C       -2.7530     0.7950    -1.2750 C.ar  1 <1>   0.1900 
  3 C       -3.7300     1.7940    -1.3630 C.ar  1 <1>   0.0820 
  4 C       -2.8360    -0.2180    -0.3390 C.ar  1 <1>  -0.1500 
  5 O       -3.7590     2.8400    -2.2370 O.3   1 <1>  -0.3630 
  6 C       -4.7940     1.7320    -0.4780 C.ar  1 <1>  -0.1500 
  7 C       -3.9120    -0.2520     0.5280 C.ar  1 <1>  -0.1500 
  8 C       -2.7130     3.1150    -3.1430 C.3   1 <1>   0.0400 
  9 C       -4.9150     0.7170     0.4710 C.ar  1 <1>   0.0530 
 10 C       -6.0450     0.6830     1.3610 C.2   1 <1>   0.0870 
 11 O       -6.3570     1.7450     2.0570 O.3   1 <1>  -0.0190 
 12 C       -6.9590    -0.2790     1.6650 C.2   1 <1>  -0.0860 
 13 N       -7.4070     1.5670     2.8130 N.2   1 <1>  -0.4100 
 14 C       -7.7880     0.3580     2.5980 C.2   1 <1>   0.3720 
 15 C       -7.1150    -1.6070     1.1560 C.2   1 <1>   0.7160 
 16 N       -8.8960    -0.2200     3.2370 N.pl3 1 <1>  -0.8210 
 17 O       -6.3020    -2.0940     0.3910 O.2   1 <1>  -0.5700 
 18 N       -8.2160    -2.3410     1.4890 N.am  1 <1>  -0.7300 
 19 C      -10.1330     0.6060     3.1060 C.3   1 <1>   0.1290 
 20 C       -8.6200    -0.5100     4.6740 C.3   1 <1>   0.1290 
 21 C       -8.6340    -3.7530     1.2180 C.3   1 <1>   0.2200 
 22 C       -7.8190    -4.4730     0.1150 C.3   1 <1>   0.3430 
 23 C      -10.1160    -3.7380     0.8030 C.3   1 <1>  -0.1600 
 24 N       -7.8490    -3.7140    -1.1840 N.4   1 <1>  -0.9590 
 25 C      -10.3190    -3.6960    -0.7300 C.3   1 <1>  -0.1600 
 26 C       -9.1540    -3.0310    -1.4740 C.3   1 <1>   0.3430 
 27 C       -7.3130    -4.5130    -2.3090 C.3   1 <1>   0.3430 
 28 C       -6.8170    -3.5730    -3.4020 C.3   1 <1>  -0.2400 
 29 H       -2.0660    -0.9680    -0.2940 H     1 <1>   0.1500 
 30 H       -5.5500     2.4960    -0.5300 H     1 <1>   0.1500 
 31 H       -3.9790    -1.0380     1.2590 H     1 <1>   0.1500 
 32 H       -2.9580     4.0170    -3.6740 H     1 <1>   0.0800 
 33 H       -2.6250     2.2970    -3.8360 H     1 <1>   0.0800 
 34 H       -1.7990     3.2540    -2.5920 H     1 <1>   0.0800 
 35 H       -8.8100    -1.8470     2.1790 H     1 <1>   0.3700 
 36 H      -10.2860     0.8780     2.0760 H     1 <1>   0.0800 
 37 H      -10.0420     1.5090     3.6880 H     1 <1>   0.0800 
 38 H      -10.9880     0.0510     3.4500 H     1 <1>   0.0800 
 39 H       -7.7260    -1.1020     4.7640 H     1 <1>   0.0800 
 40 H       -9.4410    -1.0530     5.1080 H     1 <1>   0.0800 
 41 H       -8.4790     0.4100     5.2180 H     1 <1>   0.0800 
 42 H       -8.5360    -4.3050     2.1380 H     1 <1>   0.0800 
 43 H       -8.2390    -5.4540    -0.0320 H     1 <1>   0.0800 
 44 H       -6.8010    -4.5910     0.4460 H     1 <1>   0.0800 
 45 H      -10.6170    -2.9040     1.2660 H     1 <1>   0.0800 
 46 H      -10.5910    -4.6300     1.1750 H     1 <1>   0.0800 
 47 H       -7.1640    -2.9500    -1.0050 H     1 <1>   0.4500 
 48 H      -11.2290    -3.1650    -0.9530 H     1 <1>   0.0800 
 49 H      -10.4380    -4.6950    -1.1100 H     1 <1>   0.0800 
 50 H       -9.3490    -3.0300    -2.5340 H     1 <1>   0.0800 
 51 H       -9.0880    -2.0040    -1.1510 H     1 <1>   0.0800 
 52 H       -8.0740    -5.1720    -2.6950 H     1 <1>   0.0800 
 53 H       -6.4840    -5.1110    -1.9660 H     1 <1>   0.0800 
 54 H       -7.6220    -3.0030    -3.8290 H     1 <1>   0.0800 
 55 H       -6.3710    -4.1540    -4.1900 H     1 <1>   0.0800 
 56 H       -6.0660    -2.9070    -3.0160 H     1 <1>   0.0800 
@<TRIPOS>BOND
  1   1   2  1   
  2   2   3  ar  
  3   2   4  ar  
  4   3   5  1   
  5   3   6  ar  
  6   4   7  ar  
  7   4  29  1   
  8   5   8  1   
  9   6   9  ar  
 10   6  30  1   
 11   7   9  ar  
 12   7  31  1   
 13   8  32  1   
 14   8  33  1   
 15   8  34  1   
 16   9  10  1   
 17  10  11  1   
 18  10  12  2   
 19  11  13  1   
 20  12  14  1   
 21  12  15  1   
 22  13  14  2   
 23  14  16  1   
 24  15  17  2   
 25  15  18  am  
 26  16  19  1   
 27  16  20  1   
 28  18  21  1   
 29  18  35  1   
 30  19  36  1   
 31  19  37  1   
 32  19  38  1   
 33  20  39  1   
 34  20  40  1   
 35  20  41  1   
 36  21  22  1   
 37  21  23  1   
 38  21  42  1   
 39  22  24  1   
 40  22  43  1   
 41  22  44  1   
 42  23  25  1   
 43  23  45  1   
 44  23  46  1   
 45  24  26  1   
 46  24  27  1   
 47  24  47  1   
 48  25  26  1   
 49  25  48  1   
 50  25  49  1   
 51  26  50  1   
 52  26  51  1   
 53  27  28  1   
 54  27  52  1   
 55  27  53  1   
 56  28  54  1   
 57  28  55  1   
 58  28  56  1   
@<TRIPOS>SUBSTRUCTURE
  1 ****  15 GROUP 4 **** **** 0

# MOE 2024.06 (io_trps.svl 2023.06)
