@<TRIPOS>MOLECULE
NONAME
48 50 1 0 0 
SMALL
USER_CHARGES


@<TRIPOS>ATOM
  1 S       -0.8020     0.7360    -1.2460 S.3   1 <1>  -0.0800 
  2 C       -1.5860     1.5460     0.1060 C.2   1 <1>  -0.1400 
  3 C       -1.8130    -0.6820    -1.0410 C.2   1 <1>  -0.1100 
  4 C       -2.5380     0.7550     0.6390 C.2   1 <1>  -0.1500 
  5 C       -1.1100     2.9450     0.4570 C.3   1 <1>   0.6030 
  6 C       -2.6660    -0.5120    -0.0140 C.2   1 <1>  -0.1500 
  7 N       -1.3160     3.8060    -0.7670 N.4   1 <1>  -0.9590 
  8 C        0.3450     2.8570     1.0030 C.3   1 <1>   0.2090 
  9 C       -0.7450     5.1860    -0.6620 C.3   1 <1>   0.2630 
 10 C       -2.7640     3.8810    -1.1380 C.3   1 <1>   0.2630 
 11 N        0.8310     4.0980     1.6840 N.pl3 1 <1>  -0.8690 
 12 C        1.8060     4.9160     1.2010 C.ar  1 <1>   0.4100 
 13 N        1.5000     6.1730     1.2250 N.ar  1 <1>  -0.6200 
 14 C        3.0150     4.4080     0.6950 C.ar  1 <1>  -0.1500 
 15 C        2.4180     7.0380     0.7270 C.ar  1 <1>   0.3100 
 16 C        3.9490     5.2460     0.1710 C.ar  1 <1>  -0.1430 
 17 C        3.6560     6.6300     0.1700 C.ar  1 <1>   0.0000 
 18 C        2.1080     8.4050     0.7530 C.ar  1 <1>  -0.1500 
 19 C        5.2640     4.7070    -0.3760 C.3   1 <1>  -0.0970 
 20 C        4.5200     7.6190    -0.3480 C.ar  1 <1>  -0.1500 
 21 C        2.9680     9.3360     0.2420 C.ar  1 <1>   0.1020 
 22 C        4.1890     8.9470    -0.3180 C.ar  1 <1>  -0.1500 
 23 S        2.4680    11.0640     0.3140 S.3   1 <1>  -0.3320 
 24 C        3.8570    12.0610    -0.3850 C.3   1 <1>  -0.0100 
 25 H       -1.6610    -1.5060    -1.7170 H     1 <1>   0.1500 
 26 H       -3.1740     0.9920     1.4770 H     1 <1>   0.1500 
 27 H       -1.7310     3.3150     1.2560 H     1 <1>   0.0800 
 28 H       -3.3910    -1.2370     0.3180 H     1 <1>   0.1500 
 29 H       -0.8260     3.3150    -1.5290 H     1 <1>   0.4500 
 30 H        1.0080     2.5920     0.1990 H     1 <1>   0.0800 
 31 H        0.3840     2.0570     1.7230 H     1 <1>   0.0800 
 32 H       -1.0480     5.6580     0.2580 H     1 <1>   0.0800 
 33 H       -1.0720     5.7950    -1.4890 H     1 <1>   0.0800 
 34 H        0.3310     5.1470    -0.6860 H     1 <1>   0.0800 
 35 H       -3.3290     4.3580    -0.3540 H     1 <1>   0.0800 
 36 H       -3.1640     2.8930    -1.3020 H     1 <1>   0.0800 
 37 H       -2.8860     4.4510    -2.0460 H     1 <1>   0.0800 
 38 H        0.2010     4.5790     2.3360 H     1 <1>   0.4000 
 39 H        3.1800     3.3490     0.7490 H     1 <1>   0.1500 
 40 H        1.1750     8.7110     1.1870 H     1 <1>   0.1500 
 41 H        5.3120     3.6380    -0.2780 H     1 <1>   0.0800 
 42 H        6.0900     5.1310     0.1660 H     1 <1>   0.0800 
 43 H        5.3630     4.9560    -1.4180 H     1 <1>   0.0800 
 44 H        5.4610     7.3240    -0.7760 H     1 <1>   0.1500 
 45 H        4.8620     9.6790    -0.7200 H     1 <1>   0.1500 
 46 H        3.5750    13.0970    -0.3230 H     1 <1>   0.0800 
 47 H        3.9980    11.7660    -1.4080 H     1 <1>   0.0800 
 48 H        4.7340    11.8710     0.2070 H     1 <1>   0.0800 
@<TRIPOS>BOND
  1   1   2  1   
  2   1   3  1   
  3   2   4  2   
  4   2   5  1   
  5   3   6  2   
  6   3  25  1   
  7   4   6  1   
  8   4  26  1   
  9   5   7  1   
 10   5   8  1   
 11   5  27  1   
 12   6  28  1   
 13   7   9  1   
 14   7  10  1   
 15   7  29  1   
 16   8  11  1   
 17   8  30  1   
 18   8  31  1   
 19   9  32  1   
 20   9  33  1   
 21   9  34  1   
 22  10  35  1   
 23  10  36  1   
 24  10  37  1   
 25  11  12  1   
 26  11  38  1   
 27  12  13  ar  
 28  12  14  ar  
 29  13  15  ar  
 30  14  16  ar  
 31  14  39  1   
 32  15  17  ar  
 33  15  18  ar  
 34  16  17  ar  
 35  16  19  1   
 36  17  20  ar  
 37  18  21  ar  
 38  18  40  1   
 39  19  41  1   
 40  19  42  1   
 41  19  43  1   
 42  20  22  ar  
 43  20  44  1   
 44  21  22  ar  
 45  21  23  1   
 46  22  45  1   
 47  23  24  1   
 48  24  46  1   
 49  24  47  1   
 50  24  48  1   
@<TRIPOS>SUBSTRUCTURE
  1 ****  12 GROUP 4 **** **** 0

# MOE 2024.06 (io_trps.svl 2023.06)
