@<TRIPOS>MOLECULE
NONAME
48 49 1 0 0 
SMALL
USER_CHARGES


@<TRIPOS>ATOM
  1 O       -0.4200    -0.8510     1.4440 O.co2 1 <1>  -0.9000 
  2 C       -0.3700    -2.0350     1.0760 C.2   1 <1>   1.0330 
  3 O       -1.4120    -2.7160     1.1610 O.co2 1 <1>  -0.9000 
  4 C        0.8390    -2.6110     0.5630 C.2   1 <1>  -0.2330 
  5 C        1.0630    -3.9820     0.4510 C.2   1 <1>   0.3720 
  6 C        2.0010    -2.0680     0.1040 C.2   1 <1>   0.0870 
  7 N        2.2340    -4.2390    -0.0120 N.2   1 <1>  -0.4100 
  8 N        0.1340    -4.9470     0.8060 N.pl3 1 <1>  -0.8520 
  9 O        2.7860    -3.0740    -0.2140 O.3   1 <1>  -0.0190 
 10 C        2.4870    -0.7230    -0.0970 C.ar  1 <1>   0.0530 
 11 C       -0.0870    -6.0800    -0.1560 C.3   1 <1>   0.3500 
 12 C        1.6420     0.3350    -0.4310 C.ar  1 <1>  -0.1500 
 13 C        3.8480    -0.4350     0.0150 C.ar  1 <1>  -0.1500 
 14 C       -1.4520    -6.0280    -0.8960 C.2   1 <1>   0.5690 
 15 C        0.1490    -7.4350     0.5690 C.3   1 <1>  -0.0800 
 16 C        2.1210     1.6160    -0.6360 C.ar  1 <1>  -0.1500 
 17 C        4.3390     0.8410    -0.1930 C.ar  1 <1>  -0.1500 
 18 O       -1.4200    -6.2170    -2.0950 O.2   1 <1>  -0.5700 
 19 N       -2.6640    -5.8100    -0.2590 N.am  1 <1>  -0.6600 
 20 C        1.5430    -7.5130     1.2210 C.3   1 <1>  -0.2400 
 21 C       -0.0110    -8.6370    -0.3800 C.3   1 <1>  -0.2400 
 22 C        3.4830     1.8790    -0.5190 C.ar  1 <1>   0.0830 
 23 C       -3.9090    -5.5760    -1.0400 C.3   1 <1>   0.0600 
 24 C       -2.8550    -5.5750     1.2020 C.3   1 <1>   0.0600 
 25 O        4.0360     3.1020    -0.7030 O.3   1 <1>  -0.3630 
 26 C        3.2340     4.2340    -0.9560 C.3   1 <1>   0.0400 
 27 H       -0.7600    -4.4290     0.9510 H     1 <1>   0.4000 
 28 H        0.6590    -6.0100    -0.9280 H     1 <1>   0.0800 
 29 H        0.5860     0.1500    -0.5260 H     1 <1>   0.1500 
 30 H        4.5290    -1.2270     0.2730 H     1 <1>   0.1500 
 31 H       -0.5880    -7.5330     1.3450 H     1 <1>   0.0800 
 32 H        1.4190     2.3880    -0.8820 H     1 <1>   0.1500 
 33 H        5.3910     1.0420    -0.1010 H     1 <1>   0.1500 
 34 H        2.3120    -7.3730     0.4810 H     1 <1>   0.0800 
 35 H        1.6880    -8.4640     1.7000 H     1 <1>   0.0800 
 36 H        1.6530    -6.7440     1.9660 H     1 <1>   0.0800 
 37 H        0.6770    -8.5590    -1.2040 H     1 <1>   0.0800 
 38 H       -1.0110    -8.6830    -0.7740 H     1 <1>   0.0800 
 39 H        0.1810    -9.5570     0.1430 H     1 <1>   0.0800 
 40 H       -3.7470    -5.7370    -2.0920 H     1 <1>   0.0800 
 41 H       -4.2330    -4.5600    -0.8970 H     1 <1>   0.0800 
 42 H       -4.6800    -6.2470    -0.7060 H     1 <1>   0.0800 
 43 H       -1.9920    -5.8580     1.7730 H     1 <1>   0.0800 
 44 H       -3.6920    -6.1500     1.5550 H     1 <1>   0.0800 
 45 H       -3.0560    -4.5310     1.3760 H     1 <1>   0.0800 
 46 H        3.8790     5.0900    -1.0360 H     1 <1>   0.0800 
 47 H        2.5490     4.3650    -0.1370 H     1 <1>   0.0800 
 48 H        2.7050     4.0860    -1.8810 H     1 <1>   0.0800 
@<TRIPOS>BOND
  1   1   2  ar  
  2   2   3  ar  
  3   2   4  1   
  4   4   5  1   
  5   4   6  2   
  6   5   7  2   
  7   5   8  1   
  8   6   9  1   
  9   6  10  1   
 10   7   9  1   
 11   8  11  1   
 12   8  27  1   
 13  10  12  ar  
 14  10  13  ar  
 15  11  14  1   
 16  11  15  1   
 17  11  28  1   
 18  12  16  ar  
 19  12  29  1   
 20  13  17  ar  
 21  13  30  1   
 22  14  18  2   
 23  14  19  am  
 24  15  20  1   
 25  15  21  1   
 26  15  31  1   
 27  16  22  ar  
 28  16  32  1   
 29  17  22  ar  
 30  17  33  1   
 31  19  23  1   
 32  19  24  1   
 33  20  34  1   
 34  20  35  1   
 35  20  36  1   
 36  21  37  1   
 37  21  38  1   
 38  21  39  1   
 39  22  25  1   
 40  23  40  1   
 41  23  41  1   
 42  23  42  1   
 43  24  43  1   
 44  24  44  1   
 45  24  45  1   
 46  25  26  1   
 47  26  46  1   
 48  26  47  1   
 49  26  48  1   
@<TRIPOS>SUBSTRUCTURE
  1 ****   4 GROUP 4 **** **** 0

# MOE 2024.06 (io_trps.svl 2023.06)
