@<TRIPOS>MOLECULE
NONAME
49 50 1 0 0 
SMALL
USER_CHARGES


@<TRIPOS>ATOM
  1 O       -0.5260    -0.0300     0.0760 O.2   1 <1>  -0.5700 
  2 C       -1.4750     0.7090    -0.0600 C.2   1 <1>   0.5690 
  3 N       -2.6060     0.2980    -0.7260 N.am  1 <1>  -0.6600 
  4 C       -1.3710     2.0870     0.5910 C.3   1 <1>   0.1810 
  5 C       -2.6470    -1.0240    -1.4070 C.3   1 <1>   0.3200 
  6 C       -3.8230     1.1440    -0.9250 C.3   1 <1>   0.1400 
  7 O       -1.4320     3.1250    -0.3720 O.3   1 <1>  -0.3630 
  8 C       -3.6280    -1.9300    -0.6910 C.2   1 <1>  -0.3320 
  9 C       -4.7700     1.0500     0.2770 C.3   1 <1>   0.1200 
 10 C       -0.9720     4.3260     0.0420 C.ar  1 <1>   0.0830 
 11 N       -3.4140    -2.4910     0.5160 N.pl3 1 <1>   0.0480 
 12 C       -4.8510    -2.3420    -1.0940 C.2   1 <1>   0.0770 
 13 O       -5.7590     2.0170     0.1570 O.3   1 <1>  -0.6800 
 14 C        0.3940     4.6060    -0.0130 C.ar  1 <1>  -0.1430 
 15 C       -1.8820     5.2640     0.5190 C.ar  1 <1>  -0.1430 
 16 C       -4.5350    -3.2040     0.7640 C.2   1 <1>   0.0360 
 17 C       -2.2240    -2.3790     1.3800 C.3   1 <1>   0.0160 
 18 N       -5.4210    -3.1400    -0.1760 N.2   1 <1>  -0.5650 
 19 C        0.8510     5.8310     0.4640 C.ar  1 <1>  -0.1430 
 20 C        1.3760     3.5860    -0.5920 C.3   1 <1>  -0.0970 
 21 C       -1.4100     6.4800     0.9800 C.ar  1 <1>  -0.1500 
 22 C       -3.3780     4.9830     0.5400 C.3   1 <1>  -0.0970 
 23 C       -0.0560     6.7560     0.9570 C.ar  1 <1>  -0.1500 
 24 C        2.3300     6.1980     0.4630 C.3   1 <1>  -0.0970 
 25 H       -0.4330     2.1600     1.1100 H     1 <1>   0.0800 
 26 H       -2.1680     2.2310     1.2940 H     1 <1>   0.0800 
 27 H       -1.6730    -1.4830    -1.4250 H     1 <1>   0.0800 
 28 H       -2.9550    -0.8850    -2.4280 H     1 <1>   0.0800 
 29 H       -4.3490     0.8190    -1.8060 H     1 <1>   0.0800 
 30 H       -3.5320     2.1660    -1.0800 H     1 <1>   0.0800 
 31 H       -4.2490     1.2190     1.2020 H     1 <1>   0.0800 
 32 H       -5.2520     0.0880     0.3070 H     1 <1>   0.0800 
 33 H       -5.3640    -2.1010    -2.0110 H     1 <1>   0.1500 
 34 H       -5.3840     2.9170     0.2040 H     1 <1>   0.4000 
 35 H       -4.6600    -3.7720     1.6690 H     1 <1>   0.1500 
 36 H       -1.3370    -2.5180     0.7890 H     1 <1>   0.0800 
 37 H       -2.2620    -3.1280     2.1490 H     1 <1>   0.0800 
 38 H       -2.2030    -1.4030     1.8290 H     1 <1>   0.0800 
 39 H        0.8780     2.8600    -1.2070 H     1 <1>   0.0800 
 40 H        1.8810     3.0720     0.2050 H     1 <1>   0.0800 
 41 H        2.1070     4.0730    -1.2110 H     1 <1>   0.0800 
 42 H       -2.0910     7.2210     1.3600 H     1 <1>   0.1500 
 43 H       -3.6910     4.6160    -0.4200 H     1 <1>   0.0800 
 44 H       -3.9320     5.8780     0.7560 H     1 <1>   0.0800 
 45 H       -3.6010     4.2500     1.2930 H     1 <1>   0.0800 
 46 H        0.2860     7.7070     1.3250 H     1 <1>   0.1500 
 47 H        2.9090     5.4110     0.9100 H     1 <1>   0.0800 
 48 H        2.5040     7.0990     1.0230 H     1 <1>   0.0800 
 49 H        2.6670     6.3550    -0.5460 H     1 <1>   0.0800 
@<TRIPOS>BOND
  1   1   2  2   
  2   2   3  am  
  3   2   4  1   
  4   3   5  1   
  5   3   6  1   
  6   4   7  1   
  7   4  25  1   
  8   4  26  1   
  9   5   8  1   
 10   5  27  1   
 11   5  28  1   
 12   6   9  1   
 13   6  29  1   
 14   6  30  1   
 15   7  10  1   
 16   8  11  1   
 17   8  12  2   
 18   9  13  1   
 19   9  31  1   
 20   9  32  1   
 21  10  14  ar  
 22  10  15  ar  
 23  11  16  1   
 24  11  17  1   
 25  12  18  1   
 26  12  33  1   
 27  13  34  1   
 28  14  19  ar  
 29  14  20  1   
 30  15  21  ar  
 31  15  22  1   
 32  16  18  2   
 33  16  35  1   
 34  17  36  1   
 35  17  37  1   
 36  17  38  1   
 37  19  23  ar  
 38  19  24  1   
 39  20  39  1   
 40  20  40  1   
 41  20  41  1   
 42  21  23  ar  
 43  21  42  1   
 44  22  43  1   
 45  22  44  1   
 46  22  45  1   
 47  23  46  1   
 48  24  47  1   
 49  24  48  1   
 50  24  49  1   
@<TRIPOS>SUBSTRUCTURE
  1 ****   4 GROUP 4 **** **** 0

# MOE 2024.06 (io_trps.svl 2023.06)
