@<TRIPOS>MOLECULE
F2167-9517
29 30 1 0 0 
SMALL
USER_CHARGES


@<TRIPOS>ATOM
  1 O       -6.1660    -3.2380    -0.4210 O.co2 1 <1>  -0.9000 
  2 C       -5.8870    -2.4400     0.4990 C.2   1 <1>   0.9790 
  3 O       -5.7590    -2.9000     1.6500 O.co2 1 <1>  -0.9000 
  4 C       -5.8080    -1.0170     0.2380 C.ar  1 <1>  -0.1790 
  5 C       -4.6120    -0.3080    -0.0140 C.ar  1 <1>   0.1000 
  6 C       -7.0090    -0.3120     0.2600 C.ar  1 <1>  -0.1500 
  7 N       -3.3620    -0.9480    -0.1280 N.pl3 1 <1>  -0.8380 
  8 C       -4.6640     1.0890    -0.1610 C.ar  1 <1>  -0.1440 
  9 C       -7.0560     1.0510     0.0730 C.ar  1 <1>  -0.1500 
 10 C       -2.0750    -0.2590     0.1270 C.3   1 <1>   0.2090 
 11 C       -3.2450    -2.2940    -0.7570 C.3   1 <1>   0.1290 
 12 C       -5.8830     1.7500    -0.1310 C.ar  1 <1>  -0.1500 
 13 C       -3.3470     1.8480    -0.3560 C.3   1 <1>   0.0640 
 14 C       -2.2910     1.1940     0.5400 C.3   1 <1>  -0.1600 
 15 C       -3.4140     3.3510    -0.0400 C.3   1 <1>  -0.2400 
 16 H       -7.9170    -0.8640     0.4330 H     1 <1>   0.1500 
 17 H       -7.9990     1.5650     0.0920 H     1 <1>   0.1500 
 18 H       -1.4880    -0.2850    -0.7740 H     1 <1>   0.0800 
 19 H       -1.5430    -0.7840     0.9010 H     1 <1>   0.0800 
 20 H       -4.0310    -2.4300    -1.4810 H     1 <1>   0.0800 
 21 H       -3.3340    -3.0550    -0.0010 H     1 <1>   0.0800 
 22 H       -2.3010    -2.4020    -1.2580 H     1 <1>   0.0800 
 23 H       -5.9500     2.8110    -0.2630 H     1 <1>   0.1500 
 24 H       -3.0480     1.7300    -1.3840 H     1 <1>   0.0800 
 25 H       -1.3560     1.7170     0.4770 H     1 <1>   0.0800 
 26 H       -2.6250     1.2160     1.5620 H     1 <1>   0.0800 
 27 H       -3.7980     3.5050     0.9540 H     1 <1>   0.0800 
 28 H       -4.0480     3.8550    -0.7460 H     1 <1>   0.0800 
 29 H       -2.4360     3.7920    -0.1050 H     1 <1>   0.0800 
@<TRIPOS>BOND
  1   1   2  ar  
  2   2   3  ar  
  3   2   4  1   
  4   4   5  ar  
  5   4   6  ar  
  6   5   7  1   
  7   5   8  ar  
  8   6   9  ar  
  9   6  16  1   
 10   7  10  1   
 11   7  11  1   
 12   8  12  ar  
 13   8  13  1   
 14   9  12  ar  
 15   9  17  1   
 16  10  14  1   
 17  10  18  1   
 18  10  19  1   
 19  11  20  1   
 20  11  21  1   
 21  11  22  1   
 22  12  23  1   
 23  13  14  1   
 24  13  15  1   
 25  13  24  1   
 26  14  25  1   
 27  14  26  1   
 28  15  27  1   
 29  15  28  1   
 30  15  29  1   
@<TRIPOS>SUBSTRUCTURE
  1 ****   5 GROUP 4 **** **** 0

# MOE 2024.06 (io_trps.svl 2023.06)
