@<TRIPOS>MOLECULE
NONAME
50 52 1 0 0 
SMALL
USER_CHARGES


@<TRIPOS>ATOM
  1 O        1.7410     0.0790     3.2010 O.2   1 <1>  -0.5700 
  2 C        1.3080    -0.6670     2.3550 C.2   1 <1>   0.5690 
  3 N        1.3380    -0.3700     1.0320 N.am  1 <1>  -0.7300 
  4 C        0.7050    -2.0150     2.7660 C.3   1 <1>   0.1710 
  5 C        1.8970     0.8480     0.3930 C.3   1 <1>   0.1400 
  6 N       -0.1120    -2.6630     1.6920 N.3   1 <1>  -0.8100 
  7 C        3.0370     0.4890    -0.5700 C.3   1 <1>   0.2000 
  8 C       -0.2430    -4.1170     1.9270 C.3   1 <1>   0.2530 
  9 C       -1.4270    -1.9920     1.5660 C.3   1 <1>   0.1100 
 10 O        3.4090     1.6180    -1.2890 O.3   1 <1>  -0.5600 
 11 C        2.6720    -0.5270    -1.6460 C.3   1 <1>  -0.1600 
 12 C       -0.3670    -4.8690     0.6110 C.ar  1 <1>  -0.1440 
 13 C       -2.0350    -2.1670     0.1680 C.3   1 <1>  -0.1600 
 14 C        4.0790     1.2470    -2.4510 C.3   1 <1>   0.1200 
 15 C        3.6090    -0.1660    -2.7870 C.3   1 <1>  -0.1600 
 16 C       -1.6080    -5.0330     0.0110 C.ar  1 <1>   0.0820 
 17 C        0.7570    -5.4010    -0.0010 C.ar  1 <1>  -0.1500 
 18 C       -3.1250    -3.2510     0.0800 C.3   1 <1>   0.1200 
 19 O       -2.6860    -4.4780     0.6160 O.3   1 <1>  -0.3630 
 20 C       -1.7390    -5.7390    -1.1880 C.ar  1 <1>   0.0820 
 21 C        0.6410    -6.0990    -1.1910 C.ar  1 <1>  -0.1500 
 22 O       -2.9850    -5.8720    -1.7280 O.3   1 <1>  -0.3620 
 23 C       -0.5990    -6.2720    -1.7830 C.ar  1 <1>  -0.1500 
 24 C       -3.2160    -6.7010    -2.8440 C.3   1 <1>   0.0400 
 25 H        0.9100    -1.0770     0.4210 H     1 <1>   0.3700 
 26 H        0.1110    -1.8780     3.6510 H     1 <1>   0.0800 
 27 H        1.5360    -2.6480     3.0200 H     1 <1>   0.0800 
 28 H        2.2710     1.5150     1.1510 H     1 <1>   0.0800 
 29 H        1.1130     1.3460    -0.1500 H     1 <1>   0.0800 
 30 H        3.8990     0.1620    -0.0150 H     1 <1>   0.0800 
 31 H       -1.0890    -4.3230     2.5610 H     1 <1>   0.0800 
 32 H        0.6310    -4.4880     2.4320 H     1 <1>   0.0800 
 33 H       -1.2950    -0.9350     1.7230 H     1 <1>   0.0800 
 34 H       -2.1070    -2.3430     2.3250 H     1 <1>   0.0800 
 35 H        1.6490    -0.3860    -1.9480 H     1 <1>   0.0800 
 36 H        2.8060    -1.5370    -1.3010 H     1 <1>   0.0800 
 37 H       -1.2620    -2.3540    -0.5560 H     1 <1>   0.0800 
 38 H       -2.4990    -1.2380    -0.1110 H     1 <1>   0.0800 
 39 H        5.1370     1.2720    -2.2500 H     1 <1>   0.0800 
 40 H        3.8340     1.9530    -3.2250 H     1 <1>   0.0800 
 41 H        3.1060    -0.1940    -3.7370 H     1 <1>   0.0800 
 42 H        4.4550    -0.8300    -2.8180 H     1 <1>   0.0800 
 43 H        1.7260    -5.2710     0.4470 H     1 <1>   0.1500 
 44 H       -3.4180    -3.4150    -0.9430 H     1 <1>   0.0800 
 45 H       -3.9920    -2.9550     0.6430 H     1 <1>   0.0800 
 46 H        1.5200    -6.5090    -1.6570 H     1 <1>   0.1500 
 47 H       -0.6530    -6.8190    -2.7040 H     1 <1>   0.1500 
 48 H       -4.2720    -6.7010    -3.0450 H     1 <1>   0.0800 
 49 H       -2.8890    -7.6990    -2.6110 H     1 <1>   0.0800 
 50 H       -2.6830    -6.3060    -3.6900 H     1 <1>   0.0800 
@<TRIPOS>BOND
  1   1   2  2   
  2   2   3  am  
  3   2   4  1   
  4   3   5  1   
  5   3  25  1   
  6   4   6  1   
  7   4  26  1   
  8   4  27  1   
  9   5   7  1   
 10   5  28  1   
 11   5  29  1   
 12   6   8  1   
 13   6   9  1   
 14   7  10  1   
 15   7  11  1   
 16   7  30  1   
 17   8  12  1   
 18   8  31  1   
 19   8  32  1   
 20   9  13  1   
 21   9  33  1   
 22   9  34  1   
 23  10  14  1   
 24  11  15  1   
 25  11  35  1   
 26  11  36  1   
 27  12  16  ar  
 28  12  17  ar  
 29  13  18  1   
 30  13  37  1   
 31  13  38  1   
 32  14  15  1   
 33  14  39  1   
 34  14  40  1   
 35  15  41  1   
 36  15  42  1   
 37  16  19  1   
 38  16  20  ar  
 39  17  21  ar  
 40  17  43  1   
 41  18  19  1   
 42  18  44  1   
 43  18  45  1   
 44  20  22  1   
 45  20  23  ar  
 46  21  23  ar  
 47  21  46  1   
 48  22  24  1   
 49  23  47  1   
 50  24  48  1   
 51  24  49  1   
 52  24  50  1   
@<TRIPOS>SUBSTRUCTURE
  1 ****   6 GROUP 4 **** **** 0

# MOE 2024.06 (io_trps.svl 2023.06)
