@<TRIPOS>MOLECULE
NONAME
53 55 1 0 0 
SMALL
USER_CHARGES


@<TRIPOS>ATOM
  1 CL      -0.2860    -0.0370     0.2350 Cl    1 <1>  -0.1770 
  2 C       -1.9330     0.4140    -0.1180 C.ar  1 <1>   0.1770 
  3 C       -2.7200    -0.4280    -0.8810 C.ar  1 <1>  -0.1500 
  4 C       -2.4320     1.6070     0.3680 C.ar  1 <1>  -0.1500 
  5 C       -4.0270    -0.0670    -1.1560 C.ar  1 <1>  -0.1500 
  6 C       -3.7400     1.9580     0.0860 C.ar  1 <1>  -0.1500 
  7 C       -4.5650     1.1290    -0.6760 C.ar  1 <1>   0.0530 
  8 C       -5.9220     1.5160    -0.9630 C.2   1 <1>   0.0870 
  9 O       -6.1560     2.7010    -1.4670 O.3   1 <1>  -0.0190 
 10 C       -7.1260     0.8940    -0.8230 C.2   1 <1>  -0.0860 
 11 N       -7.4240     2.9180    -1.6920 N.2   1 <1>  -0.4100 
 12 C       -8.0220     1.8520    -1.3110 C.2   1 <1>   0.3720 
 13 C       -7.4560    -0.3990    -0.3030 C.2   1 <1>   0.7160 
 14 N       -9.3970     1.7320    -1.4150 N.pl3 1 <1>  -0.8520 
 15 O       -6.5840    -1.1830     0.0260 O.2   1 <1>  -0.5700 
 16 N       -8.7600    -0.7890    -0.1660 N.am  1 <1>  -0.7300 
 17 C      -10.1450     2.2710    -0.2460 C.3   1 <1>   0.2090 
 18 C       -9.4110    -1.9960     0.4230 C.3   1 <1>   0.2200 
 19 C      -11.5770     1.7210    -0.1980 C.3   1 <1>   0.1200 
 20 C       -8.5620    -2.7500     1.4520 C.3   1 <1>   0.3430 
 21 C       -9.6090    -3.0350    -0.6730 C.3   1 <1>  -0.1600 
 22 O      -11.5620     0.3250    -0.0990 O.3   1 <1>  -0.5600 
 23 N       -7.6550    -3.6000     0.6370 N.4   1 <1>  -0.9590 
 24 C       -8.4000    -3.9690    -0.5990 C.3   1 <1>   0.3430 
 25 C      -12.8320    -0.2430    -0.1790 C.3   1 <1>   0.0400 
 26 C       -7.0060    -4.7050     1.3760 C.3   1 <1>   0.3430 
 27 C       -5.8670    -5.2700     0.5370 C.3   1 <1>  -0.2400 
 28 H       -2.3080    -1.3490    -1.2520 H     1 <1>   0.1500 
 29 H       -1.8000     2.2480     0.9570 H     1 <1>   0.1500 
 30 H       -4.6410    -0.7160    -1.7550 H     1 <1>   0.1500 
 31 H       -4.1320     2.8890     0.4580 H     1 <1>   0.1500 
 32 H       -9.6850     2.2660    -2.2440 H     1 <1>   0.4000 
 33 H       -9.4490    -0.1000    -0.5280 H     1 <1>   0.3700 
 34 H      -10.1800     3.3460    -0.3170 H     1 <1>   0.0800 
 35 H       -9.6390     2.0170     0.6690 H     1 <1>   0.0800 
 36 H      -10.3480    -1.7000     0.8630 H     1 <1>   0.0800 
 37 H      -12.1040     2.0040    -1.0930 H     1 <1>   0.0800 
 38 H      -12.0940     2.1170     0.6600 H     1 <1>   0.0800 
 39 H       -9.2010    -3.3730     2.0550 H     1 <1>   0.0800 
 40 H       -8.0150    -2.0680     2.0830 H     1 <1>   0.0800 
 41 H       -9.7140    -2.5910    -1.6480 H     1 <1>   0.0800 
 42 H      -10.4950    -3.6090    -0.4680 H     1 <1>   0.0800 
 43 H       -6.9190    -2.9260     0.3350 H     1 <1>   0.4500 
 44 H       -7.7660    -3.8370    -1.4610 H     1 <1>   0.0800 
 45 H       -8.7290    -4.9950    -0.5550 H     1 <1>   0.0800 
 46 H      -12.7340    -1.3100    -0.0910 H     1 <1>   0.0800 
 47 H      -13.2710    -0.0010    -1.1320 H     1 <1>   0.0800 
 48 H      -13.4430     0.1330     0.6230 H     1 <1>   0.0800 
 49 H       -7.7240    -5.4780     1.5990 H     1 <1>   0.0800 
 50 H       -6.6060    -4.3320     2.3060 H     1 <1>   0.0800 
 51 H       -6.2340    -5.7150    -0.3700 H     1 <1>   0.0800 
 52 H       -5.3600    -6.0340     1.0980 H     1 <1>   0.0800 
 53 H       -5.1530    -4.5000     0.3020 H     1 <1>   0.0800 
@<TRIPOS>BOND
  1   1   2  1   
  2   2   3  ar  
  3   2   4  ar  
  4   3   5  ar  
  5   3  28  1   
  6   4   6  ar  
  7   4  29  1   
  8   5   7  ar  
  9   5  30  1   
 10   6   7  ar  
 11   6  31  1   
 12   7   8  1   
 13   8   9  1   
 14   8  10  2   
 15   9  11  1   
 16  10  12  1   
 17  10  13  1   
 18  11  12  2   
 19  12  14  1   
 20  13  15  2   
 21  13  16  am  
 22  14  17  1   
 23  14  32  1   
 24  16  18  1   
 25  16  33  1   
 26  17  19  1   
 27  17  34  1   
 28  17  35  1   
 29  18  20  1   
 30  18  21  1   
 31  18  36  1   
 32  19  22  1   
 33  19  37  1   
 34  19  38  1   
 35  20  23  1   
 36  20  39  1   
 37  20  40  1   
 38  21  24  1   
 39  21  41  1   
 40  21  42  1   
 41  22  25  1   
 42  23  24  1   
 43  23  26  1   
 44  23  43  1   
 45  24  44  1   
 46  24  45  1   
 47  25  46  1   
 48  25  47  1   
 49  25  48  1   
 50  26  27  1   
 51  26  49  1   
 52  26  50  1   
 53  27  51  1   
 54  27  52  1   
 55  27  53  1   
@<TRIPOS>SUBSTRUCTURE
  1 ****  13 GROUP 4 **** **** 0

# MOE 2024.06 (io_trps.svl 2023.06)
