@<TRIPOS>MOLECULE
NONAME
44 46 1 0 0 
SMALL
USER_CHARGES


@<TRIPOS>ATOM
  1 CL      -1.1430    -1.6680    -0.2880 Cl    1 <1>  -0.1770 
  2 C       -2.0730    -0.1860    -0.2970 C.ar  1 <1>   0.1770 
  3 C       -3.2760    -0.1140     0.3930 C.ar  1 <1>  -0.1440 
  4 C       -1.5780     0.8880    -1.0110 C.ar  1 <1>  -0.1500 
  5 C       -3.9930     1.0800     0.3700 C.ar  1 <1>  -0.1440 
  6 C       -3.7710    -1.3310     1.1540 C.3   1 <1>   0.4870 
  7 C       -2.2980     2.0660    -1.0390 C.ar  1 <1>  -0.1500 
  8 C       -3.4960     2.1580    -0.3510 C.ar  1 <1>  -0.1500 
  9 C       -5.3080     1.2540     1.1230 C.3   1 <1>  -0.0970 
 10 N       -4.1030    -2.4210     0.1940 N.4   1 <1>  -0.9590 
 11 C       -5.2380    -2.0280    -0.7020 C.3   1 <1>   0.3430 
 12 C       -4.5180    -3.6590     0.9210 C.3   1 <1>   0.3430 
 13 C       -6.4650    -2.7740    -0.1680 C.3   1 <1>   0.2000 
 14 C       -5.8740    -4.0850     0.3430 C.3   1 <1>  -0.0800 
 15 O       -6.9650    -2.0730     0.9240 O.3   1 <1>  -0.6800 
 16 C       -5.7170    -5.1280    -0.7820 C.3   1 <1>  -0.0170 
 17 C       -4.9140    -6.3250    -0.3000 C.ar  1 <1>  -0.1430 
 18 C       -5.4110    -7.2030     0.6420 C.ar  1 <1>  -0.1500 
 19 C       -3.6450    -6.5940    -0.7740 C.ar  1 <1>  -0.1500 
 20 C       -4.6300    -8.2650     1.0690 C.ar  1 <1>   0.1600 
 21 C       -2.9470    -7.6840    -0.2820 C.ar  1 <1>   0.1600 
 22 N       -3.4070    -8.5170     0.6350 N.ar  1 <1>  -0.6200 
 23 H       -0.6420     0.8040    -1.5360 H     1 <1>   0.1500 
 24 H       -4.6440    -1.0800     1.7340 H     1 <1>   0.0800 
 25 H       -2.9990    -1.6600     1.8310 H     1 <1>   0.0800 
 26 H       -1.9270     2.9140    -1.5900 H     1 <1>   0.1500 
 27 H       -4.0380     3.0890    -0.3810 H     1 <1>   0.1500 
 28 H       -5.6890     2.2530     1.0030 H     1 <1>   0.0800 
 29 H       -5.1620     1.0840     2.1750 H     1 <1>   0.0800 
 30 H       -6.0530     0.5720     0.7560 H     1 <1>   0.0800 
 31 H       -3.2540    -2.5910    -0.3650 H     1 <1>   0.4500 
 32 H       -5.4050    -0.9640    -0.7160 H     1 <1>   0.0800 
 33 H       -5.0320    -2.3610    -1.7050 H     1 <1>   0.0800 
 34 H       -3.7820    -4.4410     0.8230 H     1 <1>   0.0800 
 35 H       -4.6460    -3.4390     1.9690 H     1 <1>   0.0800 
 36 H       -7.2450    -2.8860    -0.9030 H     1 <1>   0.0800 
 37 H       -6.4880    -4.5130     1.1170 H     1 <1>   0.0800 
 38 H       -7.8490    -2.4080     1.1860 H     1 <1>   0.4000 
 39 H       -5.2290    -4.6980    -1.6390 H     1 <1>   0.0800 
 40 H       -6.6890    -5.4660    -1.1020 H     1 <1>   0.0800 
 41 H       -6.3980    -7.0820     1.0520 H     1 <1>   0.1500 
 42 H       -3.1840    -5.9770    -1.5240 H     1 <1>   0.1500 
 43 H       -5.0320    -8.9420     1.8050 H     1 <1>   0.1500 
 44 H       -1.9590    -7.8840    -0.6620 H     1 <1>   0.1500 
@<TRIPOS>BOND
  1   1   2  1   
  2   2   3  ar  
  3   2   4  ar  
  4   3   5  ar  
  5   3   6  1   
  6   4   7  ar  
  7   4  23  1   
  8   5   8  ar  
  9   5   9  1   
 10   6  10  1   
 11   6  24  1   
 12   6  25  1   
 13   7   8  ar  
 14   7  26  1   
 15   8  27  1   
 16   9  28  1   
 17   9  29  1   
 18   9  30  1   
 19  10  11  1   
 20  10  12  1   
 21  10  31  1   
 22  11  13  1   
 23  11  32  1   
 24  11  33  1   
 25  12  14  1   
 26  12  34  1   
 27  12  35  1   
 28  13  14  1   
 29  13  15  1   
 30  13  36  1   
 31  14  16  1   
 32  14  37  1   
 33  15  38  1   
 34  16  17  1   
 35  16  39  1   
 36  16  40  1   
 37  17  18  ar  
 38  17  19  ar  
 39  18  20  ar  
 40  18  41  1   
 41  19  21  ar  
 42  19  42  1   
 43  20  22  ar  
 44  20  43  1   
 45  21  22  ar  
 46  21  44  1   
@<TRIPOS>SUBSTRUCTURE
  1 ****  10 GROUP 4 **** **** 0

# MOE 2024.06 (io_trps.svl 2023.06)
