@<TRIPOS>MOLECULE
NONAME
46 49 1 0 0 
SMALL
USER_CHARGES


@<TRIPOS>ATOM
  1 F       -1.3100     0.2840    -1.2750 F     1 <1>  -0.1900 
  2 C       -0.9180     1.4400    -0.8010 C.ar  1 <1>   0.1900 
  3 C       -1.8560     2.2550    -0.1610 C.ar  1 <1>   0.1000 
  4 C        0.4010     1.7950    -0.9580 C.ar  1 <1>  -0.1500 
  5 N       -3.1910     1.8890    -0.0070 N.pl3 1 <1>  -0.6000 
  6 C       -1.4240     3.4900     0.3450 C.ar  1 <1>   0.0860 
  7 C        0.8240     3.0210    -0.4570 C.ar  1 <1>  -0.1500 
  8 C       -4.1450     2.6760     0.6200 C.2   1 <1>   0.1140 
  9 C       -2.3890     4.3270     1.0100 C.2   1 <1>   0.4690 
 10 C       -0.0780     3.8490     0.1820 C.ar  1 <1>  -0.1500 
 11 C       -5.5120     2.1780     0.7170 C.2   1 <1>   0.6160 
 12 C       -3.7210     3.8680     1.1310 C.2   1 <1>  -0.1360 
 13 O       -2.0830     5.4220     1.4630 O.2   1 <1>  -0.5700 
 14 O       -5.6860     0.9820     0.8740 O.2   1 <1>  -0.5700 
 15 N       -6.6150     3.0030     0.6220 N.am  1 <1>  -0.6600 
 16 C       -7.9590     2.5610     1.1060 C.3   1 <1>   0.1400 
 17 C       -6.6290     4.3050    -0.1030 C.3   1 <1>   0.1400 
 18 C       -8.9800     2.4600    -0.0550 C.3   1 <1>   0.0000 
 19 C       -7.6320     4.2570    -1.2610 C.3   1 <1>  -0.1600 
 20 C      -10.3800     2.0360     0.4360 C.3   1 <1>   0.2000 
 21 C       -9.0300     3.8100    -0.8010 C.3   1 <1>  -0.1600 
 22 C       -8.6190     1.2940    -0.9930 C.3   1 <1>  -0.1600 
 23 O      -10.7050     2.5660     1.6740 O.3   1 <1>  -0.6800 
 24 C      -10.3870     0.5070     0.5010 C.3   1 <1>  -0.1600 
 25 C       -9.1730     0.0410    -0.3120 C.3   1 <1>  -0.1600 
 26 H        1.0890     1.1360    -1.4580 H     1 <1>   0.1500 
 27 H       -3.4850     0.9470    -0.3100 H     1 <1>   0.4000 
 28 H        1.8530     3.3190    -0.5690 H     1 <1>   0.1500 
 29 H        0.2520     4.7990     0.5710 H     1 <1>   0.1500 
 30 H       -4.3940     4.5160     1.6600 H     1 <1>   0.1500 
 31 H       -7.8830     1.6170     1.6150 H     1 <1>   0.0800 
 32 H       -8.3030     3.2870     1.8220 H     1 <1>   0.0800 
 33 H       -6.9070     5.0850     0.5860 H     1 <1>   0.0800 
 34 H       -5.6570     4.5340    -0.5010 H     1 <1>   0.0800 
 35 H       -7.6990     5.2330    -1.7080 H     1 <1>   0.0800 
 36 H       -7.2620     3.5840    -2.0140 H     1 <1>   0.0800 
 37 H      -11.1260     2.3670    -0.2670 H     1 <1>   0.0800 
 38 H       -9.6840     3.7410    -1.6530 H     1 <1>   0.0800 
 39 H       -9.4370     4.5570    -0.1400 H     1 <1>   0.0800 
 40 H       -9.1170     1.4210    -1.9390 H     1 <1>   0.0800 
 41 H       -7.5620     1.2090    -1.1740 H     1 <1>   0.0800 
 42 H      -10.2210     2.0900     2.3750 H     1 <1>   0.4000 
 43 H      -10.3100     0.1450     1.5110 H     1 <1>   0.0800 
 44 H      -11.2950     0.1340     0.0590 H     1 <1>   0.0800 
 45 H       -8.4250    -0.3630     0.3510 H     1 <1>   0.0800 
 46 H       -9.4370    -0.7140    -1.0330 H     1 <1>   0.0800 
@<TRIPOS>BOND
  1   1   2  1   
  2   2   3  ar  
  3   2   4  ar  
  4   3   5  1   
  5   3   6  ar  
  6   4   7  ar  
  7   4  26  1   
  8   5   8  1   
  9   5  27  1   
 10   6   9  1   
 11   6  10  ar  
 12   7  10  ar  
 13   7  28  1   
 14   8  11  1   
 15   8  12  2   
 16   9  12  1   
 17   9  13  2   
 18  10  29  1   
 19  11  14  2   
 20  11  15  am  
 21  12  30  1   
 22  15  16  1   
 23  15  17  1   
 24  16  18  1   
 25  16  31  1   
 26  16  32  1   
 27  17  19  1   
 28  17  33  1   
 29  17  34  1   
 30  18  20  1   
 31  18  21  1   
 32  18  22  1   
 33  19  21  1   
 34  19  35  1   
 35  19  36  1   
 36  20  23  1   
 37  20  24  1   
 38  20  37  1   
 39  21  38  1   
 40  21  39  1   
 41  22  25  1   
 42  22  40  1   
 43  22  41  1   
 44  23  42  1   
 45  24  25  1   
 46  24  43  1   
 47  24  44  1   
 48  25  45  1   
 49  25  46  1   
@<TRIPOS>SUBSTRUCTURE
  1 ****  11 GROUP 4 **** **** 0

# MOE 2024.06 (io_trps.svl 2023.06)
