@<TRIPOS>MOLECULE
NONAME
57 59 1 0 0 
SMALL
USER_CHARGES


@<TRIPOS>ATOM
  1 O       -0.2460    -3.7270     1.1530 O.co2 1 <1>  -0.9000 
  2 C       -0.3700    -2.8580     0.2690 C.2   1 <1>   1.0330 
  3 O       -1.3490    -2.1050     0.3650 O.co2 1 <1>  -0.9000 
  4 C        0.4420    -2.8740    -0.8960 C.2   1 <1>  -0.2330 
  5 C        0.3510    -3.8190    -1.9160 C.2   1 <1>   0.3720 
  6 C        1.4360    -2.0480    -1.3100 C.2   1 <1>   0.0870 
  7 N        1.2070    -3.5910    -2.8420 N.2   1 <1>  -0.4100 
  8 N       -0.5200    -4.8970    -2.0250 N.pl3 1 <1>  -0.8520 
  9 O        1.8570    -2.5200    -2.4610 O.3   1 <1>  -0.0190 
 10 C        2.0380    -0.8650    -0.7430 C.ar  1 <1>   0.0530 
 11 C       -0.4220    -5.9240    -0.9350 C.3   1 <1>   0.2090 
 12 C        3.3460    -0.5020    -1.0680 C.ar  1 <1>  -0.1500 
 13 C        1.3500    -0.0350     0.1440 C.ar  1 <1>  -0.1500 
 14 C       -1.7590    -6.3200    -0.2000 C.3   1 <1>   0.5030 
 15 C        3.9390     0.6260    -0.5320 C.ar  1 <1>  -0.1500 
 16 C        1.9350     1.0930     0.6870 C.ar  1 <1>  -0.1500 
 17 N       -2.4680    -5.1030     0.3750 N.4   1 <1>  -0.9590 
 18 C       -2.7170    -7.0550    -1.1700 C.3   1 <1>  -0.1600 
 19 C       -1.3810    -7.3030     0.9420 C.3   1 <1>  -0.1600 
 20 C        3.2420     1.4330     0.3510 C.ar  1 <1>   0.0830 
 21 C       -3.3360    -5.2830     1.5700 C.3   1 <1>   0.3430 
 22 C       -3.1260    -4.2090    -0.6380 C.3   1 <1>   0.2630 
 23 C       -2.1940    -8.4200    -1.6630 C.3   1 <1>  -0.1600 
 24 C       -0.8070    -8.6450     0.4540 C.3   1 <1>  -0.1600 
 25 O        3.8900     2.5190     0.8370 O.3   1 <1>  -0.3630 
 26 C       -3.6670    -3.9430     2.2210 C.3   1 <1>  -0.2400 
 27 C       -1.7900    -9.3340    -0.5000 C.3   1 <1>  -0.1600 
 28 C        3.2720     3.3900     1.7580 C.3   1 <1>   0.0400 
 29 H       -0.3260    -5.3270    -2.9360 H     1 <1>   0.4000 
 30 H        0.2930    -5.6010    -0.2000 H     1 <1>   0.0800 
 31 H        0.0080    -6.8020    -1.3760 H     1 <1>   0.0800 
 32 H        3.9070    -1.1170    -1.7500 H     1 <1>   0.1500 
 33 H        0.3350    -0.2700     0.4110 H     1 <1>   0.1500 
 34 H        4.9480     0.8880    -0.7930 H     1 <1>   0.1500 
 35 H        1.3580     1.6920     1.3650 H     1 <1>   0.1500 
 36 H       -1.6760    -4.5150     0.7430 H     1 <1>   0.4500 
 37 H       -2.9000    -6.4450    -2.0370 H     1 <1>   0.0800 
 38 H       -3.6560    -7.2200    -0.6730 H     1 <1>   0.0800 
 39 H       -2.2500    -7.5660     1.5130 H     1 <1>   0.0800 
 40 H       -0.6720    -6.8310     1.6020 H     1 <1>   0.0800 
 41 H       -2.8130    -5.8670     2.3080 H     1 <1>   0.0800 
 42 H       -4.2410    -5.8010     1.2980 H     1 <1>   0.0800 
 43 H       -4.0410    -4.6500    -0.9950 H     1 <1>   0.0800 
 44 H       -2.4800    -4.0250    -1.4750 H     1 <1>   0.0800 
 45 H       -3.3440    -3.2500    -0.1970 H     1 <1>   0.0800 
 46 H       -1.3510    -8.2790    -2.3180 H     1 <1>   0.0800 
 47 H       -2.9620    -8.9050    -2.2420 H     1 <1>   0.0800 
 48 H       -0.6350    -9.2860     1.3020 H     1 <1>   0.0800 
 49 H        0.1440    -8.5070    -0.0310 H     1 <1>   0.0800 
 50 H       -2.7650    -3.3790     2.3930 H     1 <1>   0.0800 
 51 H       -4.1400    -4.1150     3.1700 H     1 <1>   0.0800 
 52 H       -4.3400    -3.3620     1.6180 H     1 <1>   0.0800 
 53 H       -1.3450   -10.2350    -0.8880 H     1 <1>   0.0800 
 54 H       -2.6730    -9.6200     0.0470 H     1 <1>   0.0800 
 55 H        3.9720     4.1670     2.0050 H     1 <1>   0.0800 
 56 H        3.0120     2.8350     2.6420 H     1 <1>   0.0800 
 57 H        2.3970     3.8170     1.3000 H     1 <1>   0.0800 
@<TRIPOS>BOND
  1   1   2  ar  
  2   2   3  ar  
  3   2   4  1   
  4   4   5  1   
  5   4   6  2   
  6   5   7  2   
  7   5   8  1   
  8   6   9  1   
  9   6  10  1   
 10   7   9  1   
 11   8  11  1   
 12   8  29  1   
 13  10  12  ar  
 14  10  13  ar  
 15  11  14  1   
 16  11  30  1   
 17  11  31  1   
 18  12  15  ar  
 19  12  32  1   
 20  13  16  ar  
 21  13  33  1   
 22  14  17  1   
 23  14  18  1   
 24  14  19  1   
 25  15  20  ar  
 26  15  34  1   
 27  16  20  ar  
 28  16  35  1   
 29  17  21  1   
 30  17  22  1   
 31  17  36  1   
 32  18  23  1   
 33  18  37  1   
 34  18  38  1   
 35  19  24  1   
 36  19  39  1   
 37  19  40  1   
 38  20  25  1   
 39  21  26  1   
 40  21  41  1   
 41  21  42  1   
 42  22  43  1   
 43  22  44  1   
 44  22  45  1   
 45  23  27  1   
 46  23  46  1   
 47  23  47  1   
 48  24  27  1   
 49  24  48  1   
 50  24  49  1   
 51  25  28  1   
 52  26  50  1   
 53  26  51  1   
 54  26  52  1   
 55  27  53  1   
 56  27  54  1   
 57  28  55  1   
 58  28  56  1   
 59  28  57  1   
@<TRIPOS>SUBSTRUCTURE
  1 ****   2 GROUP 4 **** **** 0

# MOE 2024.06 (io_trps.svl 2023.06)
