@<TRIPOS>MOLECULE
NONAME
52 55 1 0 0 
SMALL
USER_CHARGES


@<TRIPOS>ATOM
  1 O       -1.1980    -1.3870    -1.8600 O.2   1 <1>  -0.5700 
  2 C       -1.9120    -1.6640    -0.8940 C.2   1 <1>   0.5410 
  3 C       -2.0840    -3.0170    -0.4590 C.2   1 <1>  -0.1240 
  4 C       -2.5880    -0.6340    -0.1720 C.2   1 <1>  -0.1240 
  5 C       -2.8690    -3.2920     0.6260 C.2   1 <1>  -0.0380 
  6 C       -1.3620    -4.0960    -1.2700 C.3   1 <1>  -0.1020 
  7 C       -3.3610    -0.9540     0.8960 C.2   1 <1>  -0.0500 
  8 C       -2.4260     0.8130    -0.6210 C.3   1 <1>  -0.1020 
  9 N       -3.5000    -2.2610     1.2920 N.pl3 1 <1>  -0.6000 
 10 C       -3.1050    -4.6980     1.1840 C.3   1 <1>   0.2480 
 11 N       -4.0140    -5.4790     0.3270 N.3   1 <1>  -0.8100 
 12 C       -5.3590    -4.8970     0.1400 C.3   1 <1>   0.1100 
 13 C       -4.1650    -6.8810     0.7470 C.3   1 <1>   0.1100 
 14 C       -6.3550    -5.9120     0.6980 C.3   1 <1>   0.2000 
 15 C       -5.6290    -7.2390     0.4910 C.3   1 <1>  -0.0800 
 16 O       -6.5080    -5.6680     2.0550 O.3   1 <1>  -0.6800 
 17 C       -6.1490    -8.4210     1.3340 C.3   1 <1>  -0.0170 
 18 C       -5.3420    -9.6890     1.0680 C.ar  1 <1>  -0.1440 
 19 C       -5.5090   -10.4670    -0.1030 C.ar  1 <1>   0.0000 
 20 C       -4.4120   -10.1080     1.9740 C.ar  1 <1>  -0.1500 
 21 C       -4.6790   -11.6040    -0.2610 C.ar  1 <1>   0.3100 
 22 C       -6.4480   -10.1870    -1.1230 C.ar  1 <1>  -0.1500 
 23 C       -3.6510   -11.2560     1.7260 C.ar  1 <1>   0.1600 
 24 N       -3.7580   -11.9840     0.6610 N.ar  1 <1>  -0.6200 
 25 C       -4.8090   -12.3850    -1.4200 C.ar  1 <1>  -0.1500 
 26 C       -6.5510   -10.9700    -2.2400 C.ar  1 <1>  -0.1500 
 27 C       -5.7210   -12.0820    -2.3950 C.ar  1 <1>  -0.1500 
 28 H       -1.6430    -4.0130    -2.3050 H     1 <1>   0.0800 
 29 H       -1.6000    -5.0900    -0.9460 H     1 <1>   0.0800 
 30 H       -0.2990    -3.9540    -1.1960 H     1 <1>   0.0800 
 31 H       -3.8890    -0.2050     1.4650 H     1 <1>   0.1500 
 32 H       -1.3870     1.0910    -0.5830 H     1 <1>   0.0800 
 33 H       -2.9870     1.4800     0.0070 H     1 <1>   0.0800 
 34 H       -2.7700     0.9190    -1.6350 H     1 <1>   0.0800 
 35 H       -4.1040    -2.4740     2.0950 H     1 <1>   0.4000 
 36 H       -3.5070    -4.6340     2.1800 H     1 <1>   0.0800 
 37 H       -2.1590    -5.2080     1.2480 H     1 <1>   0.0800 
 38 H       -5.4750    -3.9340     0.6060 H     1 <1>   0.0800 
 39 H       -5.5260    -4.7840    -0.9170 H     1 <1>   0.0800 
 40 H       -3.5020    -7.5180     0.1860 H     1 <1>   0.0800 
 41 H       -3.9440    -6.9810     1.7970 H     1 <1>   0.0800 
 42 H       -7.3210    -5.8650     0.2250 H     1 <1>   0.0800 
 43 H       -5.7100    -7.4940    -0.5500 H     1 <1>   0.0800 
 44 H       -5.6190    -5.5970     2.4490 H     1 <1>   0.4000 
 45 H       -7.1890    -8.5950     1.1230 H     1 <1>   0.0800 
 46 H       -6.0850    -8.1780     2.3800 H     1 <1>   0.0800 
 47 H       -4.2370    -9.5750     2.8900 H     1 <1>   0.1500 
 48 H       -7.1010    -9.3410    -1.0220 H     1 <1>   0.1500 
 49 H       -2.9290   -11.5510     2.4680 H     1 <1>   0.1500 
 50 H       -4.1620   -13.2370    -1.5160 H     1 <1>   0.1500 
 51 H       -7.2690   -10.7450    -3.0100 H     1 <1>   0.1500 
 52 H       -5.8090   -12.6900    -3.2790 H     1 <1>   0.1500 
@<TRIPOS>BOND
  1   1   2  2   
  2   2   3  1   
  3   2   4  1   
  4   3   5  2   
  5   3   6  1   
  6   4   7  2   
  7   4   8  1   
  8   5   9  1   
  9   5  10  1   
 10   6  28  1   
 11   6  29  1   
 12   6  30  1   
 13   7   9  1   
 14   7  31  1   
 15   8  32  1   
 16   8  33  1   
 17   8  34  1   
 18   9  35  1   
 19  10  11  1   
 20  10  36  1   
 21  10  37  1   
 22  11  12  1   
 23  11  13  1   
 24  12  14  1   
 25  12  38  1   
 26  12  39  1   
 27  13  15  1   
 28  13  40  1   
 29  13  41  1   
 30  14  15  1   
 31  14  16  1   
 32  14  42  1   
 33  15  17  1   
 34  15  43  1   
 35  16  44  1   
 36  17  18  1   
 37  17  45  1   
 38  17  46  1   
 39  18  19  ar  
 40  18  20  ar  
 41  19  21  ar  
 42  19  22  ar  
 43  20  23  ar  
 44  20  47  1   
 45  21  24  ar  
 46  21  25  ar  
 47  22  26  ar  
 48  22  48  1   
 49  23  24  ar  
 50  23  49  1   
 51  25  27  ar  
 52  25  50  1   
 53  26  27  ar  
 54  26  51  1   
 55  27  52  1   
@<TRIPOS>SUBSTRUCTURE
  1 ****  13 GROUP 4 **** **** 0

# MOE 2024.06 (io_trps.svl 2023.06)
