@<TRIPOS>MOLECULE
NONAME
44 46 1 0 0 
SMALL
USER_CHARGES


@<TRIPOS>ATOM
  1 CL       0.6360     0.1970    -0.6690 Cl    1 <1>  -0.1770 
  2 C        1.3140    -1.4050    -0.4210 C.ar  1 <1>   0.1770 
  3 C        0.6280    -2.4060     0.2640 C.ar  1 <1>   0.4100 
  4 C        2.5610    -1.6870    -0.9040 C.ar  1 <1>   0.1600 
  5 N        1.1950    -3.5900     0.4420 N.ar  1 <1>  -0.6200 
  6 N       -0.6480    -2.2380     0.7780 N.pl3 1 <1>  -0.8380 
  7 N        3.1260    -2.8710    -0.7390 N.ar  1 <1>  -0.6200 
  8 C        2.4020    -3.7510    -0.0690 C.ar  1 <1>   0.4770 
  9 C       -1.7880    -1.9850    -0.1640 C.3   1 <1>   0.2090 
 10 C       -1.0800    -3.0030     1.9940 C.3   1 <1>   0.2090 
 11 C        3.0350    -5.1070     0.1300 C.3   1 <1>  -0.0960 
 12 C       -2.5530    -3.2800    -0.5050 C.3   1 <1>   0.2090 
 13 C       -1.8420    -4.2900     1.6230 C.3   1 <1>   0.2090 
 14 N       -3.0030    -4.0020     0.7270 N.pl3 1 <1>  -0.8380 
 15 C       -3.8780    -5.0780     0.5220 C.ar  1 <1>   0.1000 
 16 C       -3.5900    -6.2010    -0.2730 C.ar  1 <1>   0.0820 
 17 C       -5.1090    -5.0310     1.1610 C.ar  1 <1>  -0.1500 
 18 O       -2.4000    -6.3030    -0.9210 O.3   1 <1>  -0.3630 
 19 C       -4.5200    -7.2180    -0.4200 C.ar  1 <1>  -0.1500 
 20 C       -6.0340    -6.0520     1.0220 C.ar  1 <1>  -0.1500 
 21 C       -1.5390    -7.3290    -0.4940 C.3   1 <1>   0.1200 
 22 C       -5.7410    -7.1470     0.2290 C.ar  1 <1>  -0.1500 
 23 C       -0.1540    -7.0450    -1.0670 C.3   1 <1>  -0.2400 
 24 H        3.1120    -0.9320    -1.4360 H     1 <1>   0.1500 
 25 H       -1.4250    -1.5500    -1.0770 H     1 <1>   0.0800 
 26 H       -2.4690    -1.2860     0.2890 H     1 <1>   0.0800 
 27 H       -1.7220    -2.3790     2.5910 H     1 <1>   0.0800 
 28 H       -0.2220    -3.2560     2.5920 H     1 <1>   0.0800 
 29 H        2.4990    -5.6680     0.8720 H     1 <1>   0.0800 
 30 H        4.0530    -4.9870     0.4520 H     1 <1>   0.0800 
 31 H        3.0200    -5.6450    -0.7980 H     1 <1>   0.0800 
 32 H       -1.9030    -3.9140    -1.0820 H     1 <1>   0.0800 
 33 H       -3.4110    -3.0440    -1.1080 H     1 <1>   0.0800 
 34 H       -2.1950    -4.7680     2.5190 H     1 <1>   0.0800 
 35 H       -1.1640    -4.9620     1.1280 H     1 <1>   0.0800 
 36 H       -5.3340    -4.1770     1.7730 H     1 <1>   0.1500 
 37 H       -4.2950    -8.0620    -1.0460 H     1 <1>   0.1500 
 38 H       -6.9800    -5.9900     1.5280 H     1 <1>   0.1500 
 39 H       -1.9220    -8.2690    -0.8510 H     1 <1>   0.0800 
 40 H       -1.5150    -7.3280     0.5830 H     1 <1>   0.0800 
 41 H       -6.4600    -7.9390     0.1140 H     1 <1>   0.1500 
 42 H       -0.1920    -7.0500    -2.1410 H     1 <1>   0.0800 
 43 H        0.5380    -7.8000    -0.7410 H     1 <1>   0.0800 
 44 H        0.1930    -6.0860    -0.7250 H     1 <1>   0.0800 
@<TRIPOS>BOND
  1   1   2  1   
  2   2   3  ar  
  3   2   4  ar  
  4   3   5  ar  
  5   3   6  1   
  6   4   7  ar  
  7   4  24  1   
  8   5   8  ar  
  9   6   9  1   
 10   6  10  1   
 11   7   8  ar  
 12   8  11  1   
 13   9  12  1   
 14   9  25  1   
 15   9  26  1   
 16  10  13  1   
 17  10  27  1   
 18  10  28  1   
 19  11  29  1   
 20  11  30  1   
 21  11  31  1   
 22  12  14  1   
 23  12  32  1   
 24  12  33  1   
 25  13  14  1   
 26  13  34  1   
 27  13  35  1   
 28  14  15  1   
 29  15  16  ar  
 30  15  17  ar  
 31  16  18  1   
 32  16  19  ar  
 33  17  20  ar  
 34  17  36  1   
 35  18  21  1   
 36  19  22  ar  
 37  19  37  1   
 38  20  22  ar  
 39  20  38  1   
 40  21  23  1   
 41  21  39  1   
 42  21  40  1   
 43  22  41  1   
 44  23  42  1   
 45  23  43  1   
 46  23  44  1   
@<TRIPOS>SUBSTRUCTURE
  1 ****  13 GROUP 4 **** **** 0

# MOE 2024.06 (io_trps.svl 2023.06)
