@<TRIPOS>MOLECULE
NONAME
45 47 1 0 0 
SMALL
USER_CHARGES


@<TRIPOS>ATOM
  1 O       -3.8290     1.6740    -1.9570 O.2   1 <1>  -0.5700 
  2 C       -2.7490     1.5960    -1.4010 C.2   1 <1>   0.5440 
  3 N       -2.2160     0.3490    -1.2540 N.am  1 <1>  -0.7300 
  4 C       -2.0720     2.7950    -0.9360 C.ar  1 <1>   0.0860 
  5 C       -2.8460    -0.9230    -1.6660 C.3   1 <1>   0.2200 
  6 C       -1.0270     2.7960     0.0080 C.ar  1 <1>   0.3920 
  7 C       -2.4550     4.0350    -1.4380 C.ar  1 <1>  -0.1500 
  8 C       -3.6220    -1.4990    -0.4950 C.3   1 <1>  -0.0800 
  9 C       -1.7650    -1.9800    -1.8780 C.3   1 <1>   0.1200 
 10 O       -0.6310     1.6200     0.5420 O.3   1 <1>  -0.3620 
 11 N       -0.3820     3.8830     0.4330 N.ar  1 <1>  -0.6200 
 12 C       -1.7990     5.1630    -1.0010 C.ar  1 <1>  -0.1500 
 13 C       -2.5160    -2.2070     0.2920 C.3   1 <1>   0.1200 
 14 C       -4.7190    -2.4700    -0.9710 C.3   1 <1>  -0.0170 
 15 O       -1.5310    -2.5700    -0.6310 O.3   1 <1>  -0.5600 
 16 C        0.4300     1.5210     1.4680 C.3   1 <1>   0.1200 
 17 C       -0.7810     5.0330    -0.0770 C.ar  1 <1>   0.1600 
 18 C       -5.5070    -3.0460     0.1970 C.ar  1 <1>  -0.1430 
 19 C        0.5900     0.0500     1.8430 C.3   1 <1>  -0.2400 
 20 C       -6.4500    -2.3000     0.8740 C.ar  1 <1>  -0.1500 
 21 C       -5.3240    -4.3410     0.6370 C.ar  1 <1>  -0.1500 
 22 C       -7.1430    -2.8680     1.9300 C.ar  1 <1>   0.1600 
 23 C       -6.0700    -4.8130     1.7040 C.ar  1 <1>   0.1600 
 24 N       -6.9750    -4.1070     2.3630 N.ar  1 <1>  -0.6200 
 25 H       -1.3890     0.2490    -0.6540 H     1 <1>   0.3700 
 26 H       -3.4490    -0.7700    -2.5450 H     1 <1>   0.0800 
 27 H       -3.2520     4.1090    -2.1590 H     1 <1>   0.1500 
 28 H       -4.0780    -0.7200     0.0920 H     1 <1>   0.0800 
 29 H       -0.8490    -1.5640    -2.2590 H     1 <1>   0.0800 
 30 H       -2.1160    -2.7520    -2.5400 H     1 <1>   0.0800 
 31 H       -2.0720     6.1340    -1.3720 H     1 <1>   0.1500 
 32 H       -2.8560    -3.0850     0.8110 H     1 <1>   0.0800 
 33 H       -2.0650    -1.5300     0.9960 H     1 <1>   0.0800 
 34 H       -4.2860    -3.2720    -1.5420 H     1 <1>   0.0800 
 35 H       -5.4010    -1.9440    -1.6170 H     1 <1>   0.0800 
 36 H        1.3240     1.9000     1.0030 H     1 <1>   0.0800 
 37 H        0.1880     2.1160     2.3320 H     1 <1>   0.0800 
 38 H       -0.2700     5.9200     0.2590 H     1 <1>   0.1500 
 39 H        0.7960    -0.5400     0.9670 H     1 <1>   0.0800 
 40 H       -0.3050    -0.3110     2.3180 H     1 <1>   0.0800 
 41 H        1.4090    -0.0610     2.5300 H     1 <1>   0.0800 
 42 H       -6.6510    -1.2830     0.5900 H     1 <1>   0.1500 
 43 H       -4.6100    -4.9890     0.1620 H     1 <1>   0.1500 
 44 H       -7.8750    -2.2700     2.4460 H     1 <1>   0.1500 
 45 H       -5.9130    -5.8260     2.0340 H     1 <1>   0.1500 
@<TRIPOS>BOND
  1   1   2  2   
  2   2   3  am  
  3   2   4  1   
  4   3   5  1   
  5   3  25  1   
  6   4   6  ar  
  7   4   7  ar  
  8   5   8  1   
  9   5   9  1   
 10   5  26  1   
 11   6  10  1   
 12   6  11  ar  
 13   7  12  ar  
 14   7  27  1   
 15   8  13  1   
 16   8  14  1   
 17   8  28  1   
 18   9  15  1   
 19   9  29  1   
 20   9  30  1   
 21  10  16  1   
 22  11  17  ar  
 23  12  17  ar  
 24  12  31  1   
 25  13  15  1   
 26  13  32  1   
 27  13  33  1   
 28  14  18  1   
 29  14  34  1   
 30  14  35  1   
 31  16  19  1   
 32  16  36  1   
 33  16  37  1   
 34  17  38  1   
 35  18  20  ar  
 36  18  21  ar  
 37  19  39  1   
 38  19  40  1   
 39  19  41  1   
 40  20  22  ar  
 41  20  42  1   
 42  21  23  ar  
 43  21  43  1   
 44  22  24  ar  
 45  22  44  1   
 46  23  24  ar  
 47  23  45  1   
@<TRIPOS>SUBSTRUCTURE
  1 ****   3 GROUP 4 **** **** 0

# MOE 2024.06 (io_trps.svl 2023.06)
