@<TRIPOS>MOLECULE
NONAME
54 56 1 0 0 
SMALL
USER_CHARGES


@<TRIPOS>ATOM
  1 O       -0.0420     2.8950     2.5150 O.co2 1 <1>  -0.9000 
  2 C       -0.5940     2.5890     1.4490 C.2   1 <1>   0.9060 
  3 O       -0.0370     1.8420     0.6250 O.co2 1 <1>  -0.9000 
  4 C       -2.0580     3.0670     1.2220 C.3   1 <1>   0.2280 
  5 N       -3.0620     2.0250     0.7910 N.3   1 <1>  -0.8100 
  6 C       -2.1160     4.2290     0.2260 C.ar  1 <1>  -0.1440 
  7 C       -2.8880     0.7620     1.5460 C.3   1 <1>   0.1100 
  8 C       -4.4540     2.5070     0.8880 C.3   1 <1>   0.1100 
  9 C       -2.5590     5.4960     0.5950 C.ar  1 <1>   0.0830 
 10 C       -1.7300     4.0100    -1.0870 C.ar  1 <1>  -0.1500 
 11 C       -3.9090    -0.3080     1.1050 C.3   1 <1>   0.3430 
 12 C       -5.4440     1.4500     0.3470 C.3   1 <1>   0.3430 
 13 O       -2.9140     5.7690     1.8700 O.3   1 <1>  -0.3630 
 14 C       -2.6520     6.5110    -0.3450 C.ar  1 <1>  -0.1500 
 15 C       -1.8000     5.0300    -2.0310 C.ar  1 <1>   0.0830 
 16 N       -4.7180     0.1930    -0.0600 N.4   1 <1>  -0.9590 
 17 C       -1.8390     6.0890     2.7290 C.3   1 <1>   0.0400 
 18 C       -2.2740     6.2760    -1.6550 C.ar  1 <1>  -0.1500 
 19 O       -1.4160     4.8760    -3.3250 O.3   1 <1>  -0.3620 
 20 C       -5.5130    -0.8230    -0.8020 C.3   1 <1>   0.4230 
 21 C       -0.5880     3.7900    -3.6830 C.3   1 <1>   0.0400 
 22 C       -4.6060    -1.9780    -1.2480 C.3   1 <1>  -0.1600 
 23 C       -6.1900    -0.1760    -2.0170 C.3   1 <1>  -0.1600 
 24 C       -5.3430    -2.9140    -2.2080 C.3   1 <1>   0.1200 
 25 C       -6.8180    -1.2360    -2.9230 C.3   1 <1>   0.1200 
 26 O       -5.8390    -2.1600    -3.2620 O.3   1 <1>  -0.5600 
 27 H       -2.3710     3.4210     2.1850 H     1 <1>   0.0800 
 28 H       -2.9760     0.9450     2.6040 H     1 <1>   0.0800 
 29 H       -1.9010     0.3680     1.3690 H     1 <1>   0.0800 
 30 H       -4.5680     3.4110     0.3130 H     1 <1>   0.0800 
 31 H       -4.6900     2.7440     1.9110 H     1 <1>   0.0800 
 32 H       -1.3740     3.0290    -1.3460 H     1 <1>   0.1500 
 33 H       -4.5560    -0.5510     1.9320 H     1 <1>   0.0800 
 34 H       -3.3630    -1.1950     0.8360 H     1 <1>   0.0800 
 35 H       -5.9500     1.8760    -0.5020 H     1 <1>   0.0800 
 36 H       -6.1820     1.2300     1.0990 H     1 <1>   0.0800 
 37 H       -3.0130     7.4770    -0.0450 H     1 <1>   0.1500 
 38 H       -3.9760     0.5660    -0.6800 H     1 <1>   0.4500 
 39 H       -2.2300     6.2460     3.7180 H     1 <1>   0.0800 
 40 H       -1.3630     6.9840     2.3710 H     1 <1>   0.0800 
 41 H       -1.1320     5.2770     2.7400 H     1 <1>   0.0800 
 42 H       -2.3360     7.0570    -2.3910 H     1 <1>   0.1500 
 43 H       -6.2790    -1.2210    -0.1560 H     1 <1>   0.0800 
 44 H       -0.2680     3.9330    -4.6990 H     1 <1>   0.0800 
 45 H       -1.1510     2.8790    -3.6010 H     1 <1>   0.0800 
 46 H        0.2660     3.7700    -3.0270 H     1 <1>   0.0800 
 47 H       -4.2870    -2.5600    -0.4040 H     1 <1>   0.0800 
 48 H       -3.7370    -1.5960    -1.7550 H     1 <1>   0.0800 
 49 H       -5.4690     0.3740    -2.5970 H     1 <1>   0.0800 
 50 H       -6.9700     0.4940    -1.7060 H     1 <1>   0.0800 
 51 H       -6.1620    -3.4240    -1.7280 H     1 <1>   0.0800 
 52 H       -4.6680    -3.6460    -2.6180 H     1 <1>   0.0800 
 53 H       -7.1790    -0.7920    -3.8350 H     1 <1>   0.0800 
 54 H       -7.6320    -1.7520    -2.4400 H     1 <1>   0.0800 
@<TRIPOS>BOND
  1   1   2  ar  
  2   2   3  ar  
  3   2   4  1   
  4   4   5  1   
  5   4   6  1   
  6   4  27  1   
  7   5   7  1   
  8   5   8  1   
  9   6   9  ar  
 10   6  10  ar  
 11   7  11  1   
 12   7  28  1   
 13   7  29  1   
 14   8  12  1   
 15   8  30  1   
 16   8  31  1   
 17   9  13  1   
 18   9  14  ar  
 19  10  15  ar  
 20  10  32  1   
 21  11  16  1   
 22  11  33  1   
 23  11  34  1   
 24  12  16  1   
 25  12  35  1   
 26  12  36  1   
 27  13  17  1   
 28  14  18  ar  
 29  14  37  1   
 30  15  18  ar  
 31  15  19  1   
 32  16  20  1   
 33  16  38  1   
 34  17  39  1   
 35  17  40  1   
 36  17  41  1   
 37  18  42  1   
 38  19  21  1   
 39  20  22  1   
 40  20  23  1   
 41  20  43  1   
 42  21  44  1   
 43  21  45  1   
 44  21  46  1   
 45  22  24  1   
 46  22  47  1   
 47  22  48  1   
 48  23  25  1   
 49  23  49  1   
 50  23  50  1   
 51  24  26  1   
 52  24  51  1   
 53  24  52  1   
 54  25  26  1   
 55  25  53  1   
 56  25  54  1   
@<TRIPOS>SUBSTRUCTURE
  1 ****   5 GROUP 4 **** **** 0

# MOE 2024.06 (io_trps.svl 2023.06)
