@<TRIPOS>MOLECULE
NONAME
46 49 1 0 0 
SMALL
USER_CHARGES


@<TRIPOS>ATOM
  1 O        1.0880    -0.1730     2.2640 O.2   1 <1>  -0.5700 
  2 C        1.7190    -0.9850     1.5990 C.2   1 <1>   0.5650 
  3 N        2.7980    -0.6160     0.7500 N.pl3 1 <1>   0.5610 
  4 C        1.3900    -2.3710     1.6480 C.2   1 <1>  -0.1360 
  5 N        3.3540     0.6180     0.4890 N.2   1 <1>  -0.7070 
  6 C        3.4640    -1.5740     0.0230 C.2   1 <1>  -0.0680 
  7 C        2.0510    -3.3140     0.9210 C.2   1 <1>  -0.0380 
  8 C        4.3090     0.3940    -0.3550 C.2   1 <1>   0.1080 
  9 N        3.0940    -2.9270     0.1060 N.pl3 1 <1>  -0.5840 
 10 C        4.4300    -0.9500    -0.6860 C.2   1 <1>  -0.1500 
 11 C        1.7110    -4.8040     0.9670 C.3   1 <1>   0.2480 
 12 C        5.1760     1.5060    -0.8980 C.3   1 <1>  -0.0590 
 13 N        0.2810    -5.0450     1.2400 N.3   1 <1>  -0.8100 
 14 C       -0.5900    -4.5450     0.1510 C.3   1 <1>   0.1100 
 15 C        0.0120    -6.4890     1.3930 C.3   1 <1>   0.1100 
 16 C       -1.6680    -5.6070    -0.0530 C.3   1 <1>   0.2000 
 17 C       -0.9310    -6.9030     0.2550 C.3   1 <1>  -0.0800 
 18 O       -2.6410    -5.4230     0.9130 O.3   1 <1>  -0.6800 
 19 C       -0.1790    -7.4180    -0.9910 C.3   1 <1>  -0.0160 
 20 C        0.6690    -8.6450    -0.6990 C.ar  1 <1>   0.1670 
 21 N        1.9670    -8.4380    -0.5290 N.ar  1 <1>  -0.6200 
 22 C        0.0640    -9.8910    -0.6290 C.ar  1 <1>  -0.1500 
 23 C        2.6890    -9.5210    -0.2810 C.ar  1 <1>   0.1600 
 24 C        0.8280   -11.0070    -0.3680 C.ar  1 <1>  -0.1500 
 25 C        2.1800   -10.8050    -0.1900 C.ar  1 <1>  -0.1500 
 26 H        0.5790    -2.6360     2.3000 H     1 <1>   0.1500 
 27 H        3.6200    -3.6170    -0.4480 H     1 <1>   0.4000 
 28 H        5.1470    -1.3770    -1.3630 H     1 <1>   0.1500 
 29 H        2.3020    -5.2620     1.7410 H     1 <1>   0.0800 
 30 H        1.9760    -5.2690     0.0320 H     1 <1>   0.0800 
 31 H        5.9080     1.1170    -1.5810 H     1 <1>   0.0800 
 32 H        5.6770     1.9990    -0.0850 H     1 <1>   0.0800 
 33 H        4.5600     2.2230    -1.4100 H     1 <1>   0.0800 
 34 H       -1.0170    -3.5890     0.4000 H     1 <1>   0.0800 
 35 H       -0.0260    -4.4420    -0.7600 H     1 <1>   0.0800 
 36 H        0.9150    -7.0750     1.4140 H     1 <1>   0.0800 
 37 H       -0.4910    -6.6350     2.3340 H     1 <1>   0.0800 
 38 H       -2.1340    -5.5770    -1.0230 H     1 <1>   0.0800 
 39 H       -1.6130    -7.6680     0.5850 H     1 <1>   0.0800 
 40 H       -2.1810    -5.2200     1.7540 H     1 <1>   0.4000 
 41 H        0.4580    -6.6490    -1.3910 H     1 <1>   0.0800 
 42 H       -0.8930    -7.6680    -1.7550 H     1 <1>   0.0800 
 43 H       -0.9960    -9.9880    -0.7770 H     1 <1>   0.1500 
 44 H        3.7470    -9.3780    -0.1420 H     1 <1>   0.1500 
 45 H        0.3920   -11.9890    -0.3060 H     1 <1>   0.1500 
 46 H        2.8340   -11.6320     0.0160 H     1 <1>   0.1500 
@<TRIPOS>BOND
  1   1   2  2   
  2   2   3  1   
  3   2   4  1   
  4   3   5  1   
  5   3   6  1   
  6   4   7  2   
  7   4  26  1   
  8   5   8  2   
  9   6   9  1   
 10   6  10  2   
 11   7   9  1   
 12   7  11  1   
 13   8  10  1   
 14   8  12  1   
 15   9  27  1   
 16  10  28  1   
 17  11  13  1   
 18  11  29  1   
 19  11  30  1   
 20  12  31  1   
 21  12  32  1   
 22  12  33  1   
 23  13  14  1   
 24  13  15  1   
 25  14  16  1   
 26  14  34  1   
 27  14  35  1   
 28  15  17  1   
 29  15  36  1   
 30  15  37  1   
 31  16  17  1   
 32  16  18  1   
 33  16  38  1   
 34  17  19  1   
 35  17  39  1   
 36  18  40  1   
 37  19  20  1   
 38  19  41  1   
 39  19  42  1   
 40  20  21  ar  
 41  20  22  ar  
 42  21  23  ar  
 43  22  24  ar  
 44  22  43  1   
 45  23  25  ar  
 46  23  44  1   
 47  24  25  ar  
 48  24  45  1   
 49  25  46  1   
@<TRIPOS>SUBSTRUCTURE
  1 ****  11 GROUP 4 **** **** 0

# MOE 2024.06 (io_trps.svl 2023.06)
