@<TRIPOS>MOLECULE
NONAME
53 56 1 0 0 
SMALL
USER_CHARGES


@<TRIPOS>ATOM
  1 O       -1.0200    -0.2100    -0.6130 O.2   1 <1>  -0.5700 
  2 C       -1.7830     0.6680    -0.9810 C.2   1 <1>   0.5440 
  3 N       -3.0890     0.2980    -1.2350 N.am  1 <1>  -0.6600 
  4 C       -1.3540     2.0450    -1.1120 C.ar  1 <1>   0.0860 
  5 C       -3.4060    -1.1340    -1.4390 C.3   1 <1>   0.1400 
  6 C       -4.2120     1.0480    -0.6000 C.3   1 <1>   0.1400 
  7 C       -0.4730     2.6330    -0.1800 C.ar  1 <1>   0.0000 
  8 C       -1.8020     2.8500    -2.1510 C.ar  1 <1>  -0.1500 
  9 C       -3.8070    -1.6290    -0.0430 C.3   1 <1>   0.4230 
 10 C       -4.7760     0.2700     0.6230 C.3   1 <1>  -0.1600 
 11 C       -0.0920     3.9690    -0.3040 C.ar  1 <1>  -0.1520 
 12 C        0.1770     2.1510     0.9760 C.2   1 <1>  -0.1500 
 13 C       -1.4140     4.1860    -2.2760 C.ar  1 <1>  -0.1500 
 14 N       -3.3150    -2.9930     0.3680 N.4   1 <1>  -0.9590 
 15 C       -5.3210    -1.2170     0.2620 C.3   1 <1>   0.0000 
 16 N        0.7530     4.2830     0.7340 N.pl3 1 <1>   0.0480 
 17 C       -0.5630     4.7530    -1.3580 C.ar  1 <1>  -0.1500 
 18 C        0.9040     3.1660     1.5010 C.2   1 <1>  -0.3020 
 19 C       -3.7710    -4.0750    -0.5140 C.3   1 <1>   0.3430 
 20 C       -1.8230    -2.9860     0.5190 C.3   1 <1>   0.2630 
 21 C       -5.9030    -2.6650    -0.1620 C.3   1 <1>  -0.1600 
 22 C       -6.8080    -0.7630     0.6520 C.3   1 <1>   0.1200 
 23 C        1.3940     5.5870     0.9690 C.3   1 <1>   0.0160 
 24 C       -5.1500    -3.7110    -1.0250 C.3   1 <1>  -0.1600 
 25 O       -6.9020    -0.7630     2.0420 O.3   1 <1>  -0.6800 
 26 H       -4.2150    -1.2250    -2.1410 H     1 <1>   0.0800 
 27 H       -2.5450    -1.6560    -1.8190 H     1 <1>   0.0800 
 28 H       -3.8710     2.0190    -0.2780 H     1 <1>   0.0800 
 29 H       -4.9890     1.2000    -1.3300 H     1 <1>   0.0800 
 30 H       -2.4660     2.4380    -2.8900 H     1 <1>   0.1500 
 31 H       -3.1660    -1.0340     0.5790 H     1 <1>   0.0800 
 32 H       -4.0410     0.2520     1.4130 H     1 <1>   0.0800 
 33 H       -5.4600     0.9810     1.0590 H     1 <1>   0.0800 
 34 H        0.0940     1.1440     1.3430 H     1 <1>   0.1500 
 35 H       -1.7870     4.7690    -3.1000 H     1 <1>   0.1500 
 36 H       -3.7350    -3.1530     1.2950 H     1 <1>   0.4500 
 37 H       -0.2590     5.7810    -1.4460 H     1 <1>   0.1500 
 38 H        1.5260     3.1550     2.3780 H     1 <1>   0.1500 
 39 H       -3.0970    -4.1960    -1.3480 H     1 <1>   0.0800 
 40 H       -3.8090    -5.0020     0.0370 H     1 <1>   0.0800 
 41 H       -1.3480    -2.7950    -0.4300 H     1 <1>   0.0800 
 42 H       -1.4760    -3.9330     0.8980 H     1 <1>   0.0800 
 43 H       -1.5210    -2.2080     1.2020 H     1 <1>   0.0800 
 44 H       -6.2200    -3.1740     0.7370 H     1 <1>   0.0800 
 45 H       -6.7680    -2.5610    -0.7980 H     1 <1>   0.0800 
 46 H       -7.6540    -1.3530     0.3440 H     1 <1>   0.0800 
 47 H       -7.0750     0.2130     0.2770 H     1 <1>   0.0800 
 48 H        2.0000     5.5370     1.8550 H     1 <1>   0.0800 
 49 H        0.6350     6.3370     1.0940 H     1 <1>   0.0800 
 50 H        2.0120     5.8330     0.1250 H     1 <1>   0.0800 
 51 H       -5.0560    -3.3490    -2.0340 H     1 <1>   0.0800 
 52 H       -5.7350    -4.6130    -1.0900 H     1 <1>   0.0800 
 53 H       -7.7890    -0.4710     2.3390 H     1 <1>   0.4000 
@<TRIPOS>BOND
  1   1   2  2   
  2   2   3  am  
  3   2   4  1   
  4   3   5  1   
  5   3   6  1   
  6   4   7  ar  
  7   4   8  ar  
  8   5   9  1   
  9   5  26  1   
 10   5  27  1   
 11   6  10  1   
 12   6  28  1   
 13   6  29  1   
 14   7  11  ar  
 15   7  12  1   
 16   8  13  ar  
 17   8  30  1   
 18   9  14  1   
 19   9  15  1   
 20   9  31  1   
 21  10  15  1   
 22  10  32  1   
 23  10  33  1   
 24  11  16  1   
 25  11  17  ar  
 26  12  18  2   
 27  12  34  1   
 28  13  17  ar  
 29  13  35  1   
 30  14  19  1   
 31  14  20  1   
 32  14  36  1   
 33  15  21  1   
 34  15  22  1   
 35  16  18  1   
 36  16  23  1   
 37  17  37  1   
 38  18  38  1   
 39  19  24  1   
 40  19  39  1   
 41  19  40  1   
 42  20  41  1   
 43  20  42  1   
 44  20  43  1   
 45  21  24  1   
 46  21  44  1   
 47  21  45  1   
 48  22  25  1   
 49  22  46  1   
 50  22  47  1   
 51  23  48  1   
 52  23  49  1   
 53  23  50  1   
 54  24  51  1   
 55  24  52  1   
 56  25  53  1   
@<TRIPOS>SUBSTRUCTURE
  1 ****   2 GROUP 4 **** **** 0

# MOE 2024.06 (io_trps.svl 2023.06)
