@<TRIPOS>MOLECULE
NONAME
54 57 1 0 0 
SMALL
USER_CHARGES


@<TRIPOS>ATOM
  1 O        3.6550     0.2450     1.7470 O.2   1 <1>  -0.5700 
  2 C        3.0300    -0.4990     1.0150 C.2   1 <1>   0.5440 
  3 N        3.4200    -0.5190    -0.3020 N.am  1 <1>  -0.6600 
  4 C        2.0510    -1.4270     1.5500 C.ar  1 <1>   0.0860 
  5 C        4.2530    -1.6580    -0.7910 C.3   1 <1>   0.1400 
  6 C        3.5060     0.7390    -1.1000 C.3   1 <1>   0.1400 
  7 C        0.8840    -1.8290     0.8950 C.ar  1 <1>  -0.1440 
  8 C        2.2910    -1.9790     2.8090 C.ar  1 <1>   0.1600 
  9 C        5.6620    -1.6390    -0.1510 C.3   1 <1>   0.3430 
 10 C        4.8040     1.5270    -0.8500 C.3   1 <1>  -0.1600 
 11 C        0.0920    -2.7630     1.5340 C.ar  1 <1>  -0.1500 
 12 C        0.4430    -1.2820    -0.4560 C.3   1 <1>  -0.0970 
 13 N        1.5470    -2.8790     3.4260 N.ar  1 <1>  -0.6200 
 14 N        6.0700    -0.2560     0.2560 N.4   1 <1>  -0.9590 
 15 C        6.0930     0.7040    -0.8780 C.3   1 <1>   0.3430 
 16 C        0.4610    -3.2520     2.7740 C.ar  1 <1>   0.1600 
 17 C        7.2750    -0.2180     1.1070 C.3   1 <1>   0.5230 
 18 C        7.2940     1.1230     1.7900 C.2   1 <1>  -0.3320 
 19 N        8.1850     2.0960     1.4690 N.pl3 1 <1>   0.5930 
 20 C        6.4910     1.6070     2.7630 C.2   1 <1>  -0.1500 
 21 N        7.9360     3.2020     2.2010 N.2   1 <1>  -0.7070 
 22 C        9.1520     2.0420     0.4300 C.ar  1 <1>  -0.0230 
 23 C        6.9410     2.9030     2.9740 C.2   1 <1>   0.1390 
 24 C        9.0390     2.8810    -0.6740 C.ar  1 <1>  -0.1500 
 25 C       10.2110     1.1400     0.4820 C.ar  1 <1>  -0.1500 
 26 C        9.9400     2.7940    -1.7200 C.ar  1 <1>  -0.1500 
 27 C       11.1110     1.0520    -0.5640 C.ar  1 <1>  -0.1500 
 28 C       10.9720     1.8740    -1.6690 C.ar  1 <1>  -0.1500 
 29 H        4.3440    -1.6040    -1.8620 H     1 <1>   0.0800 
 30 H        3.7670    -2.5910    -0.5580 H     1 <1>   0.0800 
 31 H        2.6660     1.3670    -0.8510 H     1 <1>   0.0800 
 32 H        3.4240     0.4950    -2.1460 H     1 <1>   0.0800 
 33 H        3.1680    -1.6530     3.3420 H     1 <1>   0.1500 
 34 H        6.3780    -2.0600    -0.8360 H     1 <1>   0.0800 
 35 H        5.6360    -2.2680     0.7240 H     1 <1>   0.0800 
 36 H        4.7330     2.0440     0.0920 H     1 <1>   0.0800 
 37 H        4.8760     2.2890    -1.6050 H     1 <1>   0.0800 
 38 H       -0.8170    -3.1180     1.0830 H     1 <1>   0.1500 
 39 H        0.5440    -0.2110    -0.4770 H     1 <1>   0.0800 
 40 H       -0.5890    -1.5190    -0.6470 H     1 <1>   0.0800 
 41 H        1.0380    -1.7080    -1.2430 H     1 <1>   0.0800 
 42 H        5.2910     0.0870     0.8620 H     1 <1>   0.4500 
 43 H        6.9320     1.3730    -0.7800 H     1 <1>   0.0800 
 44 H        6.1860     0.1830    -1.8160 H     1 <1>   0.0800 
 45 H       -0.1700    -3.9820     3.2540 H     1 <1>   0.1500 
 46 H        8.1620    -0.3730     0.5150 H     1 <1>   0.0800 
 47 H        7.2170    -0.9910     1.8570 H     1 <1>   0.0800 
 48 H        5.6670     1.1450     3.2820 H     1 <1>   0.1500 
 49 H        6.5160     3.5880     3.6900 H     1 <1>   0.1500 
 50 H        8.2500     3.6140    -0.7100 H     1 <1>   0.1500 
 51 H       10.3450     0.5110     1.3460 H     1 <1>   0.1500 
 52 H        9.8460     3.4470    -2.5720 H     1 <1>   0.1500 
 53 H       11.9280     0.3510    -0.5200 H     1 <1>   0.1500 
 54 H       11.6750     1.8070    -2.4820 H     1 <1>   0.1500 
@<TRIPOS>BOND
  1   1   2  2   
  2   2   3  am  
  3   2   4  1   
  4   3   5  1   
  5   3   6  1   
  6   4   7  ar  
  7   4   8  ar  
  8   5   9  1   
  9   5  29  1   
 10   5  30  1   
 11   6  10  1   
 12   6  31  1   
 13   6  32  1   
 14   7  11  ar  
 15   7  12  1   
 16   8  13  ar  
 17   8  33  1   
 18   9  14  1   
 19   9  34  1   
 20   9  35  1   
 21  10  15  1   
 22  10  36  1   
 23  10  37  1   
 24  11  16  ar  
 25  11  38  1   
 26  12  39  1   
 27  12  40  1   
 28  12  41  1   
 29  13  16  ar  
 30  14  15  1   
 31  14  17  1   
 32  14  42  1   
 33  15  43  1   
 34  15  44  1   
 35  16  45  1   
 36  17  18  1   
 37  17  46  1   
 38  17  47  1   
 39  18  19  1   
 40  18  20  2   
 41  19  21  1   
 42  19  22  1   
 43  20  23  1   
 44  20  48  1   
 45  21  23  2   
 46  22  24  ar  
 47  22  25  ar  
 48  23  49  1   
 49  24  26  ar  
 50  24  50  1   
 51  25  27  ar  
 52  25  51  1   
 53  26  28  ar  
 54  26  52  1   
 55  27  28  ar  
 56  27  53  1   
 57  28  54  1   
@<TRIPOS>SUBSTRUCTURE
  1 ****  14 GROUP 4 **** **** 0

# MOE 2024.06 (io_trps.svl 2023.06)
