@<TRIPOS>MOLECULE
NONAME
47 50 1 0 0 
SMALL
USER_CHARGES


@<TRIPOS>ATOM
  1 O        2.8790     0.6420     3.4350 O.2   1 <1>  -0.5700 
  2 C        2.9270    -0.1000     2.4740 C.2   1 <1>   0.7160 
  3 N        2.2700    -1.2890     2.5390 N.am  1 <1>  -0.4900 
  4 C        3.6130     0.1630     1.2640 C.2   1 <1>  -0.0860 
  5 C        2.2700    -2.1770     1.4830 C.2   1 <1>   0.4490 
  6 C        3.5770    -0.7620     0.2680 C.2   1 <1>  -0.0260 
  7 C        4.3890     1.2010     0.7540 C.2   1 <1>   0.1390 
  8 N        2.8910    -1.9580     0.3720 N.2   1 <1>  -0.5760 
  9 C        1.4760    -3.4870     1.6360 C.3   1 <1>   0.4040 
 10 N        4.3080    -0.2600    -0.7560 N.pl3 1 <1>   0.3140 
 11 N        4.8060     0.9580    -0.4500 N.2   1 <1>  -0.7070 
 12 N        1.1040    -4.0890     0.3030 N.4   1 <1>  -0.9590 
 13 C        4.5710    -0.8860    -2.0570 C.3   1 <1>   0.0160 
 14 C       -0.2860    -3.7350    -0.1030 C.3   1 <1>   0.4230 
 15 C        1.3380    -5.5660     0.2980 C.3   1 <1>   0.2630 
 16 C       -0.6480    -4.2880    -1.4740 C.3   1 <1>  -0.1600 
 17 C       -0.4890    -2.2300    -0.2660 C.3   1 <1>  -0.1600 
 18 C       -1.8350    -3.4330    -1.9320 C.3   1 <1>  -0.0800 
 19 C       -1.6660    -2.0680    -1.2430 C.3   1 <1>  -0.0800 
 20 C       -3.1920    -3.9910    -1.4600 C.3   1 <1>  -0.1600 
 21 C       -3.0040    -1.7750    -0.5450 C.3   1 <1>  -0.1600 
 22 C       -3.6560    -3.1270    -0.2930 C.3   1 <1>   0.2000 
 23 O       -3.1490    -3.6470     0.8860 O.3   1 <1>  -0.6800 
 24 H        1.7950    -1.4450     3.4260 H     1 <1>   0.3700 
 25 H        4.6180     2.1040     1.2960 H     1 <1>   0.1500 
 26 H        0.5850    -3.3020     2.2100 H     1 <1>   0.0800 
 27 H        2.0910    -4.1780     2.1860 H     1 <1>   0.0800 
 28 H        1.7420    -3.6370    -0.3770 H     1 <1>   0.4500 
 29 H        4.5360    -1.9540    -1.9550 H     1 <1>   0.0800 
 30 H        5.5450    -0.5860    -2.3980 H     1 <1>   0.0800 
 31 H        3.8280    -0.5580    -2.7590 H     1 <1>   0.0800 
 32 H       -0.9890    -4.1160     0.6180 H     1 <1>   0.0800 
 33 H        0.6660    -6.0540     0.9860 H     1 <1>   0.0800 
 34 H        2.3530    -5.7860     0.5860 H     1 <1>   0.0800 
 35 H        1.1710    -5.9690    -0.6870 H     1 <1>   0.0800 
 36 H        0.1670    -4.1350    -2.1590 H     1 <1>   0.0800 
 37 H       -0.9030    -5.3320    -1.4400 H     1 <1>   0.0800 
 38 H       -0.6850    -1.7490     0.6740 H     1 <1>   0.0800 
 39 H        0.3770    -1.7870    -0.7240 H     1 <1>   0.0800 
 40 H       -1.8360    -3.3360    -3.0060 H     1 <1>   0.0800 
 41 H       -1.4460    -1.2910    -1.9570 H     1 <1>   0.0800 
 42 H       -3.1740    -5.0360    -1.2040 H     1 <1>   0.0800 
 43 H       -3.8990    -3.8640    -2.2610 H     1 <1>   0.0800 
 44 H       -3.6280    -1.2330    -1.2340 H     1 <1>   0.0800 
 45 H       -2.9090    -1.1840     0.3490 H     1 <1>   0.0800 
 46 H       -4.7310    -3.0780    -0.2180 H     1 <1>   0.0800 
 47 H       -3.6760    -3.3080     1.6370 H     1 <1>   0.4000 
@<TRIPOS>BOND
  1   1   2  2   
  2   2   3  am  
  3   2   4  1   
  4   3   5  1   
  5   3  24  1   
  6   4   6  2   
  7   4   7  1   
  8   5   8  2   
  9   5   9  1   
 10   6   8  1   
 11   6  10  1   
 12   7  11  2   
 13   7  25  1   
 14   9  12  1   
 15   9  26  1   
 16   9  27  1   
 17  10  11  1   
 18  10  13  1   
 19  12  14  1   
 20  12  15  1   
 21  12  28  1   
 22  13  29  1   
 23  13  30  1   
 24  13  31  1   
 25  14  16  1   
 26  14  17  1   
 27  14  32  1   
 28  15  33  1   
 29  15  34  1   
 30  15  35  1   
 31  16  18  1   
 32  16  36  1   
 33  16  37  1   
 34  17  19  1   
 35  17  38  1   
 36  17  39  1   
 37  18  19  1   
 38  18  20  1   
 39  18  40  1   
 40  19  21  1   
 41  19  41  1   
 42  20  22  1   
 43  20  42  1   
 44  20  43  1   
 45  21  22  1   
 46  21  44  1   
 47  21  45  1   
 48  22  23  1   
 49  22  46  1   
 50  23  47  1   
@<TRIPOS>SUBSTRUCTURE
  1 ****  17 GROUP 4 **** **** 0

# MOE 2024.06 (io_trps.svl 2023.06)
