@<TRIPOS>MOLECULE
NONAME
47 49 1 0 0 
SMALL
USER_CHARGES


@<TRIPOS>ATOM
  1 O       -0.0070    -0.0380     2.4110 O.2   1 <1>  -0.5700 
  2 C        0.5370    -0.6410     1.5140 C.2   1 <1>   0.5690 
  3 N        1.4110    -0.0880     0.6300 N.am  1 <1>  -0.4930 
  4 C        0.2340    -2.1280     1.3340 C.3   1 <1>   0.1710 
  5 C        1.8920     1.2410     0.5230 C.2   1 <1>   0.0630 
  6 N        0.4410    -2.6240    -0.0640 N.3   1 <1>  -0.8100 
  7 C        2.7640     1.7450    -0.4450 C.2   1 <1>   0.1080 
  8 C        1.6230     2.2980     1.3140 C.2   1 <1>  -0.3020 
  9 C       -0.6090    -2.1460    -0.9860 C.3   1 <1>   0.1100 
 10 C        0.3430    -4.0860    -0.1230 C.3   1 <1>   0.1100 
 11 N        3.0160     3.0060    -0.2720 N.2   1 <1>  -0.7070 
 12 C        3.3670     0.9470    -1.5780 C.3   1 <1>  -0.0590 
 13 N        2.3080     3.3480     0.8180 N.pl3 1 <1>   0.3140 
 14 C       -1.7260    -3.1970    -0.9940 C.3   1 <1>   0.2000 
 15 C       -1.1460    -4.4100    -0.2650 C.3   1 <1>  -0.0800 
 16 C        2.3240     4.7100     1.3590 C.3   1 <1>   0.0160 
 17 O       -2.8360    -2.7360    -0.3060 O.3   1 <1>  -0.6800 
 18 C       -1.4130    -5.7340    -0.9950 C.3   1 <1>  -0.0170 
 19 C       -0.7620    -6.8960    -0.2610 C.ar  1 <1>  -0.1430 
 20 C       -1.3120    -7.4230     0.8900 C.ar  1 <1>  -0.1500 
 21 C        0.4120    -7.4760    -0.6970 C.ar  1 <1>  -0.1500 
 22 C       -0.6750    -8.4690     1.5360 C.ar  1 <1>   0.1600 
 23 C        0.9680    -8.5200     0.0240 C.ar  1 <1>   0.1600 
 24 N        0.4550    -9.0270     1.1320 N.ar  1 <1>  -0.6200 
 25 H        1.7160    -0.7480    -0.0890 H     1 <1>   0.3700 
 26 H       -0.7740    -2.3130     1.6550 H     1 <1>   0.0800 
 27 H        0.8920    -2.6610     1.9970 H     1 <1>   0.0800 
 28 H        0.9940     2.3500     2.1820 H     1 <1>   0.1500 
 29 H       -0.9740    -1.1660    -0.7270 H     1 <1>   0.0800 
 30 H       -0.1850    -2.0970    -1.9740 H     1 <1>   0.0800 
 31 H        0.8740    -4.4260    -0.9960 H     1 <1>   0.0800 
 32 H        0.7780    -4.5590     0.7430 H     1 <1>   0.0800 
 33 H        3.9780     0.1580    -1.1820 H     1 <1>   0.0800 
 34 H        3.9790     1.5870    -2.1880 H     1 <1>   0.0800 
 35 H        2.5870     0.5290    -2.1860 H     1 <1>   0.0800 
 36 H       -2.0310    -3.4210    -2.0030 H     1 <1>   0.0800 
 37 H       -1.5610    -4.4760     0.7260 H     1 <1>   0.0800 
 38 H        1.3210     5.0060     1.6030 H     1 <1>   0.0800 
 39 H        2.7290     5.3760     0.6200 H     1 <1>   0.0800 
 40 H        2.9380     4.7300     2.2390 H     1 <1>   0.0800 
 41 H       -2.5740    -2.3990     0.5720 H     1 <1>   0.4000 
 42 H       -1.0370    -5.6830    -2.0020 H     1 <1>   0.0800 
 43 H       -2.4750    -5.9010    -1.0530 H     1 <1>   0.0800 
 44 H       -2.2290    -7.0300     1.2900 H     1 <1>   0.1500 
 45 H        0.9020    -7.1290    -1.5880 H     1 <1>   0.1500 
 46 H       -1.1180    -8.8690     2.4320 H     1 <1>   0.1500 
 47 H        1.8840    -8.9610    -0.3300 H     1 <1>   0.1500 
@<TRIPOS>BOND
  1   1   2  2   
  2   2   3  am  
  3   2   4  1   
  4   3   5  1   
  5   3  25  1   
  6   4   6  1   
  7   4  26  1   
  8   4  27  1   
  9   5   7  1   
 10   5   8  2   
 11   6   9  1   
 12   6  10  1   
 13   7  11  2   
 14   7  12  1   
 15   8  13  1   
 16   8  28  1   
 17   9  14  1   
 18   9  29  1   
 19   9  30  1   
 20  10  15  1   
 21  10  31  1   
 22  10  32  1   
 23  11  13  1   
 24  12  33  1   
 25  12  34  1   
 26  12  35  1   
 27  13  16  1   
 28  14  15  1   
 29  14  17  1   
 30  14  36  1   
 31  15  18  1   
 32  15  37  1   
 33  16  38  1   
 34  16  39  1   
 35  16  40  1   
 36  17  41  1   
 37  18  19  1   
 38  18  42  1   
 39  18  43  1   
 40  19  20  ar  
 41  19  21  ar  
 42  20  22  ar  
 43  20  44  1   
 44  21  23  ar  
 45  21  45  1   
 46  22  24  ar  
 47  22  46  1   
 48  23  24  ar  
 49  23  47  1   
@<TRIPOS>SUBSTRUCTURE
  1 ****   6 GROUP 4 **** **** 0

# MOE 2024.06 (io_trps.svl 2023.06)
