@<TRIPOS>MOLECULE
NONAME
58 62 1 0 0 
SMALL
USER_CHARGES


@<TRIPOS>ATOM
  1 O       -4.1010     1.3820    -1.8870 O.2   1 <1>  -0.5700 
  2 C       -3.1880     1.2880    -1.0830 C.2   1 <1>   0.7160 
  3 N       -2.7030     0.0350    -0.8140 N.am  1 <1>  -0.6600 
  4 C       -2.6770     2.4230    -0.3830 C.2   1 <1>  -0.0860 
  5 C       -2.2810    -0.3740     0.5510 C.3   1 <1>   0.2350 
  6 C       -3.1020    -1.1720    -1.5810 C.3   1 <1>   0.2350 
  7 C       -3.4240     3.3450     0.3530 C.2   1 <1>   0.3720 
  8 C       -1.3940     2.8230    -0.1810 C.2   1 <1>   0.0870 
  9 C       -3.1000    -1.6400     0.8070 C.3   1 <1>  -0.1950 
 10 C       -3.6100    -2.1200    -0.5000 C.3   1 <1>  -0.1950 
 11 N       -2.6610     4.2000     0.9370 N.2   1 <1>  -0.4100 
 12 N       -4.8180     3.3430     0.4700 N.pl3 1 <1>  -0.8210 
 13 O       -1.4420     3.8710     0.6000 O.3   1 <1>  -0.0190 
 14 C       -0.1300     2.3010    -0.6350 C.ar  1 <1>   0.0530 
 15 C       -4.5900    -1.7610     0.5900 C.3   1 <1>  -0.1950 
 16 C       -5.3310     3.8440     1.7870 C.3   1 <1>   0.2090 
 17 C       -5.4750     4.0790    -0.6670 C.3   1 <1>   0.2090 
 18 C        0.0050     1.6770    -1.8760 C.ar  1 <1>  -0.1500 
 19 C        1.0100     2.3970     0.1640 C.ar  1 <1>  -0.1500 
 20 C       -5.4480    -0.4850     0.6700 C.3   1 <1>   0.4380 
 21 C       -6.8740     3.7660     1.8770 C.3   1 <1>   0.1200 
 22 C       -6.8940     4.5870    -0.3240 C.3   1 <1>   0.1200 
 23 C        1.2170     1.1610    -2.2940 C.ar  1 <1>  -0.1500 
 24 C        2.2260     1.8840    -0.2500 C.ar  1 <1>  -0.1500 
 25 N       -6.1570    -0.2120    -0.6100 N.4   1 <1>  -0.9590 
 26 O       -7.5020     3.7460     0.6180 O.3   1 <1>  -0.5600 
 27 C        2.3310     1.2610    -1.4800 C.ar  1 <1>  -0.1500 
 28 C       -7.0710     0.9530    -0.4440 C.3   1 <1>   0.2630 
 29 C       -6.8800    -1.3890    -1.1730 C.3   1 <1>   0.2630 
 30 H       -1.2260    -0.5960     0.5480 H     1 <1>   0.0800 
 31 H       -2.4880     0.3840     1.2880 H     1 <1>   0.0800 
 32 H       -3.8540    -0.9690    -2.3230 H     1 <1>   0.0800 
 33 H       -2.2320    -1.5860    -2.0630 H     1 <1>   0.0800 
 34 H       -2.6360    -2.3320     1.4910 H     1 <1>   0.1000 
 35 H       -3.5050    -3.1610    -0.7560 H     1 <1>   0.1000 
 36 H       -5.0750    -2.5830     1.0870 H     1 <1>   0.1000 
 37 H       -4.8910     3.2810     2.5920 H     1 <1>   0.0800 
 38 H       -5.0310     4.8710     1.9160 H     1 <1>   0.0800 
 39 H       -4.8670     4.9170    -0.9660 H     1 <1>   0.0800 
 40 H       -5.5450     3.4200    -1.5140 H     1 <1>   0.0800 
 41 H       -0.8450     1.6000    -2.5290 H     1 <1>   0.1500 
 42 H        0.9440     2.8810     1.1230 H     1 <1>   0.1500 
 43 H       -4.8160     0.3590     0.8990 H     1 <1>   0.0800 
 44 H       -6.1600    -0.5880     1.4720 H     1 <1>   0.0800 
 45 H       -7.2520     4.6080     2.4290 H     1 <1>   0.0800 
 46 H       -7.1650     2.8700     2.3940 H     1 <1>   0.0800 
 47 H       -7.5080     4.6070    -1.2070 H     1 <1>   0.0800 
 48 H       -6.8520     5.5830     0.0820 H     1 <1>   0.0800 
 49 H        1.2980     0.6830    -3.2560 H     1 <1>   0.1500 
 50 H        3.0920     1.9690     0.3840 H     1 <1>   0.1500 
 51 H       -5.4190     0.1000    -1.2740 H     1 <1>   0.4500 
 52 H        3.2760     0.8610    -1.8050 H     1 <1>   0.1500 
 53 H       -7.8710     0.7180     0.2380 H     1 <1>   0.0800 
 54 H       -7.4930     1.2390    -1.3920 H     1 <1>   0.0800 
 55 H       -6.5230     1.7910    -0.0510 H     1 <1>   0.0800 
 56 H       -7.6370    -1.7280    -0.4840 H     1 <1>   0.0800 
 57 H       -6.1930    -2.1980    -1.3580 H     1 <1>   0.0800 
 58 H       -7.3540    -1.1240    -2.1050 H     1 <1>   0.0800 
@<TRIPOS>BOND
  1   1   2  2   
  2   2   3  am  
  3   2   4  1   
  4   3   5  1   
  5   3   6  1   
  6   4   7  1   
  7   4   8  2   
  8   5   9  1   
  9   5  30  1   
 10   5  31  1   
 11   6  10  1   
 12   6  32  1   
 13   6  33  1   
 14   7  11  2   
 15   7  12  1   
 16   8  13  1   
 17   8  14  1   
 18   9  10  1   
 19   9  15  1   
 20   9  34  1   
 21  10  15  1   
 22  10  35  1   
 23  11  13  1   
 24  12  16  1   
 25  12  17  1   
 26  14  18  ar  
 27  14  19  ar  
 28  15  20  1   
 29  15  36  1   
 30  16  21  1   
 31  16  37  1   
 32  16  38  1   
 33  17  22  1   
 34  17  39  1   
 35  17  40  1   
 36  18  23  ar  
 37  18  41  1   
 38  19  24  ar  
 39  19  42  1   
 40  20  25  1   
 41  20  43  1   
 42  20  44  1   
 43  21  26  1   
 44  21  45  1   
 45  21  46  1   
 46  22  26  1   
 47  22  47  1   
 48  22  48  1   
 49  23  27  ar  
 50  23  49  1   
 51  24  27  ar  
 52  24  50  1   
 53  25  28  1   
 54  25  29  1   
 55  25  51  1   
 56  27  52  1   
 57  28  53  1   
 58  28  54  1   
 59  28  55  1   
 60  29  56  1   
 61  29  57  1   
 62  29  58  1   
@<TRIPOS>SUBSTRUCTURE
  1 ****   2 GROUP 4 **** **** 0

# MOE 2024.06 (io_trps.svl 2023.06)
