@<TRIPOS>MOLECULE
NONAME
48 52 1 0 0 
SMALL
USER_CHARGES


@<TRIPOS>ATOM
  1 S       -0.7460     0.1700     1.7110 S.3   1 <1>  -0.0800 
  2 C       -0.8700     1.4970     0.5670 C.2   1 <1>  -0.1400 
  3 C       -2.3360    -0.4200     1.2450 C.2   1 <1>  -0.1100 
  4 C       -2.0430     1.4620    -0.0780 C.2   1 <1>  -0.1810 
  5 C        0.2330     2.5240     0.3760 C.3   1 <1>   0.4600 
  6 C       -2.8830     0.3660     0.2970 C.2   1 <1>  -0.1500 
  7 C       -2.3720     2.5300    -1.0950 C.3   1 <1>   0.0210 
  8 O       -0.1110     3.3840    -0.6990 O.3   1 <1>  -0.5600 
  9 C        0.4560     3.3790     1.6290 C.3   1 <1>  -0.1600 
 10 C        1.5570     1.8550    -0.0240 C.3   1 <1>  -0.1600 
 11 C       -1.4690     3.7550    -0.8420 C.3   1 <1>   0.1200 
 12 C        1.5410     4.4450     1.4320 C.3   1 <1>   0.3430 
 13 C        2.7730     2.7850     0.0710 C.3   1 <1>   0.3430 
 14 N        2.3200     4.1960     0.1780 N.4   1 <1>  -0.9590 
 15 C        3.3880     5.2000    -0.0870 C.3   1 <1>   0.4860 
 16 C        2.7600     6.5730    -0.1600 C.ar  1 <1>  -0.1430 
 17 C        3.0020     7.5280     0.7980 C.ar  1 <1>   0.1600 
 18 C        1.9050     6.9190    -1.1790 C.ar  1 <1>   0.1600 
 19 N        2.4300     8.7050     0.7670 N.ar  1 <1>  -0.6200 
 20 N        1.3210     8.0870    -1.2280 N.ar  1 <1>  -0.6200 
 21 C        1.5970     8.9600    -0.2500 C.ar  1 <1>   0.6730 
 22 C        0.9580    10.2610    -0.2760 C.2   1 <1>   0.0870 
 23 O        0.0460    10.5750    -1.1960 O.3   1 <1>  -0.2800 
 24 C        1.1200    11.3390     0.5440 C.2   1 <1>  -0.1500 
 25 C       -0.3670    11.8050    -0.9860 C.2   1 <1>  -0.0100 
 26 C        0.2620    12.3380     0.0820 C.2   1 <1>  -0.1500 
 27 H       -2.6980    -1.3060     1.7360 H     1 <1>   0.1500 
 28 H       -3.8480     0.2190    -0.1560 H     1 <1>   0.1500 
 29 H       -3.4020     2.8230    -1.0040 H     1 <1>   0.0800 
 30 H       -2.2130     2.1510    -2.0890 H     1 <1>   0.0800 
 31 H        0.7520     2.7360     2.4380 H     1 <1>   0.0800 
 32 H       -0.4650     3.8430     1.9330 H     1 <1>   0.0800 
 33 H        1.4640     1.4670    -1.0230 H     1 <1>   0.0800 
 34 H        1.7450     1.0110     0.6140 H     1 <1>   0.0800 
 35 H       -1.7810     4.2630     0.0530 H     1 <1>   0.0800 
 36 H       -1.5420     4.4410    -1.6680 H     1 <1>   0.0800 
 37 H        2.1970     4.4530     2.2870 H     1 <1>   0.0800 
 38 H        1.0650     5.4120     1.3680 H     1 <1>   0.0800 
 39 H        3.3890     2.6510    -0.8040 H     1 <1>   0.0800 
 40 H        3.3570     2.5260     0.9400 H     1 <1>   0.0800 
 41 H        1.6040     4.2860    -0.5700 H     1 <1>   0.4500 
 42 H        3.8770     4.9800    -1.0220 H     1 <1>   0.0800 
 43 H        4.1260     5.1710     0.6990 H     1 <1>   0.0800 
 44 H        3.6760     7.3330     1.6170 H     1 <1>   0.1500 
 45 H        1.6810     6.2280    -1.9750 H     1 <1>   0.1500 
 46 H        1.7790    11.4210     1.3900 H     1 <1>   0.1500 
 47 H       -1.1090    12.2260    -1.6420 H     1 <1>   0.1500 
 48 H        0.1480    13.3180     0.5100 H     1 <1>   0.1500 
@<TRIPOS>BOND
  1   1   2  1   
  2   1   3  1   
  3   2   4  2   
  4   2   5  1   
  5   3   6  2   
  6   3  27  1   
  7   4   6  1   
  8   4   7  1   
  9   5   8  1   
 10   5   9  1   
 11   5  10  1   
 12   6  28  1   
 13   7  11  1   
 14   7  29  1   
 15   7  30  1   
 16   8  11  1   
 17   9  12  1   
 18   9  31  1   
 19   9  32  1   
 20  10  13  1   
 21  10  33  1   
 22  10  34  1   
 23  11  35  1   
 24  11  36  1   
 25  12  14  1   
 26  12  37  1   
 27  12  38  1   
 28  13  14  1   
 29  13  39  1   
 30  13  40  1   
 31  14  15  1   
 32  14  41  1   
 33  15  16  1   
 34  15  42  1   
 35  15  43  1   
 36  16  17  ar  
 37  16  18  ar  
 38  17  19  ar  
 39  17  44  1   
 40  18  20  ar  
 41  18  45  1   
 42  19  21  ar  
 43  20  21  ar  
 44  21  22  1   
 45  22  23  1   
 46  22  24  2   
 47  23  25  1   
 48  24  26  1   
 49  24  46  1   
 50  25  26  2   
 51  25  47  1   
 52  26  48  1   
@<TRIPOS>SUBSTRUCTURE
  1 ****  12 GROUP 4 **** **** 0

# MOE 2024.06 (io_trps.svl 2023.06)
