@<TRIPOS>MOLECULE
NONAME
52 54 1 0 0 
SMALL
USER_CHARGES


@<TRIPOS>ATOM
  1 O        3.7640    -0.0510     1.2560 O.2   1 <1>  -0.5700 
  2 C        2.9060    -0.5890     0.5820 C.2   1 <1>   0.5440 
  3 N        2.4240     0.1390    -0.4790 N.am  1 <1>  -0.6600 
  4 C        2.5600    -1.9840     0.7830 C.ar  1 <1>   0.0860 
  5 C        2.8520    -0.2320    -1.8620 C.3   1 <1>   0.1400 
  6 C        1.9510     1.5440    -0.3070 C.3   1 <1>   0.1400 
  7 C        1.2610    -2.4970     0.6530 C.ar  1 <1>   0.1660 
  8 C        3.5630    -2.8900     1.1050 C.ar  1 <1>  -0.1500 
  9 C        4.3590     0.0460    -2.0730 C.3   1 <1>   0.3430 
 10 C        3.0960     2.5710    -0.2690 C.3   1 <1>  -0.1600 
 11 N        0.9440    -3.7770     0.7570 N.ar  1 <1>  -0.6200 
 12 C        0.0650    -1.5960     0.3870 C.3   1 <1>  -0.0960 
 13 C        3.2340    -4.2200     1.2330 C.ar  1 <1>  -0.1500 
 14 N        4.8590     1.1160    -1.1520 N.4   1 <1>  -0.9590 
 15 C        4.1660     2.4160    -1.3520 C.3   1 <1>   0.3430 
 16 C        1.9230    -4.6150     1.0430 C.ar  1 <1>   0.1670 
 17 C        6.3540     1.2250    -1.0970 C.3   1 <1>   0.3430 
 18 C        1.5330    -6.0720     1.1660 C.3   1 <1>  -0.0970 
 19 C        6.8760     1.8100     0.2330 C.3   1 <1>   0.2000 
 20 O        6.3480     3.0960     0.4320 O.3   1 <1>  -0.5600 
 21 C        8.4150     1.8830     0.2450 C.3   1 <1>   0.1200 
 22 C        6.7870     3.6960     1.6220 C.3   1 <1>   0.1200 
 23 O        8.8520     2.4680     1.4330 O.3   1 <1>  -0.5600 
 24 C        8.3250     3.7430     1.6610 C.3   1 <1>   0.1200 
 25 H        2.2790     0.3280    -2.5800 H     1 <1>   0.0800 
 26 H        2.6520    -1.2760    -2.0390 H     1 <1>   0.0800 
 27 H        1.3940     1.6130     0.6140 H     1 <1>   0.0800 
 28 H        1.2730     1.7860    -1.1080 H     1 <1>   0.0800 
 29 H        4.5760    -2.5600     1.2540 H     1 <1>   0.1500 
 30 H        4.5410     0.3140    -3.1000 H     1 <1>   0.0800 
 31 H        4.8960    -0.8660    -1.8720 H     1 <1>   0.0800 
 32 H        3.5680     2.5430     0.6980 H     1 <1>   0.0800 
 33 H        2.6640     3.5510    -0.3620 H     1 <1>   0.0800 
 34 H        0.1510    -0.6750     0.9320 H     1 <1>   0.0800 
 35 H       -0.8420    -2.0810     0.7050 H     1 <1>   0.0800 
 36 H       -0.0120    -1.3900    -0.6640 H     1 <1>   0.0800 
 37 H        3.9900    -4.9450     1.4800 H     1 <1>   0.1500 
 38 H        4.5400     0.8190    -0.2010 H     1 <1>   0.4500 
 39 H        4.8700     3.2280    -1.2660 H     1 <1>   0.0800 
 40 H        3.7190     2.4620    -2.3310 H     1 <1>   0.0800 
 41 H        6.7100     1.8310    -1.9130 H     1 <1>   0.0800 
 42 H        6.7810     0.2430    -1.2080 H     1 <1>   0.0800 
 43 H        1.1030    -6.4070     0.2390 H     1 <1>   0.0800 
 44 H        0.8010    -6.1820     1.9450 H     1 <1>   0.0800 
 45 H        2.3840    -6.6850     1.3980 H     1 <1>   0.0800 
 46 H        6.5490     1.1810     1.0440 H     1 <1>   0.0800 
 47 H        8.7830     2.4690    -0.5800 H     1 <1>   0.0800 
 48 H        8.8440     0.8980     0.1930 H     1 <1>   0.0800 
 49 H        6.4080     3.1320     2.4570 H     1 <1>   0.0800 
 50 H        6.3820     4.6920     1.6650 H     1 <1>   0.0800 
 51 H        8.6660     4.0740     2.6260 H     1 <1>   0.0800 
 52 H        8.7050     4.4150     0.9110 H     1 <1>   0.0800 
@<TRIPOS>BOND
  1   1   2  2   
  2   2   3  am  
  3   2   4  1   
  4   3   5  1   
  5   3   6  1   
  6   4   7  ar  
  7   4   8  ar  
  8   5   9  1   
  9   5  25  1   
 10   5  26  1   
 11   6  10  1   
 12   6  27  1   
 13   6  28  1   
 14   7  11  ar  
 15   7  12  1   
 16   8  13  ar  
 17   8  29  1   
 18   9  14  1   
 19   9  30  1   
 20   9  31  1   
 21  10  15  1   
 22  10  32  1   
 23  10  33  1   
 24  11  16  ar  
 25  12  34  1   
 26  12  35  1   
 27  12  36  1   
 28  13  16  ar  
 29  13  37  1   
 30  14  15  1   
 31  14  17  1   
 32  14  38  1   
 33  15  39  1   
 34  15  40  1   
 35  16  18  1   
 36  17  19  1   
 37  17  41  1   
 38  17  42  1   
 39  18  43  1   
 40  18  44  1   
 41  18  45  1   
 42  19  20  1   
 43  19  21  1   
 44  19  46  1   
 45  20  22  1   
 46  21  23  1   
 47  21  47  1   
 48  21  48  1   
 49  22  24  1   
 50  22  49  1   
 51  22  50  1   
 52  23  24  1   
 53  24  51  1   
 54  24  52  1   
@<TRIPOS>SUBSTRUCTURE
  1 ****   1 GROUP 4 **** **** 0

# MOE 2024.06 (io_trps.svl 2023.06)
