@<TRIPOS>MOLECULE
NONAME
47 49 1 0 0 
SMALL
USER_CHARGES


@<TRIPOS>ATOM
  1 O       -0.6280    -0.7430     0.0690 O.2   1 <1>  -0.5700 
  2 C        0.1740    -1.6390     0.1590 C.2   1 <1>   0.5690 
  3 N       -0.1700    -2.9440     0.3820 N.am  1 <1>  -0.6600 
  4 C        1.6490    -1.3200     0.0230 C.3   1 <1>  -0.0990 
  5 C        0.8700    -3.9940     0.4960 C.3   1 <1>   0.1400 
  6 C       -1.5820    -3.3740     0.5740 C.3   1 <1>   0.0600 
  7 C        2.3400    -2.3470    -0.8940 C.3   1 <1>  -0.0800 
  8 C        1.9260    -3.8110    -0.6140 C.3   1 <1>  -0.0800 
  9 C        3.8710    -2.3010    -0.8130 C.3   1 <1>  -0.1600 
 10 C        3.2310    -4.5760    -0.3450 C.3   1 <1>  -0.1600 
 11 C        4.3030    -3.7440    -1.0480 C.3   1 <1>   0.4230 
 12 N        5.7040    -4.0310    -0.6120 N.4   1 <1>  -0.9590 
 13 C        6.0010    -3.8010     0.8360 C.3   1 <1>   0.4810 
 14 C        6.1170    -5.4050    -1.0400 C.3   1 <1>   0.2630 
 15 C        6.8860    -2.5650     0.9480 C.2   1 <1>  -0.0380 
 16 N        8.1520    -2.5550     0.3990 N.pl3 1 <1>  -0.5500 
 17 C        6.4890    -1.4270     1.5650 C.2   1 <1>  -0.1360 
 18 C        8.9410    -1.4400     0.4680 C.2   1 <1>   0.4390 
 19 C        7.3430    -0.2960     1.6030 C.2   1 <1>   0.7670 
 20 N        8.5790    -0.3490     1.0250 N.2   1 <1>  -0.6610 
 21 C       10.3110    -1.5390    -0.1570 C.3   1 <1>  -0.1790 
 22 O        6.9750     0.7340     2.1390 O.2   1 <1>  -0.5700 
 23 H        1.7630    -0.3280    -0.3780 H     1 <1>   0.0800 
 24 H        2.0720    -1.3330     1.0100 H     1 <1>   0.0800 
 25 H        1.3230    -3.9100     1.4690 H     1 <1>   0.0800 
 26 H        0.4200    -4.9690     0.4150 H     1 <1>   0.0800 
 27 H       -1.8520    -4.0900    -0.1820 H     1 <1>   0.0800 
 28 H       -2.2480    -2.5300     0.5000 H     1 <1>   0.0800 
 29 H       -1.7000    -3.8190     1.5470 H     1 <1>   0.0800 
 30 H        2.0420    -2.1210    -1.9070 H     1 <1>   0.0800 
 31 H        1.4940    -4.2000    -1.5220 H     1 <1>   0.0800 
 32 H        4.1540    -1.9650     0.1650 H     1 <1>   0.0800 
 33 H        4.2760    -1.6350    -1.5540 H     1 <1>   0.0800 
 34 H        3.1740    -5.5740    -0.7420 H     1 <1>   0.0800 
 35 H        3.4060    -4.6180     0.7140 H     1 <1>   0.0800 
 36 H        4.2190    -3.9330    -2.1070 H     1 <1>   0.0800 
 37 H        6.2940    -3.3450    -1.1070 H     1 <1>   0.4500 
 38 H        5.0910    -3.6460     1.3910 H     1 <1>   0.0800 
 39 H        6.5160    -4.6490     1.2590 H     1 <1>   0.0800 
 40 H        5.5260    -6.1500    -0.5320 H     1 <1>   0.0800 
 41 H        7.1570    -5.5770    -0.8130 H     1 <1>   0.0800 
 42 H        5.9760    -5.5230    -2.1030 H     1 <1>   0.0800 
 43 H        8.5960    -3.3840    -0.0070 H     1 <1>   0.4000 
 44 H        5.5380    -1.3010     2.0460 H     1 <1>   0.1500 
 45 H       10.8850    -2.3070     0.3260 H     1 <1>   0.0800 
 46 H       10.8330    -0.6050    -0.0440 H     1 <1>   0.0800 
 47 H       10.2270    -1.7550    -1.2060 H     1 <1>   0.0800 
@<TRIPOS>BOND
  1   1   2  2   
  2   2   3  am  
  3   2   4  1   
  4   3   5  1   
  5   3   6  1   
  6   4   7  1   
  7   4  23  1   
  8   4  24  1   
  9   5   8  1   
 10   5  25  1   
 11   5  26  1   
 12   6  27  1   
 13   6  28  1   
 14   6  29  1   
 15   7   8  1   
 16   7   9  1   
 17   7  30  1   
 18   8  10  1   
 19   8  31  1   
 20   9  11  1   
 21   9  32  1   
 22   9  33  1   
 23  10  11  1   
 24  10  34  1   
 25  10  35  1   
 26  11  12  1   
 27  11  36  1   
 28  12  13  1   
 29  12  14  1   
 30  12  37  1   
 31  13  15  1   
 32  13  38  1   
 33  13  39  1   
 34  14  40  1   
 35  14  41  1   
 36  14  42  1   
 37  15  16  1   
 38  15  17  2   
 39  16  18  1   
 40  16  43  1   
 41  17  19  1   
 42  17  44  1   
 43  18  20  2   
 44  18  21  1   
 45  19  20  1   
 46  19  22  2   
 47  21  45  1   
 48  21  46  1   
 49  21  47  1   
@<TRIPOS>SUBSTRUCTURE
  1 ****   9 GROUP 4 **** **** 0

# MOE 2024.06 (io_trps.svl 2023.06)
