@<TRIPOS>MOLECULE
NONAME
49 51 1 0 0 
SMALL
USER_CHARGES


@<TRIPOS>ATOM
  1 CL      -2.7350    -2.6130    -1.1620 Cl    1 <1>  -0.1770 
  2 C       -2.6150    -1.0210    -0.4500 C.ar  1 <1>   0.1770 
  3 C       -3.7120    -0.1690    -0.4620 C.ar  1 <1>  -0.1440 
  4 C       -1.4160    -0.6590     0.1290 C.ar  1 <1>  -0.1500 
  5 C       -3.5890     1.0900     0.1240 C.ar  1 <1>  -0.1440 
  6 C       -5.0030    -0.6250    -1.1140 C.3   1 <1>   0.4870 
  7 C       -1.3030     0.5860     0.7170 C.ar  1 <1>  -0.1500 
  8 C       -2.3840     1.4500     0.7130 C.ar  1 <1>  -0.1500 
  9 C       -4.7260     2.1060     0.1390 C.3   1 <1>  -0.0970 
 10 N       -5.9760    -1.0200    -0.0560 N.4   1 <1>  -0.9590 
 11 C       -5.5160    -2.1890     0.7960 C.3   1 <1>   0.3430 
 12 C       -7.3530    -1.2230    -0.6150 C.3   1 <1>   0.3430 
 13 C       -5.6580    -3.5780     0.0940 C.3   1 <1>   0.4230 
 14 C       -7.4740    -2.5930    -1.3020 C.3   1 <1>  -0.1600 
 15 N       -5.2020    -4.7500     0.9250 N.4   1 <1>  -0.9590 
 16 C       -7.1270    -3.7530    -0.3270 C.3   1 <1>  -0.1060 
 17 C       -5.3280    -6.0480     0.2050 C.3   1 <1>   0.3430 
 18 C       -3.8710    -4.6150     1.5820 C.3   1 <1>   0.2630 
 19 C       -7.9760    -3.6450     0.9520 C.2   1 <1>   0.9060 
 20 C       -7.3320    -5.1050    -1.0490 C.3   1 <1>  -0.1600 
 21 C       -6.7790    -6.2740    -0.2210 C.3   1 <1>  -0.1600 
 22 O       -7.4900    -4.0550     2.0150 O.co2 1 <1>  -0.9000 
 23 O       -9.0230    -3.0070     0.9190 O.co2 1 <1>  -0.9000 
 24 H       -0.5790    -1.3350     0.1200 H     1 <1>   0.1500 
 25 H       -4.8200    -1.4500    -1.7830 H     1 <1>   0.0800 
 26 H       -5.4070     0.1860    -1.6970 H     1 <1>   0.0800 
 27 H       -0.3740     0.8880     1.1740 H     1 <1>   0.1500 
 28 H       -2.2720     2.4180     1.1740 H     1 <1>   0.1500 
 29 H       -4.3540     3.0840     0.3930 H     1 <1>   0.0800 
 30 H       -5.4660     1.8370     0.8710 H     1 <1>   0.0800 
 31 H       -5.1890     2.1840    -0.8280 H     1 <1>   0.0800 
 32 H       -6.0370    -0.2140     0.5810 H     1 <1>   0.4500 
 33 H       -4.4900    -2.0400     1.0830 H     1 <1>   0.0800 
 34 H       -6.1080    -2.2100     1.6980 H     1 <1>   0.0800 
 35 H       -8.0770    -1.1660     0.1850 H     1 <1>   0.0800 
 36 H       -7.5930    -0.4410    -1.3170 H     1 <1>   0.0800 
 37 H       -5.0560    -3.5590    -0.7970 H     1 <1>   0.0800 
 38 H       -8.4960    -2.7060    -1.6260 H     1 <1>   0.0800 
 39 H       -6.8580    -2.6250    -2.1830 H     1 <1>   0.0800 
 40 H       -5.9510    -4.7770     1.6720 H     1 <1>   0.4500 
 41 H       -4.6900    -6.0470    -0.6640 H     1 <1>   0.0800 
 42 H       -5.0220    -6.8550     0.8510 H     1 <1>   0.0800 
 43 H       -3.0920    -4.5300     0.8420 H     1 <1>   0.0800 
 44 H       -3.6730    -5.4820     2.1930 H     1 <1>   0.0800 
 45 H       -3.8500    -3.7460     2.2190 H     1 <1>   0.0800 
 46 H       -8.3850    -5.2620    -1.2250 H     1 <1>   0.0800 
 47 H       -6.8390    -5.0910    -2.0060 H     1 <1>   0.0800 
 48 H       -6.8400    -7.1800    -0.7980 H     1 <1>   0.0800 
 49 H       -7.3850    -6.4190     0.6580 H     1 <1>   0.0800 
@<TRIPOS>BOND
  1   1   2  1   
  2   2   3  ar  
  3   2   4  ar  
  4   3   5  ar  
  5   3   6  1   
  6   4   7  ar  
  7   4  24  1   
  8   5   8  ar  
  9   5   9  1   
 10   6  10  1   
 11   6  25  1   
 12   6  26  1   
 13   7   8  ar  
 14   7  27  1   
 15   8  28  1   
 16   9  29  1   
 17   9  30  1   
 18   9  31  1   
 19  10  11  1   
 20  10  12  1   
 21  10  32  1   
 22  11  13  1   
 23  11  33  1   
 24  11  34  1   
 25  12  14  1   
 26  12  35  1   
 27  12  36  1   
 28  13  15  1   
 29  13  16  1   
 30  13  37  1   
 31  14  16  1   
 32  14  38  1   
 33  14  39  1   
 34  15  17  1   
 35  15  18  1   
 36  15  40  1   
 37  16  19  1   
 38  16  20  1   
 39  17  21  1   
 40  17  41  1   
 41  17  42  1   
 42  18  43  1   
 43  18  44  1   
 44  18  45  1   
 45  19  22  ar  
 46  19  23  ar  
 47  20  21  1   
 48  20  46  1   
 49  20  47  1   
 50  21  48  1   
 51  21  49  1   
@<TRIPOS>SUBSTRUCTURE
  1 ****  11 GROUP 4 **** **** 0

# MOE 2024.06 (io_trps.svl 2023.06)
