@<TRIPOS>MOLECULE
NONAME
40 42 1 0 0 
SMALL
USER_CHARGES


@<TRIPOS>ATOM
  1 O        1.5480     0.3560     0.3010 O.3   1 <1>  -0.6800 
  2 C        2.3530    -0.2560    -0.6550 C.3   1 <1>   0.2000 
  3 C        3.0050    -1.4860    -0.0210 C.3   1 <1>  -0.0800 
  4 C        3.5370     0.6640    -0.9630 C.3   1 <1>   0.3430 
  5 C        4.3670    -1.0000     0.5140 C.3   1 <1>   0.3430 
  6 C        3.1820    -2.6260    -1.0410 C.3   1 <1>   0.0210 
  7 N        4.5130     0.4440     0.1520 N.4   1 <1>  -0.9590 
  8 C        3.7880    -3.8580    -0.3950 C.2   1 <1>   0.1080 
  9 C        4.2230     1.3070     1.3400 C.3   1 <1>   0.4860 
 10 N        4.9730    -3.8690     0.1350 N.2   1 <1>  -0.7070 
 11 C        3.1570    -5.0930    -0.3010 C.2   1 <1>  -0.1500 
 12 C        4.2750     2.7670     0.9540 C.ar  1 <1>  -0.1440 
 13 N        5.1350    -5.1360     0.5760 N.pl3 1 <1>   0.3000 
 14 C        4.0460    -5.8900     0.3270 C.2   1 <1>  -0.3320 
 15 C        3.1170     3.4870     0.7610 C.ar  1 <1>   0.1600 
 16 C        5.4650     3.4370     0.7820 C.ar  1 <1>   0.1600 
 17 C        3.9210    -7.3550     0.7060 C.3   1 <1>  -0.0600 
 18 N        3.1330     4.7500     0.4050 N.ar  1 <1>  -0.6200 
 19 N        5.5090     4.7000     0.4270 N.ar  1 <1>  -0.6200 
 20 C        4.3340     5.2890     0.2610 C.ar  1 <1>   0.4700 
 21 H        0.6970    -0.1240     0.4040 H     1 <1>   0.4000 
 22 H        1.7550    -0.4650    -1.5270 H     1 <1>   0.0800 
 23 H        2.4100    -1.8630     0.7930 H     1 <1>   0.0800 
 24 H        3.2260     1.6920    -1.0520 H     1 <1>   0.0800 
 25 H        3.9850     0.3550    -1.8930 H     1 <1>   0.0800 
 26 H        5.1590    -1.5650     0.0510 H     1 <1>   0.0800 
 27 H        4.4280    -1.1470     1.5800 H     1 <1>   0.0800 
 28 H        3.8210    -2.3200    -1.8510 H     1 <1>   0.0800 
 29 H        2.2270    -2.8940    -1.4570 H     1 <1>   0.0800 
 30 H        5.4680     0.6350    -0.1760 H     1 <1>   0.4500 
 31 H        3.2470     1.0760     1.7340 H     1 <1>   0.0800 
 32 H        4.9470     1.1170     2.1160 H     1 <1>   0.0800 
 33 H        2.1740    -5.3430    -0.6600 H     1 <1>   0.1500 
 34 H        5.9960    -5.4590     1.0350 H     1 <1>   0.2700 
 35 H        2.1510     3.0240     0.8940 H     1 <1>   0.1500 
 36 H        6.4080     2.9380     0.9330 H     1 <1>   0.1500 
 37 H        2.9620    -7.7360     0.4000 H     1 <1>   0.0800 
 38 H        4.0120    -7.4760     1.7710 H     1 <1>   0.0800 
 39 H        4.6880    -7.9330     0.2200 H     1 <1>   0.0800 
 40 H        4.3590     6.3280    -0.0260 H     1 <1>   0.1500 
@<TRIPOS>BOND
  1   1   2  1   
  2   1  21  1   
  3   2   3  1   
  4   2   4  1   
  5   2  22  1   
  6   3   5  1   
  7   3   6  1   
  8   3  23  1   
  9   4   7  1   
 10   4  24  1   
 11   4  25  1   
 12   5   7  1   
 13   5  26  1   
 14   5  27  1   
 15   6   8  1   
 16   6  28  1   
 17   6  29  1   
 18   7   9  1   
 19   7  30  1   
 20   8  10  2   
 21   8  11  1   
 22   9  12  1   
 23   9  31  1   
 24   9  32  1   
 25  10  13  1   
 26  11  14  2   
 27  11  33  1   
 28  12  15  ar  
 29  12  16  ar  
 30  13  14  1   
 31  13  34  1   
 32  14  17  1   
 33  15  18  ar  
 34  15  35  1   
 35  16  19  ar  
 36  16  36  1   
 37  17  37  1   
 38  17  38  1   
 39  17  39  1   
 40  18  20  ar  
 41  19  20  ar  
 42  20  40  1   
@<TRIPOS>SUBSTRUCTURE
  1 ****   5 GROUP 4 **** **** 0

# MOE 2024.06 (io_trps.svl 2023.06)
