@<TRIPOS>MOLECULE
NONAME
41 43 1 0 0 
SMALL
USER_CHARGES


@<TRIPOS>ATOM
  1 O       -0.2980     0.2810     0.1490 O.2   1 <1>  -0.5700 
  2 C       -1.3780     0.8180     0.0930 C.2   1 <1>   0.5690 
  3 N       -2.5300     0.0960    -0.0180 N.am  1 <1>  -0.6600 
  4 C       -1.4440     2.3330     0.1430 C.3   1 <1>  -0.0990 
  5 C       -3.9070     0.6330    -0.1690 C.3   1 <1>   0.1400 
  6 C       -2.5360    -1.3860    -0.0560 C.3   1 <1>   0.1400 
  7 C       -0.0690     2.9640     0.4020 C.3   1 <1>   0.0960 
  8 C       -4.7620    -0.5850    -0.5190 C.3   1 <1>   0.2000 
  9 C       -4.0090    -1.7860     0.0470 C.3   1 <1>  -0.0800 
 10 N       -0.1850     4.4320     0.4550 N.pl3 1 <1>   0.0480 
 11 O       -6.0250    -0.5000     0.0420 O.3   1 <1>  -0.6800 
 12 C       -4.3420    -3.1000    -0.6750 C.3   1 <1>   0.0200 
 13 C       -0.4180     5.2130     1.5110 C.2   1 <1>   0.0360 
 14 C       -0.1120     5.3110    -0.5450 C.2   1 <1>   0.0360 
 15 C       -3.5130    -4.2450    -0.1270 C.2   1 <1>  -0.0400 
 16 N       -0.4860     6.4560     1.1830 N.2   1 <1>  -0.3380 
 17 N       -0.2890     6.5190    -0.1360 N.2   1 <1>  -0.3380 
 18 O       -3.6400    -4.6030     1.1230 O.3   1 <1>  -0.0190 
 19 C       -2.5910    -5.0380    -0.6910 C.2   1 <1>  -0.1500 
 20 N       -2.8480    -5.5890     1.4270 N.2   1 <1>  -0.4100 
 21 C       -2.2040    -5.8740     0.3530 C.2   1 <1>   0.1080 
 22 C       -1.1660    -6.9680     0.2490 C.3   1 <1>  -0.0590 
 23 H       -1.8270     2.6850    -0.7970 H     1 <1>   0.0800 
 24 H       -2.1190     2.6180     0.9280 H     1 <1>   0.0800 
 25 H       -4.2240     1.0650     0.7640 H     1 <1>   0.0800 
 26 H       -3.9490     1.3640    -0.9560 H     1 <1>   0.0800 
 27 H       -2.1090    -1.7120    -0.9900 H     1 <1>   0.0800 
 28 H       -1.9590    -1.7940     0.7580 H     1 <1>   0.0800 
 29 H        0.6170     2.6960    -0.3820 H     1 <1>   0.0800 
 30 H        0.3310     2.6100     1.3360 H     1 <1>   0.0800 
 31 H       -4.8700    -0.6550    -1.5880 H     1 <1>   0.0800 
 32 H       -4.2350    -1.8900     1.0950 H     1 <1>   0.0800 
 33 H       -5.9770    -0.5730     1.0150 H     1 <1>   0.4000 
 34 H       -4.1520    -3.0000    -1.7290 H     1 <1>   0.0800 
 35 H       -5.3850    -3.3300    -0.5450 H     1 <1>   0.0800 
 36 H       -0.5360     4.8360     2.5110 H     1 <1>   0.1500 
 37 H        0.0720     5.0300    -1.5660 H     1 <1>   0.1500 
 38 H       -2.2130    -5.0550    -1.6970 H     1 <1>   0.1500 
 39 H       -1.4550    -7.6760    -0.5060 H     1 <1>   0.0800 
 40 H       -1.0760    -7.4800     1.1900 H     1 <1>   0.0800 
 41 H       -0.2130    -6.5430    -0.0080 H     1 <1>   0.0800 
@<TRIPOS>BOND
  1   1   2  2   
  2   2   3  am  
  3   2   4  1   
  4   3   5  1   
  5   3   6  1   
  6   4   7  1   
  7   4  23  1   
  8   4  24  1   
  9   5   8  1   
 10   5  25  1   
 11   5  26  1   
 12   6   9  1   
 13   6  27  1   
 14   6  28  1   
 15   7  10  1   
 16   7  29  1   
 17   7  30  1   
 18   8   9  1   
 19   8  11  1   
 20   8  31  1   
 21   9  12  1   
 22   9  32  1   
 23  10  13  1   
 24  10  14  1   
 25  11  33  1   
 26  12  15  1   
 27  12  34  1   
 28  12  35  1   
 29  13  16  2   
 30  13  36  1   
 31  14  17  2   
 32  14  37  1   
 33  15  18  1   
 34  15  19  2   
 35  16  17  1   
 36  18  20  1   
 37  19  21  1   
 38  19  38  1   
 39  20  21  2   
 40  21  22  1   
 41  22  39  1   
 42  22  40  1   
 43  22  41  1   
@<TRIPOS>SUBSTRUCTURE
  1 ****   3 GROUP 4 **** **** 0

# MOE 2024.06 (io_trps.svl 2023.06)
