@<TRIPOS>MOLECULE
NONAME
46 48 1 0 0 
SMALL
USER_CHARGES


@<TRIPOS>ATOM
  1 F       -1.1370    -1.7960    -2.5690 F     1 <1>  -0.3400 
  2 C        0.1200    -2.1220    -2.8620 C.3   1 <1>   0.7810 
  3 F        0.0640    -2.5700    -4.1130 F     1 <1>  -0.3400 
  4 C        0.6240    -3.2210    -1.9180 C.2   1 <1>   0.1080 
  5 N        1.6740    -3.1050    -1.1480 N.2   1 <1>  -0.7070 
  6 C        0.0280    -4.4630    -1.7730 C.2   1 <1>  -0.1500 
  7 N        1.7640    -4.2790    -0.5020 N.pl3 1 <1>   0.3140 
  8 C        0.7690    -5.1370    -0.8490 C.2   1 <1>  -0.2370 
  9 C        2.8470    -4.5080     0.4680 C.3   1 <1>   0.0160 
 10 C        0.6200    -6.4620    -0.3120 C.2   1 <1>   0.7150 
 11 O        1.6030    -7.1040     0.0130 O.2   1 <1>  -0.5700 
 12 N       -0.6160    -7.0360    -0.1450 N.am  1 <1>  -0.6600 
 13 C       -1.9030    -6.2970    -0.0780 C.3   1 <1>   0.1400 
 14 C       -0.7900    -8.4140     0.3730 C.3   1 <1>   0.1400 
 15 C       -2.8160    -7.1920     0.7650 C.3   1 <1>  -0.0800 
 16 C       -2.3050    -8.6100     0.4650 C.3   1 <1>  -0.0800 
 17 C       -4.3360    -6.9910     0.5470 C.3   1 <1>   0.2800 
 18 C       -2.8480    -9.1690    -0.8680 C.3   1 <1>  -0.1600 
 19 O       -4.5810    -5.6360     0.4910 O.3   1 <1>  -0.6800 
 20 C       -4.7970    -7.5720    -0.8020 C.3   1 <1>  -0.1600 
 21 C       -5.1850    -7.5700     1.7070 C.3   1 <1>  -0.1600 
 22 C       -4.3690    -9.0370    -0.9830 C.3   1 <1>  -0.1600 
 23 C       -5.0390    -6.8760     3.0750 C.3   1 <1>  -0.2400 
 24 H        0.7190    -1.2300    -2.8430 H     1 <1>   0.0800 
 25 H       -0.8430    -4.8030    -2.3050 H     1 <1>   0.1500 
 26 H        2.4270    -4.8470     1.3970 H     1 <1>   0.0800 
 27 H        3.3840    -3.5910     0.6260 H     1 <1>   0.0800 
 28 H        3.5140    -5.2540     0.0790 H     1 <1>   0.0800 
 29 H       -1.7800    -5.3290     0.3780 H     1 <1>   0.0800 
 30 H       -2.2960    -6.1800    -1.0710 H     1 <1>   0.0800 
 31 H       -0.3230    -9.1300    -0.2810 H     1 <1>   0.0800 
 32 H       -0.3420    -8.4790     1.3500 H     1 <1>   0.0800 
 33 H       -2.5850    -6.9690     1.7890 H     1 <1>   0.0800 
 34 H       -2.5530    -9.2850     1.2650 H     1 <1>   0.0800 
 35 H       -2.3980    -8.6420    -1.6930 H     1 <1>   0.0800 
 36 H       -2.5700   -10.2050    -0.9610 H     1 <1>   0.0800 
 37 H       -5.5430    -5.4830     0.4740 H     1 <1>   0.4000 
 38 H       -5.8660    -7.5070    -0.8880 H     1 <1>   0.0800 
 39 H       -4.3690    -6.9950    -1.6040 H     1 <1>   0.0800 
 40 H       -6.2230    -7.5370     1.4270 H     1 <1>   0.0800 
 41 H       -4.9370    -8.6080     1.8350 H     1 <1>   0.0800 
 42 H       -4.8460    -9.6600    -0.2470 H     1 <1>   0.0800 
 43 H       -4.6830    -9.3820    -1.9540 H     1 <1>   0.0800 
 44 H       -5.2740    -5.8290     3.0040 H     1 <1>   0.0800 
 45 H       -4.0410    -6.9780     3.4600 H     1 <1>   0.0800 
 46 H       -5.7140    -7.3240     3.7830 H     1 <1>   0.0800 
@<TRIPOS>BOND
  1   1   2  1   
  2   2   3  1   
  3   2   4  1   
  4   2  24  1   
  5   4   5  2   
  6   4   6  1   
  7   5   7  1   
  8   6   8  2   
  9   6  25  1   
 10   7   8  1   
 11   7   9  1   
 12   8  10  1   
 13   9  26  1   
 14   9  27  1   
 15   9  28  1   
 16  10  11  2   
 17  10  12  am  
 18  12  13  1   
 19  12  14  1   
 20  13  15  1   
 21  13  29  1   
 22  13  30  1   
 23  14  16  1   
 24  14  31  1   
 25  14  32  1   
 26  15  16  1   
 27  15  17  1   
 28  15  33  1   
 29  16  18  1   
 30  16  34  1   
 31  17  19  1   
 32  17  20  1   
 33  17  21  1   
 34  18  22  1   
 35  18  35  1   
 36  18  36  1   
 37  19  37  1   
 38  20  22  1   
 39  20  38  1   
 40  20  39  1   
 41  21  23  1   
 42  21  40  1   
 43  21  41  1   
 44  22  42  1   
 45  22  43  1   
 46  23  44  1   
 47  23  45  1   
 48  23  46  1   
@<TRIPOS>SUBSTRUCTURE
  1 ****  13 GROUP 4 **** **** 0

# MOE 2024.06 (io_trps.svl 2023.06)
