@<TRIPOS>MOLECULE
NONAME
47 50 1 0 0 
SMALL
USER_CHARGES


@<TRIPOS>ATOM
  1 O       -2.3700     0.5760    -1.7040 O.2   1 <1>  -0.5700 
  2 C       -2.1380     0.4470    -0.5290 C.2   1 <1>   0.5690 
  3 N       -1.9680    -0.7680     0.0390 N.am  1 <1>  -0.7300 
  4 C       -2.0520     1.6790     0.3420 C.3   1 <1>  -0.0990 
  5 C       -1.9970    -2.0620    -0.6860 C.3   1 <1>   0.2200 
  6 C       -1.3030     2.8050    -0.3790 C.3   1 <1>   0.0960 
  7 C       -3.3030    -2.8110    -0.4410 C.3   1 <1>  -0.0800 
  8 C       -1.0110    -3.0060    -0.0150 C.3   1 <1>   0.1200 
  9 N       -1.2190     3.9950     0.4870 N.pl3 1 <1>   0.0480 
 10 C       -3.0460    -3.5000     0.9080 C.3   1 <1>   0.1200 
 11 C       -4.5780    -1.9420    -0.4860 C.3   1 <1>  -0.0170 
 12 O       -1.6670    -3.4370     1.1370 O.3   1 <1>  -0.5600 
 13 C       -0.2610     4.3340     1.3510 C.2   1 <1>   0.0360 
 14 C       -2.0980     4.9890     0.6210 C.2   1 <1>   0.0360 
 15 C       -5.9170    -2.6770    -0.3540 C.ar  1 <1>  -0.1440 
 16 N       -0.5340     5.4340     1.9610 N.2   1 <1>  -0.3380 
 17 N       -1.7120     5.8540     1.4930 N.2   1 <1>  -0.3380 
 18 C       -7.1120    -1.9300    -0.2040 C.ar  1 <1>   0.0000 
 19 C       -6.0400    -4.0390    -0.3780 C.ar  1 <1>  -0.1500 
 20 C       -8.3280    -2.6400    -0.0540 C.ar  1 <1>   0.3100 
 21 C       -7.1730    -0.5150    -0.2010 C.ar  1 <1>  -0.1500 
 22 C       -7.2950    -4.6420    -0.2320 C.ar  1 <1>   0.1600 
 23 N       -8.4030    -3.9940    -0.0690 N.ar  1 <1>  -0.6200 
 24 C       -9.5230    -1.9220     0.1140 C.ar  1 <1>  -0.1500 
 25 C       -8.3550     0.1560    -0.0380 C.ar  1 <1>  -0.1500 
 26 C       -9.5460    -0.5540     0.1240 C.ar  1 <1>  -0.1500 
 27 H       -1.8220    -0.8760     1.0460 H     1 <1>   0.3700 
 28 H       -3.0530     1.9960     0.5710 H     1 <1>   0.0800 
 29 H       -1.5450     1.4340     1.2580 H     1 <1>   0.0800 
 30 H       -1.7860    -1.9200    -1.7340 H     1 <1>   0.0800 
 31 H       -1.8160     3.0730    -1.2870 H     1 <1>   0.0800 
 32 H       -0.3080     2.4860    -0.6350 H     1 <1>   0.0800 
 33 H       -3.3780    -3.5700    -1.1980 H     1 <1>   0.0800 
 34 H       -0.0840    -2.5280     0.2490 H     1 <1>   0.0800 
 35 H       -0.8200    -3.8670    -0.6320 H     1 <1>   0.0800 
 36 H       -3.3450    -4.5330     0.8980 H     1 <1>   0.0800 
 37 H       -3.5370    -2.9880     1.7180 H     1 <1>   0.0800 
 38 H       -4.5840    -1.3990    -1.4160 H     1 <1>   0.0800 
 39 H       -4.5210    -1.2230     0.3110 H     1 <1>   0.0800 
 40 H        0.6260     3.7490     1.5110 H     1 <1>   0.1500 
 41 H       -3.0150     5.0470     0.0640 H     1 <1>   0.1500 
 42 H       -5.2050    -4.6980    -0.5070 H     1 <1>   0.1500 
 43 H       -6.2730     0.0550    -0.3330 H     1 <1>   0.1500 
 44 H       -7.3400    -5.7180    -0.2540 H     1 <1>   0.1500 
 45 H      -10.4270    -2.4890     0.2330 H     1 <1>   0.1500 
 46 H       -8.3840     1.2320    -0.0360 H     1 <1>   0.1500 
 47 H      -10.4700    -0.0160     0.2530 H     1 <1>   0.1500 
@<TRIPOS>BOND
  1   1   2  2   
  2   2   3  am  
  3   2   4  1   
  4   3   5  1   
  5   3  27  1   
  6   4   6  1   
  7   4  28  1   
  8   4  29  1   
  9   5   7  1   
 10   5   8  1   
 11   5  30  1   
 12   6   9  1   
 13   6  31  1   
 14   6  32  1   
 15   7  10  1   
 16   7  11  1   
 17   7  33  1   
 18   8  12  1   
 19   8  34  1   
 20   8  35  1   
 21   9  13  1   
 22   9  14  1   
 23  10  12  1   
 24  10  36  1   
 25  10  37  1   
 26  11  15  1   
 27  11  38  1   
 28  11  39  1   
 29  13  16  2   
 30  13  40  1   
 31  14  17  2   
 32  14  41  1   
 33  15  18  ar  
 34  15  19  ar  
 35  16  17  1   
 36  18  20  ar  
 37  18  21  ar  
 38  19  22  ar  
 39  19  42  1   
 40  20  23  ar  
 41  20  24  ar  
 42  21  25  ar  
 43  21  43  1   
 44  22  23  ar  
 45  22  44  1   
 46  24  26  ar  
 47  24  45  1   
 48  25  26  ar  
 49  25  46  1   
 50  26  47  1   
@<TRIPOS>SUBSTRUCTURE
  1 ****  11 GROUP 4 **** **** 0

# MOE 2024.06 (io_trps.svl 2023.06)
