@<TRIPOS>MOLECULE
NONAME
46 48 1 0 0 
SMALL
USER_CHARGES


@<TRIPOS>ATOM
  1 O       -2.9370     1.0250    -2.3660 O.2   1 <1>  -0.5700 
  2 C       -2.1070     1.0960    -1.4770 C.2   1 <1>   0.5440 
  3 N       -1.6320    -0.0770    -0.9740 N.am  1 <1>  -0.7300 
  4 C       -1.6450     2.3870    -0.9850 C.ar  1 <1>   0.0860 
  5 C       -2.1130    -1.4290    -1.3290 C.3   1 <1>   0.2200 
  6 C       -1.0460     2.5860     0.2750 C.ar  1 <1>   0.0830 
  7 C       -1.7960     3.5100    -1.8020 C.ar  1 <1>  -0.1500 
  8 C       -3.2640    -1.8040    -0.4120 C.3   1 <1>  -0.0800 
  9 C       -1.0560    -2.4680    -0.9580 C.3   1 <1>   0.1200 
 10 O       -0.8970     1.5220     1.1090 O.3   1 <1>  -0.3630 
 11 C       -0.6210     3.8590     0.6570 C.ar  1 <1>  -0.1500 
 12 C       -1.3750     4.7660    -1.4140 C.ar  1 <1>  -0.1500 
 13 C       -2.5180    -2.3180     0.8200 C.3   1 <1>   0.1200 
 14 C       -4.1630    -2.8810    -1.0470 C.3   1 <1>  -0.0170 
 15 O       -1.3130    -2.8580     0.3620 O.3   1 <1>  -0.5600 
 16 C       -0.3330     1.6190     2.3990 C.3   1 <1>   0.0400 
 17 C       -0.7810     4.9480    -0.1790 C.ar  1 <1>  -0.1430 
 18 C       -5.3250    -3.2480    -0.1370 C.ar  1 <1>  -0.1430 
 19 C       -0.3210     6.3330     0.2390 C.3   1 <1>  -0.0970 
 20 C       -6.4120    -2.4130     0.0230 C.ar  1 <1>  -0.1500 
 21 C       -5.3550    -4.4300     0.5750 C.ar  1 <1>  -0.1500 
 22 C       -7.4460    -2.7890     0.8640 C.ar  1 <1>   0.1600 
 23 C       -6.4380    -4.7110     1.3900 C.ar  1 <1>   0.1600 
 24 N       -7.4860    -3.9190     1.5530 N.ar  1 <1>  -0.6200 
 25 H       -1.0740    -0.0180    -0.1150 H     1 <1>   0.3700 
 26 H       -2.3720    -1.4620    -2.3740 H     1 <1>   0.0800 
 27 H       -2.2550     3.3920    -2.7690 H     1 <1>   0.1500 
 28 H       -3.8670    -0.9450    -0.1710 H     1 <1>   0.0800 
 29 H       -0.0550    -2.0810    -1.0320 H     1 <1>   0.0800 
 30 H       -1.1540    -3.3420    -1.5770 H     1 <1>   0.0800 
 31 H       -0.1620     4.0220     1.6130 H     1 <1>   0.1500 
 32 H       -1.5110     5.6030    -2.0770 H     1 <1>   0.1500 
 33 H       -3.0600    -3.0700     1.3650 H     1 <1>   0.0800 
 34 H       -2.2770    -1.5020     1.4790 H     1 <1>   0.0800 
 35 H       -3.5880    -3.7620    -1.2710 H     1 <1>   0.0800 
 36 H       -4.5600    -2.5070    -1.9760 H     1 <1>   0.0800 
 37 H       -0.3430     0.6400     2.8440 H     1 <1>   0.0800 
 38 H       -0.9260     2.2940     2.9910 H     1 <1>   0.0800 
 39 H        0.6810     1.9690     2.3130 H     1 <1>   0.0800 
 40 H        0.2490     6.7870    -0.5520 H     1 <1>   0.0800 
 41 H        0.2970     6.2860     1.1180 H     1 <1>   0.0800 
 42 H       -1.1740     6.9520     0.4500 H     1 <1>   0.0800 
 43 H       -6.4630    -1.4750    -0.4990 H     1 <1>   0.1500 
 44 H       -4.5460    -5.1350     0.5050 H     1 <1>   0.1500 
 45 H       -8.2860    -2.1250     0.9750 H     1 <1>   0.1500 
 46 H       -6.4440    -5.6380     1.9380 H     1 <1>   0.1500 
@<TRIPOS>BOND
  1   1   2  2   
  2   2   3  am  
  3   2   4  1   
  4   3   5  1   
  5   3  25  1   
  6   4   6  ar  
  7   4   7  ar  
  8   5   8  1   
  9   5   9  1   
 10   5  26  1   
 11   6  10  1   
 12   6  11  ar  
 13   7  12  ar  
 14   7  27  1   
 15   8  13  1   
 16   8  14  1   
 17   8  28  1   
 18   9  15  1   
 19   9  29  1   
 20   9  30  1   
 21  10  16  1   
 22  11  17  ar  
 23  11  31  1   
 24  12  17  ar  
 25  12  32  1   
 26  13  15  1   
 27  13  33  1   
 28  13  34  1   
 29  14  18  1   
 30  14  35  1   
 31  14  36  1   
 32  16  37  1   
 33  16  38  1   
 34  16  39  1   
 35  17  19  1   
 36  18  20  ar  
 37  18  21  ar  
 38  19  40  1   
 39  19  41  1   
 40  19  42  1   
 41  20  22  ar  
 42  20  43  1   
 43  21  23  ar  
 44  21  44  1   
 45  22  24  ar  
 46  22  45  1   
 47  23  24  ar  
 48  23  46  1   
@<TRIPOS>SUBSTRUCTURE
  1 ****   3 GROUP 4 **** **** 0

# MOE 2024.06 (io_trps.svl 2023.06)
