@<TRIPOS>MOLECULE
NONAME
59 62 1 0 0 
SMALL
USER_CHARGES


@<TRIPOS>ATOM
  1 S       -0.4330    -0.7750    -1.3520 S.o2  1 <1>   1.5760 
  2 O       -1.0690     0.0660    -2.3420 O.2   1 <1>  -0.6500 
  3 O        0.2090    -2.0100    -1.7430 O.2   1 <1>  -0.6500 
  4 N       -1.5430    -1.1230    -0.1280 N.am  1 <1>  -0.8490 
  5 N        0.6750     0.1750    -0.5050 N.am  1 <1>  -0.8490 
  6 C       -2.7730    -1.7020    -0.6970 C.3   1 <1>   0.1960 
  7 C       -0.9460    -1.9980     0.8820 C.3   1 <1>   0.1960 
  8 C        0.0930     1.4640    -0.1210 C.3   1 <1>   0.1960 
  9 C        1.8970     0.3610    -1.2870 C.3   1 <1>   0.1960 
 10 C       -3.9720    -1.5790     0.2530 C.3   1 <1>   0.2090 
 11 C       -1.8160    -2.1330     2.1340 C.3   1 <1>  -0.1600 
 12 C        1.0750     2.2460     0.7570 C.3   1 <1>  -0.1600 
 13 C        2.9490     1.1090    -0.4600 C.3   1 <1>  -0.1600 
 14 N       -4.1020    -2.7220     1.2060 N.pl3 1 <1>  -0.8380 
 15 C       -2.9180    -3.1830     1.9810 C.3   1 <1>   0.2090 
 16 C        2.4150     2.4560     0.0420 C.3   1 <1>  -0.1600 
 17 C       -5.0360    -3.6740     0.8730 C.ar  1 <1>   0.4100 
 18 N       -4.6250    -4.7510     0.2690 N.ar  1 <1>  -0.6200 
 19 C       -6.3860    -3.4290     1.1810 C.ar  1 <1>  -0.1500 
 20 C       -5.5620    -5.6700    -0.0670 C.ar  1 <1>   0.3100 
 21 C       -7.3530    -4.3270     0.8550 C.ar  1 <1>  -0.1440 
 22 C       -6.9440    -5.5110     0.2010 C.ar  1 <1>   0.0000 
 23 C       -5.1330    -6.8360    -0.7140 C.ar  1 <1>  -0.1500 
 24 C       -8.8130    -4.0580     1.1910 C.3   1 <1>  -0.0970 
 25 C       -7.8260    -6.5380    -0.1970 C.ar  1 <1>  -0.1500 
 26 C       -6.0040    -7.8240    -1.0920 C.ar  1 <1>   0.0820 
 27 C       -7.3750    -7.6670    -0.8270 C.ar  1 <1>  -0.1500 
 28 O       -5.4890    -8.9140    -1.7110 O.3   1 <1>  -0.3620 
 29 C       -6.3030    -9.9850    -2.1330 C.3   1 <1>   0.0400 
 30 H       -2.6250    -2.7310    -0.9830 H     1 <1>   0.0800 
 31 H       -3.0360    -1.1550    -1.5850 H     1 <1>   0.0800 
 32 H       -0.0030    -1.5770     1.1900 H     1 <1>   0.0800 
 33 H       -0.7410    -2.9700     0.4600 H     1 <1>   0.0800 
 34 H       -0.8170     1.3030     0.4320 H     1 <1>   0.0800 
 35 H       -0.1480     2.0380    -1.0020 H     1 <1>   0.0800 
 36 H        1.6750     0.9100    -2.1880 H     1 <1>   0.0800 
 37 H        2.2970    -0.6000    -1.5690 H     1 <1>   0.0800 
 38 H       -4.8630    -1.5410    -0.3500 H     1 <1>   0.0800 
 39 H       -3.9130    -0.6530     0.7960 H     1 <1>   0.0800 
 40 H       -2.2150    -1.1830     2.4390 H     1 <1>   0.0800 
 41 H       -1.1730    -2.4740     2.9240 H     1 <1>   0.0800 
 42 H        1.2300     1.7000     1.6710 H     1 <1>   0.0800 
 43 H        0.6470     3.1990     1.0100 H     1 <1>   0.0800 
 44 H        3.8270     1.2670    -1.0600 H     1 <1>   0.0800 
 45 H        3.2280     0.4930     0.3770 H     1 <1>   0.0800 
 46 H       -3.2630    -3.4650     2.9620 H     1 <1>   0.0800 
 47 H       -2.5070    -4.0670     1.5220 H     1 <1>   0.0800 
 48 H        3.1260     2.9080     0.7120 H     1 <1>   0.0800 
 49 H        2.2740     3.1180    -0.7950 H     1 <1>   0.0800 
 50 H       -6.6090    -2.5080     1.6830 H     1 <1>   0.1500 
 51 H       -4.0840    -6.9420    -0.9120 H     1 <1>   0.1500 
 52 H       -8.9220    -3.1100     1.6870 H     1 <1>   0.0800 
 53 H       -9.1890    -4.8260     1.8420 H     1 <1>   0.0800 
 54 H       -9.4010    -4.0380     0.2910 H     1 <1>   0.0800 
 55 H       -8.8760    -6.4320     0.0000 H     1 <1>   0.1500 
 56 H       -8.0770    -8.4270    -1.1130 H     1 <1>   0.1500 
 57 H       -5.6700   -10.7240    -2.5890 H     1 <1>   0.0800 
 58 H       -7.0160    -9.6200    -2.8510 H     1 <1>   0.0800 
 59 H       -6.7970   -10.4060    -1.2750 H     1 <1>   0.0800 
@<TRIPOS>BOND
  1   1   2  2   
  2   1   3  2   
  3   1   4  am  
  4   1   5  am  
  5   4   6  1   
  6   4   7  1   
  7   5   8  1   
  8   5   9  1   
  9   6  10  1   
 10   6  30  1   
 11   6  31  1   
 12   7  11  1   
 13   7  32  1   
 14   7  33  1   
 15   8  12  1   
 16   8  34  1   
 17   8  35  1   
 18   9  13  1   
 19   9  36  1   
 20   9  37  1   
 21  10  14  1   
 22  10  38  1   
 23  10  39  1   
 24  11  15  1   
 25  11  40  1   
 26  11  41  1   
 27  12  16  1   
 28  12  42  1   
 29  12  43  1   
 30  13  16  1   
 31  13  44  1   
 32  13  45  1   
 33  14  15  1   
 34  14  17  1   
 35  15  46  1   
 36  15  47  1   
 37  16  48  1   
 38  16  49  1   
 39  17  18  ar  
 40  17  19  ar  
 41  18  20  ar  
 42  19  21  ar  
 43  19  50  1   
 44  20  22  ar  
 45  20  23  ar  
 46  21  22  ar  
 47  21  24  1   
 48  22  25  ar  
 49  23  26  ar  
 50  23  51  1   
 51  24  52  1   
 52  24  53  1   
 53  24  54  1   
 54  25  27  ar  
 55  25  55  1   
 56  26  27  ar  
 57  26  28  1   
 58  27  56  1   
 59  28  29  1   
 60  29  57  1   
 61  29  58  1   
 62  29  59  1   
@<TRIPOS>SUBSTRUCTURE
  1 ****   6 GROUP 4 **** **** 0

# MOE 2024.06 (io_trps.svl 2023.06)
