@<TRIPOS>MOLECULE
NONAME
48 50 1 0 0 
SMALL
USER_CHARGES


@<TRIPOS>ATOM
  1 O        0.9090     0.6320     0.6310 O.3   1 <1>  -0.3630 
  2 C        0.3340     1.8400     0.4620 C.ar  1 <1>   0.3920 
  3 C        0.3100    -0.5740     0.2110 C.3   1 <1>   0.0400 
  4 N        1.0160     2.8450     0.9520 N.ar  1 <1>  -0.6200 
  5 C       -0.8750     2.0130    -0.1740 C.ar  1 <1>  -0.1500 
  6 C        0.4620     4.0300     0.7990 C.ar  1 <1>   0.7200 
  7 C       -1.3430     3.3050    -0.2770 C.ar  1 <1>   0.3920 
  8 N       -0.6810     4.3260     0.2050 N.ar  1 <1>  -0.6200 
  9 N        1.1920     5.0420     1.3220 N.pl3 1 <1>  -0.8690 
 10 O       -2.5080     3.6200    -0.8780 O.3   1 <1>  -0.3630 
 11 C        1.0600     6.4550     0.9380 C.3   1 <1>   0.2890 
 12 C       -3.3850     2.6540    -1.4140 C.3   1 <1>   0.0400 
 13 C        1.9280     6.7290    -0.2890 C.3   1 <1>  -0.1600 
 14 C        1.4840     7.3270     2.1170 C.3   1 <1>  -0.1600 
 15 C        1.8700     8.2110    -0.6550 C.3   1 <1>   0.2090 
 16 C        1.4290     8.8030     1.7290 C.3   1 <1>   0.2090 
 17 N        2.2660     9.0220     0.5230 N.pl3 1 <1>  -0.8380 
 18 C        2.6290    10.3390     0.2660 C.ar  1 <1>   0.1000 
 19 C        1.7030    11.2760    -0.1820 C.ar  1 <1>  -0.1500 
 20 C        3.9430    10.7380     0.4580 C.ar  1 <1>  -0.1500 
 21 C        2.0780    12.5850    -0.4330 C.ar  1 <1>  -0.1430 
 22 C        4.3280    12.0420     0.2100 C.ar  1 <1>  -0.1500 
 23 C        3.3960    12.9650    -0.2350 C.ar  1 <1>  -0.1500 
 24 C        1.0660    13.6050    -0.9220 C.3   1 <1>  -0.0970 
 25 H        0.9660    -1.3820     0.4800 H     1 <1>   0.0800 
 26 H        0.1820    -0.5500    -0.8570 H     1 <1>   0.0800 
 27 H       -0.6340    -0.6900     0.7140 H     1 <1>   0.0800 
 28 H       -1.4230     1.1870    -0.5700 H     1 <1>   0.1500 
 29 H        2.1240     4.7420     1.5970 H     1 <1>   0.4000 
 30 H        0.0310     6.6740     0.7010 H     1 <1>   0.0800 
 31 H       -4.2410     3.1680    -1.8120 H     1 <1>   0.0800 
 32 H       -3.6940     1.9870    -0.6280 H     1 <1>   0.0800 
 33 H       -2.8820     2.1210    -2.2010 H     1 <1>   0.0800 
 34 H        1.5720     6.1460    -1.1180 H     1 <1>   0.0800 
 35 H        2.9490     6.4620    -0.0890 H     1 <1>   0.0800 
 36 H        2.4880     7.0860     2.4150 H     1 <1>   0.0800 
 37 H        0.8250     7.1530     2.9480 H     1 <1>   0.0800 
 38 H        0.8720     8.4790    -0.9590 H     1 <1>   0.0800 
 39 H        2.5420     8.4130    -1.4720 H     1 <1>   0.0800 
 40 H        1.8010     9.4100     2.5370 H     1 <1>   0.0800 
 41 H        0.4140     9.0960     1.5200 H     1 <1>   0.0800 
 42 H        0.6870    10.9640    -0.3290 H     1 <1>   0.1500 
 43 H        4.6550    10.0120     0.8040 H     1 <1>   0.1500 
 44 H        5.3500    12.3390     0.3630 H     1 <1>   0.1500 
 45 H        3.7010    13.9790    -0.4270 H     1 <1>   0.1500 
 46 H        0.1000    13.1530    -1.0580 H     1 <1>   0.0800 
 47 H        1.3870    14.0180    -1.8610 H     1 <1>   0.0800 
 48 H        0.9750    14.4010    -0.2040 H     1 <1>   0.0800 
@<TRIPOS>BOND
  1   1   2  1   
  2   1   3  1   
  3   2   4  ar  
  4   2   5  ar  
  5   3  25  1   
  6   3  26  1   
  7   3  27  1   
  8   4   6  ar  
  9   5   7  ar  
 10   5  28  1   
 11   6   8  ar  
 12   6   9  1   
 13   7   8  ar  
 14   7  10  1   
 15   9  11  1   
 16   9  29  1   
 17  10  12  1   
 18  11  13  1   
 19  11  14  1   
 20  11  30  1   
 21  12  31  1   
 22  12  32  1   
 23  12  33  1   
 24  13  15  1   
 25  13  34  1   
 26  13  35  1   
 27  14  16  1   
 28  14  36  1   
 29  14  37  1   
 30  15  17  1   
 31  15  38  1   
 32  15  39  1   
 33  16  17  1   
 34  16  40  1   
 35  16  41  1   
 36  17  18  1   
 37  18  19  ar  
 38  18  20  ar  
 39  19  21  ar  
 40  19  42  1   
 41  20  22  ar  
 42  20  43  1   
 43  21  23  ar  
 44  21  24  1   
 45  22  23  ar  
 46  22  44  1   
 47  23  45  1   
 48  24  46  1   
 49  24  47  1   
 50  24  48  1   
@<TRIPOS>SUBSTRUCTURE
  1 ****  11 GROUP 4 **** **** 0

# MOE 2024.06 (io_trps.svl 2023.06)
