@<TRIPOS>MOLECULE
NONAME
43 45 1 0 0 
SMALL
USER_CHARGES


@<TRIPOS>ATOM
  1 F       -0.0080     0.8650    -1.8050 F     1 <1>  -0.1900 
  2 C        1.1240     0.9420    -1.1500 C.ar  1 <1>   0.1900 
  3 C        1.8100    -0.2240    -0.8260 C.ar  1 <1>   0.0820 
  4 C        1.5890     2.1910    -0.7860 C.ar  1 <1>  -0.1500 
  5 O        1.3370    -1.4390    -1.1930 O.3   1 <1>  -0.3630 
  6 C        3.0050    -0.1210    -0.1270 C.ar  1 <1>  -0.1500 
  7 C        2.7780     2.2780    -0.0790 C.ar  1 <1>  -0.1500 
  8 C        0.7850    -2.2540    -0.1900 C.3   1 <1>   0.2000 
  9 C        3.4810     1.1270     0.2460 C.ar  1 <1>  -0.1500 
 10 C        0.7170    -3.6720    -0.7570 C.3   1 <1>  -0.1600 
 11 C       -0.6100    -1.7250     0.1630 C.3   1 <1>  -0.1600 
 12 C       -0.0650    -4.6030     0.1640 C.3   1 <1>   0.3430 
 13 C       -1.3640    -2.6970     1.0620 C.3   1 <1>   0.3430 
 14 N       -1.4240    -4.0350     0.4100 N.4   1 <1>  -0.9590 
 15 C       -2.2890    -4.9740     1.1760 C.3   1 <1>   0.4860 
 16 C       -2.5090    -6.2280     0.3480 C.ar  1 <1>  -0.1430 
 17 C       -3.3490    -6.2070    -0.7580 C.ar  1 <1>  -0.1500 
 18 C       -1.8680    -7.4100     0.6890 C.ar  1 <1>  -0.1500 
 19 C       -3.5500    -7.3440    -1.5340 C.ar  1 <1>   0.0730 
 20 C       -2.0590    -8.5480    -0.0720 C.ar  1 <1>  -0.1500 
 21 C       -4.4150    -7.3040    -2.6790 C.1   1 <1>   0.4840 
 22 C       -2.8920    -8.5130    -1.1760 C.ar  1 <1>  -0.1500 
 23 N       -5.0990    -7.2370    -3.5880 N.1   1 <1>  -0.5570 
 24 H        1.0330     3.0720    -1.0510 H     1 <1>   0.1500 
 25 H        3.5640    -1.0060     0.1150 H     1 <1>   0.1500 
 26 H        3.1590     3.2420     0.2140 H     1 <1>   0.1500 
 27 H        1.4330    -2.2290     0.6710 H     1 <1>   0.0800 
 28 H        4.4090     1.2060     0.7890 H     1 <1>   0.1500 
 29 H        1.7150    -4.0540    -0.8760 H     1 <1>   0.0800 
 30 H        0.2480    -3.6580    -1.7260 H     1 <1>   0.0800 
 31 H       -1.1770    -1.5590    -0.7370 H     1 <1>   0.0800 
 32 H       -0.5170    -0.7840     0.6760 H     1 <1>   0.0800 
 33 H        0.4610    -4.7160     1.0980 H     1 <1>   0.0800 
 34 H       -0.1450    -5.5730    -0.3000 H     1 <1>   0.0800 
 35 H       -2.3600    -2.3210     1.2350 H     1 <1>   0.0800 
 36 H       -0.8600    -2.7740     2.0130 H     1 <1>   0.0800 
 37 H       -1.8630    -3.9160    -0.5130 H     1 <1>   0.4500 
 38 H       -3.2430    -4.5160     1.3820 H     1 <1>   0.0800 
 39 H       -1.8240    -5.2290     2.1150 H     1 <1>   0.0800 
 40 H       -3.8690    -5.3040    -1.0330 H     1 <1>   0.1500 
 41 H       -1.2190    -7.4650     1.5480 H     1 <1>   0.1500 
 42 H       -1.5610    -9.4670     0.1940 H     1 <1>   0.1500 
 43 H       -3.0340    -9.4070    -1.7620 H     1 <1>   0.1500 
@<TRIPOS>BOND
  1   1   2  1   
  2   2   3  ar  
  3   2   4  ar  
  4   3   5  1   
  5   3   6  ar  
  6   4   7  ar  
  7   4  24  1   
  8   5   8  1   
  9   6   9  ar  
 10   6  25  1   
 11   7   9  ar  
 12   7  26  1   
 13   8  10  1   
 14   8  11  1   
 15   8  27  1   
 16   9  28  1   
 17  10  12  1   
 18  10  29  1   
 19  10  30  1   
 20  11  13  1   
 21  11  31  1   
 22  11  32  1   
 23  12  14  1   
 24  12  33  1   
 25  12  34  1   
 26  13  14  1   
 27  13  35  1   
 28  13  36  1   
 29  14  15  1   
 30  14  37  1   
 31  15  16  1   
 32  15  38  1   
 33  15  39  1   
 34  16  17  ar  
 35  16  18  ar  
 36  17  19  ar  
 37  17  40  1   
 38  18  20  ar  
 39  18  41  1   
 40  19  21  1   
 41  19  22  ar  
 42  20  22  ar  
 43  20  42  1   
 44  21  23  3   
 45  22  43  1   
@<TRIPOS>SUBSTRUCTURE
  1 ****  14 GROUP 4 **** **** 0

# MOE 2024.06 (io_trps.svl 2023.06)
