@<TRIPOS>MOLECULE
NONAME
52 53 1 0 0 
SMALL
USER_CHARGES


@<TRIPOS>ATOM
  1 S       -0.4930     0.3750     0.6150 S.o2  1 <1>   1.0900 
  2 O       -1.7980     0.8790     0.9720 O.2   1 <1>  -0.6500 
  3 O       -0.1740    -1.0330     0.6030 O.2   1 <1>  -0.6500 
  4 C        0.7370     1.2250     1.5920 C.3   1 <1>  -0.0550 
  5 C        0.0080     1.1230    -0.9290 C.3   1 <1>  -0.0550 
  6 C        1.2660     2.4080     0.7630 C.3   1 <1>  -0.0800 
  7 C        1.3110     1.9060    -0.6910 C.3   1 <1>  -0.1600 
  8 C        2.6220     2.9180     1.2860 C.3   1 <1>  -0.1600 
  9 C        3.1060     4.1520     0.5140 C.3   1 <1>   0.3430 
 10 N        4.3470     4.7190     1.1360 N.4   1 <1>  -0.9590 
 11 C        4.4820     6.1740     0.7360 C.3   1 <1>   0.3430 
 12 C        5.5370     3.8600     0.8410 C.3   1 <1>   0.3430 
 13 C        5.7640     6.9190     1.2090 C.3   1 <1>   0.3430 
 14 C        6.6760     4.1830     1.8080 C.3   1 <1>  -0.1600 
 15 N        7.0450     6.3940     0.6020 N.4   1 <1>  -0.9590 
 16 C        7.6690     5.2490     1.3350 C.3   1 <1>   0.3430 
 17 C        8.0700     7.4850     0.4890 C.3   1 <1>   0.3430 
 18 C        7.7230     8.4830    -0.6320 C.3   1 <1>  -0.0800 
 19 C        7.4770     7.7980    -1.9880 C.3   1 <1>  -0.2400 
 20 C        8.8680     9.4930    -0.7790 C.3   1 <1>  -0.2400 
 21 H        1.5410     0.5430     1.7980 H     1 <1>   0.0800 
 22 H        0.3230     1.5540     2.5270 H     1 <1>   0.0800 
 23 H       -0.7600     1.8040    -1.2480 H     1 <1>   0.0800 
 24 H        0.1370     0.3800    -1.6930 H     1 <1>   0.0800 
 25 H        0.5340     3.1990     0.8270 H     1 <1>   0.0800 
 26 H        1.3990     2.7090    -1.4020 H     1 <1>   0.0800 
 27 H        2.1410     1.2310    -0.8210 H     1 <1>   0.0800 
 28 H        3.3410     2.1200     1.2100 H     1 <1>   0.0800 
 29 H        2.5040     3.1730     2.3250 H     1 <1>   0.0800 
 30 H        2.3190     4.8900     0.5370 H     1 <1>   0.0800 
 31 H        3.2880     3.8930    -0.5180 H     1 <1>   0.0800 
 32 H        4.1840     4.6780     2.1550 H     1 <1>   0.4500 
 33 H        3.6320     6.7120     1.1260 H     1 <1>   0.0800 
 34 H        4.4300     6.2520    -0.3370 H     1 <1>   0.0800 
 35 H        5.8540     3.9780    -0.1830 H     1 <1>   0.0800 
 36 H        5.2690     2.8250     0.9820 H     1 <1>   0.0800 
 37 H        5.8270     6.8900     2.2850 H     1 <1>   0.0800 
 38 H        5.6460     7.9530     0.9320 H     1 <1>   0.0800 
 39 H        7.2480     3.2810     1.9490 H     1 <1>   0.0800 
 40 H        6.2910     4.4390     2.7790 H     1 <1>   0.0800 
 41 H        6.8800     6.1110    -0.3750 H     1 <1>   0.4500 
 42 H        8.3990     4.7830     0.6910 H     1 <1>   0.0800 
 43 H        8.2020     5.6190     2.1980 H     1 <1>   0.0800 
 44 H        9.0300     7.0510     0.2570 H     1 <1>   0.0800 
 45 H        8.1660     8.0090     1.4270 H     1 <1>   0.0800 
 46 H        6.8450     9.0430    -0.3590 H     1 <1>   0.0800 
 47 H        8.3250     7.1980    -2.2750 H     1 <1>   0.0800 
 48 H        7.3330     8.5440    -2.7530 H     1 <1>   0.0800 
 49 H        6.5960     7.1840    -1.9770 H     1 <1>   0.0800 
 50 H        9.7810     9.0060    -1.0770 H     1 <1>   0.0800 
 51 H        9.0440    10.0130     0.1470 H     1 <1>   0.0800 
 52 H        8.6240    10.2300    -1.5260 H     1 <1>   0.0800 
@<TRIPOS>BOND
  1   1   2  2   
  2   1   3  2   
  3   1   4  1   
  4   1   5  1   
  5   4   6  1   
  6   4  21  1   
  7   4  22  1   
  8   5   7  1   
  9   5  23  1   
 10   5  24  1   
 11   6   7  1   
 12   6   8  1   
 13   6  25  1   
 14   7  26  1   
 15   7  27  1   
 16   8   9  1   
 17   8  28  1   
 18   8  29  1   
 19   9  10  1   
 20   9  30  1   
 21   9  31  1   
 22  10  11  1   
 23  10  12  1   
 24  10  32  1   
 25  11  13  1   
 26  11  33  1   
 27  11  34  1   
 28  12  14  1   
 29  12  35  1   
 30  12  36  1   
 31  13  15  1   
 32  13  37  1   
 33  13  38  1   
 34  14  16  1   
 35  14  39  1   
 36  14  40  1   
 37  15  16  1   
 38  15  17  1   
 39  15  41  1   
 40  16  42  1   
 41  16  43  1   
 42  17  18  1   
 43  17  44  1   
 44  17  45  1   
 45  18  19  1   
 46  18  20  1   
 47  18  46  1   
 48  19  47  1   
 49  19  48  1   
 50  19  49  1   
 51  20  50  1   
 52  20  51  1   
 53  20  52  1   
@<TRIPOS>SUBSTRUCTURE
  1 ****  10 GROUP 4 **** **** 0

# MOE 2024.06 (io_trps.svl 2023.06)
