@<TRIPOS>MOLECULE
NONAME
49 53 1 0 0 
SMALL
USER_CHARGES


@<TRIPOS>ATOM
  1 S       -0.5600    -0.6780    -0.3700 S.3   1 <1>  -0.2820 
  2 C       -1.9400    -1.3430     0.4590 C.2   1 <1>   0.6510 
  3 C       -1.0080     0.9310     0.1910 C.2   1 <1>   0.5910 
  4 N       -2.2330    -2.6050     0.4450 N.2   1 <1>  -0.6210 
  5 N       -2.6100    -0.3200     1.0740 N.am  1 <1>  -0.0580 
  6 N       -2.0570     0.9590     0.9040 N.2   1 <1>  -0.5120 
  7 C       -0.1000     2.0720    -0.2420 C.3   1 <1>  -0.1000 
  8 C       -3.3540    -2.9550     1.1500 C.2   1 <1>   0.0330 
  9 C       -3.7570    -0.6550     1.7770 C.2   1 <1>   0.6160 
 10 C       -0.6110     3.4760    -0.3680 C.3   1 <1>  -0.2000 
 11 C       -0.2420     2.7000    -1.5960 C.3   1 <1>  -0.2000 
 12 C       -4.1100    -2.0300     1.7990 C.2   1 <1>  -0.1360 
 13 C       -3.7030    -4.4430     1.1540 C.3   1 <1>   0.4810 
 14 O       -4.4450     0.1780     2.3460 O.2   1 <1>  -0.5700 
 15 N       -3.5660    -4.9730    -0.2320 N.4   1 <1>  -0.9590 
 16 C       -4.6760    -4.4830    -1.1060 C.3   1 <1>   0.3430 
 17 C       -3.6190    -6.4660    -0.2560 C.3   1 <1>   0.3430 
 18 C       -5.7290    -5.5940    -1.0800 C.3   1 <1>   0.2000 
 19 C       -4.8620    -6.8540    -1.0680 C.3   1 <1>  -0.0800 
 20 O       -6.4400    -5.4940     0.1140 O.3   1 <1>  -0.6800 
 21 C       -5.5320    -8.1500    -0.5700 C.3   1 <1>   0.0200 
 22 C       -4.5030    -9.2570    -0.4430 C.2   1 <1>  -0.0400 
 23 O       -3.6850    -9.5000    -1.4310 O.3   1 <1>  -0.0190 
 24 C       -4.2100   -10.1060     0.5540 C.2   1 <1>  -0.1500 
 25 N       -2.8500   -10.4530    -1.1440 N.2   1 <1>  -0.4100 
 26 C       -3.1470   -10.8460     0.0420 C.2   1 <1>   0.1080 
 27 C       -2.4330   -11.9620     0.7720 C.3   1 <1>  -0.0590 
 28 H        0.8970     1.9500     0.1430 H     1 <1>   0.1000 
 29 H       -1.6520     3.6710    -0.1690 H     1 <1>   0.1000 
 30 H        0.0240     4.2870    -0.0540 H     1 <1>   0.1000 
 31 H        0.6480     2.9770    -2.1350 H     1 <1>   0.1000 
 32 H       -1.0340     2.3750    -2.2500 H     1 <1>   0.1000 
 33 H       -4.9960    -2.2750     2.3550 H     1 <1>   0.1500 
 34 H       -4.7040    -4.5970     1.5240 H     1 <1>   0.0800 
 35 H       -3.0130    -4.9540     1.8050 H     1 <1>   0.0800 
 36 H       -2.6630    -4.6000    -0.5680 H     1 <1>   0.4500 
 37 H       -5.0850    -3.5450    -0.7680 H     1 <1>   0.0800 
 38 H       -4.3120    -4.3680    -2.1140 H     1 <1>   0.0800 
 39 H       -2.7320    -6.8830    -0.7090 H     1 <1>   0.0800 
 40 H       -3.7070    -6.8510     0.7480 H     1 <1>   0.0800 
 41 H       -6.4140    -5.5370    -1.9100 H     1 <1>   0.0800 
 42 H       -4.5280    -7.0280    -2.0770 H     1 <1>   0.0800 
 43 H       -7.3080    -5.9470     0.0460 H     1 <1>   0.4000 
 44 H       -6.2920    -8.4580    -1.2660 H     1 <1>   0.0800 
 45 H       -5.9930    -8.0060     0.3910 H     1 <1>   0.0800 
 46 H       -4.6560   -10.2230     1.5250 H     1 <1>   0.1500 
 47 H       -3.1270   -12.7490     1.0050 H     1 <1>   0.0800 
 48 H       -2.0000   -11.5890     1.6820 H     1 <1>   0.0800 
 49 H       -1.6500   -12.3630     0.1540 H     1 <1>   0.0800 
@<TRIPOS>BOND
  1   1   2  1   
  2   1   3  1   
  3   2   4  2   
  4   2   5  1   
  5   3   6  2   
  6   3   7  1   
  7   4   8  1   
  8   5   6  1   
  9   5   9  am  
 10   7  10  1   
 11   7  11  1   
 12   7  28  1   
 13   8  12  2   
 14   8  13  1   
 15   9  12  1   
 16   9  14  2   
 17  10  11  1   
 18  10  29  1   
 19  10  30  1   
 20  11  31  1   
 21  11  32  1   
 22  12  33  1   
 23  13  15  1   
 24  13  34  1   
 25  13  35  1   
 26  15  16  1   
 27  15  17  1   
 28  15  36  1   
 29  16  18  1   
 30  16  37  1   
 31  16  38  1   
 32  17  19  1   
 33  17  39  1   
 34  17  40  1   
 35  18  19  1   
 36  18  20  1   
 37  18  41  1   
 38  19  21  1   
 39  19  42  1   
 40  20  43  1   
 41  21  22  1   
 42  21  44  1   
 43  21  45  1   
 44  22  23  1   
 45  22  24  2   
 46  23  25  1   
 47  24  26  1   
 48  24  46  1   
 49  25  26  2   
 50  26  27  1   
 51  27  47  1   
 52  27  48  1   
 53  27  49  1   
@<TRIPOS>SUBSTRUCTURE
  1 ****  15 GROUP 4 **** **** 0

# MOE 2024.06 (io_trps.svl 2023.06)
