@<TRIPOS>MOLECULE
NONAME
51 54 1 0 0 
SMALL
USER_CHARGES


@<TRIPOS>ATOM
  1 O        0.0850     1.3550    -1.4130 O.2   1 <1>  -0.5700 
  2 C       -0.2470     2.4880    -1.1520 C.2   1 <1>   0.5690 
  3 N       -1.0350     2.8230    -0.0830 N.am  1 <1>  -0.5090 
  4 C        0.2460     3.6140    -2.0510 C.3   1 <1>   0.1810 
  5 C       -1.3990     4.2560     0.1740 C.3   1 <1>   0.3640 
  6 C       -1.3760     1.8500     0.9830 C.3   1 <1>   0.0490 
  7 O        0.5860     4.7380    -1.2840 O.3   1 <1>  -0.5600 
  8 C       -2.8560     4.5190    -0.2230 C.ar  1 <1>  -0.1440 
  9 C       -0.4910     5.3000    -0.5430 C.3   1 <1>   0.2610 
 10 C       -2.1250     0.6100     0.6070 C.3   1 <1>  -0.2000 
 11 C       -2.7970     1.6650     1.4230 C.3   1 <1>  -0.2000 
 12 C       -3.6130     5.4030     0.5350 C.ar  1 <1>  -0.1500 
 13 C       -3.4450     3.9110    -1.3260 C.ar  1 <1>  -0.1500 
 14 C        0.0410     6.3080     0.4830 C.2   1 <1>   0.5690 
 15 C       -4.9280     5.6780     0.2040 C.ar  1 <1>  -0.1500 
 16 C       -4.7600     4.1840    -1.6590 C.ar  1 <1>  -0.1500 
 17 O       -0.7360     6.8930     1.2000 O.2   1 <1>  -0.5700 
 18 N        1.3780     6.5270     0.5690 N.am  1 <1>  -0.7300 
 19 C       -5.5100     5.0670    -0.9020 C.ar  1 <1>   0.0820 
 20 C        2.0390     7.5210     1.4300 C.3   1 <1>   0.2840 
 21 O       -6.7900     5.2790    -1.2980 O.3   1 <1>  -0.3620 
 22 C        3.0620     8.2680     0.5990 C.ar  1 <1>  -0.1440 
 23 C       -7.6360     6.1630    -0.5970 C.3   1 <1>   0.0400 
 24 C        2.6460     9.2210    -0.3180 C.ar  1 <1>   0.1600 
 25 C        4.4140     8.0170     0.7320 C.ar  1 <1>  -0.1500 
 26 N        3.4510     9.9300    -1.0940 N.ar  1 <1>  -0.6200 
 27 C        5.2670     8.7480    -0.0680 C.ar  1 <1>  -0.1500 
 28 C        4.7410     9.6780    -0.9490 C.ar  1 <1>   0.1600 
 29 H       -0.5110     3.8880    -2.7620 H     1 <1>   0.0800 
 30 H        1.1280     3.2940    -2.5760 H     1 <1>   0.0800 
 31 H       -1.3190     4.4120     1.2360 H     1 <1>   0.0800 
 32 H       -0.5930     1.7560     1.7170 H     1 <1>   0.1000 
 33 H       -1.0880     5.8560    -1.2430 H     1 <1>   0.0800 
 34 H       -2.4140     0.4790    -0.4220 H     1 <1>   0.1000 
 35 H       -1.8540    -0.3160     1.0810 H     1 <1>   0.1000 
 36 H       -2.9960     1.4490     2.4580 H     1 <1>   0.1000 
 37 H       -3.5980     2.2110     0.9580 H     1 <1>   0.1000 
 38 H       -3.1800     5.8910     1.3940 H     1 <1>   0.1500 
 39 H       -2.8960     3.2140    -1.9330 H     1 <1>   0.1500 
 40 H       -5.4790     6.3670     0.8140 H     1 <1>   0.1500 
 41 H       -5.2150     3.7110    -2.5110 H     1 <1>   0.1500 
 42 H        1.9830     6.0350    -0.0970 H     1 <1>   0.3700 
 43 H        1.3130     8.2100     1.8300 H     1 <1>   0.0800 
 44 H        2.5170     7.0180     2.2530 H     1 <1>   0.0800 
 45 H       -8.5910     6.1720    -1.0890 H     1 <1>   0.0800 
 46 H       -7.2050     7.1480    -0.6160 H     1 <1>   0.0800 
 47 H       -7.7490     5.8100     0.4130 H     1 <1>   0.0800 
 48 H        1.5900     9.4100    -0.4210 H     1 <1>   0.1500 
 49 H        4.7930     7.2870     1.4260 H     1 <1>   0.1500 
 50 H        6.3300     8.6020    -0.0120 H     1 <1>   0.1500 
 51 H        5.4180    10.2420    -1.5680 H     1 <1>   0.1500 
@<TRIPOS>BOND
  1   1   2  2   
  2   2   3  am  
  3   2   4  1   
  4   3   5  1   
  5   3   6  1   
  6   4   7  1   
  7   4  29  1   
  8   4  30  1   
  9   5   8  1   
 10   5   9  1   
 11   5  31  1   
 12   6  10  1   
 13   6  11  1   
 14   6  32  1   
 15   7   9  1   
 16   8  12  ar  
 17   8  13  ar  
 18   9  14  1   
 19   9  33  1   
 20  10  11  1   
 21  10  34  1   
 22  10  35  1   
 23  11  36  1   
 24  11  37  1   
 25  12  15  ar  
 26  12  38  1   
 27  13  16  ar  
 28  13  39  1   
 29  14  17  2   
 30  14  18  am  
 31  15  19  ar  
 32  15  40  1   
 33  16  19  ar  
 34  16  41  1   
 35  18  20  1   
 36  18  42  1   
 37  19  21  1   
 38  20  22  1   
 39  20  43  1   
 40  20  44  1   
 41  21  23  1   
 42  22  24  ar  
 43  22  25  ar  
 44  23  45  1   
 45  23  46  1   
 46  23  47  1   
 47  24  26  ar  
 48  24  48  1   
 49  25  27  ar  
 50  25  49  1   
 51  26  28  ar  
 52  27  28  ar  
 53  27  50  1   
 54  28  51  1   
@<TRIPOS>SUBSTRUCTURE
  1 ****   9 GROUP 4 **** **** 0

# MOE 2024.06 (io_trps.svl 2023.06)
