@<TRIPOS>MOLECULE
NONAME
45 46 1 0 0 
SMALL
USER_CHARGES


@<TRIPOS>ATOM
  1 S       -0.0460     0.1670     2.2040 S.o2  1 <1>   1.4470 
  2 O       -0.2580     1.2900     3.0930 O.2   1 <1>  -0.6500 
  3 O        0.3110    -1.1110     2.7800 O.2   1 <1>  -0.6500 
  4 N       -1.4540    -0.0570     1.2900 N.am  1 <1>  -0.8490 
  5 C        1.1980     0.6120     0.9710 C.ar  1 <1>  -0.0090 
  6 C       -1.4100    -1.2920     0.4730 C.3   1 <1>   0.1960 
  7 C       -2.6600    -0.0850     2.1270 C.3   1 <1>   0.1960 
  8 C        1.0560     1.7390     0.1780 C.ar  1 <1>   0.1900 
  9 C        2.3390    -0.1570     0.7650 C.ar  1 <1>  -0.1500 
 10 C       -2.5880    -1.3000    -0.5180 C.3   1 <1>   0.2000 
 11 C       -3.9180    -0.0930     1.2430 C.3   1 <1>  -0.1600 
 12 F        0.0070     2.5040     0.3200 F     1 <1>  -0.1900 
 13 C        1.9820     2.1100    -0.7800 C.ar  1 <1>  -0.1500 
 14 C        3.2820     0.1960    -0.1880 C.ar  1 <1>  -0.1500 
 15 O       -2.4630    -0.1430    -1.2840 O.3   1 <1>  -0.6800 
 16 C       -3.9360    -1.2930     0.2480 C.3   1 <1>  -0.1060 
 17 C        3.1100     1.3290    -0.9670 C.ar  1 <1>  -0.1440 
 18 C       -4.0180    -2.6350     1.0030 C.2   1 <1>   0.9060 
 19 C       -5.1210    -1.1700    -0.7550 C.3   1 <1>  -0.1600 
 20 C        4.1490     1.7060    -2.0080 C.3   1 <1>  -0.0960 
 21 O       -4.5140    -2.6740     2.1370 O.co2 1 <1>  -0.9000 
 22 O       -3.5470    -3.6510     0.4760 O.co2 1 <1>  -0.9000 
 23 C       -6.5180    -1.2250    -0.1120 C.3   1 <1>  -0.1600 
 24 C       -7.6160    -1.1500    -1.1770 C.3   1 <1>  -0.2400 
 25 H       -0.4950    -1.3370    -0.0910 H     1 <1>   0.0800 
 26 H       -1.4450    -2.1650     1.1060 H     1 <1>   0.0800 
 27 H       -2.6490    -0.9550     2.7660 H     1 <1>   0.0800 
 28 H       -2.6890     0.7880     2.7570 H     1 <1>   0.0800 
 29 H        2.4920    -1.0430     1.3590 H     1 <1>   0.1500 
 30 H       -2.5270    -2.1470    -1.1800 H     1 <1>   0.0800 
 31 H       -4.7740    -0.1470     1.8900 H     1 <1>   0.0800 
 32 H       -3.9770     0.8380     0.7100 H     1 <1>   0.0800 
 33 H        1.8150     2.9980    -1.3630 H     1 <1>   0.1500 
 34 H        4.1560    -0.4200    -0.3220 H     1 <1>   0.1500 
 35 H       -2.2930     0.5760    -0.6380 H     1 <1>   0.4000 
 36 H       -5.0320    -0.2510    -1.3070 H     1 <1>   0.0800 
 37 H       -5.0400    -1.9790    -1.4610 H     1 <1>   0.0800 
 38 H        4.4960     0.8290    -2.5230 H     1 <1>   0.0800 
 39 H        4.9870     2.1830    -1.5310 H     1 <1>   0.0800 
 40 H        3.7340     2.3830    -2.7340 H     1 <1>   0.0800 
 41 H       -6.6270    -2.1420     0.4420 H     1 <1>   0.0800 
 42 H       -6.6410    -0.4080     0.5760 H     1 <1>   0.0800 
 43 H       -7.5290    -1.9790    -1.8580 H     1 <1>   0.0800 
 44 H       -7.5380    -0.2320    -1.7320 H     1 <1>   0.0800 
 45 H       -8.5830    -1.1910    -0.7090 H     1 <1>   0.0800 
@<TRIPOS>BOND
  1   1   2  2   
  2   1   3  2   
  3   1   4  am  
  4   1   5  1   
  5   4   6  1   
  6   4   7  1   
  7   5   8  ar  
  8   5   9  ar  
  9   6  10  1   
 10   6  25  1   
 11   6  26  1   
 12   7  11  1   
 13   7  27  1   
 14   7  28  1   
 15   8  12  1   
 16   8  13  ar  
 17   9  14  ar  
 18   9  29  1   
 19  10  15  1   
 20  10  16  1   
 21  10  30  1   
 22  11  16  1   
 23  11  31  1   
 24  11  32  1   
 25  13  17  ar  
 26  13  33  1   
 27  14  17  ar  
 28  14  34  1   
 29  15  35  1   
 30  16  18  1   
 31  16  19  1   
 32  17  20  1   
 33  18  21  ar  
 34  18  22  ar  
 35  19  23  1   
 36  19  36  1   
 37  19  37  1   
 38  20  38  1   
 39  20  39  1   
 40  20  40  1   
 41  23  24  1   
 42  23  41  1   
 43  23  42  1   
 44  24  43  1   
 45  24  44  1   
 46  24  45  1   
@<TRIPOS>SUBSTRUCTURE
  1 ****   4 GROUP 4 **** **** 0

# MOE 2024.06 (io_trps.svl 2023.06)
