@<TRIPOS>MOLECULE
NONAME
57 60 1 0 0 
SMALL
USER_CHARGES


@<TRIPOS>ATOM
  1 O       -0.6690     0.4420    -1.1510 O.2   1 <1>  -0.5700 
  2 C       -0.5180     1.5690    -0.7420 C.2   1 <1>   0.5690 
  3 N       -1.5720     2.3940    -0.4540 N.am  1 <1>  -0.6600 
  4 C        0.9130     2.0840    -0.5820 C.3   1 <1>   0.1810 
  5 C       -1.3650     3.7870     0.0600 C.3   1 <1>   0.3640 
  6 C       -2.9870     1.9240    -0.5250 C.3   1 <1>   0.0600 
  7 O        1.0240     3.1830     0.2920 O.3   1 <1>  -0.5600 
  8 C       -2.2140     4.7590    -0.7790 C.ar  1 <1>  -0.1430 
  9 C        0.1230     4.2410     0.0250 C.3   1 <1>   0.2610 
 10 C       -3.2030     5.5780    -0.2290 C.ar  1 <1>  -0.1430 
 11 C       -1.9860     4.8150    -2.1510 C.ar  1 <1>  -0.1500 
 12 C        0.4020     5.4160     0.9820 C.2   1 <1>   0.5690 
 13 C       -3.9010     6.4520    -1.0490 C.ar  1 <1>  -0.1500 
 14 C       -3.5780     5.5550     1.2480 C.3   1 <1>  -0.0960 
 15 C       -2.6920     5.6850    -2.9600 C.ar  1 <1>  -0.1500 
 16 O       -0.3720     5.6350     1.8850 O.2   1 <1>  -0.5700 
 17 N        1.5170     6.2190     0.8350 N.am  1 <1>  -0.6600 
 18 C       -3.6480     6.5110    -2.4060 C.ar  1 <1>  -0.1500 
 19 C        2.6420     5.9640    -0.1160 C.3   1 <1>   0.1400 
 20 C        1.7610     7.3580     1.7780 C.3   1 <1>   0.1400 
 21 C        3.0440     7.2570    -0.8570 C.3   1 <1>   0.3430 
 22 C        2.1600     8.6330     1.0160 C.3   1 <1>   0.3430 
 23 N        3.3220     8.3980     0.0840 N.4   1 <1>  -0.9590 
 24 C        3.6860     9.6300    -0.6660 C.3   1 <1>   0.4380 
 25 C        4.2660    10.6640     0.3000 C.3   1 <1>  -0.1950 
 26 C        3.4150    11.6440     1.0510 C.3   1 <1>  -0.2000 
 27 C        4.2820    12.1110    -0.0810 C.3   1 <1>  -0.2000 
 28 H        1.2960     2.3700    -1.5430 H     1 <1>   0.0800 
 29 H        1.5260     1.2930    -0.1870 H     1 <1>   0.0800 
 30 H       -1.6900     3.7890     1.0830 H     1 <1>   0.0800 
 31 H       -3.4850     2.1180     0.4080 H     1 <1>   0.0800 
 32 H       -3.0290     0.8660    -0.7220 H     1 <1>   0.0800 
 33 H       -3.5060     2.4390    -1.3150 H     1 <1>   0.0800 
 34 H        0.3360     4.5830    -0.9680 H     1 <1>   0.0800 
 35 H       -1.2600     4.1660    -2.6070 H     1 <1>   0.1500 
 36 H       -4.6590     7.0950    -0.6360 H     1 <1>   0.1500 
 37 H       -4.5240     6.0400     1.4080 H     1 <1>   0.0800 
 38 H       -2.8400     6.0730     1.8310 H     1 <1>   0.0800 
 39 H       -3.6710     4.5470     1.6060 H     1 <1>   0.0800 
 40 H       -2.5030     5.7150    -4.0200 H     1 <1>   0.1500 
 41 H       -4.2010     7.1930    -3.0290 H     1 <1>   0.1500 
 42 H        3.4860     5.5870     0.4360 H     1 <1>   0.0800 
 43 H        2.3770     5.2160    -0.8400 H     1 <1>   0.0800 
 44 H        0.8780     7.5710     2.3570 H     1 <1>   0.0800 
 45 H        2.5390     7.0850     2.4690 H     1 <1>   0.0800 
 46 H        2.2400     7.5280    -1.5230 H     1 <1>   0.0800 
 47 H        3.9160     7.0590    -1.4590 H     1 <1>   0.0800 
 48 H        2.4120     9.3980     1.7320 H     1 <1>   0.0800 
 49 H        1.3060     8.9760     0.4550 H     1 <1>   0.0800 
 50 H        4.1320     8.1480     0.6650 H     1 <1>   0.4500 
 51 H        4.4270     9.4010    -1.4150 H     1 <1>   0.0800 
 52 H        2.8180    10.0370    -1.1610 H     1 <1>   0.0800 
 53 H        5.1680    10.3130     0.7730 H     1 <1>   0.1000 
 54 H        2.3500    11.6910     0.9010 H     1 <1>   0.1000 
 55 H        3.6980    11.9340     2.0510 H     1 <1>   0.1000 
 56 H        5.1490    12.7070     0.1540 H     1 <1>   0.1000 
 57 H        3.7970    12.4430    -0.9840 H     1 <1>   0.1000 
@<TRIPOS>BOND
  1   1   2  2   
  2   2   3  am  
  3   2   4  1   
  4   3   5  1   
  5   3   6  1   
  6   4   7  1   
  7   4  28  1   
  8   4  29  1   
  9   5   8  1   
 10   5   9  1   
 11   5  30  1   
 12   6  31  1   
 13   6  32  1   
 14   6  33  1   
 15   7   9  1   
 16   8  10  ar  
 17   8  11  ar  
 18   9  12  1   
 19   9  34  1   
 20  10  13  ar  
 21  10  14  1   
 22  11  15  ar  
 23  11  35  1   
 24  12  16  2   
 25  12  17  am  
 26  13  18  ar  
 27  13  36  1   
 28  14  37  1   
 29  14  38  1   
 30  14  39  1   
 31  15  18  ar  
 32  15  40  1   
 33  17  19  1   
 34  17  20  1   
 35  18  41  1   
 36  19  21  1   
 37  19  42  1   
 38  19  43  1   
 39  20  22  1   
 40  20  44  1   
 41  20  45  1   
 42  21  23  1   
 43  21  46  1   
 44  21  47  1   
 45  22  23  1   
 46  22  48  1   
 47  22  49  1   
 48  23  24  1   
 49  23  50  1   
 50  24  25  1   
 51  24  51  1   
 52  24  52  1   
 53  25  26  1   
 54  25  27  1   
 55  25  53  1   
 56  26  27  1   
 57  26  54  1   
 58  26  55  1   
 59  27  56  1   
 60  27  57  1   
@<TRIPOS>SUBSTRUCTURE
  1 ****  12 GROUP 4 **** **** 0

# MOE 2024.06 (io_trps.svl 2023.06)
