@<TRIPOS>MOLECULE
NONAME
55 58 1 0 0 
SMALL
USER_CHARGES


@<TRIPOS>ATOM
  1 O        1.6070    -2.2240    -2.5590 O.2   1 <1>  -0.5700 
  2 C        1.2820    -2.5230    -1.4210 C.2   1 <1>   0.5440 
  3 N        0.9410    -1.4840    -0.5720 N.am  1 <1>  -0.6600 
  4 C        1.3070    -3.9350    -1.0290 C.ar  1 <1>   0.3960 
  5 C        1.0250    -0.0620    -0.9730 C.3   1 <1>   0.1400 
  6 C        0.6390    -1.6050     0.8740 C.3   1 <1>   0.1400 
  7 N        0.4480    -4.4250    -0.1190 N.ar  1 <1>  -0.6200 
  8 C        2.2570    -4.7580    -1.6430 C.ar  1 <1>   0.1600 
  9 C        1.1410     0.7030     0.3390 C.3   1 <1>  -0.1600 
 10 C        0.4190    -0.1750     1.3570 C.3   1 <1>  -0.1600 
 11 C        0.5970    -5.7160     0.1280 C.ar  1 <1>   0.4100 
 12 N        2.4290    -6.0520    -1.4120 N.ar  1 <1>  -0.6200 
 13 N       -0.2560    -6.2710     1.0700 N.pl3 1 <1>  -0.8380 
 14 C        1.5690    -6.4960    -0.5190 C.ar  1 <1>   0.1600 
 15 C       -1.5960    -5.6490     1.2930 C.3   1 <1>   0.3530 
 16 C        0.3140    -7.0050     2.2370 C.3   1 <1>   0.1290 
 17 C       -2.5650    -6.6350     1.9380 C.ar  1 <1>  -0.1430 
 18 C       -2.8590    -7.8390     1.3170 C.ar  1 <1>  -0.1500 
 19 C       -3.1610    -6.3370     3.1550 C.ar  1 <1>  -0.1500 
 20 C       -3.7450    -8.7480     1.8900 C.ar  1 <1>  -0.0230 
 21 C       -4.0360    -7.2340     3.7420 C.ar  1 <1>  -0.1500 
 22 N       -4.0580    -9.9790     1.2480 N.pl3 1 <1>   0.5930 
 23 C       -4.3230    -8.4310     3.1140 C.ar  1 <1>  -0.1500 
 24 N       -3.8750   -11.1840     1.8470 N.2   1 <1>  -0.7070 
 25 C       -4.6170   -10.1580     0.0170 C.2   1 <1>  -0.3320 
 26 C       -4.2980   -12.0640     1.0020 C.2   1 <1>   0.1080 
 27 C       -4.7760   -11.4850    -0.1660 C.2   1 <1>  -0.1500 
 28 C       -4.9940    -9.0330    -0.9350 C.3   1 <1>  -0.0600 
 29 C       -4.2620   -13.5470     1.2900 C.3   1 <1>  -0.0590 
 30 H        0.1210     0.2070    -1.4920 H     1 <1>   0.0800 
 31 H        1.8740     0.1150    -1.6110 H     1 <1>   0.0800 
 32 H        1.4790    -2.0520     1.3770 H     1 <1>   0.0800 
 33 H       -0.2420    -2.2020     1.0330 H     1 <1>   0.0800 
 34 H        2.9140    -4.3110    -2.3700 H     1 <1>   0.1500 
 35 H        0.7140     1.6870     0.2670 H     1 <1>   0.0800 
 36 H        2.1810     0.7880     0.6010 H     1 <1>   0.0800 
 37 H        0.7860    -0.0300     2.3580 H     1 <1>   0.0800 
 38 H       -0.6360     0.0400     1.3390 H     1 <1>   0.0800 
 39 H        1.6090    -7.5400    -0.2670 H     1 <1>   0.1500 
 40 H       -2.0020    -5.3280     0.3490 H     1 <1>   0.0800 
 41 H       -1.4780    -4.7800     1.9160 H     1 <1>   0.0800 
 42 H        1.3840    -7.0850     2.1530 H     1 <1>   0.0800 
 43 H       -0.1060    -7.9960     2.2840 H     1 <1>   0.0800 
 44 H        0.0810    -6.4860     3.1500 H     1 <1>   0.0800 
 45 H       -2.3850    -8.0770     0.3810 H     1 <1>   0.1500 
 46 H       -2.9460    -5.4080     3.6540 H     1 <1>   0.1500 
 47 H       -4.4930    -7.0020     4.6880 H     1 <1>   0.1500 
 48 H       -4.9990    -9.1340     3.5730 H     1 <1>   0.1500 
 49 H       -5.1850   -12.0100    -1.0110 H     1 <1>   0.1500 
 50 H       -5.6430    -8.3310    -0.4410 H     1 <1>   0.0800 
 51 H       -5.5090    -9.4300    -1.7930 H     1 <1>   0.0800 
 52 H       -4.1150    -8.5170    -1.2750 H     1 <1>   0.0800 
 53 H       -4.8550   -13.7560     2.1610 H     1 <1>   0.0800 
 54 H       -3.2490   -13.8510     1.4770 H     1 <1>   0.0800 
 55 H       -4.6500   -14.1020     0.4560 H     1 <1>   0.0800 
@<TRIPOS>BOND
  1   1   2  2   
  2   2   3  am  
  3   2   4  1   
  4   3   5  1   
  5   3   6  1   
  6   4   7  ar  
  7   4   8  ar  
  8   5   9  1   
  9   5  30  1   
 10   5  31  1   
 11   6  10  1   
 12   6  32  1   
 13   6  33  1   
 14   7  11  ar  
 15   8  12  ar  
 16   8  34  1   
 17   9  10  1   
 18   9  35  1   
 19   9  36  1   
 20  10  37  1   
 21  10  38  1   
 22  11  13  1   
 23  11  14  ar  
 24  12  14  ar  
 25  13  15  1   
 26  13  16  1   
 27  14  39  1   
 28  15  17  1   
 29  15  40  1   
 30  15  41  1   
 31  16  42  1   
 32  16  43  1   
 33  16  44  1   
 34  17  18  ar  
 35  17  19  ar  
 36  18  20  ar  
 37  18  45  1   
 38  19  21  ar  
 39  19  46  1   
 40  20  22  1   
 41  20  23  ar  
 42  21  23  ar  
 43  21  47  1   
 44  22  24  1   
 45  22  25  1   
 46  23  48  1   
 47  24  26  2   
 48  25  27  2   
 49  25  28  1   
 50  26  27  1   
 51  26  29  1   
 52  27  49  1   
 53  28  50  1   
 54  28  51  1   
 55  28  52  1   
 56  29  53  1   
 57  29  54  1   
 58  29  55  1   
@<TRIPOS>SUBSTRUCTURE
  1 ****  15 GROUP 4 **** **** 0

# MOE 2024.06 (io_trps.svl 2023.06)
