@<TRIPOS>MOLECULE
NONAME
41 43 1 0 0 
SMALL
USER_CHARGES


@<TRIPOS>ATOM
  1 O        0.7110    -0.1720     1.2430 O.2   1 <1>  -0.5700 
  2 C        1.8120    -0.1570     0.7400 C.2   1 <1>   0.7150 
  3 N        2.4020    -1.3740     0.6220 N.am  1 <1>  -0.7300 
  4 C        2.3860     1.0880     0.3190 C.2   1 <1>  -0.2370 
  5 C        3.8050    -1.8220     0.4010 C.3   1 <1>   0.1400 
  6 N        3.4560     1.2530    -0.4940 N.pl3 1 <1>   0.3140 
  7 C        1.9760     2.3480     0.6180 C.2   1 <1>  -0.1500 
  8 C        4.8040    -0.7250     0.0020 C.3   1 <1>   0.2000 
  9 N        3.7420     2.5400    -0.7140 N.2   1 <1>  -0.7070 
 10 C        4.2870     0.2020    -1.0960 C.3   1 <1>   0.0960 
 11 C        2.8360     3.2250    -0.0340 C.2   1 <1>   0.2030 
 12 O        5.9620    -1.3440    -0.4510 O.3   1 <1>  -0.6800 
 13 C        2.7500     4.6770     0.0270 C.2   1 <1>   0.7160 
 14 O        1.8910     5.2480     0.6760 O.2   1 <1>  -0.5700 
 15 N        3.6640     5.4270    -0.6590 N.am  1 <1>  -0.7300 
 16 C        3.7400     6.9050    -0.7150 C.3   1 <1>   0.1400 
 17 C        5.0280     7.3930    -0.0510 C.3   1 <1>   0.0200 
 18 C        5.1670     8.9040    -0.1160 C.2   1 <1>  -0.0400 
 19 O        6.2770     9.4370     0.3520 O.3   1 <1>  -0.2800 
 20 C        4.3430     9.8700    -0.5800 C.2   1 <1>  -0.1500 
 21 C        6.1940    10.7420     0.2010 C.2   1 <1>  -0.0400 
 22 C        5.0190    11.0780    -0.3710 C.2   1 <1>  -0.1500 
 23 C        7.3510    11.6000     0.6640 C.3   1 <1>  -0.0600 
 24 H        1.7810    -2.1140     0.9590 H     1 <1>   0.3700 
 25 H        3.7850    -2.5700    -0.3720 H     1 <1>   0.0800 
 26 H        4.1580    -2.2890     1.3050 H     1 <1>   0.0800 
 27 H        1.1440     2.6390     1.2370 H     1 <1>   0.1500 
 28 H        5.0850    -0.1480     0.8680 H     1 <1>   0.0800 
 29 H        5.1140     0.6800    -1.5880 H     1 <1>   0.0800 
 30 H        3.7000    -0.3350    -1.8160 H     1 <1>   0.0800 
 31 H        5.8080    -1.8560    -1.2690 H     1 <1>   0.4000 
 32 H        4.3590     4.8890    -1.1860 H     1 <1>   0.3700 
 33 H        2.8910     7.3350    -0.2100 H     1 <1>   0.0800 
 34 H        3.7170     7.2200    -1.7440 H     1 <1>   0.0800 
 35 H        5.8750     6.9530    -0.5440 H     1 <1>   0.0800 
 36 H        5.0340     7.0920     0.9810 H     1 <1>   0.0800 
 37 H        3.3670     9.7810    -1.0220 H     1 <1>   0.1500 
 38 H        4.6480    12.0540    -0.6260 H     1 <1>   0.1500 
 39 H        8.2430    11.3200     0.1340 H     1 <1>   0.0800 
 40 H        7.5100    11.4550     1.7170 H     1 <1>   0.0800 
 41 H        7.1430    12.6370     0.4790 H     1 <1>   0.0800 
@<TRIPOS>BOND
  1   1   2  2   
  2   2   3  am  
  3   2   4  1   
  4   3   5  1   
  5   3  24  1   
  6   4   6  1   
  7   4   7  2   
  8   5   8  1   
  9   5  25  1   
 10   5  26  1   
 11   6   9  1   
 12   6  10  1   
 13   7  11  1   
 14   7  27  1   
 15   8  10  1   
 16   8  12  1   
 17   8  28  1   
 18   9  11  2   
 19  10  29  1   
 20  10  30  1   
 21  11  13  1   
 22  12  31  1   
 23  13  14  2   
 24  13  15  am  
 25  15  16  1   
 26  15  32  1   
 27  16  17  1   
 28  16  33  1   
 29  16  34  1   
 30  17  18  1   
 31  17  35  1   
 32  17  36  1   
 33  18  19  1   
 34  18  20  2   
 35  19  21  1   
 36  20  22  1   
 37  20  37  1   
 38  21  22  2   
 39  21  23  1   
 40  22  38  1   
 41  23  39  1   
 42  23  40  1   
 43  23  41  1   
@<TRIPOS>SUBSTRUCTURE
  1 ****  13 GROUP 4 **** **** 0

# MOE 2024.06 (io_trps.svl 2023.06)
