@<TRIPOS>MOLECULE
NONAME
30 31 1 0 0 
SMALL
USER_CHARGES


@<TRIPOS>ATOM
  1 O       -0.7620     2.9930     1.4430 O.2   1 <1>  -0.5700 
  2 C       -0.2620     2.6500     0.4000 C.2   1 <1>   0.6590 
  3 O       -0.8810     1.8130    -0.4250 O.3   1 <1>  -0.4300 
  4 C        1.1000     3.1690    -0.0760 C.3   1 <1>   0.2610 
  5 C       -2.1340     1.2530    -0.1050 C.3   1 <1>   0.1200 
  6 O        2.0660     2.1280    -0.0030 O.3   1 <1>  -0.3630 
  7 C        1.6130     4.3810     0.7150 C.3   1 <1>  -0.1600 
  8 C       -2.5530     0.3430    -1.2550 C.3   1 <1>  -0.2400 
  9 C        3.3720     2.4050    -0.2310 C.ar  1 <1>   0.0820 
 10 C        2.9220     4.8620     0.1030 C.3   1 <1>   0.3440 
 11 C        3.8620     3.7070    -0.2020 C.ar  1 <1>  -0.1440 
 12 C        4.2190     1.3410    -0.4940 C.ar  1 <1>  -0.1500 
 13 O        3.5250     5.7020     1.0140 O.3   1 <1>  -0.6800 
 14 C        5.2080     3.9250    -0.4630 C.ar  1 <1>  -0.1500 
 15 C        5.5600     1.5690    -0.7460 C.ar  1 <1>  -0.1500 
 16 C        6.0540     2.8620    -0.7320 C.ar  1 <1>  -0.1500 
 17 H        1.0040     3.4330    -1.1140 H     1 <1>   0.0800 
 18 H       -2.8410     2.0530     0.0350 H     1 <1>   0.0800 
 19 H       -2.0330     0.6960     0.8120 H     1 <1>   0.0800 
 20 H        1.7540     4.0870     1.7400 H     1 <1>   0.0800 
 21 H        0.8880     5.1740     0.6790 H     1 <1>   0.0800 
 22 H       -2.6390     0.9100    -2.1640 H     1 <1>   0.0800 
 23 H       -3.5060    -0.1020    -1.0360 H     1 <1>   0.0800 
 24 H       -1.8300    -0.4420    -1.3870 H     1 <1>   0.0800 
 25 H        2.7340     5.4270    -0.7950 H     1 <1>   0.0800 
 26 H        3.8230     0.3420    -0.5030 H     1 <1>   0.1500 
 27 H        3.9190     5.1550     1.7200 H     1 <1>   0.4000 
 28 H        5.6040     4.9270    -0.4550 H     1 <1>   0.1500 
 29 H        6.2180     0.7420    -0.9520 H     1 <1>   0.1500 
 30 H        7.0960     3.0410    -0.9310 H     1 <1>   0.1500 
@<TRIPOS>BOND
  1   1   2  2   
  2   2   3  1   
  3   2   4  1   
  4   3   5  1   
  5   4   6  1   
  6   4   7  1   
  7   4  17  1   
  8   5   8  1   
  9   5  18  1   
 10   5  19  1   
 11   6   9  1   
 12   7  10  1   
 13   7  20  1   
 14   7  21  1   
 15   8  22  1   
 16   8  23  1   
 17   8  24  1   
 18   9  11  ar  
 19   9  12  ar  
 20  10  11  1   
 21  10  13  1   
 22  10  25  1   
 23  11  14  ar  
 24  12  15  ar  
 25  12  26  1   
 26  13  27  1   
 27  14  16  ar  
 28  14  28  1   
 29  15  16  ar  
 30  15  29  1   
 31  16  30  1   
@<TRIPOS>SUBSTRUCTURE
  1 ****   6 GROUP 4 **** **** 0

# MOE 2024.06 (io_trps.svl 2023.06)
