@<TRIPOS>MOLECULE
NONAME
37 38 1 0 0 
SMALL
USER_CHARGES


@<TRIPOS>ATOM
  1 O       -1.0150     1.3930    -1.4450 O.2   1 <1>  -0.5700 
  2 C       -0.1890     0.5130    -1.4130 C.2   1 <1>   0.5690 
  3 N        1.1120     0.7390    -1.7050 N.am  1 <1>  -0.7300 
  4 C       -0.6020    -0.9090    -1.0170 C.3   1 <1>   0.1710 
  5 C        1.7500     2.0730    -1.8290 C.3   1 <1>   0.3210 
  6 N        0.5200    -1.7500    -0.5000 N.3   1 <1>  -0.8100 
  7 C        3.0350     2.1750    -1.0050 C.2   1 <1>   0.3350 
  8 C        0.9700    -1.2950     0.8360 C.3   1 <1>   0.1100 
  9 C        0.1300    -3.1710    -0.4220 C.3   1 <1>   0.1100 
 10 N        3.5210     1.2610    -0.2570 N.2   1 <1>  -0.4100 
 11 N        3.7710     3.2800    -1.0250 N.2   1 <1>  -0.5650 
 12 C        2.0880    -2.2030     1.3790 C.3   1 <1>   0.1200 
 13 C        1.2730    -4.0240     0.1580 C.3   1 <1>   0.1200 
 14 O        4.6100     1.7330     0.2700 O.3   1 <1>  -0.0190 
 15 C        4.7050     2.9420    -0.2250 C.2   1 <1>   0.2980 
 16 O        1.6620    -3.5370     1.4100 O.3   1 <1>  -0.5600 
 17 C        5.9000     3.8010     0.1630 C.3   1 <1>   0.3000 
 18 O        5.9490     3.9930     1.5500 O.3   1 <1>  -0.5600 
 19 C        6.9950     4.8040     1.9780 C.3   1 <1>   0.0400 
 20 H        1.7530    -0.0420    -1.5180 H     1 <1>   0.3700 
 21 H       -1.0130    -1.3720    -1.8950 H     1 <1>   0.0800 
 22 H       -1.3820    -0.8480    -0.2790 H     1 <1>   0.0800 
 23 H        1.0660     2.8360    -1.5010 H     1 <1>   0.0800 
 24 H        1.9850     2.2530    -2.8620 H     1 <1>   0.0800 
 25 H        0.1460    -1.3080     1.5290 H     1 <1>   0.0800 
 26 H        1.3420    -0.2870     0.7790 H     1 <1>   0.0800 
 27 H       -0.1100    -3.5310    -1.4070 H     1 <1>   0.0800 
 28 H       -0.7400    -3.2830     0.2020 H     1 <1>   0.0800 
 29 H        2.3470    -1.9160     2.3820 H     1 <1>   0.0800 
 30 H        2.9650    -2.1310     0.7590 H     1 <1>   0.0800 
 31 H        2.1260    -4.0080    -0.4990 H     1 <1>   0.0800 
 32 H        0.9520    -5.0420     0.2870 H     1 <1>   0.0800 
 33 H        5.8190     4.7620    -0.3130 H     1 <1>   0.0800 
 34 H        6.8070     3.3160    -0.1480 H     1 <1>   0.0800 
 35 H        6.9400     4.8810     3.0500 H     1 <1>   0.0800 
 36 H        6.8910     5.7820     1.5420 H     1 <1>   0.0800 
 37 H        7.9330     4.3580     1.6960 H     1 <1>   0.0800 
@<TRIPOS>BOND
  1   1   2  2   
  2   2   3  am  
  3   2   4  1   
  4   3   5  1   
  5   3  20  1   
  6   4   6  1   
  7   4  21  1   
  8   4  22  1   
  9   5   7  1   
 10   5  23  1   
 11   5  24  1   
 12   6   8  1   
 13   6   9  1   
 14   7  10  2   
 15   7  11  1   
 16   8  12  1   
 17   8  25  1   
 18   8  26  1   
 19   9  13  1   
 20   9  27  1   
 21   9  28  1   
 22  10  14  1   
 23  11  15  2   
 24  12  16  1   
 25  12  29  1   
 26  12  30  1   
 27  13  16  1   
 28  13  31  1   
 29  13  32  1   
 30  14  15  1   
 31  15  17  1   
 32  17  18  1   
 33  17  33  1   
 34  17  34  1   
 35  18  19  1   
 36  19  35  1   
 37  19  36  1   
 38  19  37  1   
@<TRIPOS>SUBSTRUCTURE
  1 ****  10 GROUP 4 **** **** 0

# MOE 2024.06 (io_trps.svl 2023.06)
