@<TRIPOS>MOLECULE
NONAME
46 48 1 0 0 
SMALL
USER_CHARGES


@<TRIPOS>ATOM
  1 CL      -0.8070    -1.1560    -0.0330 Cl    1 <1>  -0.1770 
  2 C       -1.5810     0.2850     0.5850 C.ar  1 <1>   0.1770 
  3 C       -2.9390     0.5180     0.3640 C.ar  1 <1>   0.0540 
  4 C       -0.7950     1.1600     1.3110 C.ar  1 <1>  -0.1500 
  5 C       -3.7740    -0.3760    -0.4070 C.2   1 <1>   0.4620 
  6 C       -3.4810     1.6750     0.9280 C.ar  1 <1>  -0.1500 
  7 C       -1.3570     2.3030     1.8510 C.ar  1 <1>  -0.1500 
  8 N       -3.5220    -0.8310    -1.5820 N.2   1 <1>  -0.4100 
  9 N       -4.9540    -0.8020     0.0510 N.2   1 <1>  -0.5650 
 10 C       -2.7040     2.5560     1.6590 C.ar  1 <1>  -0.1500 
 11 O       -4.5120    -1.5900    -1.9320 O.3   1 <1>  -0.0190 
 12 C       -5.3320    -1.5320    -0.9150 C.2   1 <1>   0.2980 
 13 C       -6.6320    -2.3110    -0.9770 C.3   1 <1>   0.0200 
 14 C       -6.3850    -3.8270    -0.9720 C.3   1 <1>  -0.1600 
 15 C       -7.7030    -4.6260    -1.0020 C.3   1 <1>  -0.0990 
 16 C       -7.5210    -6.1420    -0.9750 C.2   1 <1>   0.5690 
 17 O       -6.4010    -6.5830    -1.0920 O.2   1 <1>  -0.5700 
 18 N       -8.6090    -6.9630    -0.8290 N.am  1 <1>  -0.6600 
 19 C       -8.3830    -8.4270    -0.5690 C.3   1 <1>   0.1400 
 20 C      -10.0330    -6.5160    -0.8380 C.3   1 <1>   0.1400 
 21 C       -9.6820    -9.1670    -0.2330 C.3   1 <1>  -0.1860 
 22 C      -10.7480    -6.9460     0.4510 C.3   1 <1>  -0.1600 
 23 C       -9.3850   -10.5860     0.1860 C.2   1 <1>   0.9060 
 24 C      -10.4970    -8.4170     0.8270 C.3   1 <1>   0.2000 
 25 O       -9.6460   -11.4970    -0.6030 O.co2 1 <1>  -0.9000 
 26 O       -8.9100   -10.7930     1.3110 O.co2 1 <1>  -0.9000 
 27 O       -9.8030    -8.4380     2.0200 O.3   1 <1>  -0.6800 
 28 H        0.2490     0.9440     1.4550 H     1 <1>   0.1500 
 29 H       -4.5280     1.8810     0.7870 H     1 <1>   0.1500 
 30 H       -0.7510     2.9900     2.4180 H     1 <1>   0.1500 
 31 H       -3.1480     3.4420     2.0810 H     1 <1>   0.1500 
 32 H       -7.2340    -2.0410    -0.1280 H     1 <1>   0.0800 
 33 H       -7.1610    -2.0260    -1.8690 H     1 <1>   0.0800 
 34 H       -5.8310    -4.0940    -0.0870 H     1 <1>   0.0800 
 35 H       -5.7860    -4.0970    -1.8250 H     1 <1>   0.0800 
 36 H       -8.2490    -4.3750    -1.8920 H     1 <1>   0.0800 
 37 H       -8.2910    -4.3500    -0.1460 H     1 <1>   0.0800 
 38 H       -7.9220    -8.8780    -1.4310 H     1 <1>   0.0800 
 39 H       -7.6990    -8.5260     0.2590 H     1 <1>   0.0800 
 40 H      -10.1150    -5.4520    -0.9520 H     1 <1>   0.0800 
 41 H      -10.5210    -6.9690    -1.6840 H     1 <1>   0.0800 
 42 H      -10.2680    -9.2400    -1.1290 H     1 <1>   0.0800 
 43 H      -11.8030    -6.8060     0.3080 H     1 <1>   0.0800 
 44 H      -10.4430    -6.2990     1.2540 H     1 <1>   0.0800 
 45 H      -11.4290    -8.9310     0.9960 H     1 <1>   0.0800 
 46 H       -9.3620    -9.3400     2.0630 H     1 <1>   0.4000 
@<TRIPOS>BOND
  1   1   2  1   
  2   2   3  ar  
  3   2   4  ar  
  4   3   5  1   
  5   3   6  ar  
  6   4   7  ar  
  7   4  28  1   
  8   5   8  2   
  9   5   9  1   
 10   6  10  ar  
 11   6  29  1   
 12   7  10  ar  
 13   7  30  1   
 14   8  11  1   
 15   9  12  2   
 16  10  31  1   
 17  11  12  1   
 18  12  13  1   
 19  13  14  1   
 20  13  32  1   
 21  13  33  1   
 22  14  15  1   
 23  14  34  1   
 24  14  35  1   
 25  15  16  1   
 26  15  36  1   
 27  15  37  1   
 28  16  17  2   
 29  16  18  am  
 30  18  19  1   
 31  18  20  1   
 32  19  21  1   
 33  19  38  1   
 34  19  39  1   
 35  20  22  1   
 36  20  40  1   
 37  20  41  1   
 38  21  23  1   
 39  21  24  1   
 40  21  42  1   
 41  22  24  1   
 42  22  43  1   
 43  22  44  1   
 44  23  25  ar  
 45  23  26  ar  
 46  24  27  1   
 47  24  45  1   
 48  27  46  1   
@<TRIPOS>SUBSTRUCTURE
  1 ****  14 GROUP 4 **** **** 0

# MOE 2024.06 (io_trps.svl 2023.06)
