@<TRIPOS>MOLECULE
NONAME
67 71 1 0 0 
SMALL
USER_CHARGES


@<TRIPOS>ATOM
  1 O       -1.4340     0.8670     1.5280 O.2   1 <1>  -0.5700 
  2 C       -2.4040     1.4690     1.1200 C.2   1 <1>   0.5690 
  3 N       -3.6690     0.9790     1.3850 N.am  1 <1>  -0.6600 
  4 C       -2.1420     2.7460     0.2810 C.3   1 <1>   0.0610 
  5 C       -4.9280     1.3350     0.6700 C.3   1 <1>   0.1400 
  6 C       -3.8480    -0.1760     2.3140 C.3   1 <1>   0.1400 
  7 C       -0.7620     3.3900     0.6040 C.3   1 <1>   0.2200 
  8 C       -3.0780     3.9520     0.6110 C.3   1 <1>  -0.1600 
  9 C       -2.2330     2.4090    -1.2410 C.3   1 <1>  -0.1600 
 10 C       -5.4000     0.1340    -0.1540 C.3   1 <1>  -0.1600 
 11 C       -4.2970    -1.4050     1.5200 C.3   1 <1>  -0.1600 
 12 N       -0.9790     4.7470     0.1130 N.am  1 <1>  -0.6600 
 13 C       -0.5760     3.7170     2.1020 C.3   1 <1>  -0.1600 
 14 C       -2.1220     5.1120     0.9280 C.3   1 <1>   0.2200 
 15 C       -1.2960     1.2870    -1.7150 C.3   1 <1>  -0.2400 
 16 C       -5.5790    -1.1140     0.7250 C.3   1 <1>   0.0630 
 17 C       -0.2450     5.4090    -0.8280 C.2   1 <1>   0.5690 
 18 C       -1.5360     4.8990     2.3250 C.3   1 <1>  -0.1600 
 19 C       -6.0070    -2.3190    -0.1100 C.ar  1 <1>  -0.1440 
 20 O        0.6800     4.8670    -1.3870 O.2   1 <1>  -0.5700 
 21 C       -0.6000     6.8560    -1.1840 C.3   1 <1>  -0.0190 
 22 C       -5.1830    -2.8390    -1.0990 C.ar  1 <1>  -0.1500 
 23 C       -7.2420    -2.9120     0.1130 C.ar  1 <1>  -0.1500 
 24 C       -0.1160     7.2790    -2.5830 C.3   1 <1>  -0.1600 
 25 C       -0.0360     7.8420    -0.1460 C.3   1 <1>  -0.1600 
 26 C       -5.5840    -3.9310    -1.8490 C.ar  1 <1>  -0.1500 
 27 C       -7.6450    -4.0040    -0.6360 C.ar  1 <1>  -0.1500 
 28 C       -0.4180     8.7590    -2.8410 C.3   1 <1>   0.1200 
 29 C       -0.3410     9.2890    -0.5470 C.3   1 <1>   0.1200 
 30 C       -6.8160    -4.5140    -1.6190 C.ar  1 <1>  -0.1500 
 31 O        0.1500     9.5320    -1.8280 O.3   1 <1>  -0.5600 
 32 H       -5.6800     1.5990     1.3950 H     1 <1>   0.0800 
 33 H       -4.7950     2.1720     0.0170 H     1 <1>   0.0800 
 34 H       -2.9330    -0.3990     2.8360 H     1 <1>   0.0800 
 35 H       -4.5900     0.0770     3.0520 H     1 <1>   0.0800 
 36 H        0.0870     2.8960     0.1650 H     1 <1>   0.0800 
 37 H       -3.7170     3.7580     1.4540 H     1 <1>   0.0800 
 38 H       -3.6920     4.2190    -0.2300 H     1 <1>   0.0800 
 39 H       -3.2360     2.1180    -1.4880 H     1 <1>   0.0800 
 40 H       -2.0150     3.2880    -1.8230 H     1 <1>   0.0800 
 41 H       -6.3350     0.3700    -0.6310 H     1 <1>   0.0800 
 42 H       -4.6780    -0.0580    -0.9270 H     1 <1>   0.0800 
 43 H       -3.5000    -1.6900     0.8580 H     1 <1>   0.0800 
 44 H       -4.4720    -2.2240     2.1940 H     1 <1>   0.0800 
 45 H       -0.7880     2.8930     2.7560 H     1 <1>   0.0800 
 46 H        0.4410     4.0250     2.2680 H     1 <1>   0.0800 
 47 H       -2.5200     6.0960     0.7500 H     1 <1>   0.0800 
 48 H       -1.4980     0.3660    -1.1960 H     1 <1>   0.0800 
 49 H       -0.2650     1.5530    -1.5580 H     1 <1>   0.0800 
 50 H       -1.4360     1.1160    -2.7670 H     1 <1>   0.0800 
 51 H       -6.3580    -0.9000     1.4370 H     1 <1>   0.0800 
 52 H       -0.9920     5.7730     2.6370 H     1 <1>   0.0800 
 53 H       -2.2950     4.6770     3.0530 H     1 <1>   0.0800 
 54 H       -1.6710     6.9380    -1.1840 H     1 <1>   0.0800 
 55 H       -4.2210    -2.3980    -1.2910 H     1 <1>   0.1500 
 56 H       -7.9000    -2.5300     0.8730 H     1 <1>   0.1500 
 57 H       -0.5940     6.6740    -3.3330 H     1 <1>   0.0800 
 58 H        0.9460     7.1270    -2.6680 H     1 <1>   0.0800 
 59 H        1.0310     7.7190    -0.0730 H     1 <1>   0.0800 
 60 H       -0.4560     7.6420     0.8220 H     1 <1>   0.0800 
 61 H       -4.9360    -4.3250    -2.6120 H     1 <1>   0.1500 
 62 H       -8.6050    -4.4570    -0.4550 H     1 <1>   0.1500 
 63 H       -1.4780     8.9470    -2.8640 H     1 <1>   0.0800 
 64 H        0.0150     9.0740    -3.7750 H     1 <1>   0.0800 
 65 H        0.1450     9.9760     0.1240 H     1 <1>   0.0800 
 66 H       -1.4000     9.4840    -0.5430 H     1 <1>   0.0800 
 67 H       -7.1290    -5.3630    -2.2020 H     1 <1>   0.1500 
@<TRIPOS>BOND
  1   1   2  2   
  2   2   3  am  
  3   2   4  1   
  4   3   5  1   
  5   3   6  1   
  6   4   7  1   
  7   4   8  1   
  8   4   9  1   
  9   5  10  1   
 10   5  32  1   
 11   5  33  1   
 12   6  11  1   
 13   6  34  1   
 14   6  35  1   
 15   7  12  1   
 16   7  13  1   
 17   7  36  1   
 18   8  14  1   
 19   8  37  1   
 20   8  38  1   
 21   9  15  1   
 22   9  39  1   
 23   9  40  1   
 24  10  16  1   
 25  10  41  1   
 26  10  42  1   
 27  11  16  1   
 28  11  43  1   
 29  11  44  1   
 30  12  14  1   
 31  12  17  am  
 32  13  18  1   
 33  13  45  1   
 34  13  46  1   
 35  14  18  1   
 36  14  47  1   
 37  15  48  1   
 38  15  49  1   
 39  15  50  1   
 40  16  19  1   
 41  16  51  1   
 42  17  20  2   
 43  17  21  1   
 44  18  52  1   
 45  18  53  1   
 46  19  22  ar  
 47  19  23  ar  
 48  21  24  1   
 49  21  25  1   
 50  21  54  1   
 51  22  26  ar  
 52  22  55  1   
 53  23  27  ar  
 54  23  56  1   
 55  24  28  1   
 56  24  57  1   
 57  24  58  1   
 58  25  29  1   
 59  25  59  1   
 60  25  60  1   
 61  26  30  ar  
 62  26  61  1   
 63  27  30  ar  
 64  27  62  1   
 65  28  31  1   
 66  28  63  1   
 67  28  64  1   
 68  29  31  1   
 69  29  65  1   
 70  29  66  1   
 71  30  67  1   
@<TRIPOS>SUBSTRUCTURE
  1 ****   4 GROUP 4 **** **** 0

# MOE 2024.06 (io_trps.svl 2023.06)
