@<TRIPOS>MOLECULE
NONAME
45 48 1 0 0 
SMALL
USER_CHARGES


@<TRIPOS>ATOM
  1 O        0.0360     0.0030    -1.6060 O.2   1 <1>  -0.5700 
  2 C       -0.5630     1.0480    -1.7120 C.2   1 <1>   0.5690 
  3 N       -1.8260     1.2130    -1.1890 N.am  1 <1>  -0.6600 
  4 C        0.1480     2.1680    -2.4550 C.3   1 <1>   0.0810 
  5 C       -2.6280     2.4830    -1.2390 C.3   1 <1>   0.1400 
  6 C       -2.5470     0.0700    -0.5560 C.3   1 <1>   0.1400 
  7 C        0.7950     3.1390    -1.4860 C.2   1 <1>  -0.0400 
  8 C       -3.1370     2.8990     0.1570 C.3   1 <1>   0.1440 
  9 C       -3.0200     0.4530     0.8500 C.3   1 <1>  -0.1600 
 10 O        0.6610     4.4270    -1.6540 O.3   1 <1>  -0.0190 
 11 C        1.5420     2.9390    -0.3910 C.2   1 <1>  -0.1500 
 12 C       -4.0210     4.1230    -0.0040 C.ar  1 <1>   0.1660 
 13 C       -3.8830     1.7250     0.8250 C.3   1 <1>  -0.1600 
 14 C       -1.9850     3.4360     1.0480 C.3   1 <1>  -0.1600 
 15 N        1.2760     5.1010    -0.7250 N.2   1 <1>  -0.4100 
 16 C        1.8190     4.2300     0.0490 C.2   1 <1>   0.1080 
 17 N       -5.2350     4.1260    -0.5020 N.ar  1 <1>  -0.6200 
 18 C       -3.3910     5.2550     0.4220 C.ar  1 <1>  -0.1440 
 19 C       -2.0000     4.9700     0.9270 C.3   1 <1>  -0.0170 
 20 C        2.6470     4.5690     1.2680 C.3   1 <1>  -0.0590 
 21 C       -5.7950     5.3260    -0.5500 C.ar  1 <1>   0.7200 
 22 C       -4.0750     6.4430     0.3280 C.ar  1 <1>   0.1600 
 23 N       -5.2960     6.4900    -0.1570 N.ar  1 <1>  -0.6200 
 24 N       -7.0360     5.3650    -1.0360 N.pl3 1 <1>  -0.9000 
 25 H       -0.5430     2.6780    -3.0970 H     1 <1>   0.0800 
 26 H        0.9120     1.7440    -3.0790 H     1 <1>   0.0800 
 27 H       -3.4760     2.3260    -1.8830 H     1 <1>   0.0800 
 28 H       -2.0550     3.2950    -1.6480 H     1 <1>   0.0800 
 29 H       -1.9120    -0.7970    -0.4940 H     1 <1>   0.0800 
 30 H       -3.3950    -0.1860    -1.1680 H     1 <1>   0.0800 
 31 H       -2.1600     0.5960     1.4800 H     1 <1>   0.0800 
 32 H       -3.5920    -0.3600     1.2600 H     1 <1>   0.0800 
 33 H        1.8640     2.0170     0.0600 H     1 <1>   0.1500 
 34 H       -4.7810     1.5200     0.2660 H     1 <1>   0.0800 
 35 H       -4.1810     1.9930     1.8230 H     1 <1>   0.0800 
 36 H       -1.0300     3.0240     0.7790 H     1 <1>   0.0800 
 37 H       -2.1790     3.1840     2.0760 H     1 <1>   0.0800 
 38 H       -1.2810     5.3040     0.2000 H     1 <1>   0.0800 
 39 H       -1.8100     5.4460     1.8730 H     1 <1>   0.0800 
 40 H        2.2180     4.1110     2.1400 H     1 <1>   0.0800 
 41 H        2.6730     5.6350     1.4100 H     1 <1>   0.0800 
 42 H        3.6510     4.2110     1.1370 H     1 <1>   0.0800 
 43 H       -3.6170     7.3620     0.6510 H     1 <1>   0.1500 
 44 H       -7.5660     6.1960    -0.7910 H     1 <1>   0.4000 
 45 H       -7.5330     4.4800    -1.0200 H     1 <1>   0.4000 
@<TRIPOS>BOND
  1   1   2  2   
  2   2   3  am  
  3   2   4  1   
  4   3   5  1   
  5   3   6  1   
  6   4   7  1   
  7   4  25  1   
  8   4  26  1   
  9   5   8  1   
 10   5  27  1   
 11   5  28  1   
 12   6   9  1   
 13   6  29  1   
 14   6  30  1   
 15   7  10  1   
 16   7  11  2   
 17   8  12  1   
 18   8  13  1   
 19   8  14  1   
 20   9  13  1   
 21   9  31  1   
 22   9  32  1   
 23  10  15  1   
 24  11  16  1   
 25  11  33  1   
 26  12  17  ar  
 27  12  18  ar  
 28  13  34  1   
 29  13  35  1   
 30  14  19  1   
 31  14  36  1   
 32  14  37  1   
 33  15  16  2   
 34  16  20  1   
 35  17  21  ar  
 36  18  19  1   
 37  18  22  ar  
 38  19  38  1   
 39  19  39  1   
 40  20  40  1   
 41  20  41  1   
 42  20  42  1   
 43  21  23  ar  
 44  21  24  1   
 45  22  23  ar  
 46  22  43  1   
 47  24  44  1   
 48  24  45  1   
@<TRIPOS>SUBSTRUCTURE
  1 ****   8 GROUP 4 **** **** 0

# MOE 2024.06 (io_trps.svl 2023.06)
