@<TRIPOS>MOLECULE
NONAME
51 54 1 0 0 
SMALL
USER_CHARGES


@<TRIPOS>ATOM
  1 O        0.0320     0.2780     1.3840 O.3   1 <1>  -0.6800 
  2 C        1.0360    -0.1120     0.5100 C.3   1 <1>   0.2000 
  3 C        1.7290    -1.3710     1.0130 C.3   1 <1>  -0.0800 
  4 C        2.1490     0.9320     0.4540 C.3   1 <1>   0.2090 
  5 C        3.1170    -1.2870     0.3780 C.3   1 <1>   0.2090 
  6 C        0.9660    -2.6690     0.6970 C.3   1 <1>  -0.0170 
  7 N        3.4030     0.1680     0.1820 N.pl3 1 <1>  -0.8380 
  8 C        1.7730    -3.8990     1.1080 C.ar  1 <1>  -0.1440 
  9 C        4.5730     0.6160    -0.3450 C.ar  1 <1>   0.4100 
 10 C        2.5500    -4.6690     0.2060 C.ar  1 <1>   0.0000 
 11 C        1.7610    -4.2860     2.4160 C.ar  1 <1>  -0.1500 
 12 N        5.3230    -0.3450    -0.9050 N.ar  1 <1>  -0.6200 
 13 C        5.0270     1.9600    -0.3570 C.ar  1 <1>  -0.1440 
 14 C        3.2650    -5.7720     0.7360 C.ar  1 <1>   0.3100 
 15 C        2.6660    -4.4190    -1.1830 C.ar  1 <1>  -0.1500 
 16 C        2.5000    -5.3980     2.8330 C.ar  1 <1>   0.1600 
 17 C        6.4160    -0.0260    -1.5130 C.ar  1 <1>   0.5280 
 18 C        6.1810     2.2530    -1.0450 C.ar  1 <1>   0.2180 
 19 C        4.2900     3.0600     0.4160 C.3   1 <1>  -0.0960 
 20 N        3.2290    -6.1230     2.0460 N.ar  1 <1>  -0.6200 
 21 C        4.0560    -6.5510    -0.1240 C.ar  1 <1>  -0.1500 
 22 C        3.4440    -5.1990    -1.9940 C.ar  1 <1>  -0.1500 
 23 N        6.8560     1.2370    -1.6150 N.ar  1 <1>  -0.1790 
 24 C        7.2350    -1.1340    -2.1430 C.3   1 <1>  -0.0970 
 25 C        6.7790     3.6460    -1.2080 C.3   1 <1>  -0.0970 
 26 C        4.1500    -6.2790    -1.4610 C.ar  1 <1>  -0.1500 
 27 H       -0.6860    -0.3830     1.4060 H     1 <1>   0.4000 
 28 H        0.6150    -0.2500    -0.4710 H     1 <1>   0.0800 
 29 H        1.8700    -1.2910     2.0770 H     1 <1>   0.0800 
 30 H        2.2220     1.4170     1.4110 H     1 <1>   0.0800 
 31 H        1.9520     1.6450    -0.3260 H     1 <1>   0.0800 
 32 H        3.1210    -1.7720    -0.5830 H     1 <1>   0.0800 
 33 H        3.8610    -1.7450     1.0080 H     1 <1>   0.0800 
 34 H        0.6960    -2.7090    -0.3410 H     1 <1>   0.0800 
 35 H        0.0430    -2.6670     1.2500 H     1 <1>   0.0800 
 36 H        1.1940    -3.7510     3.1570 H     1 <1>   0.1500 
 37 H        2.1340    -3.6010    -1.6260 H     1 <1>   0.1500 
 38 H        2.4620    -5.6660     3.8750 H     1 <1>   0.1500 
 39 H        4.9030     3.9210     0.6030 H     1 <1>   0.0800 
 40 H        3.9980     2.6930     1.3830 H     1 <1>   0.0800 
 41 H        3.4160     3.3820    -0.1230 H     1 <1>   0.0800 
 42 H        4.5880    -7.3780     0.3090 H     1 <1>   0.1500 
 43 H        3.5200    -4.9970    -3.0490 H     1 <1>   0.1500 
 44 H        7.7230     1.4140    -2.1210 H     1 <1>   0.4570 
 45 H        6.7680    -2.0870    -1.9580 H     1 <1>   0.0800 
 46 H        8.2230    -1.1580    -1.7200 H     1 <1>   0.0800 
 47 H        7.3010    -0.9940    -3.2070 H     1 <1>   0.0800 
 48 H        6.0050     4.3860    -1.3070 H     1 <1>   0.0800 
 49 H        7.3900     3.7090    -2.0910 H     1 <1>   0.0800 
 50 H        7.3840     3.8900    -0.3520 H     1 <1>   0.0800 
 51 H        4.7590    -6.8870    -2.1090 H     1 <1>   0.1500 
@<TRIPOS>BOND
  1   1   2  1   
  2   1  27  1   
  3   2   3  1   
  4   2   4  1   
  5   2  28  1   
  6   3   5  1   
  7   3   6  1   
  8   3  29  1   
  9   4   7  1   
 10   4  30  1   
 11   4  31  1   
 12   5   7  1   
 13   5  32  1   
 14   5  33  1   
 15   6   8  1   
 16   6  34  1   
 17   6  35  1   
 18   7   9  1   
 19   8  10  ar  
 20   8  11  ar  
 21   9  12  ar  
 22   9  13  ar  
 23  10  14  ar  
 24  10  15  ar  
 25  11  16  ar  
 26  11  36  1   
 27  12  17  ar  
 28  13  18  ar  
 29  13  19  1   
 30  14  20  ar  
 31  14  21  ar  
 32  15  22  ar  
 33  15  37  1   
 34  16  20  ar  
 35  16  38  1   
 36  17  23  ar  
 37  17  24  1   
 38  18  23  ar  
 39  18  25  1   
 40  19  39  1   
 41  19  40  1   
 42  19  41  1   
 43  21  26  ar  
 44  21  42  1   
 45  22  26  ar  
 46  22  43  1   
 47  23  44  1   
 48  24  45  1   
 49  24  46  1   
 50  24  47  1   
 51  25  48  1   
 52  25  49  1   
 53  25  50  1   
 54  26  51  1   
@<TRIPOS>SUBSTRUCTURE
  1 ****   5 GROUP 4 **** **** 0

# MOE 2024.06 (io_trps.svl 2023.06)
