@<TRIPOS>MOLECULE
NONAME
54 56 1 0 0 
SMALL
USER_CHARGES


@<TRIPOS>ATOM
  1 O        0.2040    -0.4070    -0.8700 O.3   1 <1>  -0.5600 
  2 C        1.4540    -1.0460    -0.9840 C.3   1 <1>   0.2000 
  3 C        0.1780     0.9400    -1.2390 C.3   1 <1>   0.1200 
  4 C        2.5460    -0.2880    -0.1810 C.3   1 <1>   0.5660 
  5 C        1.3130    -2.4880    -0.4710 C.3   1 <1>   0.1200 
  6 C        1.1410     1.7490    -0.3530 C.3   1 <1>   0.3430 
  7 N        2.5330     1.1920    -0.4090 N.4   1 <1>  -0.9590 
  8 C        3.9410    -0.7950    -0.5210 C.ar  1 <1>  -0.1430 
  9 O        1.2510    -2.4990     0.9210 O.3   1 <1>  -0.6800 
 10 C        3.4460     1.8880     0.5330 C.3   1 <1>   0.5240 
 11 C        4.6910    -1.4090     0.4720 C.ar  1 <1>  -0.1500 
 12 C        4.4850    -0.6540    -1.7940 C.ar  1 <1>  -0.1500 
 13 C        3.5780     3.3180     0.0680 C.2   1 <1>  -0.1810 
 14 C        5.9710    -1.8660     0.2140 C.ar  1 <1>   0.0830 
 15 C        5.7700    -1.0990    -2.0550 C.ar  1 <1>  -0.1500 
 16 C        4.3710     3.7520    -0.9880 C.2   1 <1>   0.1390 
 17 C        2.9890     4.4420     0.5370 C.2   1 <1>  -0.3020 
 18 O        6.6230    -2.4720     1.2350 O.3   1 <1>  -0.3620 
 19 C        6.5270    -1.6870    -1.0570 C.ar  1 <1>   0.0830 
 20 N        4.2700     5.0280    -1.1770 N.2   1 <1>  -0.7070 
 21 N        3.4260     5.4660    -0.2260 N.pl3 1 <1>   0.3140 
 22 C        6.9650    -3.8310     1.0580 C.3   1 <1>   0.0400 
 23 O        7.7880    -2.0640    -1.3750 O.3   1 <1>  -0.3630 
 24 C        3.0790     6.8970    -0.0880 C.3   1 <1>   0.0960 
 25 C        8.8390    -1.3830    -0.7240 C.3   1 <1>   0.0400 
 26 C        3.8260     7.5390     1.0880 C.3   1 <1>  -0.2400 
 27 H        1.7050    -1.0750    -2.0290 H     1 <1>   0.0800 
 28 H        0.4370     1.0240    -2.2810 H     1 <1>   0.0800 
 29 H       -0.8300     1.2940    -1.1070 H     1 <1>   0.0800 
 30 H        2.3590    -0.4770     0.8640 H     1 <1>   0.0800 
 31 H        2.1620    -3.0820    -0.7670 H     1 <1>   0.0800 
 32 H        0.4150    -2.9360    -0.8630 H     1 <1>   0.0800 
 33 H        0.7750     1.7200     0.6600 H     1 <1>   0.0800 
 34 H        1.1440     2.7780    -0.6760 H     1 <1>   0.0800 
 35 H        2.9090     1.3550    -1.3460 H     1 <1>   0.4500 
 36 H        0.9230    -3.3650     1.2460 H     1 <1>   0.4000 
 37 H        3.0480     1.8600     1.5340 H     1 <1>   0.0800 
 38 H        4.4200     1.4230     0.5350 H     1 <1>   0.0800 
 39 H        4.2930    -1.5540     1.4630 H     1 <1>   0.1500 
 40 H        3.9310    -0.2030    -2.5990 H     1 <1>   0.1500 
 41 H        6.2000    -0.9910    -3.0360 H     1 <1>   0.1500 
 42 H        5.0040     3.1260    -1.5960 H     1 <1>   0.1500 
 43 H        2.3040     4.5860     1.3540 H     1 <1>   0.1500 
 44 H        7.3550    -4.2030     1.9880 H     1 <1>   0.0800 
 45 H        7.7110    -3.9180     0.2900 H     1 <1>   0.0800 
 46 H        6.0810    -4.3810     0.7840 H     1 <1>   0.0800 
 47 H        3.3430     7.3960    -1.0040 H     1 <1>   0.0800 
 48 H        2.0170     6.9820     0.0520 H     1 <1>   0.0800 
 49 H        9.7690    -1.7340    -1.1320 H     1 <1>   0.0800 
 50 H        8.8020    -1.5900     0.3310 H     1 <1>   0.0800 
 51 H        8.7330    -0.3280    -0.9030 H     1 <1>   0.0800 
 52 H        4.8880     7.4570     0.9380 H     1 <1>   0.0800 
 53 H        3.5580     7.0620     2.0140 H     1 <1>   0.0800 
 54 H        3.5720     8.5820     1.1540 H     1 <1>   0.0800 
@<TRIPOS>BOND
  1   1   2  1   
  2   1   3  1   
  3   2   4  1   
  4   2   5  1   
  5   2  27  1   
  6   3   6  1   
  7   3  28  1   
  8   3  29  1   
  9   4   7  1   
 10   4   8  1   
 11   4  30  1   
 12   5   9  1   
 13   5  31  1   
 14   5  32  1   
 15   6   7  1   
 16   6  33  1   
 17   6  34  1   
 18   7  10  1   
 19   7  35  1   
 20   8  11  ar  
 21   8  12  ar  
 22   9  36  1   
 23  10  13  1   
 24  10  37  1   
 25  10  38  1   
 26  11  14  ar  
 27  11  39  1   
 28  12  15  ar  
 29  12  40  1   
 30  13  16  1   
 31  13  17  2   
 32  14  18  1   
 33  14  19  ar  
 34  15  19  ar  
 35  15  41  1   
 36  16  20  2   
 37  16  42  1   
 38  17  21  1   
 39  17  43  1   
 40  18  22  1   
 41  19  23  1   
 42  20  21  1   
 43  21  24  1   
 44  22  44  1   
 45  22  45  1   
 46  22  46  1   
 47  23  25  1   
 48  24  26  1   
 49  24  47  1   
 50  24  48  1   
 51  25  49  1   
 52  25  50  1   
 53  25  51  1   
 54  26  52  1   
 55  26  53  1   
 56  26  54  1   
@<TRIPOS>SUBSTRUCTURE
  1 ****   7 GROUP 4 **** **** 0

# MOE 2024.06 (io_trps.svl 2023.06)
