@<TRIPOS>MOLECULE
NONAME
45 47 1 0 0 
SMALL
USER_CHARGES


@<TRIPOS>ATOM
  1 S        0.4960     0.3760     0.1590 S.3   1 <1>  -0.3320 
  2 C        0.3500     2.1520     0.1470 C.ar  1 <1>   0.7720 
  3 C       -1.1730    -0.3730    -0.1450 C.3   1 <1>  -0.0100 
  4 N        1.4230     2.8370     0.3430 N.ar  1 <1>  -0.6200 
  5 N       -0.8740     2.6710    -0.0670 N.ar  1 <1>  -0.1790 
  6 C        1.3100     4.1800     0.3300 C.ar  1 <1>   0.4100 
  7 C       -1.0450     4.0000    -0.0800 C.ar  1 <1>   0.4610 
  8 N        2.4530     4.8910     0.5220 N.pl3 1 <1>  -0.8380 
  9 C        0.0770     4.7750     0.1270 C.ar  1 <1>  -0.1500 
 10 N       -2.2760     4.5190    -0.2860 N.pl3 1 <1>  -0.9000 
 11 C        2.7220     6.2720    -0.0130 C.3   1 <1>   0.2090 
 12 C        3.6930     4.3190     1.1600 C.3   1 <1>   0.2090 
 13 C        3.9110     6.2820    -0.9980 C.3   1 <1>   0.2090 
 14 C        4.8740     4.2860     0.1720 C.3   1 <1>   0.2090 
 15 N        5.1330     5.6310    -0.4300 N.pl3 1 <1>  -0.8380 
 16 C        6.1180     6.4140     0.1330 C.ar  1 <1>   0.4100 
 17 N        5.7090     7.3910     0.9170 N.ar  1 <1>  -0.6200 
 18 C        7.4730     6.1800    -0.0950 C.ar  1 <1>  -0.1430 
 19 C        6.6630     8.1070     1.4740 C.ar  1 <1>   0.4700 
 20 C        8.3670     6.9950     0.5640 C.ar  1 <1>   0.1670 
 21 C        7.9300     5.0720    -1.0480 C.3   1 <1>  -0.0970 
 22 N        7.9690     7.9720     1.3530 N.ar  1 <1>  -0.6200 
 23 C        9.8730     6.8460     0.4390 C.3   1 <1>  -0.0970 
 24 H       -1.0450    -1.4430    -0.1320 H     1 <1>   0.0800 
 25 H       -1.5230    -0.0590    -1.1130 H     1 <1>   0.0800 
 26 H       -1.8360    -0.0740     0.6470 H     1 <1>   0.0800 
 27 H       -1.6550     2.0480    -0.2100 H     1 <1>   0.4570 
 28 H       -0.0150     5.8420     0.1450 H     1 <1>   0.1500 
 29 H       -2.4340     5.5360    -0.2880 H     1 <1>   0.4000 
 30 H       -3.1510     4.0070    -0.4470 H     1 <1>   0.4000 
 31 H        2.9520     6.9290     0.8090 H     1 <1>   0.0800 
 32 H        1.8620     6.6650    -0.5200 H     1 <1>   0.0800 
 33 H        3.5180     3.3280     1.5360 H     1 <1>   0.0800 
 34 H        3.9700     4.9360     1.9980 H     1 <1>   0.0800 
 35 H        4.1400     7.2990    -1.2660 H     1 <1>   0.0800 
 36 H        3.6290     5.7630    -1.8960 H     1 <1>   0.0800 
 37 H        4.6580     3.5830    -0.6130 H     1 <1>   0.0800 
 38 H        5.7540     3.9470     0.6900 H     1 <1>   0.0800 
 39 H        6.3340     8.9080     2.1140 H     1 <1>   0.1500 
 40 H        7.1820     4.8770    -1.7960 H     1 <1>   0.0800 
 41 H        8.1110     4.1680    -0.4970 H     1 <1>   0.0800 
 42 H        8.8270     5.3540    -1.5670 H     1 <1>   0.0800 
 43 H       10.1540     5.8140     0.3560 H     1 <1>   0.0800 
 44 H       10.3570     7.2520     1.3090 H     1 <1>   0.0800 
 45 H       10.2170     7.3830    -0.4260 H     1 <1>   0.0800 
@<TRIPOS>BOND
  1   1   2  1   
  2   1   3  1   
  3   2   4  ar  
  4   2   5  ar  
  5   3  24  1   
  6   3  25  1   
  7   3  26  1   
  8   4   6  ar  
  9   5   7  ar  
 10   5  27  1   
 11   6   8  1   
 12   6   9  ar  
 13   7   9  ar  
 14   7  10  1   
 15   8  11  1   
 16   8  12  1   
 17   9  28  1   
 18  10  29  1   
 19  10  30  1   
 20  11  13  1   
 21  11  31  1   
 22  11  32  1   
 23  12  14  1   
 24  12  33  1   
 25  12  34  1   
 26  13  15  1   
 27  13  35  1   
 28  13  36  1   
 29  14  15  1   
 30  14  37  1   
 31  14  38  1   
 32  15  16  1   
 33  16  17  ar  
 34  16  18  ar  
 35  17  19  ar  
 36  18  20  ar  
 37  18  21  1   
 38  19  22  ar  
 39  19  39  1   
 40  20  22  ar  
 41  20  23  1   
 42  21  40  1   
 43  21  41  1   
 44  21  42  1   
 45  23  43  1   
 46  23  44  1   
 47  23  45  1   
@<TRIPOS>SUBSTRUCTURE
  1 ****  12 GROUP 4 **** **** 0

# MOE 2024.06 (io_trps.svl 2023.06)
