@<TRIPOS>MOLECULE
NONAME
45 47 1 0 0 
SMALL
USER_CHARGES


@<TRIPOS>ATOM
  1 O       -0.5370    -0.4350    -1.1880 O.2   1 <1>  -0.5700 
  2 C       -1.5930    -0.9480    -0.8870 C.2   1 <1>   0.6900 
  3 N       -1.6100    -2.2720    -0.6060 N.am  1 <1>  -0.4900 
  4 N       -2.7840    -0.2360    -0.8220 N.am  1 <1>  -0.4690 
  5 C       -2.7310    -2.9490    -0.2470 C.2   1 <1>   0.6160 
  6 C       -3.9500    -0.8700    -0.4440 C.2   1 <1>   0.2090 
  7 C       -2.7640     1.2140    -1.1820 C.3   1 <1>   0.1400 
  8 O       -2.6220    -4.1390    -0.0210 O.2   1 <1>  -0.5700 
  9 C       -3.9630    -2.2280    -0.1500 C.2   1 <1>   0.0140 
 10 N       -5.1070    -0.1630    -0.3460 N.pl3 1 <1>  -0.6000 
 11 C       -2.6320     2.0710     0.0840 C.3   1 <1>  -0.1600 
 12 C       -5.1850    -2.8070     0.2360 C.2   1 <1>  -0.1500 
 13 C       -6.3410    -0.6650     0.0040 C.2   1 <1>   0.1000 
 14 C       -2.8380     3.5720    -0.1860 C.3   1 <1>  -0.0800 
 15 C       -6.3240    -2.0480     0.3130 C.2   1 <1>  -0.1500 
 16 C       -7.4650     0.1950     0.0450 C.2   1 <1>   0.0290 
 17 C       -1.7720     4.1390    -1.1330 C.3   1 <1>  -0.2400 
 18 C       -2.8080     4.3440     1.1380 C.3   1 <1>  -0.2400 
 19 C       -8.8050    -0.2830     0.1590 C.2   1 <1>   0.7060 
 20 C       -7.3470     1.6160    -0.0250 C.2   1 <1>   0.5410 
 21 O       -9.1520    -1.4350    -0.0520 O.2   1 <1>  -0.5700 
 22 O       -9.8190     0.5430     0.4820 O.3   1 <1>  -0.2270 
 23 O       -6.3130     2.2120    -0.3180 O.2   1 <1>  -0.5700 
 24 C       -8.4850     2.4230     0.2610 C.2   1 <1>  -0.1360 
 25 C       -9.6800     1.8700     0.5170 C.2   1 <1>  -0.0610 
 26 C      -10.9570     2.6170     0.8460 C.3   1 <1>  -0.1020 
 27 H       -0.7360    -2.7820    -0.6640 H     1 <1>   0.3700 
 28 H       -3.6660     1.4680    -1.7100 H     1 <1>   0.0800 
 29 H       -1.9420     1.4140    -1.8470 H     1 <1>   0.0800 
 30 H       -5.0620     0.8540    -0.5210 H     1 <1>   0.4000 
 31 H       -1.6580     1.9120     0.5130 H     1 <1>   0.0800 
 32 H       -3.3690     1.7510     0.8000 H     1 <1>   0.0800 
 33 H       -5.2050    -3.8580     0.4740 H     1 <1>   0.1500 
 34 H       -3.8090     3.7150    -0.6330 H     1 <1>   0.0800 
 35 H       -7.2220    -2.5420     0.6290 H     1 <1>   0.1500 
 36 H       -0.7850     3.9600    -0.7420 H     1 <1>   0.0800 
 37 H       -1.9050     5.2000    -1.2510 H     1 <1>   0.0800 
 38 H       -1.8430     3.6900    -2.1080 H     1 <1>   0.0800 
 39 H       -1.8540     4.2320     1.6220 H     1 <1>   0.0800 
 40 H       -3.5750     3.9820     1.7990 H     1 <1>   0.0800 
 41 H       -2.9840     5.3920     0.9640 H     1 <1>   0.0800 
 42 H       -8.3240     3.4860     0.2610 H     1 <1>   0.1500 
 43 H      -11.3190     2.3180     1.8130 H     1 <1>   0.0800 
 44 H      -11.7120     2.3940     0.1120 H     1 <1>   0.0800 
 45 H      -10.7870     3.6790     0.8540 H     1 <1>   0.0800 
@<TRIPOS>BOND
  1   1   2  2   
  2   2   3  am  
  3   2   4  am  
  4   3   5  am  
  5   3  27  1   
  6   4   6  1   
  7   4   7  1   
  8   5   8  2   
  9   5   9  1   
 10   6   9  2   
 11   6  10  1   
 12   7  11  1   
 13   7  28  1   
 14   7  29  1   
 15   9  12  1   
 16  10  13  1   
 17  10  30  1   
 18  11  14  1   
 19  11  31  1   
 20  11  32  1   
 21  12  15  2   
 22  12  33  1   
 23  13  15  1   
 24  13  16  2   
 25  14  17  1   
 26  14  18  1   
 27  14  34  1   
 28  15  35  1   
 29  16  19  1   
 30  16  20  1   
 31  17  36  1   
 32  17  37  1   
 33  17  38  1   
 34  18  39  1   
 35  18  40  1   
 36  18  41  1   
 37  19  21  2   
 38  19  22  1   
 39  20  23  2   
 40  20  24  1   
 41  22  25  1   
 42  24  25  2   
 43  24  42  1   
 44  25  26  1   
 45  26  43  1   
 46  26  44  1   
 47  26  45  1   
@<TRIPOS>SUBSTRUCTURE
  1 ****  10 GROUP 4 **** **** 0

# MOE 2024.06 (io_trps.svl 2023.06)
