@<TRIPOS>MOLECULE
NONAME
55 58 1 0 0 
SMALL
USER_CHARGES


@<TRIPOS>ATOM
  1 O       -0.6070     0.6960     2.9480 O.2   1 <1>  -0.5700 
  2 C       -1.3050     1.5250     2.4030 C.2   1 <1>   0.5690 
  3 N       -2.4720     1.1150     1.7930 N.am  1 <1>  -0.6600 
  4 C       -0.8140     3.0100     2.4030 C.3   1 <1>   0.3410 
  5 C       -3.5350     1.9580     1.1730 C.3   1 <1>   0.1400 
  6 C       -2.6510    -0.2990     1.3790 C.3   1 <1>   0.1400 
  7 O       -0.9210     3.6120     1.1140 O.3   1 <1>  -0.3630 
  8 C       -1.6820     3.8710     3.3350 C.3   1 <1>  -0.2400 
  9 C        0.6490     3.1920     2.8630 C.3   1 <1>  -0.2400 
 10 C       -4.5190     0.9620     0.5560 C.3   1 <1>   0.2000 
 11 C       -3.6660    -0.2630     0.2280 C.3   1 <1>  -0.0800 
 12 C       -0.5850     3.0470    -0.0800 C.ar  1 <1>   0.0820 
 13 O       -5.4410     0.5970     1.5240 O.3   1 <1>  -0.6800 
 14 C       -2.9780    -0.0860    -1.1410 C.3   1 <1>   0.0200 
 15 C       -1.1150     3.6770    -1.2370 C.ar  1 <1>   0.0000 
 16 C        0.1890     1.9140    -0.2050 C.ar  1 <1>  -0.1500 
 17 C       -2.1120    -1.2660    -1.5500 C.2   1 <1>  -0.0400 
 18 C       -0.8610     3.1040    -2.5040 C.ar  1 <1>   0.0000 
 19 C       -1.9040     4.8480    -1.1900 C.ar  1 <1>  -0.1500 
 20 C        0.4460     1.3600    -1.4610 C.ar  1 <1>  -0.1500 
 21 O       -1.3680    -1.1550    -2.6190 O.3   1 <1>  -0.0190 
 22 C       -1.9090    -2.4900    -1.0380 C.2   1 <1>  -0.1500 
 23 C       -0.0710     1.9420    -2.5830 C.ar  1 <1>  -0.1500 
 24 C       -1.4100     3.7060    -3.6540 C.ar  1 <1>  -0.1500 
 25 C       -2.4240     5.4140    -2.3210 C.ar  1 <1>  -0.1500 
 26 N       -0.6740    -2.2320    -2.8450 N.2   1 <1>  -0.4100 
 27 C       -0.9800    -3.0550    -1.9070 C.2   1 <1>   0.1080 
 28 C       -2.1760     4.8350    -3.5690 C.ar  1 <1>  -0.1500 
 29 C       -0.4030    -4.4470    -1.7750 C.3   1 <1>  -0.0590 
 30 H       -4.0280     2.5820     1.8960 H     1 <1>   0.0800 
 31 H       -3.1150     2.5670     0.3950 H     1 <1>   0.0800 
 32 H       -1.7090    -0.7290     1.0830 H     1 <1>   0.0800 
 33 H       -3.0440    -0.8580     2.2110 H     1 <1>   0.0800 
 34 H       -1.6540     3.4680     4.3320 H     1 <1>   0.0800 
 35 H       -2.7030     3.8880     3.0090 H     1 <1>   0.0800 
 36 H       -1.3150     4.8810     3.3650 H     1 <1>   0.0800 
 37 H        0.7530     2.8610     3.8810 H     1 <1>   0.0800 
 38 H        0.9350     4.2260     2.8100 H     1 <1>   0.0800 
 39 H        1.3280     2.6150     2.2670 H     1 <1>   0.0800 
 40 H       -5.0550     1.3620    -0.2880 H     1 <1>   0.0800 
 41 H       -4.2640    -1.1570     0.2020 H     1 <1>   0.0800 
 42 H       -4.9660     0.3740     2.3500 H     1 <1>   0.4000 
 43 H       -2.3620     0.7940    -1.1280 H     1 <1>   0.0800 
 44 H       -3.7250     0.0550    -1.9020 H     1 <1>   0.0800 
 45 H        0.6140     1.4050     0.6380 H     1 <1>   0.1500 
 46 H       -2.0940     5.3030    -0.2340 H     1 <1>   0.1500 
 47 H        1.0440     0.4670    -1.5310 H     1 <1>   0.1500 
 48 H       -2.3340    -2.9610    -0.1720 H     1 <1>   0.1500 
 49 H        0.1190     1.5080    -3.5490 H     1 <1>   0.1500 
 50 H       -1.2110     3.2560    -4.6100 H     1 <1>   0.1500 
 51 H       -3.0230     6.3060    -2.2680 H     1 <1>   0.1500 
 52 H       -2.5910     5.2900    -4.4510 H     1 <1>   0.1500 
 53 H       -1.1940    -5.1730    -1.7860 H     1 <1>   0.0800 
 54 H        0.1420    -4.5280    -0.8530 H     1 <1>   0.0800 
 55 H        0.2650    -4.6470    -2.5930 H     1 <1>   0.0800 
@<TRIPOS>BOND
  1   1   2  2   
  2   2   3  am  
  3   2   4  1   
  4   3   5  1   
  5   3   6  1   
  6   4   7  1   
  7   4   8  1   
  8   4   9  1   
  9   5  10  1   
 10   5  30  1   
 11   5  31  1   
 12   6  11  1   
 13   6  32  1   
 14   6  33  1   
 15   7  12  1   
 16   8  34  1   
 17   8  35  1   
 18   8  36  1   
 19   9  37  1   
 20   9  38  1   
 21   9  39  1   
 22  10  11  1   
 23  10  13  1   
 24  10  40  1   
 25  11  14  1   
 26  11  41  1   
 27  12  15  ar  
 28  12  16  ar  
 29  13  42  1   
 30  14  17  1   
 31  14  43  1   
 32  14  44  1   
 33  15  18  ar  
 34  15  19  ar  
 35  16  20  ar  
 36  16  45  1   
 37  17  21  1   
 38  17  22  2   
 39  18  23  ar  
 40  18  24  ar  
 41  19  25  ar  
 42  19  46  1   
 43  20  23  ar  
 44  20  47  1   
 45  21  26  1   
 46  22  27  1   
 47  22  48  1   
 48  23  49  1   
 49  24  28  ar  
 50  24  50  1   
 51  25  28  ar  
 52  25  51  1   
 53  26  27  2   
 54  27  29  1   
 55  28  52  1   
 56  29  53  1   
 57  29  54  1   
 58  29  55  1   
@<TRIPOS>SUBSTRUCTURE
  1 ****  16 GROUP 4 **** **** 0

# MOE 2024.06 (io_trps.svl 2023.06)
