@<TRIPOS>MOLECULE
NONAME
51 53 1 0 0 
SMALL
USER_CHARGES


@<TRIPOS>ATOM
  1 S        0.4180     0.3570    -0.7870 S.o2  1 <1>   1.3330 
  2 O        0.2130    -1.0580    -0.5710 O.2   1 <1>  -0.6500 
  3 O        0.4940     0.8690    -2.1360 O.2   1 <1>  -0.6500 
  4 N       -0.8160     1.1910     0.0260 N.am  1 <1>  -0.8490 
  5 C        1.8940     0.9180     0.0620 C.3   1 <1>  -0.0550 
  6 C       -1.2150     0.5510     1.2840 C.3   1 <1>   0.1160 
  7 C       -1.9950     1.3950    -0.8220 C.3   1 <1>   0.1160 
  8 C        3.2030     0.3350    -0.5260 C.3   1 <1>  -0.0800 
  9 C        4.4770     0.9900     0.0020 C.3   1 <1>   0.2200 
 10 C        3.4110    -1.0900    -0.0180 C.3   1 <1>   0.1200 
 11 N        4.3550     2.4570     0.2010 N.am  1 <1>  -0.7300 
 12 C        4.7550     0.2120     1.2950 C.3   1 <1>   0.1200 
 13 O        3.9510    -0.9320     1.2530 O.3   1 <1>  -0.5600 
 14 C        5.3500     3.2480     0.7020 C.2   1 <1>   0.7160 
 15 O        6.3810     2.7240     1.0750 O.2   1 <1>  -0.5700 
 16 C        5.1780     4.6760     0.7630 C.2   1 <1>  -0.0860 
 17 C        3.9750     5.3830     0.6900 C.2   1 <1>   0.1390 
 18 C        6.1020     5.6660     0.9060 C.2   1 <1>  -0.3020 
 19 N        4.1320     6.6660     0.7690 N.2   1 <1>  -0.7070 
 20 N        5.4610     6.8450     0.9030 N.pl3 1 <1>   0.3140 
 21 C        6.0510     8.1940     1.0520 C.3   1 <1>   0.2390 
 22 C        7.3320     8.3380     0.2390 C.ar  1 <1>  -0.1440 
 23 C        7.2680     8.4510    -1.1420 C.ar  1 <1>  -0.1500 
 24 C        8.5690     8.3560     0.8670 C.ar  1 <1>  -0.1500 
 25 C        8.4270     8.5800    -1.8870 C.ar  1 <1>  -0.1500 
 26 C        9.7280     8.4850     0.1220 C.ar  1 <1>  -0.1500 
 27 C        9.6580     8.5980    -1.2550 C.ar  1 <1>  -0.1500 
 28 H        1.9070     1.9850    -0.0150 H     1 <1>   0.0800 
 29 H        1.8310     0.6720     1.1040 H     1 <1>   0.0800 
 30 H       -1.9350     1.1640     1.7990 H     1 <1>   0.0800 
 31 H       -0.3600     0.4230     1.9260 H     1 <1>   0.0800 
 32 H       -1.6510    -0.4170     1.0940 H     1 <1>   0.0800 
 33 H       -2.7510     1.9410    -0.2850 H     1 <1>   0.0800 
 34 H       -2.3980     0.4470    -1.1380 H     1 <1>   0.0800 
 35 H       -1.7260     1.9650    -1.6960 H     1 <1>   0.0800 
 36 H        3.1780     0.3570    -1.6010 H     1 <1>   0.0800 
 37 H        5.2900     0.8010    -0.6810 H     1 <1>   0.0800 
 38 H        4.1310    -1.6170    -0.6210 H     1 <1>   0.0800 
 39 H        2.5090    -1.6730     0.0540 H     1 <1>   0.0800 
 40 H        3.6490     2.9170    -0.3710 H     1 <1>   0.3700 
 41 H        4.4830     0.7780     2.1680 H     1 <1>   0.0800 
 42 H        5.7860    -0.0900     1.3550 H     1 <1>   0.0800 
 43 H        3.0070     4.9230     0.5850 H     1 <1>   0.1500 
 44 H        7.1690     5.5720     1.0040 H     1 <1>   0.1500 
 45 H        5.3290     8.9170     0.7200 H     1 <1>   0.0800 
 46 H        6.2430     8.3630     2.0940 H     1 <1>   0.0800 
 47 H        6.3150     8.4340    -1.6440 H     1 <1>   0.1500 
 48 H        8.6410     8.2670     1.9370 H     1 <1>   0.1500 
 49 H        8.3710     8.6660    -2.9580 H     1 <1>   0.1500 
 50 H       10.6860     8.4970     0.6130 H     1 <1>   0.1500 
 51 H       10.5590     8.6980    -1.8350 H     1 <1>   0.1500 
@<TRIPOS>BOND
  1   1   2  2   
  2   1   3  2   
  3   1   4  am  
  4   1   5  1   
  5   4   6  1   
  6   4   7  1   
  7   5   8  1   
  8   5  28  1   
  9   5  29  1   
 10   6  30  1   
 11   6  31  1   
 12   6  32  1   
 13   7  33  1   
 14   7  34  1   
 15   7  35  1   
 16   8   9  1   
 17   8  10  1   
 18   8  36  1   
 19   9  11  1   
 20   9  12  1   
 21   9  37  1   
 22  10  13  1   
 23  10  38  1   
 24  10  39  1   
 25  11  14  am  
 26  11  40  1   
 27  12  13  1   
 28  12  41  1   
 29  12  42  1   
 30  14  15  2   
 31  14  16  1   
 32  16  17  1   
 33  16  18  2   
 34  17  19  2   
 35  17  43  1   
 36  18  20  1   
 37  18  44  1   
 38  19  20  1   
 39  20  21  1   
 40  21  22  1   
 41  21  45  1   
 42  21  46  1   
 43  22  23  ar  
 44  22  24  ar  
 45  23  25  ar  
 46  23  47  1   
 47  24  26  ar  
 48  24  48  1   
 49  25  27  ar  
 50  25  49  1   
 51  26  27  ar  
 52  26  50  1   
 53  27  51  1   
@<TRIPOS>SUBSTRUCTURE
  1 ****  11 GROUP 4 **** **** 0

# MOE 2024.06 (io_trps.svl 2023.06)
