@<TRIPOS>MOLECULE
NONAME
53 55 1 0 0 
SMALL
USER_CHARGES


@<TRIPOS>ATOM
  1 F       -0.2220     1.2770    -0.1290 F     1 <1>  -0.1900 
  2 C       -1.5280     1.3660    -0.1140 C.ar  1 <1>   0.1900 
  3 C       -2.1950     2.3820     0.5810 C.ar  1 <1>   0.0830 
  4 C       -2.2170     0.4030    -0.8250 C.ar  1 <1>  -0.1500 
  5 O       -1.6300     3.3840     1.3140 O.3   1 <1>  -0.3630 
  6 C       -3.5790     2.3900     0.5320 C.ar  1 <1>  -0.1500 
  7 C       -3.5990     0.4420    -0.8530 C.ar  1 <1>  -0.1500 
  8 C       -0.2380     3.5050     1.5070 C.3   1 <1>   0.0400 
  9 C       -4.3110     1.4320    -0.1730 C.ar  1 <1>   0.0530 
 10 C       -5.7510     1.4870    -0.2010 C.2   1 <1>   0.0870 
 11 O       -6.3450     2.6490    -0.3030 O.3   1 <1>  -0.0190 
 12 C       -6.7320     0.5420    -0.1550 C.2   1 <1>  -0.0860 
 13 N       -7.6460     2.5580    -0.3390 N.2   1 <1>  -0.4100 
 14 C       -7.9060     1.3020    -0.2520 C.2   1 <1>   0.3720 
 15 C       -6.6570    -0.8820    -0.0240 C.2   1 <1>   0.7160 
 16 N       -9.2170     0.8000    -0.2370 N.pl3 1 <1>  -0.8210 
 17 O       -5.6370    -1.4230     0.3570 O.2   1 <1>  -0.5700 
 18 N       -7.7450    -1.6410    -0.3280 N.am  1 <1>  -0.7300 
 19 C       -9.9030     1.0650     1.0570 C.3   1 <1>   0.1290 
 20 C      -10.0390     1.2670    -1.3880 C.3   1 <1>   0.1290 
 21 C       -7.9860    -3.0820    -0.1440 C.3   1 <1>   0.3000 
 22 C       -9.4540    -3.3160    -0.5130 C.3   1 <1>  -0.1600 
 23 C       -7.9840    -3.3990     1.3540 C.3   1 <1>  -0.1600 
 24 C       -6.9760    -3.8810    -1.0000 C.3   1 <1>  -0.1600 
 25 C      -10.2730    -2.8300     0.6900 C.3   1 <1>  -0.1600 
 26 C       -9.3190    -2.8690     1.8920 C.3   1 <1>  -0.1600 
 27 C       -7.1810    -5.4050    -1.0850 C.3   1 <1>  -0.2400 
 28 H       -1.6790    -0.3670    -1.3480 H     1 <1>   0.1500 
 29 H       -4.1040     3.1650     1.0610 H     1 <1>   0.1500 
 30 H       -4.1340    -0.3080    -1.4090 H     1 <1>   0.1500 
 31 H       -0.0620     4.3580     2.1370 H     1 <1>   0.0800 
 32 H        0.2360     3.6530     0.5530 H     1 <1>   0.0800 
 33 H        0.1280     2.6150     1.9880 H     1 <1>   0.0800 
 34 H       -8.6070    -1.0890    -0.4330 H     1 <1>   0.3700 
 35 H       -9.3100     0.6790     1.8690 H     1 <1>   0.0800 
 36 H      -10.8660     0.5850     1.0720 H     1 <1>   0.0800 
 37 H      -10.0330     2.1250     1.1970 H     1 <1>   0.0800 
 38 H       -9.4890     1.1390    -2.3050 H     1 <1>   0.0800 
 39 H      -10.2800     2.3110    -1.2750 H     1 <1>   0.0800 
 40 H      -10.9490     0.6960    -1.4470 H     1 <1>   0.0800 
 41 H       -9.6400    -4.3680    -0.6240 H     1 <1>   0.0800 
 42 H       -9.7290    -2.8250    -1.4290 H     1 <1>   0.0800 
 43 H       -7.1370    -2.9760     1.8640 H     1 <1>   0.0800 
 44 H       -7.9620    -4.4630     1.4960 H     1 <1>   0.0800 
 45 H       -5.9900    -3.7140    -0.6060 H     1 <1>   0.0800 
 46 H       -6.9960    -3.4870    -2.0010 H     1 <1>   0.0800 
 47 H      -11.1320    -3.4580     0.8490 H     1 <1>   0.0800 
 48 H      -10.6060    -1.8210     0.5240 H     1 <1>   0.0800 
 49 H       -9.1830    -1.8740     2.2790 H     1 <1>   0.0800 
 50 H       -9.6960    -3.5010     2.6780 H     1 <1>   0.0800 
 51 H       -7.1870    -5.8520    -0.1080 H     1 <1>   0.0800 
 52 H       -6.3730    -5.8420    -1.6440 H     1 <1>   0.0800 
 53 H       -8.0980    -5.6480    -1.5900 H     1 <1>   0.0800 
@<TRIPOS>BOND
  1   1   2  1   
  2   2   3  ar  
  3   2   4  ar  
  4   3   5  1   
  5   3   6  ar  
  6   4   7  ar  
  7   4  28  1   
  8   5   8  1   
  9   6   9  ar  
 10   6  29  1   
 11   7   9  ar  
 12   7  30  1   
 13   8  31  1   
 14   8  32  1   
 15   8  33  1   
 16   9  10  1   
 17  10  11  1   
 18  10  12  2   
 19  11  13  1   
 20  12  14  1   
 21  12  15  1   
 22  13  14  2   
 23  14  16  1   
 24  15  17  2   
 25  15  18  am  
 26  16  19  1   
 27  16  20  1   
 28  18  21  1   
 29  18  34  1   
 30  19  35  1   
 31  19  36  1   
 32  19  37  1   
 33  20  38  1   
 34  20  39  1   
 35  20  40  1   
 36  21  22  1   
 37  21  23  1   
 38  21  24  1   
 39  22  25  1   
 40  22  41  1   
 41  22  42  1   
 42  23  26  1   
 43  23  43  1   
 44  23  44  1   
 45  24  27  1   
 46  24  45  1   
 47  24  46  1   
 48  25  26  1   
 49  25  47  1   
 50  25  48  1   
 51  26  49  1   
 52  26  50  1   
 53  27  51  1   
 54  27  52  1   
 55  27  53  1   
@<TRIPOS>SUBSTRUCTURE
  1 ****  12 GROUP 4 **** **** 0

# MOE 2024.06 (io_trps.svl 2023.06)
