@<TRIPOS>MOLECULE
NONAME
56 59 1 0 0 
SMALL
USER_CHARGES


@<TRIPOS>ATOM
  1 O        2.3180     0.4070    -1.7380 O.2   1 <1>  -0.5700 
  2 C        2.2510    -0.2690    -0.7400 C.2   1 <1>   0.5690 
  3 N        2.6820     0.2450     0.4570 N.am  1 <1>  -0.6600 
  4 C        1.7180    -1.6990    -0.8800 C.3   1 <1>  -0.0190 
  5 C        3.7510    -0.4160     1.2520 C.3   1 <1>   0.1400 
  6 C        2.4270     1.6770     0.7650 C.3   1 <1>   0.1400 
  7 C        0.8670    -2.1690     0.3180 C.3   1 <1>  -0.1600 
  8 C        2.8250    -2.7210    -1.2050 C.3   1 <1>  -0.1600 
  9 C        5.0970    -0.3490     0.4980 C.3   1 <1>   0.3430 
 10 C        3.7070     2.5160     0.7130 C.3   1 <1>  -0.1600 
 11 C        0.4590    -3.6360     0.1610 C.3   1 <1>   0.1200 
 12 C        2.2530    -4.1410    -1.2590 C.3   1 <1>   0.1200 
 13 N        5.6700     1.0350     0.3090 N.4   1 <1>  -0.9590 
 14 C        4.7220     2.0200    -0.3180 C.3   1 <1>   0.3430 
 15 O        1.6030    -4.4010    -0.0550 O.3   1 <1>  -0.5600 
 16 C        6.9380     0.9490    -0.4760 C.3   1 <1>   0.4860 
 17 C        7.6550     2.2780    -0.4250 C.ar  1 <1>  -0.1440 
 18 C        7.6470     3.1370    -1.4980 C.ar  1 <1>   0.1600 
 19 C        8.3340     2.6920     0.6960 C.ar  1 <1>   0.1600 
 20 N        8.2090     4.3150    -1.4460 N.ar  1 <1>  -0.6200 
 21 N        8.9060     3.8660     0.7690 N.ar  1 <1>  -0.6200 
 22 C        8.8060     4.6700    -0.3000 C.ar  1 <1>   0.6200 
 23 C        9.3910     6.0060    -0.2020 C.ar  1 <1>   0.3100 
 24 N        8.6280     7.0840    -0.4530 N.ar  1 <1>  -0.6200 
 25 C       10.7330     6.1350     0.1630 C.ar  1 <1>  -0.1500 
 26 C        9.2070     8.2660    -0.3490 C.ar  1 <1>   0.1600 
 27 C       11.3250     7.3740     0.2700 C.ar  1 <1>  -0.1500 
 28 C       10.5300     8.4660     0.0030 C.ar  1 <1>  -0.1500 
 29 H        1.0570    -1.6850    -1.7300 H     1 <1>   0.0800 
 30 H        3.4930    -1.4470     1.4140 H     1 <1>   0.0800 
 31 H        3.8380     0.0460     2.2200 H     1 <1>   0.0800 
 32 H        1.9680     1.7600     1.7360 H     1 <1>   0.0800 
 33 H        1.7220     2.0680     0.0470 H     1 <1>   0.0800 
 34 H       -0.0170    -1.5600     0.3950 H     1 <1>   0.0800 
 35 H        1.4040    -2.0760     1.2430 H     1 <1>   0.0800 
 36 H        3.5950    -2.7070    -0.4600 H     1 <1>   0.0800 
 37 H        3.2710    -2.4830    -2.1550 H     1 <1>   0.0800 
 38 H        4.9540    -0.8080    -0.4660 H     1 <1>   0.0800 
 39 H        5.8090    -0.9520     1.0390 H     1 <1>   0.0800 
 40 H        4.1530     2.5850     1.6890 H     1 <1>   0.0800 
 41 H        3.4160     3.5160     0.4410 H     1 <1>   0.0800 
 42 H       -0.2140    -3.7750    -0.6700 H     1 <1>   0.0800 
 43 H       -0.0150    -3.9970     1.0570 H     1 <1>   0.0800 
 44 H        3.0400    -4.8660    -1.3720 H     1 <1>   0.0800 
 45 H        1.5500    -4.2580    -2.0670 H     1 <1>   0.0800 
 46 H        5.9050     1.4190     1.2320 H     1 <1>   0.4500 
 47 H        5.2710     2.8790    -0.6670 H     1 <1>   0.0800 
 48 H        4.2170     1.5860    -1.1670 H     1 <1>   0.0800 
 49 H        6.7200     0.6880    -1.5000 H     1 <1>   0.0800 
 50 H        7.5790     0.1880    -0.0630 H     1 <1>   0.0800 
 51 H        7.1620     2.8680    -2.4230 H     1 <1>   0.1500 
 52 H        8.4130     2.0570     1.5630 H     1 <1>   0.1500 
 53 H       11.3090     5.2500     0.3630 H     1 <1>   0.1500 
 54 H        8.5940     9.1270    -0.5550 H     1 <1>   0.1500 
 55 H       12.3580     7.4850     0.5490 H     1 <1>   0.1500 
 56 H       10.9270     9.4630     0.0670 H     1 <1>   0.1500 
@<TRIPOS>BOND
  1   1   2  2   
  2   2   3  am  
  3   2   4  1   
  4   3   5  1   
  5   3   6  1   
  6   4   7  1   
  7   4   8  1   
  8   4  29  1   
  9   5   9  1   
 10   5  30  1   
 11   5  31  1   
 12   6  10  1   
 13   6  32  1   
 14   6  33  1   
 15   7  11  1   
 16   7  34  1   
 17   7  35  1   
 18   8  12  1   
 19   8  36  1   
 20   8  37  1   
 21   9  13  1   
 22   9  38  1   
 23   9  39  1   
 24  10  14  1   
 25  10  40  1   
 26  10  41  1   
 27  11  15  1   
 28  11  42  1   
 29  11  43  1   
 30  12  15  1   
 31  12  44  1   
 32  12  45  1   
 33  13  14  1   
 34  13  16  1   
 35  13  46  1   
 36  14  47  1   
 37  14  48  1   
 38  16  17  1   
 39  16  49  1   
 40  16  50  1   
 41  17  18  ar  
 42  17  19  ar  
 43  18  20  ar  
 44  18  51  1   
 45  19  21  ar  
 46  19  52  1   
 47  20  22  ar  
 48  21  22  ar  
 49  22  23  1   
 50  23  24  ar  
 51  23  25  ar  
 52  24  26  ar  
 53  25  27  ar  
 54  25  53  1   
 55  26  28  ar  
 56  26  54  1   
 57  27  28  ar  
 58  27  55  1   
 59  28  56  1   
@<TRIPOS>SUBSTRUCTURE
  1 ****  14 GROUP 4 **** **** 0

# MOE 2024.06 (io_trps.svl 2023.06)
