@<TRIPOS>MOLECULE
NONAME
48 51 1 0 0 
SMALL
USER_CHARGES


@<TRIPOS>ATOM
  1 O       -0.8630    -0.7930     1.1920 O.3   1 <1>  -0.5130 
  2 C       -0.8340     0.5430     0.9440 C.2   1 <1>  -0.0890 
  3 N       -1.7060     1.2100     0.1390 N.pl3 1 <1>   0.5930 
  4 C        0.0520     1.4280     1.4290 C.2   1 <1>  -0.1500 
  5 N       -1.3650     2.5230     0.0900 N.2   1 <1>  -0.7070 
  6 C       -2.8210     0.6540    -0.5430 C.ar  1 <1>  -0.0230 
  7 C       -0.3120     2.6650     0.8780 C.2   1 <1>   0.2030 
  8 C       -3.8440     0.0310     0.1660 C.ar  1 <1>  -0.1500 
  9 C       -2.9050     0.7120    -1.9300 C.ar  1 <1>  -0.1500 
 10 C        0.4070     3.9040     1.1680 C.2   1 <1>   0.7160 
 11 C       -4.9210    -0.5290    -0.4980 C.ar  1 <1>  -0.1500 
 12 C       -3.9820     0.1520    -2.5940 C.ar  1 <1>  -0.1500 
 13 O        1.4400     3.8850     1.8180 O.2   1 <1>  -0.5700 
 14 N        0.0190     5.1460     0.6980 N.am  1 <1>  -0.6600 
 15 C       -4.9890    -0.4710    -1.8790 C.ar  1 <1>  -0.1500 
 16 C        0.4240     6.3770     1.4700 C.3   1 <1>   0.2200 
 17 C       -0.5570     5.3000    -0.6720 C.3   1 <1>   0.1400 
 18 C       -0.6160     7.5070     1.4030 C.3   1 <1>   0.1200 
 19 C        1.8150     6.8770     1.0140 C.3   1 <1>   0.3430 
 20 C       -0.1300     6.5900    -1.3990 C.3   1 <1>  -0.0800 
 21 O       -0.4060     8.3050     0.2770 O.3   1 <1>  -0.5600 
 22 N        2.2060     6.3280    -0.3310 N.4   1 <1>  -0.9590 
 23 C       -0.9240     7.8130    -0.9120 C.3   1 <1>   0.1200 
 24 C        1.3900     6.8700    -1.4690 C.3   1 <1>   0.3430 
 25 C        3.6690     6.4840    -0.5710 C.3   1 <1>   0.2630 
 26 H       -1.5330    -1.2840     0.6740 H     1 <1>   0.4500 
 27 H        0.8750     1.2470     2.0980 H     1 <1>   0.1500 
 28 H       -3.8040    -0.0110     1.2420 H     1 <1>   0.1500 
 29 H       -2.1260     1.1990    -2.4920 H     1 <1>   0.1500 
 30 H       -5.7090    -1.0080     0.0580 H     1 <1>   0.1500 
 31 H       -4.0390     0.2000    -3.6690 H     1 <1>   0.1500 
 32 H       -5.8270    -0.9070    -2.3960 H     1 <1>   0.1500 
 33 H        0.4990     6.1050     2.5100 H     1 <1>   0.0800 
 34 H       -0.2520     4.4600    -1.2730 H     1 <1>   0.0800 
 35 H       -1.6320     5.2610    -0.6000 H     1 <1>   0.0800 
 36 H       -0.4920     8.1490     2.2580 H     1 <1>   0.0800 
 37 H       -1.6240     7.1270     1.4130 H     1 <1>   0.0800 
 38 H        2.5330     6.5490     1.7480 H     1 <1>   0.0800 
 39 H        1.8300     7.9550     1.0010 H     1 <1>   0.0800 
 40 H       -0.4500     6.4600    -2.4170 H     1 <1>   0.0800 
 41 H        1.9820     5.3220    -0.2480 H     1 <1>   0.4500 
 42 H       -1.9680     7.5850    -0.7750 H     1 <1>   0.0800 
 43 H       -0.8500     8.6080    -1.6350 H     1 <1>   0.0800 
 44 H        1.5410     7.9350    -1.5400 H     1 <1>   0.0800 
 45 H        1.7590     6.4330    -2.3820 H     1 <1>   0.0800 
 46 H        3.9300     7.5290    -0.6210 H     1 <1>   0.0800 
 47 H        3.9490     6.0110    -1.4970 H     1 <1>   0.0800 
 48 H        4.2270     6.0260     0.2300 H     1 <1>   0.0800 
@<TRIPOS>BOND
  1   1   2  1   
  2   1  26  1   
  3   2   3  1   
  4   2   4  2   
  5   3   5  1   
  6   3   6  1   
  7   4   7  1   
  8   4  27  1   
  9   5   7  2   
 10   6   8  ar  
 11   6   9  ar  
 12   7  10  1   
 13   8  11  ar  
 14   8  28  1   
 15   9  12  ar  
 16   9  29  1   
 17  10  13  2   
 18  10  14  am  
 19  11  15  ar  
 20  11  30  1   
 21  12  15  ar  
 22  12  31  1   
 23  14  16  1   
 24  14  17  1   
 25  15  32  1   
 26  16  18  1   
 27  16  19  1   
 28  16  33  1   
 29  17  20  1   
 30  17  34  1   
 31  17  35  1   
 32  18  21  1   
 33  18  36  1   
 34  18  37  1   
 35  19  22  1   
 36  19  38  1   
 37  19  39  1   
 38  20  23  1   
 39  20  24  1   
 40  20  40  1   
 41  21  23  1   
 42  22  24  1   
 43  22  25  1   
 44  22  41  1   
 45  23  42  1   
 46  23  43  1   
 47  24  44  1   
 48  24  45  1   
 49  25  46  1   
 50  25  47  1   
 51  25  48  1   
@<TRIPOS>SUBSTRUCTURE
  1 ****   5 GROUP 4 **** **** 0

# MOE 2024.06 (io_trps.svl 2023.06)
