@<TRIPOS>MOLECULE
NONAME
59 63 1 0 0 
SMALL
USER_CHARGES


@<TRIPOS>ATOM
  1 O       -1.4390     0.6180     1.9940 O.2   1 <1>  -0.5700 
  2 C       -1.8600     0.7550     0.8600 C.2   1 <1>   0.7160 
  3 N       -2.4970    -0.3100     0.2560 N.am  1 <1>  -0.6600 
  4 C       -1.6720     2.0040     0.1960 C.2   1 <1>  -0.0860 
  5 C       -3.1820    -0.2210    -1.0720 C.3   1 <1>   0.1400 
  6 C       -2.8040    -1.5750     0.9900 C.3   1 <1>   0.1400 
  7 C       -2.6840     2.9290    -0.0750 C.2   1 <1>   0.3720 
  8 C       -0.5550     2.5870    -0.3140 C.2   1 <1>   0.0870 
  9 C       -4.7010    -0.3830    -0.9050 C.3   1 <1>   0.1400 
 10 C       -4.3220    -1.7360     1.1660 C.3   1 <1>   0.1400 
 11 N       -2.2180     3.9500    -0.7030 N.2   1 <1>  -0.4100 
 12 N       -4.0320     2.7710     0.2740 N.pl3 1 <1>  -0.8210 
 13 O       -0.9380     3.7280    -0.8320 O.3   1 <1>  -0.0190 
 14 C        0.8340     2.1900    -0.3810 C.ar  1 <1>   0.0530 
 15 N       -5.0270    -1.6360    -0.1520 N.am  1 <1>  -0.6600 
 16 C       -4.2950     2.8280     1.7460 C.3   1 <1>   0.2090 
 17 C       -4.9990     3.6540    -0.4520 C.3   1 <1>   0.2090 
 18 C        1.2540     0.8820    -0.1280 C.ar  1 <1>  -0.1500 
 19 C        1.8240     3.1190    -0.7130 C.ar  1 <1>  -0.1500 
 20 C       -5.8740    -2.5820    -0.6810 C.2   1 <1>   0.5770 
 21 C       -5.7740     2.5300     2.0480 C.3   1 <1>   0.1200 
 22 C       -6.4490     3.3270    -0.0540 C.3   1 <1>   0.1200 
 23 C        2.5860     0.5210    -0.2000 C.ar  1 <1>  -0.1500 
 24 C        3.1580     2.7640    -0.7890 C.ar  1 <1>  -0.1500 
 25 O       -6.4180    -2.4020    -1.7450 O.2   1 <1>  -0.5700 
 26 C       -6.1490    -3.8860     0.0690 C.3   1 <1>   0.0530 
 27 O       -6.6160     3.3930     1.3350 O.3   1 <1>  -0.5600 
 28 C        3.5430     1.4610    -0.5320 C.ar  1 <1>  -0.1500 
 29 C       -4.9850    -4.9130     0.0120 C.3   1 <1>   0.0000 
 30 C       -7.0100    -4.9560    -0.6630 C.3   1 <1>   0.0000 
 31 C       -6.0680    -6.0200    -0.0440 C.3   1 <1>   0.0000 
 32 H       -2.8150    -1.0040    -1.7120 H     1 <1>   0.0800 
 33 H       -2.9780     0.7160    -1.5570 H     1 <1>   0.0800 
 34 H       -2.3310    -1.5840     1.9560 H     1 <1>   0.0800 
 35 H       -2.4190    -2.4100     0.4300 H     1 <1>   0.0800 
 36 H       -5.1590    -0.3900    -1.8790 H     1 <1>   0.0800 
 37 H       -5.0940     0.4610    -0.3680 H     1 <1>   0.0800 
 38 H       -4.6810    -0.9540     1.8130 H     1 <1>   0.0800 
 39 H       -4.5220    -2.6730     1.6490 H     1 <1>   0.0800 
 40 H       -4.0460     3.8070     2.1200 H     1 <1>   0.0800 
 41 H       -3.6820     2.1110     2.2610 H     1 <1>   0.0800 
 42 H       -4.8780     3.5190    -1.5130 H     1 <1>   0.0800 
 43 H       -4.7940     4.6860    -0.2220 H     1 <1>   0.0800 
 44 H        0.5380     0.1250     0.1310 H     1 <1>   0.1500 
 45 H        1.5480     4.1390    -0.9140 H     1 <1>   0.1500 
 46 H       -5.9730     2.6690     3.0960 H     1 <1>   0.0800 
 47 H       -6.0150     1.5160     1.7810 H     1 <1>   0.0800 
 48 H       -6.7170     2.3390    -0.3860 H     1 <1>   0.0800 
 49 H       -7.1240     4.0360    -0.4990 H     1 <1>   0.0800 
 50 H        2.8810    -0.4940     0.0030 H     1 <1>   0.1500 
 51 H        3.8980     3.5020    -1.0470 H     1 <1>   0.1500 
 52 H       -6.5000    -3.7270     1.0750 H     1 <1>   0.0000 
 53 H        4.5810     1.1820    -0.5890 H     1 <1>   0.1500 
 54 H       -4.3810    -4.9440     0.9010 H     1 <1>   0.0000 
 55 H       -4.4100    -4.8500    -0.8970 H     1 <1>   0.0000 
 56 H       -6.9300    -4.9280    -1.7370 H     1 <1>   0.0000 
 57 H       -8.0240    -5.0170    -0.3090 H     1 <1>   0.0000 
 58 H       -6.3870    -6.3410     0.9330 H     1 <1>   0.0000 
 59 H       -5.8290    -6.8310    -0.7090 H     1 <1>   0.0000 
@<TRIPOS>BOND
  1   1   2  2   
  2   2   3  am  
  3   2   4  1   
  4   3   5  1   
  5   3   6  1   
  6   4   7  1   
  7   4   8  2   
  8   5   9  1   
  9   5  32  1   
 10   5  33  1   
 11   6  10  1   
 12   6  34  1   
 13   6  35  1   
 14   7  11  2   
 15   7  12  1   
 16   8  13  1   
 17   8  14  1   
 18   9  15  1   
 19   9  36  1   
 20   9  37  1   
 21  10  15  1   
 22  10  38  1   
 23  10  39  1   
 24  11  13  1   
 25  12  16  1   
 26  12  17  1   
 27  14  18  ar  
 28  14  19  ar  
 29  15  20  am  
 30  16  21  1   
 31  16  40  1   
 32  16  41  1   
 33  17  22  1   
 34  17  42  1   
 35  17  43  1   
 36  18  23  ar  
 37  18  44  1   
 38  19  24  ar  
 39  19  45  1   
 40  20  25  2   
 41  20  26  1   
 42  21  27  1   
 43  21  46  1   
 44  21  47  1   
 45  22  27  1   
 46  22  48  1   
 47  22  49  1   
 48  23  28  ar  
 49  23  50  1   
 50  24  28  ar  
 51  24  51  1   
 52  26  29  1   
 53  26  30  1   
 54  26  52  1   
 55  28  53  1   
 56  29  31  1   
 57  29  54  1   
 58  29  55  1   
 59  30  31  1   
 60  30  56  1   
 61  30  57  1   
 62  31  58  1   
 63  31  59  1   
@<TRIPOS>SUBSTRUCTURE
  1 ****   3 GROUP 4 **** **** 0

# MOE 2024.06 (io_trps.svl 2023.06)
