@<TRIPOS>MOLECULE
NONAME
61 64 1 0 0 
SMALL
USER_CHARGES


@<TRIPOS>ATOM
  1 O        1.2500     1.8550     2.3120 O.co2 1 <1>  -0.9000 
  2 C        1.3030     0.9310     1.4920 C.2   1 <1>   0.9060 
  3 O        0.8490    -0.1940     1.7470 O.co2 1 <1>  -0.9000 
  4 C        2.0470     1.1110     0.1670 C.3   1 <1>  -0.1060 
  5 C        3.3000     0.2230     0.3600 C.3   1 <1>   0.2000 
  6 C        2.4900     2.5840    -0.0950 C.3   1 <1>  -0.1600 
  7 C        1.1540     0.6410    -1.0200 C.3   1 <1>  -0.0160 
  8 O        2.9970    -1.1060     0.1120 O.3   1 <1>  -0.6800 
  9 C        4.4950     0.6740    -0.4870 C.3   1 <1>   0.2090 
 10 C        3.8480     2.9120     0.5270 C.3   1 <1>   0.2090 
 11 C        0.0340     1.6110    -1.3940 C.ar  1 <1>  -0.1440 
 12 N        4.9230     2.0770    -0.1260 N.pl3 1 <1>  -0.8380 
 13 C        0.0970     2.3430    -2.5710 C.ar  1 <1>  -0.1500 
 14 C       -1.0640     1.7650    -0.5630 C.ar  1 <1>  -0.1500 
 15 C        6.2020     2.5210    -0.2350 C.ar  1 <1>   0.4100 
 16 C       -0.9210     3.2180    -2.9100 C.ar  1 <1>  -0.1500 
 17 C       -2.0830     2.6390    -0.8990 C.ar  1 <1>  -0.1500 
 18 N        6.5520     3.5780     0.4750 N.ar  1 <1>  -0.6200 
 19 C        7.1300     1.8760    -1.0750 C.ar  1 <1>  -0.1500 
 20 C       -2.0130     3.3670    -2.0730 C.ar  1 <1>  -0.1500 
 21 C        7.7980     4.0130     0.4090 C.ar  1 <1>   0.7710 
 22 C        8.4040     2.3320    -1.1340 C.ar  1 <1>   0.2180 
 23 N        8.7100     3.4060    -0.3710 N.ar  1 <1>  -0.1790 
 24 N        8.1680     5.0930     1.1510 N.pl3 1 <1>  -0.8380 
 25 C        9.4870     1.7050    -2.0040 C.3   1 <1>  -0.0170 
 26 C        7.2370     5.7020     2.1760 C.3   1 <1>   0.2090 
 27 C        9.4710     5.8460     1.0980 C.3   1 <1>   0.2090 
 28 C       10.6380     1.1270    -1.1690 C.3   1 <1>  -0.2400 
 29 C        7.1300     7.2270     2.0010 C.3   1 <1>   0.1200 
 30 C        9.2320     7.3630     0.9740 C.3   1 <1>   0.1200 
 31 O        8.4010     7.8120     2.0000 O.3   1 <1>  -0.5600 
 32 H        3.6130     0.2690     1.3910 H     1 <1>   0.0800 
 33 H        1.7460     3.2600     0.2900 H     1 <1>   0.0800 
 34 H        2.5700     2.7750    -1.1490 H     1 <1>   0.0800 
 35 H        1.7760     0.4820    -1.8810 H     1 <1>   0.0800 
 36 H        0.7030    -0.3090    -0.7900 H     1 <1>   0.0800 
 37 H        2.1940    -1.2980     0.6670 H     1 <1>   0.4000 
 38 H        4.2200     0.6440    -1.5260 H     1 <1>   0.0800 
 39 H        5.3060    -0.0100    -0.3110 H     1 <1>   0.0800 
 40 H        3.8200     2.7130     1.5860 H     1 <1>   0.0800 
 41 H        4.0510     3.9590     0.3860 H     1 <1>   0.0800 
 42 H        0.9420     2.2340    -3.2260 H     1 <1>   0.1500 
 43 H       -1.1260     1.2030     0.3570 H     1 <1>   0.1500 
 44 H       -0.8610     3.7820    -3.8230 H     1 <1>   0.1500 
 45 H       -2.9250     2.7500    -0.2380 H     1 <1>   0.1500 
 46 H        6.8070     1.0370    -1.6600 H     1 <1>   0.1500 
 47 H       -2.8040     4.0470    -2.3330 H     1 <1>   0.1500 
 48 H        9.6470     3.7800    -0.3310 H     1 <1>   0.4570 
 49 H        9.0570     0.9110    -2.5920 H     1 <1>   0.0800 
 50 H        9.8700     2.4380    -2.6920 H     1 <1>   0.0800 
 51 H        6.2450     5.2870     2.1220 H     1 <1>   0.0800 
 52 H        7.6130     5.4940     3.1630 H     1 <1>   0.0800 
 53 H       10.0250     5.6630     2.0040 H     1 <1>   0.0800 
 54 H       10.0760     5.5330     0.2680 H     1 <1>   0.0800 
 55 H       10.2680     0.3880    -0.4770 H     1 <1>   0.0800 
 56 H       11.1520     1.8930    -0.6170 H     1 <1>   0.0800 
 57 H       11.3510     0.6460    -1.8170 H     1 <1>   0.0800 
 58 H        6.5730     7.6550     2.8160 H     1 <1>   0.0800 
 59 H        6.6330     7.4710     1.0780 H     1 <1>   0.0800 
 60 H        8.7770     7.6070     0.0300 H     1 <1>   0.0800 
 61 H       10.1640     7.8960     1.0560 H     1 <1>   0.0800 
@<TRIPOS>BOND
  1   1   2  ar  
  2   2   3  ar  
  3   2   4  1   
  4   4   5  1   
  5   4   6  1   
  6   4   7  1   
  7   5   8  1   
  8   5   9  1   
  9   5  32  1   
 10   6  10  1   
 11   6  33  1   
 12   6  34  1   
 13   7  11  1   
 14   7  35  1   
 15   7  36  1   
 16   8  37  1   
 17   9  12  1   
 18   9  38  1   
 19   9  39  1   
 20  10  12  1   
 21  10  40  1   
 22  10  41  1   
 23  11  13  ar  
 24  11  14  ar  
 25  12  15  1   
 26  13  16  ar  
 27  13  42  1   
 28  14  17  ar  
 29  14  43  1   
 30  15  18  ar  
 31  15  19  ar  
 32  16  20  ar  
 33  16  44  1   
 34  17  20  ar  
 35  17  45  1   
 36  18  21  ar  
 37  19  22  ar  
 38  19  46  1   
 39  20  47  1   
 40  21  23  ar  
 41  21  24  1   
 42  22  23  ar  
 43  22  25  1   
 44  23  48  1   
 45  24  26  1   
 46  24  27  1   
 47  25  28  1   
 48  25  49  1   
 49  25  50  1   
 50  26  29  1   
 51  26  51  1   
 52  26  52  1   
 53  27  30  1   
 54  27  53  1   
 55  27  54  1   
 56  28  55  1   
 57  28  56  1   
 58  28  57  1   
 59  29  31  1   
 60  29  58  1   
 61  29  59  1   
 62  30  31  1   
 63  30  60  1   
 64  30  61  1   
@<TRIPOS>SUBSTRUCTURE
  1 ****  10 GROUP 4 **** **** 0

# MOE 2024.06 (io_trps.svl 2023.06)
