@<TRIPOS>MOLECULE
NONAME
47 48 1 0 0 
SMALL
USER_CHARGES


@<TRIPOS>ATOM
  1 S       -0.1680     0.1750     0.0140 S.o2  1 <1>   1.3330 
  2 O       -0.1720    -0.3940     1.3430 O.2   1 <1>  -0.6500 
  3 O       -0.9070     1.3900    -0.2430 O.2   1 <1>  -0.6500 
  4 N       -0.7120    -1.0190    -1.0640 N.am  1 <1>  -0.8490 
  5 C        1.5220     0.4430    -0.5240 C.3   1 <1>  -0.0550 
  6 C       -0.3740    -2.3820    -0.6410 C.3   1 <1>   0.1160 
  7 C       -2.1510    -0.9190    -1.3250 C.3   1 <1>   0.1160 
  8 C        2.2440     1.5680     0.2460 C.3   1 <1>  -0.0800 
  9 C        3.5800     1.9010    -0.3970 C.3   1 <1>   0.2200 
 10 C        2.6590     1.1290     1.6570 C.3   1 <1>   0.1200 
 11 N        3.9580     3.2850    -0.0400 N.am  1 <1>  -0.7300 
 12 C        4.5140     0.9240     0.3030 C.3   1 <1>   0.1200 
 13 O        4.0140     0.7860     1.5990 O.3   1 <1>  -0.5600 
 14 C        4.1280     4.2950    -0.9260 C.2   1 <1>   0.5690 
 15 O        3.9790     4.1370    -2.1120 O.2   1 <1>  -0.5700 
 16 C        4.5320     5.6550    -0.4080 C.3   1 <1>  -0.0990 
 17 C        6.0420     5.8710    -0.5510 C.3   1 <1>  -0.0170 
 18 C        6.4390     7.2240     0.0170 C.ar  1 <1>  -0.1440 
 19 C        6.8810     7.3330     1.3270 C.ar  1 <1>  -0.1500 
 20 C        6.3570     8.3650    -0.7720 C.ar  1 <1>  -0.1500 
 21 C        7.2280     8.5800     1.8120 C.ar  1 <1>   0.1900 
 22 C        6.7100     9.6080    -0.2670 C.ar  1 <1>  -0.1500 
 23 F        7.6420     8.6810     3.0460 F     1 <1>  -0.1900 
 24 C        7.1510     9.7230     1.0400 C.ar  1 <1>  -0.1500 
 25 H        2.0760    -0.4700    -0.4330 H     1 <1>   0.0800 
 26 H        1.4950     0.7070    -1.5640 H     1 <1>   0.0800 
 27 H       -0.6580    -3.0870    -1.4050 H     1 <1>   0.0800 
 28 H       -0.8870    -2.6310     0.2740 H     1 <1>   0.0800 
 29 H        0.6860    -2.4690    -0.4770 H     1 <1>   0.0800 
 30 H       -2.4580    -1.6800    -2.0220 H     1 <1>   0.0800 
 31 H       -2.3830     0.0420    -1.7540 H     1 <1>   0.0800 
 32 H       -2.7070    -1.0310    -0.4090 H     1 <1>   0.0800 
 33 H        1.6030     2.4330     0.2760 H     1 <1>   0.0800 
 34 H        3.5840     1.7730    -1.4670 H     1 <1>   0.0800 
 35 H        2.1080     0.2810     2.0240 H     1 <1>   0.0800 
 36 H        2.5610     1.9420     2.3550 H     1 <1>   0.0800 
 37 H        4.1260     3.4300     0.9580 H     1 <1>   0.3700 
 38 H        5.5300     1.2750     0.3410 H     1 <1>   0.0800 
 39 H        4.4780    -0.0430    -0.1670 H     1 <1>   0.0800 
 40 H        4.0060     6.4050    -0.9700 H     1 <1>   0.0800 
 41 H        4.2440     5.7510     0.6230 H     1 <1>   0.0800 
 42 H        6.3170     5.8190    -1.5910 H     1 <1>   0.0800 
 43 H        6.5730     5.0900    -0.0360 H     1 <1>   0.0800 
 44 H        6.9590     6.4750     1.9680 H     1 <1>   0.1500 
 45 H        6.0140     8.2890    -1.7900 H     1 <1>   0.1500 
 46 H        6.6410    10.4820    -0.8920 H     1 <1>   0.1500 
 47 H        7.4300    10.6740     1.4540 H     1 <1>   0.1500 
@<TRIPOS>BOND
  1   1   2  2   
  2   1   3  2   
  3   1   4  am  
  4   1   5  1   
  5   4   6  1   
  6   4   7  1   
  7   5   8  1   
  8   5  25  1   
  9   5  26  1   
 10   6  27  1   
 11   6  28  1   
 12   6  29  1   
 13   7  30  1   
 14   7  31  1   
 15   7  32  1   
 16   8   9  1   
 17   8  10  1   
 18   8  33  1   
 19   9  11  1   
 20   9  12  1   
 21   9  34  1   
 22  10  13  1   
 23  10  35  1   
 24  10  36  1   
 25  11  14  am  
 26  11  37  1   
 27  12  13  1   
 28  12  38  1   
 29  12  39  1   
 30  14  15  2   
 31  14  16  1   
 32  16  17  1   
 33  16  40  1   
 34  16  41  1   
 35  17  18  1   
 36  17  42  1   
 37  17  43  1   
 38  18  19  ar  
 39  18  20  ar  
 40  19  21  ar  
 41  19  44  1   
 42  20  22  ar  
 43  20  45  1   
 44  21  23  1   
 45  21  24  ar  
 46  22  24  ar  
 47  22  46  1   
 48  24  47  1   
@<TRIPOS>SUBSTRUCTURE
  1 ****  11 GROUP 4 **** **** 0

# MOE 2024.06 (io_trps.svl 2023.06)
