@<TRIPOS>MOLECULE
NONAME
45 47 1 0 0 
SMALL
USER_CHARGES


@<TRIPOS>ATOM
  1 O       -0.7710    -0.0050     1.7040 O.2   1 <1>  -0.5700 
  2 C       -1.3450     0.5200     0.7790 C.2   1 <1>   0.5690 
  3 N       -2.1000    -0.1920    -0.1100 N.am  1 <1>  -0.6600 
  4 C       -1.1950     2.0210     0.6110 C.3   1 <1>  -0.0990 
  5 C       -2.1480    -1.6920     0.0120 C.3   1 <1>   0.3640 
  6 C       -2.9610     0.4560    -1.1510 C.3   1 <1>   0.1400 
  7 C       -0.3040     2.6410     1.6970 C.3   1 <1>   0.0960 
  8 C       -0.9300    -2.3170    -0.6790 C.ar  1 <1>  -0.1440 
  9 C       -3.4590    -2.3600    -0.5080 C.3   1 <1>   0.2000 
 10 C       -3.8180    -0.5420    -1.9410 C.3   1 <1>   0.1200 
 11 N       -0.0700     4.0700     1.4170 N.pl3 1 <1>   0.3140 
 12 C       -0.2640    -3.3560    -0.0440 C.ar  1 <1>  -0.1500 
 13 C       -0.4700    -1.8900    -1.9190 C.ar  1 <1>  -0.1500 
 14 O       -4.3820    -1.4570    -1.0620 O.3   1 <1>  -0.5600 
 15 C       -4.1960    -3.1210     0.6010 C.3   1 <1>   0.1200 
 16 N       -1.0260     4.9700     1.4730 N.2   1 <1>  -0.4180 
 17 C        1.0410     4.6890     1.0470 C.2   1 <1>   0.0060 
 18 C        0.8310    -3.9610    -0.6340 C.ar  1 <1>  -0.1500 
 19 C        0.6240    -2.4950    -2.5130 C.ar  1 <1>  -0.1500 
 20 O       -3.4080    -4.1590     1.0910 O.3   1 <1>  -0.6800 
 21 N       -0.4890     6.0900     1.1480 N.2   1 <1>   0.0000 
 22 N        0.8020     5.9320     0.8770 N.2   1 <1>  -0.3380 
 23 C        2.3970     4.0390     0.8460 C.3   1 <1>  -0.0600 
 24 C        1.2760    -3.5320    -1.8710 C.ar  1 <1>  -0.1500 
 25 H       -0.7620     2.2090    -0.3530 H     1 <1>   0.0800 
 26 H       -2.1680     2.4750     0.6580 H     1 <1>   0.0800 
 27 H       -2.0670    -1.9330     1.0590 H     1 <1>   0.0800 
 28 H       -3.6250     1.1510    -0.6680 H     1 <1>   0.0800 
 29 H       -2.3440     1.0090    -1.8380 H     1 <1>   0.0800 
 30 H        0.6410     2.1320     1.7380 H     1 <1>   0.0800 
 31 H       -0.7780     2.5530     2.6580 H     1 <1>   0.0800 
 32 H       -3.2130    -3.0610    -1.2860 H     1 <1>   0.0800 
 33 H       -3.2370    -1.0710    -2.6760 H     1 <1>   0.0800 
 34 H       -4.6180    -0.0260    -2.4430 H     1 <1>   0.0800 
 35 H       -0.5960    -3.7000     0.9220 H     1 <1>   0.1500 
 36 H       -0.9540    -1.0830    -2.4330 H     1 <1>   0.1500 
 37 H       -5.1110    -3.5440     0.2260 H     1 <1>   0.0800 
 38 H       -4.4160    -2.4590     1.4210 H     1 <1>   0.0800 
 39 H        1.3380    -4.7650    -0.1290 H     1 <1>   0.1500 
 40 H        0.9710    -2.1580    -3.4740 H     1 <1>   0.1500 
 41 H       -3.3200    -4.8740     0.4290 H     1 <1>   0.4000 
 42 H        3.1100     4.7760     0.5190 H     1 <1>   0.0800 
 43 H        2.3350     3.2680     0.1000 H     1 <1>   0.0800 
 44 H        2.7460     3.6150     1.7700 H     1 <1>   0.0800 
 45 H        2.1270    -4.0020    -2.3310 H     1 <1>   0.1500 
@<TRIPOS>BOND
  1   1   2  2   
  2   2   3  am  
  3   2   4  1   
  4   3   5  1   
  5   3   6  1   
  6   4   7  1   
  7   4  25  1   
  8   4  26  1   
  9   5   8  1   
 10   5   9  1   
 11   5  27  1   
 12   6  10  1   
 13   6  28  1   
 14   6  29  1   
 15   7  11  1   
 16   7  30  1   
 17   7  31  1   
 18   8  12  ar  
 19   8  13  ar  
 20   9  14  1   
 21   9  15  1   
 22   9  32  1   
 23  10  14  1   
 24  10  33  1   
 25  10  34  1   
 26  11  16  1   
 27  11  17  1   
 28  12  18  ar  
 29  12  35  1   
 30  13  19  ar  
 31  13  36  1   
 32  15  20  1   
 33  15  37  1   
 34  15  38  1   
 35  16  21  2   
 36  17  22  2   
 37  17  23  1   
 38  18  24  ar  
 39  18  39  1   
 40  19  24  ar  
 41  19  40  1   
 42  20  41  1   
 43  21  22  1   
 44  23  42  1   
 45  23  43  1   
 46  23  44  1   
 47  24  45  1   
@<TRIPOS>SUBSTRUCTURE
  1 ****   2 GROUP 4 **** **** 0

# MOE 2024.06 (io_trps.svl 2023.06)
