@<TRIPOS>MOLECULE
NONAME
39 42 1 0 0 
SMALL
USER_CHARGES


@<TRIPOS>ATOM
  1 S       -0.0670     0.1690     1.1780 S.3   1 <1>  -0.0800 
  2 C       -1.5760     0.7630     0.4860 C.2   1 <1>   0.4620 
  3 C        0.7970     1.4360     0.3580 C.2   1 <1>  -0.1100 
  4 N       -1.4110     1.7940    -0.2650 N.2   1 <1>  -0.5650 
  5 N       -2.7680     0.1260     0.7670 N.pl3 1 <1>  -0.8220 
  6 C       -0.0820     2.1740    -0.3390 C.2   1 <1>   0.0460 
  7 C       -2.9050    -1.1070     1.5900 C.3   1 <1>   0.2090 
  8 C       -4.0390     0.5780     0.1450 C.3   1 <1>   0.2090 
  9 C        0.2350     3.3850    -1.2050 C.3   1 <1>   0.3010 
 10 C       -3.4110    -2.2370     0.6950 C.3   1 <1>  -0.1600 
 11 C       -4.5590    -0.5320    -0.7670 C.3   1 <1>  -0.1600 
 12 O        1.5070     3.8680    -0.9210 O.3   1 <1>  -0.6800 
 13 C       -4.7200    -1.8530    -0.0030 C.3   1 <1>   0.4600 
 14 O       -5.6800    -1.6810     1.0240 O.3   1 <1>  -0.5600 
 15 C       -5.1930    -2.9750    -0.9210 C.2   1 <1>  -0.1400 
 16 C       -7.0430    -1.7730     0.6800 C.3   1 <1>   0.1200 
 17 S       -4.2010    -3.6270    -2.2160 S.3   1 <1>  -0.0800 
 18 C       -6.3790    -3.5970    -0.8740 C.2   1 <1>  -0.1810 
 19 C       -7.3990    -3.1790     0.1600 C.3   1 <1>   0.0210 
 20 C       -5.4660    -4.7690    -2.6530 C.2   1 <1>  -0.1100 
 21 C       -6.5410    -4.6260    -1.8540 C.2   1 <1>  -0.1500 
 22 H        1.8630     1.4870     0.4810 H     1 <1>   0.1500 
 23 H       -3.6090    -0.9230     2.3840 H     1 <1>   0.0800 
 24 H       -1.9710    -1.3920     2.0380 H     1 <1>   0.0800 
 25 H       -3.8880     1.4780    -0.4260 H     1 <1>   0.0800 
 26 H       -4.7560     0.7900     0.9200 H     1 <1>   0.0800 
 27 H       -0.4720     4.1720    -1.0110 H     1 <1>   0.0800 
 28 H        0.1950     3.1200    -2.2460 H     1 <1>   0.0800 
 29 H       -3.5660    -3.1260     1.2770 H     1 <1>   0.0800 
 30 H       -2.6570    -2.4510    -0.0390 H     1 <1>   0.0800 
 31 H       -3.8520    -0.6680    -1.5640 H     1 <1>   0.0800 
 32 H       -5.4900    -0.2400    -1.2120 H     1 <1>   0.0800 
 33 H        1.5570     4.0970     0.0260 H     1 <1>   0.4000 
 34 H       -7.2560    -1.0320    -0.0700 H     1 <1>   0.0800 
 35 H       -7.6180    -1.5460     1.5600 H     1 <1>   0.0800 
 36 H       -8.3820    -3.1600    -0.2750 H     1 <1>   0.0800 
 37 H       -7.4000    -3.8810     0.9750 H     1 <1>   0.0800 
 38 H       -5.2660    -5.4360    -3.4730 H     1 <1>   0.1500 
 39 H       -7.4470    -5.2040    -1.9130 H     1 <1>   0.1500 
@<TRIPOS>BOND
  1   1   2  1   
  2   1   3  1   
  3   2   4  2   
  4   2   5  1   
  5   3   6  2   
  6   3  22  1   
  7   4   6  1   
  8   5   7  1   
  9   5   8  1   
 10   6   9  1   
 11   7  10  1   
 12   7  23  1   
 13   7  24  1   
 14   8  11  1   
 15   8  25  1   
 16   8  26  1   
 17   9  12  1   
 18   9  27  1   
 19   9  28  1   
 20  10  13  1   
 21  10  29  1   
 22  10  30  1   
 23  11  13  1   
 24  11  31  1   
 25  11  32  1   
 26  12  33  1   
 27  13  14  1   
 28  13  15  1   
 29  14  16  1   
 30  15  17  1   
 31  15  18  2   
 32  16  19  1   
 33  16  34  1   
 34  16  35  1   
 35  17  20  1   
 36  18  19  1   
 37  18  21  1   
 38  19  36  1   
 39  19  37  1   
 40  20  21  2   
 41  20  38  1   
 42  21  39  1   
@<TRIPOS>SUBSTRUCTURE
  1 ****  11 GROUP 4 **** **** 0

# MOE 2024.06 (io_trps.svl 2023.06)
