@<TRIPOS>MOLECULE
NONAME
40 42 1 0 0 
SMALL
USER_CHARGES


@<TRIPOS>ATOM
  1 O        3.7910    -1.6770    -1.8430 O.2   1 <1>  -0.5700 
  2 C        2.9710    -1.4450    -0.9740 C.2   1 <1>   0.5440 
  3 N        3.0510    -0.2070    -0.3890 N.am  1 <1>  -0.6600 
  4 C        2.0240    -2.4510    -0.5180 C.ar  1 <1>   0.0860 
  5 C        3.7760    -0.1260     0.9270 C.3   1 <1>   0.2200 
  6 C        3.0150     0.9980    -1.2750 C.3   1 <1>   0.1400 
  7 C        2.1840    -3.7960    -0.8590 C.ar  1 <1>  -0.1500 
  8 C        0.9260    -2.1210     0.2800 C.ar  1 <1>  -0.1500 
  9 C        3.4250     1.1360     1.7320 C.3   1 <1>   0.1200 
 10 C        5.3110    -0.2420     0.7260 C.3   1 <1>   0.3430 
 11 C        4.1440     2.0190    -1.0380 C.3   1 <1>  -0.0800 
 12 C        1.3020    -4.7650    -0.4150 C.ar  1 <1>  -0.1500 
 13 C        0.0410    -3.0850     0.7270 C.ar  1 <1>  -0.1500 
 14 O        4.2560     2.1980     1.3700 O.3   1 <1>  -0.5600 
 15 N        5.7400     0.0370    -0.6900 N.4   1 <1>  -0.9590 
 16 C        3.9000     2.8770     0.2130 C.3   1 <1>   0.1200 
 17 C        5.5840     1.4670    -1.1030 C.3   1 <1>   0.3430 
 18 C        0.2300    -4.4100     0.3820 C.ar  1 <1>  -0.1500 
 19 C        7.1100    -0.4760    -0.9660 C.3   1 <1>   0.2630 
 20 H        3.4600    -0.9630     1.5260 H     1 <1>   0.0800 
 21 H        3.0520     0.6780    -2.3040 H     1 <1>   0.0800 
 22 H        2.0630     1.4860    -1.1410 H     1 <1>   0.0800 
 23 H        3.0110    -4.0870    -1.4840 H     1 <1>   0.1500 
 24 H        0.7540    -1.0950     0.5530 H     1 <1>   0.1500 
 25 H        3.6090     0.9500     2.7760 H     1 <1>   0.0800 
 26 H        2.3910     1.4130     1.6170 H     1 <1>   0.0800 
 27 H        5.5980    -1.2470     0.9840 H     1 <1>   0.0800 
 28 H        5.8170     0.4230     1.4060 H     1 <1>   0.0800 
 29 H        4.0670     2.7180    -1.8520 H     1 <1>   0.0800 
 30 H        1.4480    -5.7950    -0.6920 H     1 <1>   0.1500 
 31 H       -0.7980    -2.8080     1.3420 H     1 <1>   0.1500 
 32 H        5.0630    -0.5120    -1.2710 H     1 <1>   0.4500 
 33 H        2.8710     3.1890     0.2910 H     1 <1>   0.0800 
 34 H        4.5120     3.7620     0.1740 H     1 <1>   0.0800 
 35 H        6.2230     2.0870    -0.4950 H     1 <1>   0.0800 
 36 H        5.9230     1.5570    -2.1220 H     1 <1>   0.0800 
 37 H       -0.4580    -5.1630     0.7280 H     1 <1>   0.1500 
 38 H        7.8350     0.0510    -0.3670 H     1 <1>   0.0800 
 39 H        7.3540    -0.3420    -2.0070 H     1 <1>   0.0800 
 40 H        7.1660    -1.5270    -0.7360 H     1 <1>   0.0800 
@<TRIPOS>BOND
  1   1   2  2   
  2   2   3  am  
  3   2   4  1   
  4   3   5  1   
  5   3   6  1   
  6   4   7  ar  
  7   4   8  ar  
  8   5   9  1   
  9   5  10  1   
 10   5  20  1   
 11   6  11  1   
 12   6  21  1   
 13   6  22  1   
 14   7  12  ar  
 15   7  23  1   
 16   8  13  ar  
 17   8  24  1   
 18   9  14  1   
 19   9  25  1   
 20   9  26  1   
 21  10  15  1   
 22  10  27  1   
 23  10  28  1   
 24  11  16  1   
 25  11  17  1   
 26  11  29  1   
 27  12  18  ar  
 28  12  30  1   
 29  13  18  ar  
 30  13  31  1   
 31  14  16  1   
 32  15  17  1   
 33  15  19  1   
 34  15  32  1   
 35  16  33  1   
 36  16  34  1   
 37  17  35  1   
 38  17  36  1   
 39  18  37  1   
 40  19  38  1   
 41  19  39  1   
 42  19  40  1   
@<TRIPOS>SUBSTRUCTURE
  1 ****   3 GROUP 4 **** **** 0

# MOE 2024.06 (io_trps.svl 2023.06)
