@<TRIPOS>MOLECULE
NONAME
54 57 1 0 0 
SMALL
USER_CHARGES


@<TRIPOS>ATOM
  1 S        2.0620    -1.9830     1.9290 S.o2  1 <1>   1.4470 
  2 O        2.6030    -3.0870     1.1680 O.2   1 <1>  -0.6500 
  3 O        2.2480    -1.9300     3.3580 O.2   1 <1>  -0.6500 
  4 N        0.3980    -2.0300     1.7270 N.am  1 <1>  -0.9140 
  5 C        2.5100    -0.4000     1.1680 C.ar  1 <1>  -0.0090 
  6 C       -0.0440    -2.5790     0.4530 C.3   1 <1>   0.2760 
  7 C        1.9100     0.7830     1.5790 C.ar  1 <1>  -0.1500 
  8 C        3.4620    -0.3210     0.1600 C.ar  1 <1>  -0.1500 
  9 C       -1.4730    -2.1250     0.2130 C.3   1 <1>  -0.0800 
 10 C       -0.2240    -4.0960     0.5510 C.3   1 <1>   0.1200 
 11 C        2.2210     2.0020     1.0010 C.ar  1 <1>  -0.1430 
 12 C        3.7810     0.8880    -0.4280 C.ar  1 <1>  -0.1500 
 13 C       -2.2790    -3.1580     1.0090 C.3   1 <1>   0.1200 
 14 C       -1.8290    -2.1350    -1.2860 C.3   1 <1>  -0.0170 
 15 O       -1.4750    -4.2950     1.1370 O.3   1 <1>  -0.5600 
 16 C        3.1460     2.0650    -0.0430 C.ar  1 <1>   0.1170 
 17 C        1.5640     3.2600     1.5650 C.3   1 <1>  -0.0170 
 18 C       -3.2390    -1.6200    -1.5230 C.ar  1 <1>  -0.1430 
 19 N        3.4400     3.2990    -0.6610 N.am  1 <1>  -0.4770 
 20 C        1.9090     4.5310     0.7760 C.3   1 <1>  -0.1600 
 21 C       -3.5420    -0.2760    -1.4490 C.ar  1 <1>  -0.1500 
 22 C       -4.2880    -2.4660    -1.8240 C.ar  1 <1>  -0.1500 
 23 C        3.6140     3.5300    -2.0130 C.2   1 <1>   0.5690 
 24 C        3.3400     4.4760     0.2410 C.3   1 <1>   0.1400 
 25 C       -4.8430     0.1460    -1.6680 C.ar  1 <1>   0.1600 
 26 C       -5.5540    -1.9410    -2.0250 C.ar  1 <1>   0.1600 
 27 O        4.0410     4.5740    -2.4430 O.2   1 <1>  -0.5700 
 28 C        3.2300     2.4860    -3.0390 C.3   1 <1>  -0.1790 
 29 N       -5.8560    -0.6550    -1.9520 N.ar  1 <1>  -0.6200 
 30 H        0.0700    -2.6740     2.4480 H     1 <1>   0.4200 
 31 H        0.6200    -2.2870    -0.3450 H     1 <1>   0.0800 
 32 H        1.1880     0.7410     2.3790 H     1 <1>   0.1500 
 33 H        3.9640    -1.2180    -0.1660 H     1 <1>   0.1500 
 34 H       -1.6360    -1.1340     0.5990 H     1 <1>   0.0800 
 35 H        0.5320    -4.5790     1.1440 H     1 <1>   0.0800 
 36 H       -0.2470    -4.5400    -0.4280 H     1 <1>   0.0800 
 37 H        4.5400     0.9180    -1.1880 H     1 <1>   0.1500 
 38 H       -3.2040    -3.4340     0.5330 H     1 <1>   0.0800 
 39 H       -2.4850    -2.7950     2.0010 H     1 <1>   0.0800 
 40 H       -1.7370    -3.1300    -1.6870 H     1 <1>   0.0800 
 41 H       -1.1420    -1.5040    -1.8230 H     1 <1>   0.0800 
 42 H        0.4950     3.1360     1.5950 H     1 <1>   0.0800 
 43 H        1.9080     3.3830     2.5780 H     1 <1>   0.0800 
 44 H        1.7870     5.3950     1.4050 H     1 <1>   0.0800 
 45 H        1.2370     4.6340    -0.0590 H     1 <1>   0.0800 
 46 H       -2.7820     0.4490    -1.2230 H     1 <1>   0.1500 
 47 H       -4.1360    -3.5270    -1.9040 H     1 <1>   0.1500 
 48 H        4.0420     4.3620     1.0500 H     1 <1>   0.0800 
 49 H        3.5720     5.3900    -0.2790 H     1 <1>   0.0800 
 50 H       -5.0630     1.1990    -1.6060 H     1 <1>   0.1500 
 51 H       -6.3610    -2.6150    -2.2580 H     1 <1>   0.1500 
 52 H        2.4110     1.8880    -2.6870 H     1 <1>   0.0800 
 53 H        4.0750     1.8620    -3.2570 H     1 <1>   0.0800 
 54 H        2.9260     2.9770    -3.9460 H     1 <1>   0.0800 
@<TRIPOS>BOND
  1   1   2  2   
  2   1   3  2   
  3   1   4  am  
  4   1   5  1   
  5   4   6  1   
  6   4  30  1   
  7   5   7  ar  
  8   5   8  ar  
  9   6   9  1   
 10   6  10  1   
 11   6  31  1   
 12   7  11  ar  
 13   7  32  1   
 14   8  12  ar  
 15   8  33  1   
 16   9  13  1   
 17   9  14  1   
 18   9  34  1   
 19  10  15  1   
 20  10  35  1   
 21  10  36  1   
 22  11  16  ar  
 23  11  17  1   
 24  12  16  ar  
 25  12  37  1   
 26  13  15  1   
 27  13  38  1   
 28  13  39  1   
 29  14  18  1   
 30  14  40  1   
 31  14  41  1   
 32  16  19  1   
 33  17  20  1   
 34  17  42  1   
 35  17  43  1   
 36  18  21  ar  
 37  18  22  ar  
 38  19  23  am  
 39  19  24  1   
 40  20  24  1   
 41  20  44  1   
 42  20  45  1   
 43  21  25  ar  
 44  21  46  1   
 45  22  26  ar  
 46  22  47  1   
 47  23  27  2   
 48  23  28  1   
 49  24  48  1   
 50  24  49  1   
 51  25  29  ar  
 52  25  50  1   
 53  26  29  ar  
 54  26  51  1   
 55  28  52  1   
 56  28  53  1   
 57  28  54  1   
@<TRIPOS>SUBSTRUCTURE
  1 ****   7 GROUP 4 **** **** 0

# MOE 2024.06 (io_trps.svl 2023.06)
