@<TRIPOS>MOLECULE
NONAME
39 41 1 0 0 
SMALL
USER_CHARGES


@<TRIPOS>ATOM
  1 F       -1.1000    -1.5610     2.0720 F     1 <1>  -0.3400 
  2 C       -0.2740    -2.5070     1.6260 C.3   1 <1>   0.8560 
  3 F        0.8460    -1.8620     1.3060 F     1 <1>  -0.3400 
  4 N       -0.8560    -3.1760     0.4120 N.pl3 1 <1>   0.3140 
  5 N       -1.1080    -4.5070     0.3490 N.2   1 <1>  -0.7070 
  6 C       -1.1980    -2.5730    -0.7490 C.2   1 <1>  -0.3020 
  7 C       -1.6050    -4.7260    -0.8580 C.2   1 <1>   0.2030 
  8 C       -1.6750    -3.5250    -1.5720 C.2   1 <1>  -0.1500 
  9 C       -2.0260    -6.0170    -1.3820 C.2   1 <1>   0.7160 
 10 O       -2.5090    -6.1380    -2.4950 O.2   1 <1>  -0.5700 
 11 N       -1.8900    -7.1330    -0.6100 N.am  1 <1>  -0.7300 
 12 C       -2.2960    -8.5070    -0.9760 C.3   1 <1>   0.2200 
 13 C       -3.5990    -8.8460    -0.2730 C.3   1 <1>  -0.0800 
 14 C       -1.3300    -9.5190    -0.3640 C.3   1 <1>   0.1200 
 15 C       -3.1020    -9.3040     1.1000 C.3   1 <1>   0.1200 
 16 C       -4.3710    -9.9540    -1.0140 C.3   1 <1>  -0.0160 
 17 O       -1.8180    -9.8230     0.9110 O.3   1 <1>  -0.5600 
 18 C       -5.6890   -10.2680    -0.3230 C.ar  1 <1>  -0.1430 
 19 C       -5.8680   -11.4110     0.4310 C.ar  1 <1>  -0.1500 
 20 C       -6.7750    -9.4220    -0.4140 C.ar  1 <1>  -0.1500 
 21 C       -7.0890   -11.6420     1.0430 C.ar  1 <1>   0.1600 
 22 C       -7.9520    -9.7460     0.2380 C.ar  1 <1>   0.1600 
 23 N       -8.1350   -10.8350     0.9660 N.ar  1 <1>  -0.6200 
 24 H       -0.0670    -3.1950     2.4240 H     1 <1>   0.0800 
 25 H       -1.0820    -1.5160    -0.9150 H     1 <1>   0.1500 
 26 H       -2.0440    -3.4290    -2.5790 H     1 <1>   0.1500 
 27 H       -1.5100    -6.9990     0.3310 H     1 <1>   0.3700 
 28 H       -2.3550    -8.6030    -2.0480 H     1 <1>   0.0800 
 29 H       -4.2320    -7.9800    -0.1860 H     1 <1>   0.0800 
 30 H       -0.3270    -9.1370    -0.2850 H     1 <1>   0.0800 
 31 H       -1.3270   -10.4310    -0.9330 H     1 <1>   0.0800 
 32 H       -3.7240   -10.0560     1.5510 H     1 <1>   0.0800 
 33 H       -3.0160    -8.4650     1.7690 H     1 <1>   0.0800 
 34 H       -3.7740   -10.8470    -1.0770 H     1 <1>   0.0800 
 35 H       -4.5800    -9.6310    -2.0200 H     1 <1>   0.0800 
 36 H       -5.0710   -12.1220     0.5500 H     1 <1>   0.1500 
 37 H       -6.7160    -8.5130    -0.9860 H     1 <1>   0.1500 
 38 H       -7.2110   -12.5380     1.6280 H     1 <1>   0.1500 
 39 H       -8.7890    -9.0730     0.1560 H     1 <1>   0.1500 
@<TRIPOS>BOND
  1   1   2  1   
  2   2   3  1   
  3   2   4  1   
  4   2  24  1   
  5   4   5  1   
  6   4   6  1   
  7   5   7  2   
  8   6   8  2   
  9   6  25  1   
 10   7   8  1   
 11   7   9  1   
 12   8  26  1   
 13   9  10  2   
 14   9  11  am  
 15  11  12  1   
 16  11  27  1   
 17  12  13  1   
 18  12  14  1   
 19  12  28  1   
 20  13  15  1   
 21  13  16  1   
 22  13  29  1   
 23  14  17  1   
 24  14  30  1   
 25  14  31  1   
 26  15  17  1   
 27  15  32  1   
 28  15  33  1   
 29  16  18  1   
 30  16  34  1   
 31  16  35  1   
 32  18  19  ar  
 33  18  20  ar  
 34  19  21  ar  
 35  19  36  1   
 36  20  22  ar  
 37  20  37  1   
 38  21  23  ar  
 39  21  38  1   
 40  22  23  ar  
 41  22  39  1   
@<TRIPOS>SUBSTRUCTURE
  1 ****  11 GROUP 4 **** **** 0

# MOE 2024.06 (io_trps.svl 2023.06)
