@<TRIPOS>MOLECULE
NONAME
58 61 1 0 0 
SMALL
USER_CHARGES


@<TRIPOS>ATOM
  1 O       -0.9090     3.3910    -1.8280 O.co2 1 <1>  -0.9000 
  2 C       -1.2660     2.9280    -0.7370 C.2   1 <1>   0.9060 
  3 O       -2.4560     2.8650    -0.4210 O.co2 1 <1>  -0.9000 
  4 C       -0.2110     2.6030     0.3090 C.3   1 <1>  -0.1060 
  5 C       -0.7480     2.8840     1.7300 C.3   1 <1>   0.2000 
  6 C        0.9670     3.5460     0.0850 C.3   1 <1>   0.3430 
  7 C        0.2230     1.1200     0.1510 C.3   1 <1>  -0.0650 
  8 O        0.2180     2.5200     2.6610 O.3   1 <1>  -0.6800 
  9 C       -1.0730     4.3660     2.0030 C.3   1 <1>  -0.1600 
 10 N        0.6490     5.0030     0.2950 N.4   1 <1>  -0.9590 
 11 C        0.9590     0.8240    -1.1640 C.3   1 <1>  -0.1950 
 12 C       -0.7060     5.3000     0.8510 C.3   1 <1>   0.3430 
 13 C        0.7880     5.6990    -1.0080 C.3   1 <1>   0.4860 
 14 C        1.8110    -0.3980    -1.2890 C.3   1 <1>  -0.2000 
 15 C        2.4450     0.9630    -1.2750 C.3   1 <1>  -0.2000 
 16 C        0.8010     7.1950    -0.7610 C.ar  1 <1>  -0.1430 
 17 C        1.7990     7.7730     0.0250 C.ar  1 <1>   0.0830 
 18 C       -0.1940     7.9840    -1.3200 C.ar  1 <1>  -0.1500 
 19 O        2.7360     6.9430     0.5570 O.3   1 <1>  -0.3620 
 20 C        1.7980     9.1510     0.2430 C.ar  1 <1>  -0.1500 
 21 C       -0.1810     9.3460    -1.0910 C.ar  1 <1>  -0.1430 
 22 C        3.8560     7.4450     1.2500 C.3   1 <1>   0.1200 
 23 C        0.8000     9.9200    -0.3220 C.ar  1 <1>  -0.1430 
 24 C       -1.1560    10.3790    -1.5990 C.3   1 <1>  -0.0170 
 25 C        4.7260     6.2590     1.6560 C.3   1 <1>  -0.2400 
 26 C        0.6080    11.4130    -0.2160 C.3   1 <1>  -0.0170 
 27 C       -0.4590    11.7130    -1.2830 C.3   1 <1>  -0.1600 
 28 H       -1.6200     2.2740     1.9090 H     1 <1>   0.0800 
 29 H        1.3330     3.3930    -0.9180 H     1 <1>   0.0800 
 30 H        1.7500     3.2590     0.7670 H     1 <1>   0.0800 
 31 H        0.8620     0.8250     0.9640 H     1 <1>   0.0800 
 32 H       -0.6570     0.5000     0.1970 H     1 <1>   0.0800 
 33 H       -0.1910     2.4360     3.5450 H     1 <1>   0.4000 
 34 H       -2.1360     4.4500     2.1420 H     1 <1>   0.0800 
 35 H       -0.6030     4.7150     2.9050 H     1 <1>   0.0800 
 36 H        1.3680     5.4250     0.8980 H     1 <1>   0.4500 
 37 H        0.3700     1.0750    -2.0330 H     1 <1>   0.1000 
 38 H       -0.7550     6.3260     1.1780 H     1 <1>   0.0800 
 39 H       -1.4390     5.1740     0.0700 H     1 <1>   0.0800 
 40 H        1.7100     5.4110    -1.4820 H     1 <1>   0.0800 
 41 H       -0.0280     5.4320    -1.6610 H     1 <1>   0.0800 
 42 H        1.9360    -1.0380    -0.4320 H     1 <1>   0.1000 
 43 H        1.7810    -0.9490    -2.2130 H     1 <1>   0.1000 
 44 H        2.8580     1.3480    -2.1920 H     1 <1>   0.1000 
 45 H        3.0260     1.2360    -0.4110 H     1 <1>   0.1000 
 46 H       -0.9700     7.5500    -1.9290 H     1 <1>   0.1500 
 47 H        2.5470     9.6360     0.8390 H     1 <1>   0.1500 
 48 H        4.3960     8.1070     0.5930 H     1 <1>   0.0800 
 49 H        3.5130     7.9800     2.1190 H     1 <1>   0.0800 
 50 H       -1.3370    10.2680    -2.6540 H     1 <1>   0.0800 
 51 H       -2.0820    10.2950    -1.0580 H     1 <1>   0.0800 
 52 H        5.0520     5.7210     0.7840 H     1 <1>   0.0800 
 53 H        4.1790     5.6000     2.3060 H     1 <1>   0.0800 
 54 H        5.5950     6.6120     2.1820 H     1 <1>   0.0800 
 55 H        0.2440    11.6600     0.7660 H     1 <1>   0.0800 
 56 H        1.5220    11.9460    -0.4120 H     1 <1>   0.0800 
 57 H       -1.1580    12.4610    -0.9500 H     1 <1>   0.0800 
 58 H        0.0320    12.0650    -2.1730 H     1 <1>   0.0800 
@<TRIPOS>BOND
  1   1   2  ar  
  2   2   3  ar  
  3   2   4  1   
  4   4   5  1   
  5   4   6  1   
  6   4   7  1   
  7   5   8  1   
  8   5   9  1   
  9   5  28  1   
 10   6  10  1   
 11   6  29  1   
 12   6  30  1   
 13   7  11  1   
 14   7  31  1   
 15   7  32  1   
 16   8  33  1   
 17   9  12  1   
 18   9  34  1   
 19   9  35  1   
 20  10  12  1   
 21  10  13  1   
 22  10  36  1   
 23  11  14  1   
 24  11  15  1   
 25  11  37  1   
 26  12  38  1   
 27  12  39  1   
 28  13  16  1   
 29  13  40  1   
 30  13  41  1   
 31  14  15  1   
 32  14  42  1   
 33  14  43  1   
 34  15  44  1   
 35  15  45  1   
 36  16  17  ar  
 37  16  18  ar  
 38  17  19  1   
 39  17  20  ar  
 40  18  21  ar  
 41  18  46  1   
 42  19  22  1   
 43  20  23  ar  
 44  20  47  1   
 45  21  23  ar  
 46  21  24  1   
 47  22  25  1   
 48  22  48  1   
 49  22  49  1   
 50  23  26  1   
 51  24  27  1   
 52  24  50  1   
 53  24  51  1   
 54  25  52  1   
 55  25  53  1   
 56  25  54  1   
 57  26  27  1   
 58  26  55  1   
 59  26  56  1   
 60  27  57  1   
 61  27  58  1   
@<TRIPOS>SUBSTRUCTURE
  1 ****  10 GROUP 4 **** **** 0

# MOE 2024.06 (io_trps.svl 2023.06)
