@<TRIPOS>MOLECULE
NONAME
47 49 1 0 0 
SMALL
USER_CHARGES


@<TRIPOS>ATOM
  1 O        1.0780    -0.4110    -2.0990 O.2   1 <1>  -0.5700 
  2 C        1.5350    -0.9350    -1.1010 C.2   1 <1>   0.5440 
  3 N        2.2200    -0.1370    -0.2240 N.am  1 <1>  -0.7300 
  4 C        1.3610    -2.3390    -0.8200 C.ar  1 <1>   0.0860 
  5 C        2.3430     1.3310    -0.3880 C.3   1 <1>   0.2200 
  6 C        0.0710    -2.9140    -0.6320 C.ar  1 <1>   0.0000 
  7 C        2.4740    -3.1480    -0.7020 C.ar  1 <1>  -0.1500 
  8 C        3.6650     1.8620     0.1880 C.3   1 <1>   0.2000 
  9 C        1.1450     2.0160     0.2740 C.3   1 <1>  -0.1600 
 10 C       -0.0400    -4.2900    -0.3080 C.ar  1 <1>   0.0000 
 11 C       -1.1220    -2.1640    -0.7540 C.ar  1 <1>  -0.1500 
 12 C        2.3640    -4.4920    -0.3790 C.ar  1 <1>  -0.1500 
 13 O        4.7270     1.3360    -0.5240 O.3   1 <1>  -0.6800 
 14 C        3.7250     3.3950     0.0800 C.3   1 <1>   0.3430 
 15 C        1.2240     3.5310     0.0890 C.3   1 <1>   0.3430 
 16 C        1.1380    -5.0770    -0.1620 C.ar  1 <1>   0.1000 
 17 C       -1.3320    -4.8380    -0.1520 C.ar  1 <1>  -0.1500 
 18 C       -2.3560    -2.7250    -0.5790 C.ar  1 <1>  -0.1500 
 19 N        2.5020     4.0500     0.6610 N.4   1 <1>  -0.9060 
 20 N        1.0820    -6.4140     0.2060 N.pl3 1 <1>  -0.8380 
 21 C       -2.4630    -4.0820    -0.2770 C.ar  1 <1>  -0.1500 
 22 C        1.7450    -7.4610    -0.6120 C.3   1 <1>   0.1290 
 23 C        0.7400    -6.7840     1.6040 C.3   1 <1>   0.1290 
 24 H        2.4730    -0.5410     0.6820 H     1 <1>   0.3700 
 25 H        2.3230     1.5660    -1.4420 H     1 <1>   0.0800 
 26 H        3.4540    -2.7380    -0.8630 H     1 <1>   0.1500 
 27 H        3.7760     1.5610     1.2160 H     1 <1>   0.0800 
 28 H        0.2410     1.6630    -0.1930 H     1 <1>   0.0800 
 29 H        1.0960     1.7730     1.3210 H     1 <1>   0.0800 
 30 H       -1.0670    -1.1190    -1.0000 H     1 <1>   0.1500 
 31 H        3.2540    -5.0860    -0.2830 H     1 <1>   0.1500 
 32 H        4.5630     0.3890    -0.7300 H     1 <1>   0.4000 
 33 H        3.8060     3.6550    -0.9630 H     1 <1>   0.0800 
 34 H        4.6090     3.7480     0.5870 H     1 <1>   0.0800 
 35 H        0.3820     4.0000     0.5750 H     1 <1>   0.0800 
 36 H        1.1750     3.7620    -0.9640 H     1 <1>   0.0800 
 37 H       -1.4180    -5.8870     0.0640 H     1 <1>   0.1500 
 38 H       -3.2510    -2.1370    -0.6780 H     1 <1>   0.1500 
 39 H        2.4960     3.9230     1.6820 H     1 <1>   0.4500 
 40 H        2.5580     5.0650     0.4990 H     1 <1>   0.4500 
 41 H       -3.4380    -4.5190    -0.1510 H     1 <1>   0.1500 
 42 H        1.0880    -8.3070    -0.7190 H     1 <1>   0.0800 
 43 H        2.6580    -7.7760    -0.1390 H     1 <1>   0.0800 
 44 H        1.9700    -7.0740    -1.5910 H     1 <1>   0.0800 
 45 H       -0.0210    -7.5440     1.6030 H     1 <1>   0.0800 
 46 H        0.3710    -5.9220     2.1330 H     1 <1>   0.0800 
 47 H        1.6140    -7.1550     2.1100 H     1 <1>   0.0800 
@<TRIPOS>BOND
  1   1   2  2   
  2   2   3  am  
  3   2   4  1   
  4   3   5  1   
  5   3  24  1   
  6   4   6  ar  
  7   4   7  ar  
  8   5   8  1   
  9   5   9  1   
 10   5  25  1   
 11   6  10  ar  
 12   6  11  ar  
 13   7  12  ar  
 14   7  26  1   
 15   8  13  1   
 16   8  14  1   
 17   8  27  1   
 18   9  15  1   
 19   9  28  1   
 20   9  29  1   
 21  10  16  ar  
 22  10  17  ar  
 23  11  18  ar  
 24  11  30  1   
 25  12  16  ar  
 26  12  31  1   
 27  13  32  1   
 28  14  19  1   
 29  14  33  1   
 30  14  34  1   
 31  15  19  1   
 32  15  35  1   
 33  15  36  1   
 34  16  20  1   
 35  17  21  ar  
 36  17  37  1   
 37  18  21  ar  
 38  18  38  1   
 39  19  39  1   
 40  19  40  1   
 41  20  22  1   
 42  20  23  1   
 43  21  41  1   
 44  22  42  1   
 45  22  43  1   
 46  22  44  1   
 47  23  45  1   
 48  23  46  1   
 49  23  47  1   
@<TRIPOS>SUBSTRUCTURE
  1 ****   4 GROUP 4 **** **** 0

# MOE 2024.06 (io_trps.svl 2023.06)
