@<TRIPOS>MOLECULE
NONAME
55 58 1 0 0 
SMALL
USER_CHARGES


@<TRIPOS>ATOM
  1 F       -4.2540     3.5380     1.0540 F     1 <1>  -0.1900 
  2 C       -3.4350     3.6230     0.0370 C.ar  1 <1>   0.1900 
  3 C       -3.1600     2.4910    -0.7180 C.ar  1 <1>  -0.1440 
  4 C       -2.8800     4.8580    -0.2430 C.ar  1 <1>  -0.1500 
  5 C       -2.2960     2.6260    -1.7950 C.ar  1 <1>  -0.1500 
  6 C       -3.7810     1.1370    -0.3970 C.3   1 <1>  -0.0160 
  7 C       -2.0200     4.9720    -1.3210 C.ar  1 <1>  -0.1500 
  8 C       -1.7310     3.8570    -2.0930 C.ar  1 <1>  -0.1500 
  9 C       -5.2120     1.0610    -0.9470 C.3   1 <1>  -0.0990 
 10 C       -5.9400    -0.2150    -0.5420 C.2   1 <1>   0.5690 
 11 O       -5.2730    -1.2070    -0.3650 O.2   1 <1>  -0.5700 
 12 N       -7.3040    -0.2300    -0.3820 N.am  1 <1>  -0.6600 
 13 C       -8.2390     0.9000    -0.6880 C.3   1 <1>   0.1400 
 14 C       -8.0040    -1.4180     0.1840 C.3   1 <1>   0.1400 
 15 C       -8.9540     1.3720     0.5910 C.3   1 <1>   0.1440 
 16 C       -8.7520    -1.0170     1.4640 C.3   1 <1>  -0.1600 
 17 C       -9.8820     2.5130     0.2180 C.ar  1 <1>   0.1670 
 18 C       -9.6970     0.1780     1.2300 C.3   1 <1>  -0.1600 
 19 C       -7.9810     2.0540     1.5920 C.3   1 <1>  -0.1600 
 20 N      -11.0100     2.3900    -0.4340 N.ar  1 <1>  -0.6200 
 21 C       -9.3850     3.7140     0.6250 C.ar  1 <1>  -0.1430 
 22 C       -8.0620     3.5680     1.3330 C.3   1 <1>  -0.0170 
 23 C      -11.6610     3.5330    -0.6670 C.ar  1 <1>   0.7200 
 24 C      -10.1210     4.8360     0.3400 C.ar  1 <1>   0.1600 
 25 N      -11.2610     4.7570    -0.3060 N.ar  1 <1>  -0.6200 
 26 N      -12.8590     3.4410    -1.3490 N.pl3 1 <1>  -0.8380 
 27 C      -13.5350     4.6360    -1.9230 C.3   1 <1>   0.1290 
 28 C      -13.5820     2.1490    -1.5090 C.3   1 <1>   0.1290 
 29 H       -3.1190     5.7080     0.3690 H     1 <1>   0.1500 
 30 H       -2.0580     1.7730    -2.4070 H     1 <1>   0.1500 
 31 H       -3.7950     0.9890     0.6700 H     1 <1>   0.0800 
 32 H       -3.1860     0.3470    -0.8220 H     1 <1>   0.0800 
 33 H       -1.5750     5.9230    -1.5600 H     1 <1>   0.1500 
 34 H       -1.0620     3.9470    -2.9320 H     1 <1>   0.1500 
 35 H       -5.1890     1.1160    -2.0190 H     1 <1>   0.0800 
 36 H       -5.7400     1.9140    -0.5740 H     1 <1>   0.0800 
 37 H       -8.9790     0.5510    -1.3880 H     1 <1>   0.0800 
 38 H       -7.7350     1.7250    -1.1560 H     1 <1>   0.0800 
 39 H       -7.3030    -2.2040     0.4100 H     1 <1>   0.0800 
 40 H       -8.6990    -1.7940    -0.5460 H     1 <1>   0.0800 
 41 H       -8.0300    -0.7730     2.2230 H     1 <1>   0.0800 
 42 H       -9.3200    -1.8590     1.8170 H     1 <1>   0.0800 
 43 H      -10.4870    -0.1320     0.5670 H     1 <1>   0.0800 
 44 H      -10.1560     0.4770     2.1560 H     1 <1>   0.0800 
 45 H       -6.9730     1.6880     1.5160 H     1 <1>   0.0800 
 46 H       -8.3220     1.8740     2.5960 H     1 <1>   0.0800 
 47 H       -7.2640     3.8880     0.6850 H     1 <1>   0.0800 
 48 H       -8.0340     4.1280     2.2520 H     1 <1>   0.0800 
 49 H       -9.7720     5.8080     0.6420 H     1 <1>   0.1500 
 50 H      -12.8110     5.3840    -2.1980 H     1 <1>   0.0800 
 51 H      -14.2080     5.0530    -1.1940 H     1 <1>   0.0800 
 52 H      -14.0880     4.3620    -2.8040 H     1 <1>   0.0800 
 53 H      -13.3420     1.4780    -0.7020 H     1 <1>   0.0800 
 54 H      -13.2990     1.6920    -2.4400 H     1 <1>   0.0800 
 55 H      -14.6450     2.3170    -1.5030 H     1 <1>   0.0800 
@<TRIPOS>BOND
  1   1   2  1   
  2   2   3  ar  
  3   2   4  ar  
  4   3   5  ar  
  5   3   6  1   
  6   4   7  ar  
  7   4  29  1   
  8   5   8  ar  
  9   5  30  1   
 10   6   9  1   
 11   6  31  1   
 12   6  32  1   
 13   7   8  ar  
 14   7  33  1   
 15   8  34  1   
 16   9  10  1   
 17   9  35  1   
 18   9  36  1   
 19  10  11  2   
 20  10  12  am  
 21  12  13  1   
 22  12  14  1   
 23  13  15  1   
 24  13  37  1   
 25  13  38  1   
 26  14  16  1   
 27  14  39  1   
 28  14  40  1   
 29  15  17  1   
 30  15  18  1   
 31  15  19  1   
 32  16  18  1   
 33  16  41  1   
 34  16  42  1   
 35  17  20  ar  
 36  17  21  ar  
 37  18  43  1   
 38  18  44  1   
 39  19  22  1   
 40  19  45  1   
 41  19  46  1   
 42  20  23  ar  
 43  21  22  1   
 44  21  24  ar  
 45  22  47  1   
 46  22  48  1   
 47  23  25  ar  
 48  23  26  1   
 49  24  25  ar  
 50  24  49  1   
 51  26  27  1   
 52  26  28  1   
 53  27  50  1   
 54  27  51  1   
 55  27  52  1   
 56  28  53  1   
 57  28  54  1   
 58  28  55  1   
@<TRIPOS>SUBSTRUCTURE
  1 ****  13 GROUP 4 **** **** 0

# MOE 2024.06 (io_trps.svl 2023.06)
