@<TRIPOS>MOLECULE
NONAME
45 48 1 0 0 
SMALL
USER_CHARGES


@<TRIPOS>ATOM
  1 O        0.3490    -0.2260     1.1990 O.3   1 <1>  -0.5600 
  2 C        0.2330    -1.5610     0.7820 C.3   1 <1>   0.1200 
  3 C        1.2830     0.5080     0.4670 C.3   1 <1>   0.1200 
  4 C        1.5890    -2.2940     0.8790 C.3   1 <1>   0.3340 
  5 C        2.6790    -0.1270     0.6180 C.3   1 <1>   0.1900 
  6 N        2.6560    -1.5390     0.1680 N.3   1 <1>  -0.8100 
  7 C        1.4650    -3.7030     0.3040 C.ar  1 <1>  -0.1440 
  8 C        3.7250     0.6730    -0.1870 C.3   1 <1>   0.3430 
  9 C        3.9830    -2.1740     0.3130 C.3   1 <1>   0.1100 
 10 C        1.5190    -4.8050     1.1450 C.ar  1 <1>  -0.1500 
 11 C        1.3030    -3.9020    -1.0610 C.ar  1 <1>  -0.1500 
 12 N        5.0990     0.0480    -0.1220 N.4   1 <1>  -0.9590 
 13 C        5.0500    -1.4090    -0.4940 C.3   1 <1>   0.3430 
 14 C        1.4170    -6.0860     0.6300 C.ar  1 <1>  -0.1500 
 15 C        1.2010    -5.1820    -1.5770 C.ar  1 <1>  -0.1500 
 16 C        6.0880     0.7870    -0.9480 C.3   1 <1>   0.5240 
 17 C        1.2590    -6.2750    -0.7310 C.ar  1 <1>  -0.1500 
 18 C        6.2260     2.1850    -0.3900 C.2   1 <1>  -0.1810 
 19 C        7.0010     2.6090     0.6330 C.2   1 <1>  -0.0100 
 20 C        5.5550     3.3300    -0.8510 C.2   1 <1>  -0.1500 
 21 O        6.8390     3.8990     0.8320 O.3   1 <1>  -0.2800 
 22 C        5.9750     4.3390    -0.0590 C.2   1 <1>  -0.0100 
 23 H       -0.4910    -2.0430     1.4150 H     1 <1>   0.0800 
 24 H       -0.1340    -1.5760    -0.2290 H     1 <1>   0.0800 
 25 H        0.9710     0.5280    -0.5640 H     1 <1>   0.0800 
 26 H        1.2760     1.5120     0.8540 H     1 <1>   0.0800 
 27 H        1.8450    -2.3660     1.9230 H     1 <1>   0.0800 
 28 H        2.9430    -0.0830     1.6610 H     1 <1>   0.0800 
 29 H        3.7630     1.6800     0.1970 H     1 <1>   0.0800 
 30 H        3.3970     0.7200    -1.2120 H     1 <1>   0.0800 
 31 H        4.2640    -2.2150     1.3520 H     1 <1>   0.0800 
 32 H        3.9450    -3.1850    -0.0570 H     1 <1>   0.0800 
 33 H        1.6380    -4.6780     2.2070 H     1 <1>   0.1500 
 34 H        1.2600    -3.0580    -1.7270 H     1 <1>   0.1500 
 35 H        5.4120     0.1210     0.8530 H     1 <1>   0.4500 
 36 H        4.8100    -1.5100    -1.5400 H     1 <1>   0.0800 
 37 H        6.0120    -1.8670    -0.3270 H     1 <1>   0.0800 
 38 H        1.4600    -6.9370     1.2870 H     1 <1>   0.1500 
 39 H        1.0740    -5.3290    -2.6360 H     1 <1>   0.1500 
 40 H        7.0450     0.2930    -0.9040 H     1 <1>   0.0800 
 41 H        5.7690     0.8280    -1.9770 H     1 <1>   0.0800 
 42 H        1.1790    -7.2710    -1.1320 H     1 <1>   0.1500 
 43 H        7.6900     2.0830     1.2730 H     1 <1>   0.1500 
 44 H        4.8590     3.3860    -1.6710 H     1 <1>   0.1500 
 45 H        5.7210     5.3860    -0.0610 H     1 <1>   0.1500 
@<TRIPOS>BOND
  1   1   2  1   
  2   1   3  1   
  3   2   4  1   
  4   2  23  1   
  5   2  24  1   
  6   3   5  1   
  7   3  25  1   
  8   3  26  1   
  9   4   6  1   
 10   4   7  1   
 11   4  27  1   
 12   5   6  1   
 13   5   8  1   
 14   5  28  1   
 15   6   9  1   
 16   7  10  ar  
 17   7  11  ar  
 18   8  12  1   
 19   8  29  1   
 20   8  30  1   
 21   9  13  1   
 22   9  31  1   
 23   9  32  1   
 24  10  14  ar  
 25  10  33  1   
 26  11  15  ar  
 27  11  34  1   
 28  12  13  1   
 29  12  16  1   
 30  12  35  1   
 31  13  36  1   
 32  13  37  1   
 33  14  17  ar  
 34  14  38  1   
 35  15  17  ar  
 36  15  39  1   
 37  16  18  1   
 38  16  40  1   
 39  16  41  1   
 40  17  42  1   
 41  18  19  2   
 42  18  20  1   
 43  19  21  1   
 44  19  43  1   
 45  20  22  2   
 46  20  44  1   
 47  21  22  1   
 48  22  45  1   
@<TRIPOS>SUBSTRUCTURE
  1 ****   6 GROUP 4 **** **** 0

# MOE 2024.06 (io_trps.svl 2023.06)
