@<TRIPOS>MOLECULE
NONAME
42 43 1 0 0 
SMALL
USER_CHARGES


@<TRIPOS>ATOM
  1 O        0.4310    -1.0050    -1.2450 O.2   1 <1>  -0.5700 
  2 C        1.3980    -1.3060    -0.5770 C.2   1 <1>   0.6900 
  3 N        1.3190    -2.2860     0.3900 N.am  1 <1>  -0.4200 
  4 N        2.5960    -0.6900    -0.8000 N.am  1 <1>  -0.5390 
  5 C        2.4660    -2.7240     1.0250 C.2   1 <1>   0.6160 
  6 C        0.0060    -2.8910     0.7350 C.3   1 <1>   0.1400 
  7 C        3.7530    -1.0420    -0.1340 C.2   1 <1>  -0.0290 
  8 O        2.4020    -3.6930     1.7600 O.2   1 <1>  -0.5700 
  9 C        3.6940    -2.0480     0.7660 C.2   1 <1>  -0.1360 
 10 C       -0.1360    -4.2410     0.0180 C.3   1 <1>   0.3430 
 11 C        5.0090    -0.2660    -0.4760 C.3   1 <1>  -0.1020 
 12 N       -1.4160    -4.9460     0.3490 N.4   1 <1>  -0.9590 
 13 C       -1.3380    -6.3900    -0.1010 C.3   1 <1>   0.3430 
 14 C       -2.6080    -4.2610    -0.2370 C.3   1 <1>   0.3430 
 15 C       -2.7120    -7.0460    -0.3930 C.3   1 <1>   0.2000 
 16 C       -3.8920    -4.9020     0.3080 C.3   1 <1>  -0.1600 
 17 O       -3.0340    -6.8030    -1.7250 O.3   1 <1>  -0.6800 
 18 C       -3.7980    -6.4380     0.5120 C.3   1 <1>  -0.0800 
 19 C       -5.1600    -7.1310     0.3490 C.3   1 <1>   0.1200 
 20 O       -6.0290    -6.6020     1.2860 O.3   1 <1>  -0.6800 
 21 H        2.5800     0.0440    -1.5100 H     1 <1>   0.3700 
 22 H       -0.0400    -3.0360     1.8010 H     1 <1>   0.0800 
 23 H       -0.7870    -2.2240     0.4480 H     1 <1>   0.0800 
 24 H        4.5500    -2.3870     1.3200 H     1 <1>   0.1500 
 25 H        0.6950    -4.8610     0.3140 H     1 <1>   0.0800 
 26 H       -0.0780    -4.0820    -1.0470 H     1 <1>   0.0800 
 27 H        4.8680     0.7780    -0.2600 H     1 <1>   0.0800 
 28 H        5.2400    -0.3770    -1.5210 H     1 <1>   0.0800 
 29 H        5.8440    -0.6240     0.0990 H     1 <1>   0.0800 
 30 H       -1.5430    -4.9480     1.3700 H     1 <1>   0.4500 
 31 H       -0.7420    -6.4680    -0.9950 H     1 <1>   0.0800 
 32 H       -0.8440    -6.9600     0.6690 H     1 <1>   0.0800 
 33 H       -2.6050    -3.2080    -0.0070 H     1 <1>   0.0800 
 34 H       -2.5870    -4.3720    -1.3110 H     1 <1>   0.0800 
 35 H       -2.6400    -8.1130    -0.2650 H     1 <1>   0.0800 
 36 H       -4.1640    -4.4370     1.2400 H     1 <1>   0.0800 
 37 H       -4.6800    -4.6760    -0.3890 H     1 <1>   0.0800 
 38 H       -3.8090    -7.3300    -2.0090 H     1 <1>   0.4000 
 39 H       -3.4840    -6.6200     1.5260 H     1 <1>   0.0800 
 40 H       -5.0800    -8.1900     0.5270 H     1 <1>   0.0800 
 41 H       -5.5760    -6.9570    -0.6300 H     1 <1>   0.0800 
 42 H       -6.9120    -7.0220     1.2310 H     1 <1>   0.4000 
@<TRIPOS>BOND
  1   1   2  2   
  2   2   3  am  
  3   2   4  am  
  4   3   5  am  
  5   3   6  1   
  6   4   7  1   
  7   4  21  1   
  8   5   8  2   
  9   5   9  1   
 10   6  10  1   
 11   6  22  1   
 12   6  23  1   
 13   7   9  2   
 14   7  11  1   
 15   9  24  1   
 16  10  12  1   
 17  10  25  1   
 18  10  26  1   
 19  11  27  1   
 20  11  28  1   
 21  11  29  1   
 22  12  13  1   
 23  12  14  1   
 24  12  30  1   
 25  13  15  1   
 26  13  31  1   
 27  13  32  1   
 28  14  16  1   
 29  14  33  1   
 30  14  34  1   
 31  15  17  1   
 32  15  18  1   
 33  15  35  1   
 34  16  18  1   
 35  16  36  1   
 36  16  37  1   
 37  17  38  1   
 38  18  19  1   
 39  18  39  1   
 40  19  20  1   
 41  19  40  1   
 42  19  41  1   
 43  20  42  1   
@<TRIPOS>SUBSTRUCTURE
  1 ****  10 GROUP 4 **** **** 0

# MOE 2024.06 (io_trps.svl 2023.06)
