@<TRIPOS>MOLECULE
NONAME
46 48 1 0 0 
SMALL
USER_CHARGES


@<TRIPOS>ATOM
  1 O       -0.5170     1.3540    -1.4290 O.2   1 <1>  -0.5700 
  2 C       -0.5740     2.5520    -1.5410 C.2   1 <1>   0.5690 
  3 N       -0.2030     3.3590    -0.5220 N.am  1 <1>  -0.7300 
  4 C       -1.0990     3.1810    -2.8360 C.3   1 <1>   0.1810 
  5 C       -0.2610     4.8400    -0.5860 C.3   1 <1>   0.3640 
  6 O       -0.7590     4.5460    -2.9600 O.3   1 <1>  -0.5600 
  7 C       -0.8400     5.3610     0.7250 C.ar  1 <1>  -0.1440 
  8 C       -1.0700     5.3280    -1.8130 C.3   1 <1>   0.2610 
  9 C       -0.1960     6.3870     1.4030 C.ar  1 <1>  -0.1500 
 10 C       -2.0080     4.8290     1.2560 C.ar  1 <1>  -0.1500 
 11 C       -0.7500     6.8010    -2.0640 C.2   1 <1>   0.5690 
 12 C       -0.7110     6.8710     2.5930 C.ar  1 <1>  -0.1500 
 13 C       -2.5230     5.3140     2.4450 C.ar  1 <1>  -0.1500 
 14 O       -1.4490     7.6590    -1.5800 O.2   1 <1>  -0.5700 
 15 N        0.3480     7.1160    -2.7960 N.am  1 <1>  -0.7300 
 16 C       -1.8740     6.3350     3.1150 C.ar  1 <1>  -0.1500 
 17 C        0.9930     8.4400    -2.7710 C.3   1 <1>   0.3200 
 18 C        1.9020     8.5030    -1.5610 C.2   1 <1>  -0.0400 
 19 O        2.8850     7.6520    -1.4380 O.3   1 <1>  -0.0190 
 20 C        1.9080     9.3000    -0.4820 C.2   1 <1>  -0.1500 
 21 N        3.5470     7.8330    -0.3320 N.2   1 <1>  -0.4100 
 22 C        2.9840     8.8240     0.2640 C.2   1 <1>   0.1080 
 23 C        3.4360     9.3870     1.5980 C.3   1 <1>   0.0210 
 24 C        2.4700     8.9910     2.7210 C.3   1 <1>  -0.1600 
 25 C        2.9180     9.5460     4.0770 C.3   1 <1>  -0.2400 
 26 H        0.1280     2.9430     0.3490 H     1 <1>   0.3700 
 27 H       -2.1690     3.0920    -2.8690 H     1 <1>   0.0800 
 28 H       -0.6810     2.6600    -3.6780 H     1 <1>   0.0800 
 29 H        0.7490     5.2010    -0.6820 H     1 <1>   0.0800 
 30 H       -2.1240     5.2380    -1.6220 H     1 <1>   0.0800 
 31 H        0.7090     6.8180     1.0080 H     1 <1>   0.1500 
 32 H       -2.5250     4.0330     0.7490 H     1 <1>   0.1500 
 33 H       -0.2090     7.6660     3.1150 H     1 <1>   0.1500 
 34 H       -3.4290     4.8970     2.8500 H     1 <1>   0.1500 
 35 H        0.8900     6.3560    -3.2140 H     1 <1>   0.3700 
 36 H       -2.2740     6.7130     4.0390 H     1 <1>   0.1500 
 37 H        1.5620     8.5860    -3.6720 H     1 <1>   0.0800 
 38 H        0.2430     9.2110    -2.7050 H     1 <1>   0.0800 
 39 H        1.2530    10.1100    -0.2200 H     1 <1>   0.1500 
 40 H        4.4210     9.0140     1.8180 H     1 <1>   0.0800 
 41 H        3.4940    10.4580     1.5230 H     1 <1>   0.0800 
 42 H        1.4860     9.3630     2.4930 H     1 <1>   0.0800 
 43 H        2.4170     7.9160     2.7760 H     1 <1>   0.0800 
 44 H        2.9590    10.6210     4.0520 H     1 <1>   0.0800 
 45 H        3.8920     9.1670     4.3360 H     1 <1>   0.0800 
 46 H        2.2240     9.2480     4.8440 H     1 <1>   0.0800 
@<TRIPOS>BOND
  1   1   2  2   
  2   2   3  am  
  3   2   4  1   
  4   3   5  1   
  5   3  26  1   
  6   4   6  1   
  7   4  27  1   
  8   4  28  1   
  9   5   7  1   
 10   5   8  1   
 11   5  29  1   
 12   6   8  1   
 13   7   9  ar  
 14   7  10  ar  
 15   8  11  1   
 16   8  30  1   
 17   9  12  ar  
 18   9  31  1   
 19  10  13  ar  
 20  10  32  1   
 21  11  14  2   
 22  11  15  am  
 23  12  16  ar  
 24  12  33  1   
 25  13  16  ar  
 26  13  34  1   
 27  15  17  1   
 28  15  35  1   
 29  16  36  1   
 30  17  18  1   
 31  17  37  1   
 32  17  38  1   
 33  18  19  1   
 34  18  20  2   
 35  19  21  1   
 36  20  22  1   
 37  20  39  1   
 38  21  22  2   
 39  22  23  1   
 40  23  24  1   
 41  23  40  1   
 42  23  41  1   
 43  24  25  1   
 44  24  42  1   
 45  24  43  1   
 46  25  44  1   
 47  25  45  1   
 48  25  46  1   
@<TRIPOS>SUBSTRUCTURE
  1 ****   9 GROUP 4 **** **** 0

# MOE 2024.06 (io_trps.svl 2023.06)
