@<TRIPOS>MOLECULE
NONAME
41 43 1 0 0 
SMALL
USER_CHARGES


@<TRIPOS>ATOM
  1 S       -0.1380     0.6990     1.6640 S.3   1 <1>  -0.0800 
  2 C       -1.4560     1.1130     0.5360 C.2   1 <1>  -0.0450 
  3 C       -0.6620    -0.9730     1.8030 C.2   1 <1>  -0.1100 
  4 C       -2.2020    -0.0080     0.3350 C.2   1 <1>   0.0620 
  5 C       -1.5480     2.4560     0.0360 C.2   1 <1>   0.7150 
  6 C       -1.7500    -1.1720     1.0410 C.2   1 <1>   0.0620 
  7 O       -3.2930    -0.0770    -0.4560 O.3   1 <1>  -0.3420 
  8 O       -2.4110     2.7760    -0.7620 O.2   1 <1>  -0.5700 
  9 N       -0.6400     3.3880     0.4620 N.am  1 <1>  -0.4930 
 10 O       -2.3970    -2.3630     0.9230 O.3   1 <1>  -0.3420 
 11 C       -4.1230    -1.2160    -0.3390 C.3   1 <1>   0.1200 
 12 C       -0.4860     4.7530     0.1140 C.2   1 <1>   0.0630 
 13 C       -3.2700    -2.4850    -0.1860 C.3   1 <1>   0.1200 
 14 C       -1.4480     5.7590    -0.0290 C.2   1 <1>   0.1080 
 15 C        0.6930     5.3700    -0.1230 C.2   1 <1>  -0.3320 
 16 N       -0.9180     6.9030    -0.3300 N.2   1 <1>  -0.7070 
 17 C       -2.9430     5.6070     0.1480 C.3   1 <1>  -0.0590 
 18 N        0.4030     6.6690    -0.3930 N.pl3 1 <1>   0.3140 
 19 C        2.1010     4.7910    -0.1180 C.3   1 <1>  -0.0600 
 20 C        1.3470     7.7550    -0.7280 C.3   1 <1>   0.0960 
 21 C        1.8630     8.4470     0.5420 C.3   1 <1>  -0.1600 
 22 C        2.8530     9.5690     0.2050 C.3   1 <1>  -0.2400 
 23 H       -0.1020    -1.6360     2.4370 H     1 <1>   0.1500 
 24 H        0.1050     3.0190     1.0460 H     1 <1>   0.3700 
 25 H       -4.7330    -1.2700    -1.2220 H     1 <1>   0.0800 
 26 H       -4.7550    -1.0820     0.5200 H     1 <1>   0.0800 
 27 H       -3.8930    -3.3450    -0.0220 H     1 <1>   0.0800 
 28 H       -2.6730    -2.6440    -1.0670 H     1 <1>   0.0800 
 29 H       -3.1570     4.8720     0.9000 H     1 <1>   0.0800 
 30 H       -3.3830     5.3000    -0.7830 H     1 <1>   0.0800 
 31 H       -3.3720     6.5470     0.4450 H     1 <1>   0.0800 
 32 H        2.0790     3.7380     0.0990 H     1 <1>   0.0800 
 33 H        2.7030     5.2800     0.6260 H     1 <1>   0.0800 
 34 H        2.5580     4.9240    -1.0830 H     1 <1>   0.0800 
 35 H        0.8280     8.4650    -1.3470 H     1 <1>   0.0800 
 36 H        2.1620     7.3440    -1.2930 H     1 <1>   0.0800 
 37 H        2.3470     7.7260     1.1760 H     1 <1>   0.0800 
 38 H        1.0260     8.8630     1.0780 H     1 <1>   0.0800 
 39 H        3.7070     9.1760    -0.3180 H     1 <1>   0.0800 
 40 H        3.1930    10.0410     1.1100 H     1 <1>   0.0800 
 41 H        2.3800    10.3150    -0.4100 H     1 <1>   0.0800 
@<TRIPOS>BOND
  1   1   2  1   
  2   1   3  1   
  3   2   4  2   
  4   2   5  1   
  5   3   6  2   
  6   3  23  1   
  7   4   6  1   
  8   4   7  1   
  9   5   8  2   
 10   5   9  am  
 11   6  10  1   
 12   7  11  1   
 13   9  12  1   
 14   9  24  1   
 15  10  13  1   
 16  11  13  1   
 17  11  25  1   
 18  11  26  1   
 19  12  14  1   
 20  12  15  2   
 21  13  27  1   
 22  13  28  1   
 23  14  16  2   
 24  14  17  1   
 25  15  18  1   
 26  15  19  1   
 27  16  18  1   
 28  17  29  1   
 29  17  30  1   
 30  17  31  1   
 31  18  20  1   
 32  19  32  1   
 33  19  33  1   
 34  19  34  1   
 35  20  21  1   
 36  20  35  1   
 37  20  36  1   
 38  21  22  1   
 39  21  37  1   
 40  21  38  1   
 41  22  39  1   
 42  22  40  1   
 43  22  41  1   
@<TRIPOS>SUBSTRUCTURE
  1 ****   9 GROUP 4 **** **** 0

# MOE 2024.06 (io_trps.svl 2023.06)
