@<TRIPOS>MOLECULE
NONAME
56 59 1 0 0 
SMALL
USER_CHARGES


@<TRIPOS>ATOM
  1 O       -2.2610     1.2630    -2.8190 O.2   1 <1>  -0.5700 
  2 C       -2.3390     1.5120    -1.6390 C.2   1 <1>   0.6300 
  3 N       -2.6980     0.5270    -0.7460 N.am  1 <1>  -0.6600 
  4 C       -2.0340     2.9430    -1.1670 C.3   1 <1>   0.0320 
  5 C       -2.9480     0.7440     0.7100 C.3   1 <1>   0.1400 
  6 C       -2.8220    -0.8970    -1.1800 C.3   1 <1>   0.1400 
  7 C       -0.7840     3.0100    -0.2930 C.ar  1 <1>  -0.0320 
  8 C       -2.2250     4.0920    -2.1180 C.3   1 <1>  -0.2000 
  9 C       -3.1780     3.9080    -0.9850 C.3   1 <1>  -0.2000 
 10 C       -4.3060     0.1470     1.1440 C.3   1 <1>   0.4230 
 11 C       -4.1840    -1.4760    -0.7630 C.3   1 <1>   0.3430 
 12 C        0.4180     2.5460    -0.8020 C.ar  1 <1>  -0.1500 
 13 C       -0.8150     3.5120     1.0010 C.ar  1 <1>  -0.1500 
 14 N       -4.4630    -1.3020     0.7150 N.4   1 <1>  -0.9590 
 15 C       -5.4720     1.0090     0.6050 C.3   1 <1>   0.1200 
 16 C        1.5670     2.5680    -0.0310 C.ar  1 <1>  -0.1500 
 17 C        0.3340     3.5360     1.7730 C.ar  1 <1>  -0.1500 
 18 C       -5.8290    -1.7870     1.1230 C.3   1 <1>   0.4230 
 19 O       -6.6990     0.4740     1.0130 O.3   1 <1>  -0.5600 
 20 C        1.5300     3.0600     1.2630 C.ar  1 <1>  -0.1430 
 21 C       -6.9420    -0.8430     0.6050 C.3   1 <1>   0.1200 
 22 C       -6.0350    -3.2490     0.6920 C.3   1 <1>  -0.1600 
 23 C        2.7910     3.0880     2.1060 C.3   1 <1>  -0.0970 
 24 C       -7.2330    -3.9050     1.3970 C.3   1 <1>  -0.1600 
 25 C       -7.3550    -5.3790     1.0040 C.3   1 <1>  -0.2400 
 26 H       -2.1540     0.2850     1.2740 H     1 <1>   0.0800 
 27 H       -2.9430     1.7910     0.9480 H     1 <1>   0.0800 
 28 H       -2.7230    -0.9820    -2.2490 H     1 <1>   0.0800 
 29 H       -2.0280    -1.4730    -0.7390 H     1 <1>   0.0800 
 30 H       -1.5210     4.9060    -2.0810 H     1 <1>   0.1000 
 31 H       -2.5540     3.8820    -3.1220 H     1 <1>   0.1000 
 32 H       -4.1790     3.5980    -1.2300 H     1 <1>   0.1000 
 33 H       -3.1590     4.6540    -0.2110 H     1 <1>   0.1000 
 34 H       -4.3530     0.2000     2.2190 H     1 <1>   0.0800 
 35 H       -4.2060    -2.5220    -1.0210 H     1 <1>   0.0800 
 36 H       -4.9490    -0.9810    -1.3390 H     1 <1>   0.0800 
 37 H        0.4640     2.1640    -1.8090 H     1 <1>   0.1500 
 38 H       -1.7270     3.8930     1.4210 H     1 <1>   0.1500 
 39 H       -3.7690    -1.8530     1.2310 H     1 <1>   0.4500 
 40 H       -5.4570     1.0680    -0.4700 H     1 <1>   0.0800 
 41 H       -5.4090     2.0080     1.0000 H     1 <1>   0.0800 
 42 H        2.4910     2.2040    -0.4460 H     1 <1>   0.1500 
 43 H        0.2970     3.9320     2.7730 H     1 <1>   0.1500 
 44 H       -5.8820    -1.7650     2.2000 H     1 <1>   0.0800 
 45 H       -7.8950    -1.1290     1.0140 H     1 <1>   0.0800 
 46 H       -7.0140    -0.8660    -0.4680 H     1 <1>   0.0800 
 47 H       -6.1930    -3.3070    -0.3710 H     1 <1>   0.0800 
 48 H       -5.1550    -3.8170     0.9410 H     1 <1>   0.0800 
 49 H        3.4370     2.2680     1.8450 H     1 <1>   0.0800 
 50 H        2.5500     3.0090     3.1510 H     1 <1>   0.0800 
 51 H        3.3180     4.0100     1.9410 H     1 <1>   0.0800 
 52 H       -7.1140    -3.8400     2.4670 H     1 <1>   0.0800 
 53 H       -8.1500    -3.4050     1.1330 H     1 <1>   0.0800 
 54 H       -6.4730    -5.9260     1.2870 H     1 <1>   0.0800 
 55 H       -7.5020    -5.4820    -0.0570 H     1 <1>   0.0800 
 56 H       -8.1990    -5.8230     1.5040 H     1 <1>   0.0800 
@<TRIPOS>BOND
  1   1   2  2   
  2   2   3  am  
  3   2   4  1   
  4   3   5  1   
  5   3   6  1   
  6   4   7  1   
  7   4   8  1   
  8   4   9  1   
  9   5  10  1   
 10   5  26  1   
 11   5  27  1   
 12   6  11  1   
 13   6  28  1   
 14   6  29  1   
 15   7  12  ar  
 16   7  13  ar  
 17   8   9  1   
 18   8  30  1   
 19   8  31  1   
 20   9  32  1   
 21   9  33  1   
 22  10  14  1   
 23  10  15  1   
 24  10  34  1   
 25  11  14  1   
 26  11  35  1   
 27  11  36  1   
 28  12  16  ar  
 29  12  37  1   
 30  13  17  ar  
 31  13  38  1   
 32  14  18  1   
 33  14  39  1   
 34  15  19  1   
 35  15  40  1   
 36  15  41  1   
 37  16  20  ar  
 38  16  42  1   
 39  17  20  ar  
 40  17  43  1   
 41  18  21  1   
 42  18  22  1   
 43  18  44  1   
 44  19  21  1   
 45  20  23  1   
 46  21  45  1   
 47  21  46  1   
 48  22  24  1   
 49  22  47  1   
 50  22  48  1   
 51  23  49  1   
 52  23  50  1   
 53  23  51  1   
 54  24  25  1   
 55  24  52  1   
 56  24  53  1   
 57  25  54  1   
 58  25  55  1   
 59  25  56  1   
@<TRIPOS>SUBSTRUCTURE
  1 ****   5 GROUP 4 **** **** 0

# MOE 2024.06 (io_trps.svl 2023.06)
