@<TRIPOS>MOLECULE
NONAME
48 50 1 0 0 
SMALL
USER_CHARGES


@<TRIPOS>ATOM
  1 N       -1.2510    -0.2850     0.1460 N.ar  1 <1>  -0.6200 
  2 C       -2.0450     0.7610    -0.0250 C.ar  1 <1>   0.4100 
  3 C       -0.0230     0.0520     0.5130 C.ar  1 <1>   0.1600 
  4 N       -3.3690     0.4260    -0.3630 N.pl3 1 <1>  -0.8380 
  5 C       -1.5860     2.1230     0.1360 C.ar  1 <1>   0.4100 
  6 C        0.4060     1.3500     0.6950 C.ar  1 <1>   0.1600 
  7 C       -3.6450    -0.7410    -1.2530 C.3   1 <1>   0.2090 
  8 C       -4.4820     1.0090     0.4250 C.3   1 <1>   0.2090 
  9 N       -0.3520     2.4200     0.5130 N.ar  1 <1>  -0.6200 
 10 N       -2.4010     3.2420    -0.1300 N.pl3 1 <1>  -0.8380 
 11 C       -3.8790    -2.0370    -0.4580 C.3   1 <1>   0.2090 
 12 C       -5.2130    -0.0380     1.2690 C.3   1 <1>  -0.1600 
 13 C       -2.8470     3.4120    -1.5360 C.3   1 <1>   0.1290 
 14 C       -2.1270     4.5250     0.5750 C.3   1 <1>   0.1290 
 15 N       -5.2930    -2.2360     0.0330 N.pl3 1 <1>  -0.8380 
 16 C       -6.0520    -1.0120     0.4380 C.3   1 <1>   0.2090 
 17 C       -5.8250    -3.4820     0.1570 C.ar  1 <1>   0.1000 
 18 C       -7.1860    -3.7330    -0.0690 C.ar  1 <1>  -0.1500 
 19 C       -5.0370    -4.5840     0.5180 C.ar  1 <1>  -0.1500 
 20 C       -7.7130    -4.9930     0.0620 C.ar  1 <1>   0.2180 
 21 C       -5.5840    -5.8320     0.6420 C.ar  1 <1>   0.2110 
 22 N       -6.9070    -6.0250     0.4160 N.ar  1 <1>  -0.1790 
 23 C       -9.1850    -5.2770    -0.1810 C.3   1 <1>  -0.0970 
 24 H        0.6700    -0.7520     0.6790 H     1 <1>   0.1500 
 25 H        1.4220     1.5250     1.0010 H     1 <1>   0.1500 
 26 H       -2.7880    -0.8870    -1.8870 H     1 <1>   0.0800 
 27 H       -4.4860    -0.5370    -1.8900 H     1 <1>   0.0800 
 28 H       -5.1680     1.4990    -0.2440 H     1 <1>   0.0800 
 29 H       -4.0910     1.7580     1.0920 H     1 <1>   0.0800 
 30 H       -3.2020    -2.0590     0.3780 H     1 <1>   0.0800 
 31 H       -3.6270    -2.8580    -1.1040 H     1 <1>   0.0800 
 32 H       -5.8860     0.5010     1.9100 H     1 <1>   0.0800 
 33 H       -4.5230    -0.5630     1.9050 H     1 <1>   0.0800 
 34 H       -2.8680     2.4620    -2.0430 H     1 <1>   0.0800 
 35 H       -2.1700     4.0650    -2.0580 H     1 <1>   0.0800 
 36 H       -3.8360     3.8330    -1.5540 H     1 <1>   0.0800 
 37 H       -1.8780     4.3290     1.6040 H     1 <1>   0.0800 
 38 H       -2.9970     5.1560     0.5430 H     1 <1>   0.0800 
 39 H       -1.2990     5.0290     0.1080 H     1 <1>   0.0800 
 40 H       -6.4360    -0.5180    -0.4380 H     1 <1>   0.0800 
 41 H       -6.8920    -1.3120     1.0400 H     1 <1>   0.0800 
 42 H       -7.8120    -2.9100    -0.3620 H     1 <1>   0.1500 
 43 H       -3.9900    -4.4310     0.7120 H     1 <1>   0.1500 
 44 H       -4.9760    -6.6770     0.9240 H     1 <1>   0.1500 
 45 H       -7.3080    -6.9630     0.5120 H     1 <1>   0.4570 
 46 H       -9.7040    -4.3740    -0.4540 H     1 <1>   0.0800 
 47 H       -9.6450    -5.6700     0.7080 H     1 <1>   0.0800 
 48 H       -9.3040    -5.9850    -0.9820 H     1 <1>   0.0800 
@<TRIPOS>BOND
  1   1   2  ar  
  2   1   3  ar  
  3   2   4  1   
  4   2   5  ar  
  5   3   6  ar  
  6   3  24  1   
  7   4   7  1   
  8   4   8  1   
  9   5   9  ar  
 10   5  10  1   
 11   6   9  ar  
 12   6  25  1   
 13   7  11  1   
 14   7  26  1   
 15   7  27  1   
 16   8  12  1   
 17   8  28  1   
 18   8  29  1   
 19  10  13  1   
 20  10  14  1   
 21  11  15  1   
 22  11  30  1   
 23  11  31  1   
 24  12  16  1   
 25  12  32  1   
 26  12  33  1   
 27  13  34  1   
 28  13  35  1   
 29  13  36  1   
 30  14  37  1   
 31  14  38  1   
 32  14  39  1   
 33  15  16  1   
 34  15  17  1   
 35  16  40  1   
 36  16  41  1   
 37  17  18  ar  
 38  17  19  ar  
 39  18  20  ar  
 40  18  42  1   
 41  19  21  ar  
 42  19  43  1   
 43  20  22  ar  
 44  20  23  1   
 45  21  22  ar  
 46  21  44  1   
 47  22  45  1   
 48  23  46  1   
 49  23  47  1   
 50  23  48  1   
@<TRIPOS>SUBSTRUCTURE
  1 ****  11 GROUP 4 **** **** 0

# MOE 2024.06 (io_trps.svl 2023.06)
