@<TRIPOS>MOLECULE
NONAME
51 55 1 0 0 
SMALL
USER_CHARGES


@<TRIPOS>ATOM
  1 O       -0.3620    -2.0280    -1.8710 O.2   1 <1>  -0.5700 
  2 C        0.4230    -2.1750    -0.9700 C.2   1 <1>   0.5690 
  3 N        1.6280    -1.5770    -1.0170 N.am  1 <1>  -0.7300 
  4 C        0.0560    -3.0450     0.2060 C.3   1 <1>  -0.0990 
  5 C        2.7160    -1.7290    -0.0170 C.3   1 <1>   0.1400 
  6 C        0.9640    -4.2700     0.2950 C.3   1 <1>   0.1200 
  7 C        3.1950    -3.1920     0.1780 C.3   1 <1>   0.2800 
  8 O        2.2170    -3.9600     0.8450 O.3   1 <1>  -0.5600 
  9 C        4.3990    -3.2100     1.1510 C.3   1 <1>  -0.1600 
 10 C        3.5830    -3.8440    -1.1700 C.3   1 <1>  -0.1600 
 11 C        5.7440    -3.3810     0.4420 C.3   1 <1>   0.2090 
 12 C        4.4590    -5.0700    -0.9390 C.3   1 <1>   0.2090 
 13 N        5.7710    -4.6740    -0.3220 N.pl3 1 <1>  -0.8380 
 14 C        6.8400    -5.5190    -0.2880 C.ar  1 <1>   0.1000 
 15 C        8.2040    -5.0790    -0.2580 C.ar  1 <1>   0.0000 
 16 C        6.6200    -6.9000    -0.2240 C.ar  1 <1>  -0.1500 
 17 C        9.2220    -6.0220     0.0470 C.ar  1 <1>   0.3610 
 18 C        8.6150    -3.7610    -0.5690 C.ar  1 <1>  -0.1500 
 19 C        7.6300    -7.7940     0.0080 C.ar  1 <1>   0.2180 
 20 N        8.8870    -7.3500     0.1720 N.ar  1 <1>  -0.1790 
 21 C       10.5630    -5.6280     0.1750 C.ar  1 <1>  -0.1500 
 22 C        9.9320    -3.4120    -0.4510 C.ar  1 <1>   0.0820 
 23 C        7.3710    -9.2890     0.1050 C.3   1 <1>  -0.0970 
 24 C       10.8860    -4.3230    -0.0730 C.ar  1 <1>   0.0820 
 25 O       10.5040    -2.2240    -0.6690 O.3   1 <1>  -0.3620 
 26 O       12.0770    -3.7390    -0.0270 O.3   1 <1>  -0.3620 
 27 C       11.8990    -2.3760    -0.4070 C.3   1 <1>   0.4000 
 28 H        1.8100    -0.9920    -1.8350 H     1 <1>   0.3700 
 29 H       -0.9560    -3.3790     0.0670 H     1 <1>   0.0800 
 30 H        0.0940    -2.4810     1.1180 H     1 <1>   0.0800 
 31 H        2.3870    -1.3350     0.9290 H     1 <1>   0.0800 
 32 H        3.5510    -1.1350    -0.3430 H     1 <1>   0.0800 
 33 H        1.0780    -4.7500    -0.6580 H     1 <1>   0.0800 
 34 H        0.5130    -4.9820     0.9640 H     1 <1>   0.0800 
 35 H        4.3020    -4.0270     1.8440 H     1 <1>   0.0800 
 36 H        4.4260    -2.3070     1.7330 H     1 <1>   0.0800 
 37 H        4.1410    -3.1460    -1.7670 H     1 <1>   0.0800 
 38 H        2.7210    -4.1030    -1.7510 H     1 <1>   0.0800 
 39 H        6.5310    -3.3720     1.1760 H     1 <1>   0.0800 
 40 H        5.8970    -2.5570    -0.2340 H     1 <1>   0.0800 
 41 H        4.6420    -5.5640    -1.8780 H     1 <1>   0.0800 
 42 H        3.9420    -5.7510    -0.2830 H     1 <1>   0.0800 
 43 H        5.6170    -7.2710    -0.3230 H     1 <1>   0.1500 
 44 H        7.9120    -3.0280    -0.9130 H     1 <1>   0.1500 
 45 H        9.6410    -8.0100     0.3670 H     1 <1>   0.4570 
 46 H       11.3390    -6.3200     0.4460 H     1 <1>   0.1500 
 47 H        6.3270    -9.5030    -0.0410 H     1 <1>   0.0800 
 48 H        7.6530    -9.6570     1.0760 H     1 <1>   0.0800 
 49 H        7.9280    -9.8180    -0.6480 H     1 <1>   0.0800 
 50 H       12.1880    -1.7310     0.4040 H     1 <1>   0.0800 
 51 H       12.4610    -2.1710    -1.3010 H     1 <1>   0.0800 
@<TRIPOS>BOND
  1   1   2  2   
  2   2   3  am  
  3   2   4  1   
  4   3   5  1   
  5   3  28  1   
  6   4   6  1   
  7   4  29  1   
  8   4  30  1   
  9   5   7  1   
 10   5  31  1   
 11   5  32  1   
 12   6   8  1   
 13   6  33  1   
 14   6  34  1   
 15   7   8  1   
 16   7   9  1   
 17   7  10  1   
 18   9  11  1   
 19   9  35  1   
 20   9  36  1   
 21  10  12  1   
 22  10  37  1   
 23  10  38  1   
 24  11  13  1   
 25  11  39  1   
 26  11  40  1   
 27  12  13  1   
 28  12  41  1   
 29  12  42  1   
 30  13  14  1   
 31  14  15  ar  
 32  14  16  ar  
 33  15  17  ar  
 34  15  18  ar  
 35  16  19  ar  
 36  16  43  1   
 37  17  20  ar  
 38  17  21  ar  
 39  18  22  ar  
 40  18  44  1   
 41  19  20  ar  
 42  19  23  1   
 43  20  45  1   
 44  21  24  ar  
 45  21  46  1   
 46  22  24  ar  
 47  22  25  1   
 48  23  47  1   
 49  23  48  1   
 50  23  49  1   
 51  24  26  1   
 52  25  27  1   
 53  26  27  1   
 54  27  50  1   
 55  27  51  1   
@<TRIPOS>SUBSTRUCTURE
  1 ****  13 GROUP 4 **** **** 0

# MOE 2024.06 (io_trps.svl 2023.06)
