@<TRIPOS>MOLECULE
NONAME
47 48 1 0 0 
SMALL
USER_CHARGES


@<TRIPOS>ATOM
  1 F       -2.4550     0.6180     1.1000 F     1 <1>  -0.1900 
  2 C       -2.3430     0.2200    -0.1400 C.ar  1 <1>   0.1900 
  3 C       -3.4930    -0.1930    -0.8090 C.ar  1 <1>   0.0860 
  4 C       -1.0820     0.2220    -0.7190 C.ar  1 <1>  -0.1440 
  5 C       -4.7950    -0.2020    -0.1790 C.2   1 <1>   0.5440 
  6 C       -3.3340    -0.5960    -2.1350 C.ar  1 <1>  -0.1500 
  7 C       -0.9660    -0.1970    -2.0350 C.ar  1 <1>  -0.1500 
  8 C        0.1470     0.6770     0.0560 C.3   1 <1>  -0.0960 
  9 O       -5.6810     0.4990    -0.6350 O.2   1 <1>  -0.5700 
 10 N       -5.1140    -1.0240     0.8800 N.am  1 <1>  -0.6600 
 11 C       -2.0890    -0.6010    -2.7390 C.ar  1 <1>  -0.1500 
 12 C       -4.2280    -2.1450     1.3310 C.3   1 <1>   0.3210 
 13 C       -6.3510    -0.8110     1.7010 C.3   1 <1>   0.1400 
 14 C       -4.5420    -3.4390     0.5860 C.2   1 <1>   0.0460 
 15 C       -7.5890    -1.5470     1.1510 C.3   1 <1>   0.3430 
 16 N       -5.7030    -4.1020     0.7910 N.2   1 <1>  -0.5650 
 17 C       -3.7630    -4.1030    -0.3020 C.2   1 <1>  -0.3320 
 18 N       -7.8330    -1.2210    -0.2890 N.4   1 <1>  -0.9590 
 19 C       -5.5940    -5.1560     0.0490 C.2   1 <1>   0.0360 
 20 N       -4.4410    -5.2140    -0.6460 N.pl3 1 <1>   0.0330 
 21 C       -2.3810    -3.7960    -0.8610 C.3   1 <1>  -0.0600 
 22 C       -9.2180    -0.7470    -0.5560 C.3   1 <1>   0.2630 
 23 C       -7.4440    -2.3660    -1.1590 C.3   1 <1>   0.2630 
 24 H       -4.1990    -0.9040    -2.6960 H     1 <1>   0.1500 
 25 H       -0.0050    -0.2060    -2.5220 H     1 <1>   0.1500 
 26 H        0.2810     0.0640     0.9290 H     1 <1>   0.0800 
 27 H        0.0240     1.6990     0.3690 H     1 <1>   0.0800 
 28 H        1.0340     0.6110    -0.5480 H     1 <1>   0.0800 
 29 H       -1.9890    -0.9150    -3.7650 H     1 <1>   0.1500 
 30 H       -4.3580    -2.3150     2.3850 H     1 <1>   0.0800 
 31 H       -3.1970    -1.8910     1.1850 H     1 <1>   0.0800 
 32 H       -6.5660     0.2430     1.7440 H     1 <1>   0.0800 
 33 H       -6.1750    -1.1350     2.7120 H     1 <1>   0.0800 
 34 H       -8.4440    -1.2590     1.7390 H     1 <1>   0.0800 
 35 H       -7.4560    -2.6090     1.2730 H     1 <1>   0.0800 
 36 H       -7.1610    -0.4480    -0.5070 H     1 <1>   0.4500 
 37 H       -6.3380    -5.9320    -0.0200 H     1 <1>   0.1500 
 38 H       -4.1370    -5.9610    -1.2790 H     1 <1>   0.2700 
 39 H       -1.9890    -2.8840    -0.4520 H     1 <1>   0.0800 
 40 H       -2.4280    -3.6930    -1.9310 H     1 <1>   0.0800 
 41 H       -1.6990    -4.5930    -0.6200 H     1 <1>   0.0800 
 42 H       -9.9290    -1.5250    -0.3310 H     1 <1>   0.0800 
 43 H       -9.3200    -0.4720    -1.5930 H     1 <1>   0.0800 
 44 H       -9.4380     0.1160     0.0500 H     1 <1>   0.0800 
 45 H       -8.0220    -3.2400    -0.9100 H     1 <1>   0.0800 
 46 H       -6.4000    -2.5940    -1.0160 H     1 <1>   0.0800 
 47 H       -7.6020    -2.1190    -2.1950 H     1 <1>   0.0800 
@<TRIPOS>BOND
  1   1   2  1   
  2   2   3  ar  
  3   2   4  ar  
  4   3   5  1   
  5   3   6  ar  
  6   4   7  ar  
  7   4   8  1   
  8   5   9  2   
  9   5  10  am  
 10   6  11  ar  
 11   6  24  1   
 12   7  11  ar  
 13   7  25  1   
 14   8  26  1   
 15   8  27  1   
 16   8  28  1   
 17  10  12  1   
 18  10  13  1   
 19  11  29  1   
 20  12  14  1   
 21  12  30  1   
 22  12  31  1   
 23  13  15  1   
 24  13  32  1   
 25  13  33  1   
 26  14  16  1   
 27  14  17  2   
 28  15  18  1   
 29  15  34  1   
 30  15  35  1   
 31  16  19  2   
 32  17  20  1   
 33  17  21  1   
 34  18  22  1   
 35  18  23  1   
 36  18  36  1   
 37  19  20  1   
 38  19  37  1   
 39  20  38  1   
 40  21  39  1   
 41  21  40  1   
 42  21  41  1   
 43  22  42  1   
 44  22  43  1   
 45  22  44  1   
 46  23  45  1   
 47  23  46  1   
 48  23  47  1   
@<TRIPOS>SUBSTRUCTURE
  1 ****   5 GROUP 4 **** **** 0

# MOE 2024.06 (io_trps.svl 2023.06)
