@<TRIPOS>MOLECULE
NONAME
42 44 1 0 0 
SMALL
USER_CHARGES


@<TRIPOS>ATOM
  1 O       -0.0150    -0.8250     1.0580 O.2   1 <1>  -0.5700 
  2 C       -0.9140    -1.5140     0.6520 C.2   1 <1>   0.5690 
  3 N       -0.8840    -1.9300    -0.6350 N.am  1 <1>  -0.7300 
  4 C       -2.0320    -1.8610     1.6110 C.3   1 <1>  -0.0990 
  5 C       -1.8080    -2.8120    -1.3970 C.3   1 <1>   0.1400 
  6 C       -3.3920    -2.0090     0.9310 C.3   1 <1>   0.1400 
  7 C       -2.4780    -3.8950    -0.5350 C.3   1 <1>   0.1400 
  8 N       -3.5680    -3.3840     0.3630 N.am  1 <1>  -0.6600 
  9 C       -4.6030    -4.1890     0.8030 C.2   1 <1>   0.5690 
 10 O       -5.3770    -3.7880     1.6460 O.2   1 <1>  -0.5700 
 11 C       -4.8060    -5.6130     0.2440 C.3   1 <1>   0.2610 
 12 O       -3.7160    -6.4510     0.6100 O.3   1 <1>  -0.5600 
 13 C       -6.1700    -6.2240     0.6740 C.3   1 <1>   0.3640 
 14 C       -3.7530    -7.7550     0.0700 C.3   1 <1>   0.1810 
 15 N       -6.1920    -7.7010     0.5350 N.am  1 <1>  -0.7300 
 16 C       -7.3090    -5.6500    -0.1690 C.ar  1 <1>  -0.1440 
 17 C       -5.1020    -8.4500     0.2640 C.2   1 <1>   0.5690 
 18 C       -7.5470    -6.0960    -1.4640 C.ar  1 <1>  -0.1500 
 19 C       -8.1230    -4.6570     0.3580 C.ar  1 <1>  -0.1500 
 20 O       -5.1910    -9.6450     0.1430 O.2   1 <1>  -0.5700 
 21 C       -8.5790    -5.5600    -2.2150 C.ar  1 <1>  -0.1500 
 22 C       -9.1550    -4.1200    -0.3920 C.ar  1 <1>  -0.1500 
 23 C       -9.3840    -4.5710    -1.6790 C.ar  1 <1>  -0.1500 
 24 H       -0.0860    -1.5680    -1.1640 H     1 <1>   0.3700 
 25 H       -1.7850    -2.7500     2.1590 H     1 <1>   0.0800 
 26 H       -2.1030    -1.0560     2.3180 H     1 <1>   0.0800 
 27 H       -2.5590    -2.2180    -1.8880 H     1 <1>   0.0800 
 28 H       -1.2330    -3.3070    -2.1600 H     1 <1>   0.0800 
 29 H       -3.5040    -1.2740     0.1530 H     1 <1>   0.0800 
 30 H       -4.1540    -1.8090     1.6630 H     1 <1>   0.0800 
 31 H       -1.7300    -4.3910     0.0610 H     1 <1>   0.0800 
 32 H       -2.8860    -4.6240    -1.2090 H     1 <1>   0.0800 
 33 H       -4.8060    -5.5410    -0.8270 H     1 <1>   0.0800 
 34 H       -6.3470    -5.9990     1.7120 H     1 <1>   0.0800 
 35 H       -3.5310    -7.6960    -0.9790 H     1 <1>   0.0800 
 36 H       -2.9860    -8.3310     0.5550 H     1 <1>   0.0800 
 37 H       -7.0960    -8.1630     0.6460 H     1 <1>   0.3700 
 38 H       -6.9350    -6.8680    -1.8980 H     1 <1>   0.1500 
 39 H       -7.9570    -4.2900     1.3570 H     1 <1>   0.1500 
 40 H       -8.7570    -5.9140    -3.2160 H     1 <1>   0.1500 
 41 H       -9.7790    -3.3500     0.0270 H     1 <1>   0.1500 
 42 H      -10.1870    -4.1540    -2.2620 H     1 <1>   0.1500 
@<TRIPOS>BOND
  1   1   2  2   
  2   2   3  am  
  3   2   4  1   
  4   3   5  1   
  5   3  24  1   
  6   4   6  1   
  7   4  25  1   
  8   4  26  1   
  9   5   7  1   
 10   5  27  1   
 11   5  28  1   
 12   6   8  1   
 13   6  29  1   
 14   6  30  1   
 15   7   8  1   
 16   7  31  1   
 17   7  32  1   
 18   8   9  am  
 19   9  10  2   
 20   9  11  1   
 21  11  12  1   
 22  11  13  1   
 23  11  33  1   
 24  12  14  1   
 25  13  15  1   
 26  13  16  1   
 27  13  34  1   
 28  14  17  1   
 29  14  35  1   
 30  14  36  1   
 31  15  17  am  
 32  15  37  1   
 33  16  18  ar  
 34  16  19  ar  
 35  17  20  2   
 36  18  21  ar  
 37  18  38  1   
 38  19  22  ar  
 39  19  39  1   
 40  21  23  ar  
 41  21  40  1   
 42  22  23  ar  
 43  22  41  1   
 44  23  42  1   
@<TRIPOS>SUBSTRUCTURE
  1 ****  11 GROUP 4 **** **** 0

# MOE 2024.06 (io_trps.svl 2023.06)
