@<TRIPOS>MOLECULE
NONAME
56 58 1 0 0 
SMALL
USER_CHARGES


@<TRIPOS>ATOM
  1 S       -0.3170    -0.3080    -2.0200 S.o2  1 <1>   1.4470 
  2 O        0.2860     0.3580    -3.1540 O.2   1 <1>  -0.6500 
  3 O       -1.2350    -1.4050    -2.2480 O.2   1 <1>  -0.6500 
  4 N       -1.1710     0.8680    -1.1440 N.am  1 <1>  -0.8490 
  5 C        0.9890    -0.8100    -0.8650 C.ar  1 <1>  -0.0090 
  6 C       -2.0280     1.6700    -2.0180 C.3   1 <1>   0.1960 
  7 C       -1.9280     0.2860    -0.0330 C.3   1 <1>   0.1960 
  8 C        1.2070    -2.1470    -0.5570 C.ar  1 <1>  -0.1500 
  9 C        1.8060     0.1350    -0.2600 C.ar  1 <1>  -0.1500 
 10 C       -2.6480     2.8180    -1.2180 C.3   1 <1>  -0.1600 
 11 C       -2.5860     1.3910     0.7970 C.3   1 <1>  -0.1600 
 12 C        2.1970    -2.5420     0.3290 C.ar  1 <1>  -0.1430 
 13 C        2.8020    -0.2360     0.6250 C.ar  1 <1>  -0.1500 
 14 C       -3.5060     2.2880    -0.0520 C.3   1 <1>   0.2800 
 15 C        3.0060    -1.5790     0.9280 C.ar  1 <1>   0.0820 
 16 C        2.3790    -4.0290     0.6180 C.3   1 <1>  -0.0160 
 17 O       -3.8000     3.3920     0.7700 O.3   1 <1>  -0.5600 
 18 C       -4.8160     1.5300    -0.5000 C.3   1 <1>   0.2000 
 19 O        3.9700    -1.9980     1.7880 O.3   1 <1>  -0.3630 
 20 C        3.4120    -4.6380    -0.3320 C.3   1 <1>  -0.2400 
 21 C       -4.9790     4.0890     0.5330 C.3   1 <1>   0.1200 
 22 O       -5.2510     1.9620    -1.7660 O.3   1 <1>  -0.6800 
 23 C       -5.9740     1.7090     0.5230 C.3   1 <1>   0.2800 
 24 C        4.8790    -1.1010     2.3860 C.3   1 <1>   0.0400 
 25 C       -6.1960     3.2020     0.8400 C.3   1 <1>  -0.1600 
 26 O       -5.6300     1.0720     1.7000 O.3   1 <1>  -0.6800 
 27 C       -7.2780     1.0310     0.0870 C.3   1 <1>  -0.2400 
 28 H       -1.4410     2.0910    -2.8170 H     1 <1>   0.0800 
 29 H       -2.7950     1.0510    -2.4570 H     1 <1>   0.0800 
 30 H       -2.6720    -0.3970    -0.4080 H     1 <1>   0.0800 
 31 H       -1.2620    -0.2710     0.6060 H     1 <1>   0.0800 
 32 H        0.5860    -2.8940    -1.0230 H     1 <1>   0.1500 
 33 H        1.6550     1.1780    -0.4880 H     1 <1>   0.1500 
 34 H       -3.2260     3.4370    -1.8770 H     1 <1>   0.0800 
 35 H       -1.8480     3.4230    -0.8280 H     1 <1>   0.0800 
 36 H       -1.8060     1.9910     1.2310 H     1 <1>   0.0800 
 37 H       -3.1340     0.9430     1.6020 H     1 <1>   0.0800 
 38 H        3.4040     0.5340     1.0670 H     1 <1>   0.1500 
 39 H        2.6940    -4.1730     1.6370 H     1 <1>   0.0800 
 40 H        1.4400    -4.5410     0.5000 H     1 <1>   0.0800 
 41 H       -4.6160     0.4800    -0.6120 H     1 <1>   0.0800 
 42 H        4.3620    -4.1480    -0.2030 H     1 <1>   0.0800 
 43 H        3.0970    -4.5170    -1.3530 H     1 <1>   0.0800 
 44 H        3.5330    -5.6860    -0.1260 H     1 <1>   0.0800 
 45 H       -4.9790     4.9580     1.1690 H     1 <1>   0.0800 
 46 H       -4.9760     4.4170    -0.4910 H     1 <1>   0.0800 
 47 H       -5.4720     2.9110    -1.7310 H     1 <1>   0.4000 
 48 H        5.5560    -1.6710     2.9960 H     1 <1>   0.0800 
 49 H        4.3330    -0.4060     2.9970 H     1 <1>   0.0800 
 50 H        5.4260    -0.5910     1.6120 H     1 <1>   0.0800 
 51 H       -7.0110     3.5780     0.2490 H     1 <1>   0.0800 
 52 H       -6.4790     3.3300     1.8700 H     1 <1>   0.0800 
 53 H       -6.3160     1.2320     2.3720 H     1 <1>   0.4000 
 54 H       -7.6450     1.4680    -0.8240 H     1 <1>   0.0800 
 55 H       -8.0390     1.1400     0.8390 H     1 <1>   0.0800 
 56 H       -7.1070    -0.0150    -0.0970 H     1 <1>   0.0800 
@<TRIPOS>BOND
  1   1   2  2   
  2   1   3  2   
  3   1   4  am  
  4   1   5  1   
  5   4   6  1   
  6   4   7  1   
  7   5   8  ar  
  8   5   9  ar  
  9   6  10  1   
 10   6  28  1   
 11   6  29  1   
 12   7  11  1   
 13   7  30  1   
 14   7  31  1   
 15   8  12  ar  
 16   8  32  1   
 17   9  13  ar  
 18   9  33  1   
 19  10  14  1   
 20  10  34  1   
 21  10  35  1   
 22  11  14  1   
 23  11  36  1   
 24  11  37  1   
 25  12  15  ar  
 26  12  16  1   
 27  13  15  ar  
 28  13  38  1   
 29  14  17  1   
 30  14  18  1   
 31  15  19  1   
 32  16  20  1   
 33  16  39  1   
 34  16  40  1   
 35  17  21  1   
 36  18  22  1   
 37  18  23  1   
 38  18  41  1   
 39  19  24  1   
 40  20  42  1   
 41  20  43  1   
 42  20  44  1   
 43  21  25  1   
 44  21  45  1   
 45  21  46  1   
 46  22  47  1   
 47  23  25  1   
 48  23  26  1   
 49  23  27  1   
 50  24  48  1   
 51  24  49  1   
 52  24  50  1   
 53  25  51  1   
 54  25  52  1   
 55  26  53  1   
 56  27  54  1   
 57  27  55  1   
 58  27  56  1   
@<TRIPOS>SUBSTRUCTURE
  1 ****   7 GROUP 4 **** **** 0

# MOE 2024.06 (io_trps.svl 2023.06)
