@<TRIPOS>MOLECULE
NONAME
36 38 1 0 0 
SMALL
USER_CHARGES


@<TRIPOS>ATOM
  1 O        0.4020    -0.3060     0.6620 O.2   1 <1>  -0.5700 
  2 C        1.3320    -0.5650    -0.0610 C.2   1 <1>   0.5690 
  3 N        2.3340     0.3190    -0.3420 N.am  1 <1>  -0.4940 
  4 C        1.4280    -1.9390    -0.7210 C.3   1 <1>  -0.0190 
  5 C        2.5370     1.6210     0.1310 C.2   1 <1>   0.2040 
  6 C        0.2290    -2.8730    -0.4300 C.3   1 <1>   0.0580 
  7 C        2.6410    -2.7720    -0.2010 C.3   1 <1>  -0.1600 
  8 O        1.7490     2.1810     1.0180 O.3   1 <1>  -0.0190 
  9 C        3.5050     2.5090    -0.1730 C.2   1 <1>  -0.1810 
 10 C        0.3880    -4.0490    -1.3760 C.2   1 <1>  -0.2880 
 11 C        0.6910    -3.5540     0.8560 C.3   1 <1>  -0.1600 
 12 C        1.9950    -4.0870     0.2720 C.3   1 <1>   0.0580 
 13 N        2.1410     3.3930     1.3220 N.2   1 <1>  -0.4100 
 14 C        3.1940     3.6120     0.6200 C.2   1 <1>   0.1080 
 15 C        4.6670     2.3690    -1.1420 C.3   1 <1>   0.0210 
 16 C        1.4350    -4.7600    -0.9650 C.2   1 <1>  -0.2880 
 17 C        3.9660     4.9130     0.6730 C.3   1 <1>  -0.0590 
 18 C        5.9190     1.8810    -0.4120 C.3   1 <1>  -0.2400 
 19 H        3.0550    -0.0220    -0.9710 H     1 <1>   0.3700 
 20 H        1.5000    -1.7940    -1.7840 H     1 <1>   0.0800 
 21 H       -0.7520    -2.4290    -0.3950 H     1 <1>   0.0800 
 22 H        3.3640    -2.9550    -0.9770 H     1 <1>   0.0800 
 23 H        3.1210    -2.2860     0.6310 H     1 <1>   0.0800 
 24 H       -0.2750    -4.1770    -2.2150 H     1 <1>   0.1500 
 25 H        0.8360    -2.8660     1.6720 H     1 <1>   0.0800 
 26 H        0.0250    -4.3460     1.1540 H     1 <1>   0.0800 
 27 H        2.5740    -4.7130     0.9300 H     1 <1>   0.0800 
 28 H        4.4080     1.6690    -1.9170 H     1 <1>   0.0800 
 29 H        4.8620     3.3170    -1.6130 H     1 <1>   0.0800 
 30 H        1.8920    -5.6490    -1.3660 H     1 <1>   0.1500 
 31 H        3.9570     5.3840    -0.2920 H     1 <1>   0.0800 
 32 H        4.9810     4.7260     0.9700 H     1 <1>   0.0800 
 33 H        3.5140     5.5780     1.3870 H     1 <1>   0.0800 
 34 H        5.7330     0.9290     0.0530 H     1 <1>   0.0800 
 35 H        6.2050     2.5830     0.3510 H     1 <1>   0.0800 
 36 H        6.7350     1.7750    -1.1050 H     1 <1>   0.0800 
@<TRIPOS>BOND
  1   1   2  2   
  2   2   3  am  
  3   2   4  1   
  4   3   5  1   
  5   3  19  1   
  6   4   6  1   
  7   4   7  1   
  8   4  20  1   
  9   5   8  1   
 10   5   9  2   
 11   6  10  1   
 12   6  11  1   
 13   6  21  1   
 14   7  12  1   
 15   7  22  1   
 16   7  23  1   
 17   8  13  1   
 18   9  14  1   
 19   9  15  1   
 20  10  16  2   
 21  10  24  1   
 22  11  12  1   
 23  11  25  1   
 24  11  26  1   
 25  12  16  1   
 26  12  27  1   
 27  13  14  2   
 28  14  17  1   
 29  15  18  1   
 30  15  28  1   
 31  15  29  1   
 32  16  30  1   
 33  17  31  1   
 34  17  32  1   
 35  17  33  1   
 36  18  34  1   
 37  18  35  1   
 38  18  36  1   
@<TRIPOS>SUBSTRUCTURE
  1 ****   3 GROUP 4 **** **** 0

# MOE 2024.06 (io_trps.svl 2023.06)
