@<TRIPOS>MOLECULE
NONAME
43 44 1 0 0 
SMALL
USER_CHARGES


@<TRIPOS>ATOM
  1 CL       1.5620     2.4170     3.8630 Cl    1 <1>  -0.1770 
  2 C        2.2540     2.5260     2.2660 C.ar  1 <1>   0.1770 
  3 C        2.1090     3.6980     1.5450 C.ar  1 <1>  -0.1500 
  4 C        2.9360     1.4420     1.7470 C.ar  1 <1>  -0.1500 
  5 C        2.6590     3.7920     0.2750 C.ar  1 <1>  -0.1440 
  6 C        3.4840     1.5350     0.4790 C.ar  1 <1>  -0.1500 
  7 C        3.3450     2.7050    -0.2510 C.ar  1 <1>  -0.1500 
  8 C        2.5180     5.0710    -0.5290 C.3   1 <1>   0.2840 
  9 N        3.7000     5.9070    -0.2520 N.am  1 <1>  -0.7300 
 10 C        4.1180     6.9140    -1.0480 C.2   1 <1>   0.5690 
 11 O        3.5220     7.2310    -2.0470 O.2   1 <1>  -0.5700 
 12 C        5.3740     7.6670    -0.6780 C.3   1 <1>  -0.0990 
 13 C        5.4930     8.9130    -1.5570 C.3   1 <1>   0.3430 
 14 N        6.6850     9.7350    -1.2000 N.4   1 <1>  -0.9590 
 15 C        6.6070    11.1100    -1.7970 C.3   1 <1>   0.5230 
 16 C        7.9930     9.0890    -1.5370 C.3   1 <1>   0.2630 
 17 C        7.4090    12.0740    -0.9350 C.2   1 <1>   0.1980 
 18 S        7.7080    13.6740    -1.5720 S.3   1 <1>  -0.0800 
 19 N        7.9010    11.8600     0.2230 N.2   1 <1>  -0.5650 
 20 C        8.5760    14.0550    -0.1140 C.2   1 <1>  -0.1100 
 21 C        8.5640    12.9830     0.6940 C.2   1 <1>   0.0460 
 22 C        9.2010    12.8880     2.0630 C.3   1 <1>  -0.0590 
 23 H        1.5710     4.5190     1.9830 H     1 <1>   0.1500 
 24 H        3.0330     0.5430     2.3280 H     1 <1>   0.1500 
 25 H        4.0170     0.6980     0.0610 H     1 <1>   0.1500 
 26 H        3.7760     2.7650    -1.2360 H     1 <1>   0.1500 
 27 H        1.6260     5.6010    -0.2410 H     1 <1>   0.0800 
 28 H        2.4600     4.8520    -1.5820 H     1 <1>   0.0800 
 29 H        4.2200     5.6130     0.5780 H     1 <1>   0.3700 
 30 H        6.2100     7.0120    -0.8290 H     1 <1>   0.0800 
 31 H        5.3140     7.9490     0.3570 H     1 <1>   0.0800 
 32 H        4.5950     9.4990    -1.4320 H     1 <1>   0.0800 
 33 H        5.5440     8.6140    -2.5930 H     1 <1>   0.0800 
 34 H        6.6970     9.9270    -0.1810 H     1 <1>   0.4500 
 35 H        5.5850    11.4480    -1.8190 H     1 <1>   0.0800 
 36 H        6.9910    11.1070    -2.8030 H     1 <1>   0.0800 
 37 H        8.0620     8.9050    -2.5970 H     1 <1>   0.0800 
 38 H        8.0960     8.1510    -1.0160 H     1 <1>   0.0800 
 39 H        8.8100     9.7290    -1.2410 H     1 <1>   0.0800 
 40 H        9.0000    15.0380    -0.0170 H     1 <1>   0.1500 
 41 H        8.4510    12.6670     2.8000 H     1 <1>   0.0800 
 42 H        9.6770    13.8170     2.3210 H     1 <1>   0.0800 
 43 H        9.9390    12.1070     2.0700 H     1 <1>   0.0800 
@<TRIPOS>BOND
  1   1   2  1   
  2   2   3  ar  
  3   2   4  ar  
  4   3   5  ar  
  5   3  23  1   
  6   4   6  ar  
  7   4  24  1   
  8   5   7  ar  
  9   5   8  1   
 10   6   7  ar  
 11   6  25  1   
 12   7  26  1   
 13   8   9  1   
 14   8  27  1   
 15   8  28  1   
 16   9  10  am  
 17   9  29  1   
 18  10  11  2   
 19  10  12  1   
 20  12  13  1   
 21  12  30  1   
 22  12  31  1   
 23  13  14  1   
 24  13  32  1   
 25  13  33  1   
 26  14  15  1   
 27  14  16  1   
 28  14  34  1   
 29  15  17  1   
 30  15  35  1   
 31  15  36  1   
 32  16  37  1   
 33  16  38  1   
 34  16  39  1   
 35  17  18  1   
 36  17  19  2   
 37  18  20  1   
 38  19  21  1   
 39  20  21  2   
 40  20  40  1   
 41  21  22  1   
 42  22  41  1   
 43  22  42  1   
 44  22  43  1   
@<TRIPOS>SUBSTRUCTURE
  1 ****  12 GROUP 4 **** **** 0

# MOE 2024.06 (io_trps.svl 2023.06)
