@<TRIPOS>MOLECULE
NONAME
51 54 1 0 0 
SMALL
USER_CHARGES


@<TRIPOS>ATOM
  1 O        0.1330    -0.3770    -2.1680 O.2   1 <1>  -0.5700 
  2 C        0.9130    -0.7180    -1.2970 C.2   1 <1>   0.5440 
  3 N        1.6900     0.2480    -0.6930 N.am  1 <1>  -0.6600 
  4 C        1.0190    -2.1060    -0.9180 C.ar  1 <1>   0.0860 
  5 C        1.7870     1.6290    -1.2770 C.3   1 <1>   0.3210 
  6 C        2.4060     0.0250     0.5960 C.3   1 <1>   0.0600 
  7 C       -0.0290    -2.7760    -0.2270 C.ar  1 <1>   0.0000 
  8 C        2.1780    -2.7980    -1.2070 C.ar  1 <1>  -0.1500 
  9 C        3.2230     2.1480    -1.3680 C.2   1 <1>   0.3350 
 10 C        0.1520    -4.1220     0.1780 C.ar  1 <1>   0.0000 
 11 C       -1.2510    -2.1410     0.0940 C.ar  1 <1>  -0.1500 
 12 C        2.3410    -4.1250    -0.8390 C.ar  1 <1>  -0.1500 
 13 N        3.9610     2.0810    -2.4050 N.2   1 <1>  -0.4100 
 14 N        3.8220     2.7420    -0.3390 N.2   1 <1>  -0.5650 
 15 C        1.3540    -4.8050    -0.1630 C.ar  1 <1>   0.1000 
 16 C       -0.8760    -4.7360     0.9270 C.ar  1 <1>  -0.1500 
 17 C       -2.2330    -2.7750     0.8030 C.ar  1 <1>  -0.1500 
 18 O        5.0990     2.6280    -2.1060 O.3   1 <1>  -0.0190 
 19 C        4.9540     3.0070    -0.8610 C.2   1 <1>   0.3170 
 20 N        1.5440    -6.1430     0.1510 N.pl3 1 <1>  -0.8380 
 21 C       -2.0400    -4.0870     1.2330 C.ar  1 <1>  -0.1500 
 22 C        6.1300     3.6990    -0.1880 C.3   1 <1>   0.1610 
 23 C        2.7790    -6.6010     0.8390 C.3   1 <1>   0.1290 
 24 C        0.7970    -7.1790    -0.6090 C.3   1 <1>   0.1290 
 25 C        5.8140     4.4790     1.1180 C.3   1 <1>   0.0000 
 26 C        6.5090     5.0670    -0.8170 C.3   1 <1>   0.0000 
 27 C        6.8170     5.5530     0.6230 C.3   1 <1>   0.0000 
 28 H        1.2120     2.3040    -0.6710 H     1 <1>   0.0800 
 29 H        1.3710     1.6430    -2.2680 H     1 <1>   0.0800 
 30 H        2.0260    -0.8440     1.1040 H     1 <1>   0.0800 
 31 H        2.2740     0.8780     1.2400 H     1 <1>   0.0800 
 32 H        3.4570    -0.1110     0.4080 H     1 <1>   0.0800 
 33 H        2.9720    -2.3000    -1.7350 H     1 <1>   0.1500 
 34 H       -1.4170    -1.1290    -0.2300 H     1 <1>   0.1500 
 35 H        3.2510    -4.6330    -1.1000 H     1 <1>   0.1500 
 36 H       -0.7260    -5.7440     1.2670 H     1 <1>   0.1500 
 37 H       -3.1550    -2.2730     1.0390 H     1 <1>   0.1500 
 38 H       -2.8130    -4.5760     1.8010 H     1 <1>   0.1500 
 39 H        6.9880     3.0570    -0.0780 H     1 <1>   0.0000 
 40 H        3.2590    -5.7690     1.3230 H     1 <1>   0.0800 
 41 H        3.4580    -7.0350     0.1260 H     1 <1>   0.0800 
 42 H        2.5270    -7.3350     1.5840 H     1 <1>   0.0800 
 43 H       -0.0010    -6.7210    -1.1690 H     1 <1>   0.0800 
 44 H        0.3780    -7.8980     0.0720 H     1 <1>   0.0800 
 45 H        1.4580    -7.6790    -1.2950 H     1 <1>   0.0800 
 46 H        6.1260     3.9730     2.0140 H     1 <1>   0.0000 
 47 H        4.8060     4.8570     1.1640 H     1 <1>   0.0000 
 48 H        5.6670     5.5780    -1.2540 H     1 <1>   0.0000 
 49 H        7.3710     5.0270    -1.4580 H     1 <1>   0.0000 
 50 H        7.8300     5.3460     0.9240 H     1 <1>   0.0000 
 51 H        6.5060     6.5640     0.8180 H     1 <1>   0.0000 
@<TRIPOS>BOND
  1   1   2  2   
  2   2   3  am  
  3   2   4  1   
  4   3   5  1   
  5   3   6  1   
  6   4   7  ar  
  7   4   8  ar  
  8   5   9  1   
  9   5  28  1   
 10   5  29  1   
 11   6  30  1   
 12   6  31  1   
 13   6  32  1   
 14   7  10  ar  
 15   7  11  ar  
 16   8  12  ar  
 17   8  33  1   
 18   9  13  2   
 19   9  14  1   
 20  10  15  ar  
 21  10  16  ar  
 22  11  17  ar  
 23  11  34  1   
 24  12  15  ar  
 25  12  35  1   
 26  13  18  1   
 27  14  19  2   
 28  15  20  1   
 29  16  21  ar  
 30  16  36  1   
 31  17  21  ar  
 32  17  37  1   
 33  18  19  1   
 34  19  22  1   
 35  20  23  1   
 36  20  24  1   
 37  21  38  1   
 38  22  25  1   
 39  22  26  1   
 40  22  39  1   
 41  23  40  1   
 42  23  41  1   
 43  23  42  1   
 44  24  43  1   
 45  24  44  1   
 46  24  45  1   
 47  25  27  1   
 48  25  46  1   
 49  25  47  1   
 50  26  27  1   
 51  26  48  1   
 52  26  49  1   
 53  27  50  1   
 54  27  51  1   
@<TRIPOS>SUBSTRUCTURE
  1 ****   3 GROUP 4 **** **** 0

# MOE 2024.06 (io_trps.svl 2023.06)
