@<TRIPOS>MOLECULE
NONAME
44 46 1 0 0 
SMALL
USER_CHARGES


@<TRIPOS>ATOM
  1 O       -3.9660     2.5850    -0.4160 O.2   1 <1>  -0.5700 
  2 C       -2.8670     2.0990    -0.5160 C.2   1 <1>   0.5690 
  3 N       -2.6790     0.8500    -1.0120 N.am  1 <1>  -0.7300 
  4 C       -1.6590     2.9020    -0.0640 C.3   1 <1>   0.0820 
  5 C       -3.7430    -0.0750    -1.4570 C.3   1 <1>   0.2200 
  6 C       -0.5200     2.0000     0.3980 C.2   1 <1>  -0.1810 
  7 C       -3.8310    -1.2340    -0.4790 C.3   1 <1>  -0.0800 
  8 C       -3.3070    -0.7770    -2.7400 C.3   1 <1>   0.1200 
  9 C        0.6640     1.7280    -0.1740 C.2   1 <1>  -0.0400 
 10 C       -0.5060     1.2170     1.5530 C.2   1 <1>   0.1080 
 11 C       -2.7090    -2.1470    -0.9800 C.3   1 <1>   0.1200 
 12 C       -5.2110    -1.9170    -0.5360 C.3   1 <1>  -0.0170 
 13 O       -2.5710    -1.9000    -2.3500 O.3   1 <1>  -0.5600 
 14 O        1.2860     0.8680     0.5850 O.3   1 <1>  -0.0190 
 15 C        1.3310     2.2020    -1.4490 C.3   1 <1>  -0.0600 
 16 N        0.5860     0.5470     1.6330 N.2   1 <1>  -0.4100 
 17 C       -1.6110     1.1420     2.5860 C.3   1 <1>  -0.0590 
 18 C       -5.3100    -3.0630     0.4590 C.ar  1 <1>  -0.1440 
 19 C       -5.2270    -4.3840     0.0670 C.ar  1 <1>  -0.1500 
 20 C       -5.4900    -2.8390     1.8090 C.ar  1 <1>  -0.1500 
 21 C       -5.3230    -5.3880     1.0160 C.ar  1 <1>   0.1600 
 22 C       -5.5740    -3.9160     2.6770 C.ar  1 <1>   0.1600 
 23 N       -5.4930    -5.1850     2.3130 N.ar  1 <1>  -0.6200 
 24 H       -1.7340     0.4510    -1.0170 H     1 <1>   0.3700 
 25 H       -1.3380     3.5170    -0.8830 H     1 <1>   0.0800 
 26 H       -1.9510     3.5520     0.7400 H     1 <1>   0.0800 
 27 H       -4.6740     0.4550    -1.5770 H     1 <1>   0.0800 
 28 H       -3.6450    -0.9110     0.5300 H     1 <1>   0.0800 
 29 H       -2.7020    -0.1490    -3.3690 H     1 <1>   0.0800 
 30 H       -4.1630    -1.1260    -3.2900 H     1 <1>   0.0800 
 31 H       -2.9080    -3.1930    -0.8280 H     1 <1>   0.0800 
 32 H       -1.7750    -1.8910    -0.5100 H     1 <1>   0.0800 
 33 H       -5.4040    -2.2870    -1.5280 H     1 <1>   0.0800 
 34 H       -5.9760    -1.1960    -0.3050 H     1 <1>   0.0800 
 35 H        0.7010     2.8930    -1.9770 H     1 <1>   0.0800 
 36 H        1.5350     1.3600    -2.0850 H     1 <1>   0.0800 
 37 H        2.2590     2.6900    -1.2100 H     1 <1>   0.0800 
 38 H       -1.7730     2.1110     3.0200 H     1 <1>   0.0800 
 39 H       -1.3350     0.4560     3.3670 H     1 <1>   0.0800 
 40 H       -2.5210     0.8000     2.1300 H     1 <1>   0.0800 
 41 H       -5.0890    -4.6430    -0.9670 H     1 <1>   0.1500 
 42 H       -5.5680    -1.8390     2.1940 H     1 <1>   0.1500 
 43 H       -5.2560    -6.4120     0.6920 H     1 <1>   0.1500 
 44 H       -5.7150    -3.7220     3.7260 H     1 <1>   0.1500 
@<TRIPOS>BOND
  1   1   2  2   
  2   2   3  am  
  3   2   4  1   
  4   3   5  1   
  5   3  24  1   
  6   4   6  1   
  7   4  25  1   
  8   4  26  1   
  9   5   7  1   
 10   5   8  1   
 11   5  27  1   
 12   6   9  2   
 13   6  10  1   
 14   7  11  1   
 15   7  12  1   
 16   7  28  1   
 17   8  13  1   
 18   8  29  1   
 19   8  30  1   
 20   9  14  1   
 21   9  15  1   
 22  10  16  2   
 23  10  17  1   
 24  11  13  1   
 25  11  31  1   
 26  11  32  1   
 27  12  18  1   
 28  12  33  1   
 29  12  34  1   
 30  14  16  1   
 31  15  35  1   
 32  15  36  1   
 33  15  37  1   
 34  17  38  1   
 35  17  39  1   
 36  17  40  1   
 37  18  19  ar  
 38  18  20  ar  
 39  19  21  ar  
 40  19  41  1   
 41  20  22  ar  
 42  20  42  1   
 43  21  23  ar  
 44  21  43  1   
 45  22  23  ar  
 46  22  44  1   
@<TRIPOS>SUBSTRUCTURE
  1 ****   7 GROUP 4 **** **** 0

# MOE 2024.06 (io_trps.svl 2023.06)
