@<TRIPOS>MOLECULE
NONAME
55 59 1 0 0 
SMALL
USER_CHARGES


@<TRIPOS>ATOM
  1 S       -0.6010    -0.7160    -3.5570 S.3   1 <1>  -0.0800 
  2 C       -2.2360    -0.7330    -4.1760 C.2   1 <1>   0.2280 
  3 C       -1.1820    -1.4660    -2.0990 C.2   1 <1>  -0.1100 
  4 N       -3.0990    -1.2280    -3.3810 N.2   1 <1>  -0.5650 
  5 C       -2.5090    -1.6450    -2.1950 C.2   1 <1>   0.0460 
  6 C       -3.3950    -2.2970    -1.1400 C.3   1 <1>   0.0210 
  7 C       -4.1850    -1.3840    -0.1580 C.3   1 <1>   0.0610 
  8 C       -5.0270    -2.3430     0.6920 C.2   1 <1>   0.5690 
  9 C       -3.2370    -0.5260     0.7190 C.3   1 <1>   0.2200 
 10 C       -5.0150    -0.2690    -0.8700 C.3   1 <1>  -0.1600 
 11 O       -4.5350    -2.8640     1.6670 O.2   1 <1>  -0.5700 
 12 N       -6.2830    -2.6790     0.2950 N.am  1 <1>  -0.7300 
 13 N       -2.9890     0.5960    -0.1700 N.am  1 <1>  -0.6600 
 14 C       -3.9910     0.2300     1.8320 C.3   1 <1>  -0.1600 
 15 C       -4.3550     1.0350    -0.3960 C.3   1 <1>   0.2200 
 16 C       -7.1360    -3.6660     0.9760 C.3   1 <1>   0.3200 
 17 C       -1.7880     1.1840    -0.4370 C.2   1 <1>   0.5690 
 18 C       -4.7800     1.3010     1.0520 C.3   1 <1>  -0.1600 
 19 C       -6.6800    -5.0420     0.5570 C.2   1 <1>  -0.3320 
 20 O       -0.7630     0.7710     0.0540 O.2   1 <1>  -0.5700 
 21 C       -1.7080     2.3740    -1.3780 C.3   1 <1>   0.0440 
 22 N       -5.4610    -5.5160     0.8870 N.pl3 1 <1>   0.3000 
 23 C       -7.2940    -6.0130    -0.1540 C.2   1 <1>  -0.1500 
 24 C       -2.3400     3.6320    -0.7900 C.ar  1 <1>  -0.1430 
 25 N       -5.2660    -6.7600     0.4090 N.2   1 <1>  -0.7070 
 26 C       -6.3690    -7.0490    -0.2110 C.2   1 <1>   0.1390 
 27 C       -3.2790     4.3600    -1.5080 C.ar  1 <1>   0.1600 
 28 C       -1.9880     4.0680     0.4720 C.ar  1 <1>  -0.1500 
 29 N       -3.8890     5.4510    -1.0740 N.ar  1 <1>  -0.6200 
 30 C       -2.6090     5.2060     0.9390 C.ar  1 <1>  -0.1500 
 31 C       -3.5370     5.8490     0.1390 C.ar  1 <1>   0.1600 
 32 H       -2.3880    -0.3330    -5.1620 H     1 <1>   0.1500 
 33 H       -0.4690    -1.6840    -1.3240 H     1 <1>   0.1500 
 34 H       -4.0880    -2.9360    -1.6600 H     1 <1>   0.0800 
 35 H       -2.7690    -2.9460    -0.5530 H     1 <1>   0.0800 
 36 H       -2.3440    -1.0300     1.0520 H     1 <1>   0.0800 
 37 H       -6.0540    -0.2660    -0.5960 H     1 <1>   0.0800 
 38 H       -4.9630    -0.3360    -1.9390 H     1 <1>   0.0800 
 39 H       -6.6150    -2.3870    -0.6250 H     1 <1>   0.3700 
 40 H       -4.6270    -0.4000     2.4260 H     1 <1>   0.0800 
 41 H       -3.2750     0.6990     2.4850 H     1 <1>   0.0800 
 42 H       -4.4680     1.8710    -1.0640 H     1 <1>   0.0800 
 43 H       -7.0460    -3.5550     2.0440 H     1 <1>   0.0800 
 44 H       -8.1650    -3.5090     0.6990 H     1 <1>   0.0800 
 45 H       -4.4710     2.2890     1.3460 H     1 <1>   0.0800 
 46 H       -5.8430     1.2110     1.1860 H     1 <1>   0.0800 
 47 H       -0.6750     2.5720    -1.5960 H     1 <1>   0.0800 
 48 H       -2.1880     2.1030    -2.2990 H     1 <1>   0.0800 
 49 H       -4.7500    -4.9880     1.4200 H     1 <1>   0.2700 
 50 H       -8.2750    -6.0210    -0.5940 H     1 <1>   0.1500 
 51 H       -6.5360    -7.9890    -0.7100 H     1 <1>   0.1500 
 52 H       -3.5500     4.0270    -2.4950 H     1 <1>   0.1500 
 53 H       -1.2620     3.5420     1.0700 H     1 <1>   0.1500 
 54 H       -2.3760     5.5930     1.9140 H     1 <1>   0.1500 
 55 H       -4.0160     6.7370     0.5150 H     1 <1>   0.1500 
@<TRIPOS>BOND
  1   1   2  1   
  2   1   3  1   
  3   2   4  2   
  4   2  32  1   
  5   3   5  2   
  6   3  33  1   
  7   4   5  1   
  8   5   6  1   
  9   6   7  1   
 10   6  34  1   
 11   6  35  1   
 12   7   8  1   
 13   7   9  1   
 14   7  10  1   
 15   8  11  2   
 16   8  12  am  
 17   9  13  1   
 18   9  14  1   
 19   9  36  1   
 20  10  15  1   
 21  10  37  1   
 22  10  38  1   
 23  12  16  1   
 24  12  39  1   
 25  13  15  1   
 26  13  17  am  
 27  14  18  1   
 28  14  40  1   
 29  14  41  1   
 30  15  18  1   
 31  15  42  1   
 32  16  19  1   
 33  16  43  1   
 34  16  44  1   
 35  17  20  2   
 36  17  21  1   
 37  18  45  1   
 38  18  46  1   
 39  19  22  1   
 40  19  23  2   
 41  21  24  1   
 42  21  47  1   
 43  21  48  1   
 44  22  25  1   
 45  22  49  1   
 46  23  26  1   
 47  23  50  1   
 48  24  27  ar  
 49  24  28  ar  
 50  25  26  2   
 51  26  51  1   
 52  27  29  ar  
 53  27  52  1   
 54  28  30  ar  
 55  28  53  1   
 56  29  31  ar  
 57  30  31  ar  
 58  30  54  1   
 59  31  55  1   
@<TRIPOS>SUBSTRUCTURE
  1 ****   7 GROUP 4 **** **** 0

# MOE 2024.06 (io_trps.svl 2023.06)
