@<TRIPOS>MOLECULE
NONAME
55 57 1 0 0 
SMALL
USER_CHARGES


@<TRIPOS>ATOM
  1 O       -0.3510     1.1120    -1.3700 O.2   1 <1>  -0.5700 
  2 C        0.0150     2.0290    -0.6690 C.2   1 <1>   0.5690 
  3 N       -0.8670     2.6490     0.1950 N.am  1 <1>  -0.6600 
  4 C        1.4650     2.4780    -0.8480 C.3   1 <1>   0.0440 
  5 C       -2.2360     2.0770     0.4150 C.3   1 <1>   0.1400 
  6 C       -0.6790     3.9370     0.9200 C.3   1 <1>   0.1400 
  7 C        2.5000     1.4450    -0.3690 C.ar  1 <1>  -0.1440 
  8 C       -3.3330     3.0500    -0.0870 C.3   1 <1>   0.0000 
  9 C       -1.7150     4.9550     0.4310 C.3   1 <1>  -0.1600 
 10 C        2.8530     1.3740     0.9800 C.ar  1 <1>  -0.1430 
 11 C        3.1080     0.5710    -1.2740 C.ar  1 <1>  -0.1430 
 12 C       -4.7410     2.4820     0.1640 C.3   1 <1>   0.2000 
 13 C       -3.1500     4.4260     0.5890 C.3   1 <1>  -0.1600 
 14 C       -3.3090     3.1420    -1.6230 C.3   1 <1>  -0.1600 
 15 C        3.8090     0.4610     1.3990 C.ar  1 <1>  -0.1500 
 16 C        2.2170     2.2600     2.0430 C.3   1 <1>  -0.0970 
 17 C        4.0610    -0.3320    -0.8300 C.ar  1 <1>  -0.1500 
 18 C        2.7610     0.5510    -2.7580 C.3   1 <1>  -0.0970 
 19 O       -4.8300     1.8690     1.4170 O.3   1 <1>  -0.5600 
 20 C       -4.9940     1.4840    -0.9700 C.3   1 <1>  -0.1600 
 21 C       -4.0670     1.9060    -2.1190 C.3   1 <1>  -0.1600 
 22 C        4.4200    -0.3910     0.5020 C.ar  1 <1>  -0.1430 
 23 C       -6.1260     1.5920     1.8440 C.3   1 <1>   0.0400 
 24 C        5.4640    -1.3870     0.9720 C.3   1 <1>  -0.0970 
 25 H        1.5980     2.6810    -1.8910 H     1 <1>   0.0800 
 26 H        1.6600     3.4090    -0.3680 H     1 <1>   0.0800 
 27 H       -2.3350     1.1230    -0.0710 H     1 <1>   0.0800 
 28 H       -2.3620     1.9050     1.4700 H     1 <1>   0.0800 
 29 H       -0.8170     3.7630     1.9730 H     1 <1>   0.0800 
 30 H        0.3020     4.3430     0.7820 H     1 <1>   0.0800 
 31 H       -1.6080     5.8660     0.9940 H     1 <1>   0.0800 
 32 H       -1.5200     5.1850    -0.6010 H     1 <1>   0.0800 
 33 H       -5.4580     3.2840     0.1130 H     1 <1>   0.0800 
 34 H       -3.8460     5.1380     0.1820 H     1 <1>   0.0800 
 35 H       -3.3680     4.3230     1.6390 H     1 <1>   0.0800 
 36 H       -3.8380     4.0230    -1.9430 H     1 <1>   0.0800 
 37 H       -2.3120     3.1780    -2.0250 H     1 <1>   0.0800 
 38 H        4.0800     0.4060     2.4380 H     1 <1>   0.1500 
 39 H        2.6360     2.0620     3.0120 H     1 <1>   0.0800 
 40 H        1.1620     2.0620     2.0940 H     1 <1>   0.0800 
 41 H        2.3830     3.2970     1.8170 H     1 <1>   0.0800 
 42 H        4.5290    -1.0020    -1.5280 H     1 <1>   0.1500 
 43 H        3.2300    -0.2790    -3.2540 H     1 <1>   0.0800 
 44 H        3.0970     1.4570    -3.2290 H     1 <1>   0.0800 
 45 H        1.6990     0.4530    -2.8900 H     1 <1>   0.0800 
 46 H       -4.7390     0.4870    -0.6540 H     1 <1>   0.0800 
 47 H       -6.0230     1.5150    -1.2780 H     1 <1>   0.0800 
 48 H       -3.3650     1.1140    -2.3250 H     1 <1>   0.0800 
 49 H       -4.6170     2.1240    -3.0180 H     1 <1>   0.0800 
 50 H       -6.0670     1.1470     2.8220 H     1 <1>   0.0800 
 51 H       -6.5910     0.9020     1.1620 H     1 <1>   0.0800 
 52 H       -6.6870     2.5100     1.8980 H     1 <1>   0.0800 
 53 H        5.9860    -1.0070     1.8320 H     1 <1>   0.0800 
 54 H        6.1830    -1.5720     0.1950 H     1 <1>   0.0800 
 55 H        4.9880    -2.3140     1.2350 H     1 <1>   0.0800 
@<TRIPOS>BOND
  1   1   2  2   
  2   2   3  am  
  3   2   4  1   
  4   3   5  1   
  5   3   6  1   
  6   4   7  1   
  7   4  25  1   
  8   4  26  1   
  9   5   8  1   
 10   5  27  1   
 11   5  28  1   
 12   6   9  1   
 13   6  29  1   
 14   6  30  1   
 15   7  10  ar  
 16   7  11  ar  
 17   8  12  1   
 18   8  13  1   
 19   8  14  1   
 20   9  13  1   
 21   9  31  1   
 22   9  32  1   
 23  10  15  ar  
 24  10  16  1   
 25  11  17  ar  
 26  11  18  1   
 27  12  19  1   
 28  12  20  1   
 29  12  33  1   
 30  13  34  1   
 31  13  35  1   
 32  14  21  1   
 33  14  36  1   
 34  14  37  1   
 35  15  22  ar  
 36  15  38  1   
 37  16  39  1   
 38  16  40  1   
 39  16  41  1   
 40  17  22  ar  
 41  17  42  1   
 42  18  43  1   
 43  18  44  1   
 44  18  45  1   
 45  19  23  1   
 46  20  21  1   
 47  20  46  1   
 48  20  47  1   
 49  21  48  1   
 50  21  49  1   
 51  22  24  1   
 52  23  50  1   
 53  23  51  1   
 54  23  52  1   
 55  24  53  1   
 56  24  54  1   
 57  24  55  1   
@<TRIPOS>SUBSTRUCTURE
  1 ****   2 GROUP 4 **** **** 0

# MOE 2024.06 (io_trps.svl 2023.06)
