@<TRIPOS>MOLECULE
NONAME
43 45 1 0 0 
SMALL
USER_CHARGES


@<TRIPOS>ATOM
  1 S       -0.4680    -1.3520     0.6050 S.3   1 <1>  -0.0800 
  2 C        0.7220    -0.7240    -0.5260 C.2   1 <1>   0.1980 
  3 C       -1.6470    -0.2650    -0.0650 C.2   1 <1>  -0.1100 
  4 N        0.2720     0.1950    -1.2890 N.2   1 <1>  -0.5650 
  5 C        2.1440    -1.2940    -0.4770 C.3   1 <1>   0.4000 
  6 C       -1.0660     0.4520    -1.0380 C.2   1 <1>   0.0770 
  7 N        2.2090    -2.7470    -0.1550 N.am  1 <1>  -0.6600 
  8 C        2.9810    -0.6210     0.6170 C.3   1 <1>  -0.1600 
  9 C        1.7220    -3.6900    -1.0200 C.2   1 <1>   0.5690 
 10 C        3.0300    -2.9900     1.0500 C.3   1 <1>   0.1400 
 11 C        3.8640    -1.7240     1.1950 C.3   1 <1>  -0.1600 
 12 O        1.3060    -3.3730    -2.1110 O.2   1 <1>  -0.5700 
 13 C        1.6790    -5.1840    -0.6500 C.3   1 <1>   0.1710 
 14 N        0.4440    -5.6590     0.0390 N.3   1 <1>  -0.8100 
 15 C       -0.7550    -5.3410    -0.7650 C.3   1 <1>   0.2530 
 16 C        0.3340    -5.1390     1.4080 C.3   1 <1>   0.0300 
 17 C       -2.0010    -6.0060    -0.1920 C.ar  1 <1>  -0.1430 
 18 C       -2.0270    -7.3810     0.0060 C.ar  1 <1>  -0.1500 
 19 C       -3.1160    -5.2390     0.1300 C.ar  1 <1>  -0.1500 
 20 C       -3.1560    -7.9950     0.5220 C.ar  1 <1>  -0.1500 
 21 C       -4.2520    -5.8410     0.6470 C.ar  1 <1>  -0.1500 
 22 C       -4.2490    -7.2100     0.8320 C.ar  1 <1>   0.1900 
 23 F       -5.3180    -7.7810     1.3190 F     1 <1>  -0.1900 
 24 H       -2.6430    -0.2800     0.3380 H     1 <1>   0.1500 
 25 H        2.6120    -1.1370    -1.4340 H     1 <1>   0.0800 
 26 H       -1.5490     1.2060    -1.6360 H     1 <1>   0.1500 
 27 H        2.3290    -0.2420     1.3850 H     1 <1>   0.0800 
 28 H        3.5530     0.1980     0.2190 H     1 <1>   0.0800 
 29 H        3.6580    -3.8570     0.9400 H     1 <1>   0.0800 
 30 H        2.3830    -3.1080     1.9020 H     1 <1>   0.0800 
 31 H        4.1370    -1.5380     2.2190 H     1 <1>   0.0800 
 32 H        4.7600    -1.8240     0.6060 H     1 <1>   0.0800 
 33 H        2.5320    -5.4330    -0.0480 H     1 <1>   0.0800 
 34 H        1.7820    -5.7390    -1.5650 H     1 <1>   0.0800 
 35 H       -0.6120    -5.6950    -1.7720 H     1 <1>   0.0800 
 36 H       -0.8960    -4.2740    -0.8080 H     1 <1>   0.0800 
 37 H        1.2250    -5.3740     1.9640 H     1 <1>   0.0800 
 38 H       -0.5010    -5.5960     1.9110 H     1 <1>   0.0800 
 39 H        0.1900    -4.0730     1.4000 H     1 <1>   0.0800 
 40 H       -1.1570    -7.9670    -0.2390 H     1 <1>   0.1500 
 41 H       -3.1000    -4.1740    -0.0200 H     1 <1>   0.1500 
 42 H       -3.1890    -9.0570     0.6810 H     1 <1>   0.1500 
 43 H       -5.1220    -5.2640     0.9010 H     1 <1>   0.1500 
@<TRIPOS>BOND
  1   1   2  1   
  2   1   3  1   
  3   2   4  2   
  4   2   5  1   
  5   3   6  2   
  6   3  24  1   
  7   4   6  1   
  8   5   7  1   
  9   5   8  1   
 10   5  25  1   
 11   6  26  1   
 12   7   9  am  
 13   7  10  1   
 14   8  11  1   
 15   8  27  1   
 16   8  28  1   
 17   9  12  2   
 18   9  13  1   
 19  10  11  1   
 20  10  29  1   
 21  10  30  1   
 22  11  31  1   
 23  11  32  1   
 24  13  14  1   
 25  13  33  1   
 26  13  34  1   
 27  14  15  1   
 28  14  16  1   
 29  15  17  1   
 30  15  35  1   
 31  15  36  1   
 32  16  37  1   
 33  16  38  1   
 34  16  39  1   
 35  17  18  ar  
 36  17  19  ar  
 37  18  20  ar  
 38  18  40  1   
 39  19  21  ar  
 40  19  41  1   
 41  20  22  ar  
 42  20  42  1   
 43  21  22  ar  
 44  21  43  1   
 45  22  23  1   
@<TRIPOS>SUBSTRUCTURE
  1 ****  15 GROUP 4 **** **** 0

# MOE 2024.06 (io_trps.svl 2023.06)
