@<TRIPOS>MOLECULE
NONAME
46 48 1 0 0 
SMALL
USER_CHARGES


@<TRIPOS>ATOM
  1 O        0.5940    -0.4920    -1.2830 O.2   1 <1>  -0.5700 
  2 C        1.1540    -0.6730    -0.2270 C.2   1 <1>   0.5690 
  3 N        1.9370     0.2650     0.3960 N.am  1 <1>  -0.5470 
  4 C        0.9240    -2.0440     0.4300 C.3   1 <1>   0.4040 
  5 C        2.1960     1.5980     0.0380 C.ar  1 <1>   0.1170 
  6 N       -0.3550    -2.6860    -0.0670 N.4   1 <1>  -0.9590 
  7 C        1.3340     2.3570    -0.7490 C.ar  1 <1>  -0.1500 
  8 C        3.3580     2.1980     0.5120 C.ar  1 <1>  -0.1500 
  9 C       -1.5160    -2.6020     0.8740 C.3   1 <1>   0.4230 
 10 C       -0.0850    -4.0750    -0.5550 C.3   1 <1>   0.2630 
 11 C        1.6280     3.6730    -1.0570 C.ar  1 <1>  -0.1500 
 12 C        3.6540     3.5140     0.2060 C.ar  1 <1>  -0.1500 
 13 C       -2.8140    -2.9040     0.1190 C.3   1 <1>  -0.1600 
 14 C       -1.7710    -1.1690     1.3570 C.3   1 <1>  -0.1600 
 15 C        2.7890     4.2540    -0.5800 C.ar  1 <1>  -0.1500 
 16 C       -3.1730    -1.5980    -0.6050 C.3   1 <1>  -0.0800 
 17 C       -2.5200    -0.4750     0.2090 C.3   1 <1>  -0.0800 
 18 C       -4.6720    -1.2770    -0.6810 C.3   1 <1>  -0.1600 
 19 C       -3.6460     0.4760     0.6340 C.3   1 <1>  -0.1600 
 20 C       -4.7540     0.2140    -0.3770 C.3   1 <1>   0.2000 
 21 O       -5.9790     0.5240     0.1670 O.3   1 <1>  -0.6800 
 22 H        2.4590    -0.0260     1.2230 H     1 <1>   0.3700 
 23 H        0.8910    -1.9300     1.4990 H     1 <1>   0.0800 
 24 H        1.7650    -2.6680     0.1820 H     1 <1>   0.0800 
 25 H       -0.6100    -2.0980    -0.8860 H     1 <1>   0.4500 
 26 H        0.4230     1.9330    -1.1280 H     1 <1>   0.1500 
 27 H        4.0450     1.6410     1.1210 H     1 <1>   0.1500 
 28 H       -1.3770    -3.2750     1.7050 H     1 <1>   0.0800 
 29 H        0.1660    -4.7220     0.2700 H     1 <1>   0.0800 
 30 H        0.7360    -4.0710    -1.2540 H     1 <1>   0.0800 
 31 H       -0.9480    -4.4770    -1.0580 H     1 <1>   0.0800 
 32 H        0.9530     4.2470    -1.6700 H     1 <1>   0.1500 
 33 H        4.5580     3.9660     0.5770 H     1 <1>   0.1500 
 34 H       -2.7610    -3.7400    -0.5530 H     1 <1>   0.0800 
 35 H       -3.5680    -3.1270     0.8540 H     1 <1>   0.0800 
 36 H       -2.4210    -1.2360     2.2120 H     1 <1>   0.0800 
 37 H       -0.9010    -0.6230     1.6670 H     1 <1>   0.0800 
 38 H        3.0180     5.2780    -0.8210 H     1 <1>   0.1500 
 39 H       -2.7540    -1.5920    -1.5990 H     1 <1>   0.0800 
 40 H       -1.8310     0.0570    -0.4270 H     1 <1>   0.0800 
 41 H       -5.2210    -1.8300     0.0610 H     1 <1>   0.0800 
 42 H       -5.0730    -1.4930    -1.6560 H     1 <1>   0.0800 
 43 H       -3.3270     1.5030     0.6020 H     1 <1>   0.0800 
 44 H       -3.9950     0.2390     1.6230 H     1 <1>   0.0800 
 45 H       -4.6100     0.8010    -1.2700 H     1 <1>   0.0800 
 46 H       -6.1390     0.0010     0.9730 H     1 <1>   0.4000 
@<TRIPOS>BOND
  1   1   2  2   
  2   2   3  am  
  3   2   4  1   
  4   3   5  1   
  5   3  22  1   
  6   4   6  1   
  7   4  23  1   
  8   4  24  1   
  9   5   7  ar  
 10   5   8  ar  
 11   6   9  1   
 12   6  10  1   
 13   6  25  1   
 14   7  11  ar  
 15   7  26  1   
 16   8  12  ar  
 17   8  27  1   
 18   9  13  1   
 19   9  14  1   
 20   9  28  1   
 21  10  29  1   
 22  10  30  1   
 23  10  31  1   
 24  11  15  ar  
 25  11  32  1   
 26  12  15  ar  
 27  12  33  1   
 28  13  16  1   
 29  13  34  1   
 30  13  35  1   
 31  14  17  1   
 32  14  36  1   
 33  14  37  1   
 34  15  38  1   
 35  16  17  1   
 36  16  18  1   
 37  16  39  1   
 38  17  19  1   
 39  17  40  1   
 40  18  20  1   
 41  18  41  1   
 42  18  42  1   
 43  19  20  1   
 44  19  43  1   
 45  19  44  1   
 46  20  21  1   
 47  20  45  1   
 48  21  46  1   
@<TRIPOS>SUBSTRUCTURE
  1 ****   1 GROUP 4 **** **** 0

# MOE 2024.06 (io_trps.svl 2023.06)
