@<TRIPOS>MOLECULE
NONAME
57 59 1 0 0 
SMALL
USER_CHARGES


@<TRIPOS>ATOM
  1 S       -0.1960     0.0820     0.1960 S.o2  1 <1>   1.0900 
  2 O       -0.1840    -0.3770    -1.1700 O.2   1 <1>  -0.6500 
  3 O       -0.9920    -0.5130     1.2370 O.2   1 <1>  -0.6500 
  4 C       -0.5430     1.8120     0.1180 C.3   1 <1>  -0.0550 
  5 C        1.4960     0.3060     0.7240 C.3   1 <1>  -0.0550 
  6 C        0.7620     2.3890    -0.4030 C.3   1 <1>   0.4230 
  7 C        1.9000     1.7650     0.4280 C.3   1 <1>  -0.1600 
  8 N        0.7750     3.8870    -0.4100 N.4   1 <1>  -0.9590 
  9 C        1.9640     4.4140    -1.1430 C.3   1 <1>   0.3430 
 10 C        0.6360     4.5440     0.9270 C.3   1 <1>   0.3430 
 11 C        1.7760     5.9070    -1.4010 C.3   1 <1>  -0.1600 
 12 C        0.4060     6.0400     0.7290 C.3   1 <1>  -0.1600 
 13 C        1.5150     6.7090    -0.1090 C.3   1 <1>  -0.0190 
 14 C        1.1270     8.1500    -0.4440 C.2   1 <1>   0.5690 
 15 O        0.1280     8.3120    -1.1010 O.2   1 <1>  -0.5700 
 16 N        1.9200     9.1700     0.0020 N.am  1 <1>  -0.4940 
 17 C        1.7150    10.5670    -0.1250 C.2   1 <1>  -0.0880 
 18 N        2.6940    11.4630    -0.4300 N.pl3 1 <1>   0.3140 
 19 C        0.5800    11.2920     0.0310 C.2   1 <1>  -0.1810 
 20 N        2.2210    12.7260    -0.4690 N.2   1 <1>  -0.7070 
 21 C        4.1050    11.1750    -0.7510 C.3   1 <1>   0.0960 
 22 C        0.9590    12.6100    -0.1980 C.2   1 <1>   0.1390 
 23 C       -0.8250    10.8390     0.3810 C.3   1 <1>  -0.0590 
 24 C        4.9370    10.9970     0.5270 C.3   1 <1>  -0.1600 
 25 C        6.3930    10.6440     0.1970 C.3   1 <1>  -0.1600 
 26 C        7.2100    10.4390     1.4750 C.3   1 <1>  -0.2400 
 27 H       -0.7670     2.1760     1.1010 H     1 <1>   0.0800 
 28 H       -1.3620     2.0050    -0.5480 H     1 <1>   0.0800 
 29 H        2.1350    -0.3810     0.1990 H     1 <1>   0.0800 
 30 H        1.5860     0.1080     1.7760 H     1 <1>   0.0800 
 31 H        0.8720     2.0390    -1.4200 H     1 <1>   0.0800 
 32 H        2.8290     1.7860    -0.1140 H     1 <1>   0.0800 
 33 H        2.0240     2.2740     1.3670 H     1 <1>   0.0800 
 34 H       -0.0420     4.1930    -0.9620 H     1 <1>   0.4500 
 35 H        2.0750     3.9030    -2.0870 H     1 <1>   0.0800 
 36 H        2.8570     4.2520    -0.5610 H     1 <1>   0.0800 
 37 H        1.5300     4.3900     1.5110 H     1 <1>   0.0800 
 38 H       -0.2000     4.1300     1.4670 H     1 <1>   0.0800 
 39 H        0.9560     6.0380    -2.0870 H     1 <1>   0.0800 
 40 H        2.6550     6.2930    -1.8880 H     1 <1>   0.0800 
 41 H        0.3510     6.5190     1.6920 H     1 <1>   0.0800 
 42 H       -0.5500     6.1820     0.2550 H     1 <1>   0.0800 
 43 H        2.4200     6.7200     0.4730 H     1 <1>   0.0800 
 44 H        2.7780     8.9090     0.4850 H     1 <1>   0.3700 
 45 H        4.4900    11.9970    -1.3280 H     1 <1>   0.0800 
 46 H        4.1420    10.2890    -1.3570 H     1 <1>   0.0800 
 47 H        0.2860    13.4500    -0.1560 H     1 <1>   0.1500 
 48 H       -0.7960     9.9140     0.9260 H     1 <1>   0.0800 
 49 H       -1.3920    10.6920    -0.5210 H     1 <1>   0.0800 
 50 H       -1.3150    11.5790     0.9870 H     1 <1>   0.0800 
 51 H        4.5110    10.2190     1.1340 H     1 <1>   0.0800 
 52 H        4.9120    11.9170     1.0880 H     1 <1>   0.0800 
 53 H        6.8360    11.4390    -0.3800 H     1 <1>   0.0800 
 54 H        6.4290     9.7440    -0.3930 H     1 <1>   0.0800 
 55 H        7.2060    11.3350     2.0710 H     1 <1>   0.0800 
 56 H        8.2300    10.2020     1.2260 H     1 <1>   0.0800 
 57 H        6.8060     9.6320     2.0600 H     1 <1>   0.0800 
@<TRIPOS>BOND
  1   1   2  2   
  2   1   3  2   
  3   1   4  1   
  4   1   5  1   
  5   4   6  1   
  6   4  27  1   
  7   4  28  1   
  8   5   7  1   
  9   5  29  1   
 10   5  30  1   
 11   6   7  1   
 12   6   8  1   
 13   6  31  1   
 14   7  32  1   
 15   7  33  1   
 16   8   9  1   
 17   8  10  1   
 18   8  34  1   
 19   9  11  1   
 20   9  35  1   
 21   9  36  1   
 22  10  12  1   
 23  10  37  1   
 24  10  38  1   
 25  11  13  1   
 26  11  39  1   
 27  11  40  1   
 28  12  13  1   
 29  12  41  1   
 30  12  42  1   
 31  13  14  1   
 32  13  43  1   
 33  14  15  2   
 34  14  16  am  
 35  16  17  1   
 36  16  44  1   
 37  17  18  1   
 38  17  19  2   
 39  18  20  1   
 40  18  21  1   
 41  19  22  1   
 42  19  23  1   
 43  20  22  2   
 44  21  24  1   
 45  21  45  1   
 46  21  46  1   
 47  22  47  1   
 48  23  48  1   
 49  23  49  1   
 50  23  50  1   
 51  24  25  1   
 52  24  51  1   
 53  24  52  1   
 54  25  26  1   
 55  25  53  1   
 56  25  54  1   
 57  26  55  1   
 58  26  56  1   
 59  26  57  1   
@<TRIPOS>SUBSTRUCTURE
  1 ****  13 GROUP 4 **** **** 0

# MOE 2024.06 (io_trps.svl 2023.06)
