@<TRIPOS>MOLECULE
NONAME
54 57 1 0 0 
SMALL
USER_CHARGES


@<TRIPOS>ATOM
  1 O        0.2400     0.5650    -0.8970 O.2   1 <1>  -0.5700 
  2 C       -0.3610     1.6000    -0.6660 C.2   1 <1>   0.7150 
  3 N       -1.7170     1.5180    -0.3970 N.am  1 <1>  -0.6600 
  4 C        0.3830     2.8380    -0.6900 C.2   1 <1>   0.0550 
  5 C       -2.6980     2.6290    -0.6220 C.3   1 <1>   0.1400 
  6 C       -2.3610     0.2260    -0.0260 C.3   1 <1>   0.1400 
  7 O       -0.0190     3.9250    -0.0720 O.3   1 <1>  -0.0190 
  8 C        1.5700     3.1540    -1.2550 C.2   1 <1>  -0.1500 
  9 C       -3.5580     2.8730     0.6330 C.3   1 <1>   0.1440 
 10 C       -3.2300     0.4150     1.2250 C.3   1 <1>  -0.1600 
 11 N        0.8000     4.9220    -0.1990 N.2   1 <1>  -0.4100 
 12 C        1.7790     4.4830    -0.9120 C.2   1 <1>   0.1080 
 13 C       -4.5460     3.9810     0.3200 C.ar  1 <1>   0.1660 
 14 C       -4.2480     1.5570     1.0510 C.3   1 <1>  -0.1600 
 15 C       -2.7350     3.4920     1.7950 C.3   1 <1>  -0.1600 
 16 C        2.9980     5.3030    -1.3230 C.3   1 <1>   0.1010 
 17 N       -5.6180     3.8560    -0.4210 N.ar  1 <1>  -0.6200 
 18 C       -4.1720     5.1580     0.8950 C.ar  1 <1>  -0.1430 
 19 C       -2.8910     5.0180     1.6800 C.3   1 <1>  -0.0170 
 20 C        3.7500     5.8160    -0.0890 C.3   1 <1>  -0.2400 
 21 C        2.5870     6.4730    -2.2250 C.3   1 <1>  -0.2400 
 22 C       -6.3410     4.9700    -0.5680 C.ar  1 <1>   0.7200 
 23 C       -4.9720     6.2510     0.6840 C.ar  1 <1>   0.1600 
 24 N       -6.0610     6.1680    -0.0450 N.ar  1 <1>  -0.6200 
 25 N       -7.4860     4.8740    -1.3360 N.pl3 1 <1>  -0.8380 
 26 C       -8.0900     3.5620    -1.6970 C.3   1 <1>   0.1290 
 27 C       -8.2130     6.0780    -1.8240 C.3   1 <1>   0.1290 
 28 H       -3.3490     2.3470    -1.4320 H     1 <1>   0.0800 
 29 H       -2.2090     3.5380    -0.9180 H     1 <1>   0.0800 
 30 H       -1.6170    -0.5280     0.1680 H     1 <1>   0.0800 
 31 H       -2.9700    -0.1090    -0.8490 H     1 <1>   0.0800 
 32 H        2.2160     2.5220    -1.8350 H     1 <1>   0.1500 
 33 H       -2.5890     0.6180     2.0650 H     1 <1>   0.0800 
 34 H       -3.7520    -0.5020     1.4310 H     1 <1>   0.0800 
 35 H       -4.9520     1.2770     0.2850 H     1 <1>   0.0800 
 36 H       -4.8060     1.7020     1.9590 H     1 <1>   0.0800 
 37 H       -1.7040     3.1890     1.7880 H     1 <1>   0.0800 
 38 H       -3.1640     3.1880     2.7330 H     1 <1>   0.0800 
 39 H        3.6620     4.6640    -1.8800 H     1 <1>   0.0800 
 40 H       -2.0750     5.4460     1.1240 H     1 <1>   0.0800 
 41 H       -2.9590     5.4840     2.6480 H     1 <1>   0.0800 
 42 H        3.1190     6.4700     0.4880 H     1 <1>   0.0800 
 43 H        4.6320     6.3560    -0.3830 H     1 <1>   0.0800 
 44 H        4.0430     4.9900     0.5330 H     1 <1>   0.0800 
 45 H        1.9300     7.1390    -1.6940 H     1 <1>   0.0800 
 46 H        2.0710     6.1040    -3.0930 H     1 <1>   0.0800 
 47 H        3.4540     7.0220    -2.5460 H     1 <1>   0.0800 
 48 H       -4.7180     7.2030     1.1170 H     1 <1>   0.1500 
 49 H       -7.8530     2.8190    -0.9540 H     1 <1>   0.0800 
 50 H       -7.7050     3.2390    -2.6490 H     1 <1>   0.0800 
 51 H       -9.1600     3.6500    -1.7560 H     1 <1>   0.0800 
 52 H       -7.5320     6.9000    -1.9620 H     1 <1>   0.0800 
 53 H       -8.9610     6.3620    -1.1050 H     1 <1>   0.0800 
 54 H       -8.6850     5.8680    -2.7680 H     1 <1>   0.0800 
@<TRIPOS>BOND
  1   1   2  2   
  2   2   3  am  
  3   2   4  1   
  4   3   5  1   
  5   3   6  1   
  6   4   7  1   
  7   4   8  2   
  8   5   9  1   
  9   5  28  1   
 10   5  29  1   
 11   6  10  1   
 12   6  30  1   
 13   6  31  1   
 14   7  11  1   
 15   8  12  1   
 16   8  32  1   
 17   9  13  1   
 18   9  14  1   
 19   9  15  1   
 20  10  14  1   
 21  10  33  1   
 22  10  34  1   
 23  11  12  2   
 24  12  16  1   
 25  13  17  ar  
 26  13  18  ar  
 27  14  35  1   
 28  14  36  1   
 29  15  19  1   
 30  15  37  1   
 31  15  38  1   
 32  16  20  1   
 33  16  21  1   
 34  16  39  1   
 35  17  22  ar  
 36  18  19  1   
 37  18  23  ar  
 38  19  40  1   
 39  19  41  1   
 40  20  42  1   
 41  20  43  1   
 42  20  44  1   
 43  21  45  1   
 44  21  46  1   
 45  21  47  1   
 46  22  24  ar  
 47  22  25  1   
 48  23  24  ar  
 49  23  48  1   
 50  25  26  1   
 51  25  27  1   
 52  26  49  1   
 53  26  50  1   
 54  26  51  1   
 55  27  52  1   
 56  27  53  1   
 57  27  54  1   
@<TRIPOS>SUBSTRUCTURE
  1 ****   5 GROUP 4 **** **** 0

# MOE 2024.06 (io_trps.svl 2023.06)
