@<TRIPOS>MOLECULE
NONAME
49 51 1 0 0 
SMALL
USER_CHARGES


@<TRIPOS>ATOM
  1 F        1.0980    -0.3600     2.0610 F     1 <1>  -0.1900 
  2 C        2.1320    -0.5710     1.2920 C.ar  1 <1>   0.1900 
  3 C        2.7520     0.5120     0.6910 C.ar  1 <1>  -0.1440 
  4 C        2.5560    -1.8730     1.1070 C.ar  1 <1>  -0.1500 
  5 C        3.8470     0.2590    -0.1290 C.ar  1 <1>  -0.1500 
  6 C        2.2170     1.9170     0.9420 C.3   1 <1>   0.5660 
  7 C        3.6460    -2.1050     0.2870 C.ar  1 <1>  -0.1500 
  8 C        4.2870    -1.0410    -0.3270 C.ar  1 <1>  -0.1500 
  9 N        1.6750     2.5100    -0.3200 N.4   1 <1>  -0.9590 
 10 C        3.3190     2.8130     1.5830 C.3   1 <1>   0.2090 
 11 C        0.6210     3.5190    -0.0970 C.3   1 <1>   0.3430 
 12 C        1.1660     1.5840    -1.3560 C.3   1 <1>   0.3430 
 13 N        3.3160     4.2440     1.1200 N.pl3 1 <1>  -0.8690 
 14 C        0.0290     3.7410    -1.4800 C.3   1 <1>  -0.1600 
 15 C        0.3150     2.4590    -2.2680 C.3   1 <1>  -0.1600 
 16 C        4.0980     4.6810     0.0740 C.ar  1 <1>   0.4100 
 17 N        4.1920     3.8180    -0.9390 N.ar  1 <1>  -0.6200 
 18 C        4.7150     5.9510     0.0980 C.ar  1 <1>   0.0860 
 19 C        4.9530     4.1870    -1.9520 C.ar  1 <1>   0.1600 
 20 C        4.5310     6.8710     1.2030 C.2   1 <1>   0.5440 
 21 C        5.5100     6.2900    -0.9900 C.ar  1 <1>  -0.1500 
 22 C        5.6270     5.3920    -2.0250 C.ar  1 <1>  -0.1500 
 23 O        4.3190     6.4700     2.3340 O.2   1 <1>  -0.5700 
 24 N        4.5750     8.2250     0.9970 N.am  1 <1>  -0.7300 
 25 C        4.4370     9.2670     2.0500 C.3   1 <1>   0.0600 
 26 H        2.0450    -2.6860     1.5940 H     1 <1>   0.1500 
 27 H        4.3670     1.0660    -0.6200 H     1 <1>   0.1500 
 28 H        1.4090     1.8430     1.6500 H     1 <1>   0.0800 
 29 H        3.9970    -3.1120     0.1280 H     1 <1>   0.1500 
 30 H        5.1370    -1.2290    -0.9630 H     1 <1>   0.1500 
 31 H        2.4890     3.0370    -0.6990 H     1 <1>   0.4500 
 32 H        4.2890     2.3940     1.3780 H     1 <1>   0.0800 
 33 H        3.1990     2.7880     2.6520 H     1 <1>   0.0800 
 34 H        1.0230     4.4310     0.3160 H     1 <1>   0.0800 
 35 H       -0.1330     3.1220     0.5630 H     1 <1>   0.0800 
 36 H        0.5490     0.8280    -0.8970 H     1 <1>   0.0800 
 37 H        1.9730     1.1110    -1.8930 H     1 <1>   0.0800 
 38 H        3.3820     4.9040     1.9220 H     1 <1>   0.4000 
 39 H        0.5190     4.5800    -1.9440 H     1 <1>   0.0800 
 40 H       -1.0240     3.9510    -1.4160 H     1 <1>   0.0800 
 41 H       -0.5920     1.9430    -2.5310 H     1 <1>   0.0800 
 42 H        0.8570     2.6830    -3.1700 H     1 <1>   0.0800 
 43 H        5.0540     3.4970    -2.7750 H     1 <1>   0.1500 
 44 H        6.0340     7.2300    -1.0260 H     1 <1>   0.1500 
 45 H        6.2350     5.6190    -2.8840 H     1 <1>   0.1500 
 46 H        4.6610     8.5820     0.0440 H     1 <1>   0.3700 
 47 H        4.3930     8.8170     3.0280 H     1 <1>   0.0800 
 48 H        3.5350     9.8310     1.8880 H     1 <1>   0.0800 
 49 H        5.2820     9.9330     2.0160 H     1 <1>   0.0800 
@<TRIPOS>BOND
  1   1   2  1   
  2   2   3  ar  
  3   2   4  ar  
  4   3   5  ar  
  5   3   6  1   
  6   4   7  ar  
  7   4  26  1   
  8   5   8  ar  
  9   5  27  1   
 10   6   9  1   
 11   6  10  1   
 12   6  28  1   
 13   7   8  ar  
 14   7  29  1   
 15   8  30  1   
 16   9  11  1   
 17   9  12  1   
 18   9  31  1   
 19  10  13  1   
 20  10  32  1   
 21  10  33  1   
 22  11  14  1   
 23  11  34  1   
 24  11  35  1   
 25  12  15  1   
 26  12  36  1   
 27  12  37  1   
 28  13  16  1   
 29  13  38  1   
 30  14  15  1   
 31  14  39  1   
 32  14  40  1   
 33  15  41  1   
 34  15  42  1   
 35  16  17  ar  
 36  16  18  ar  
 37  17  19  ar  
 38  18  20  1   
 39  18  21  ar  
 40  19  22  ar  
 41  19  43  1   
 42  20  23  2   
 43  20  24  am  
 44  21  22  ar  
 45  21  44  1   
 46  22  45  1   
 47  24  25  1   
 48  24  46  1   
 49  25  47  1   
 50  25  48  1   
 51  25  49  1   
@<TRIPOS>SUBSTRUCTURE
  1 ****  13 GROUP 4 **** **** 0

# MOE 2024.06 (io_trps.svl 2023.06)
