@<TRIPOS>MOLECULE
NONAME
59 62 1 0 0 
SMALL
USER_CHARGES


@<TRIPOS>ATOM
  1 O        0.9390    -1.1200     0.3860 O.3   1 <1>  -0.5600 
  2 C        0.1570    -1.7270    -0.6210 C.3   1 <1>   0.2800 
  3 C        1.0650     0.2770     0.3470 C.3   1 <1>   0.1200 
  4 C       -1.1220    -0.8960    -0.8980 C.3   1 <1>  -0.1600 
  5 C       -0.1920    -3.1370    -0.0960 C.3   1 <1>  -0.1600 
  6 C        1.0260    -1.9010    -1.8810 C.3   1 <1>  -0.1600 
  7 C       -0.2970     0.9550     0.5730 C.3   1 <1>  -0.1600 
  8 C       -1.4850     0.0400     0.2580 C.3   1 <1>   0.2800 
  9 C        0.9800    -4.1290    -0.1040 C.3   1 <1>   0.3430 
 10 C        2.3110    -2.7040    -1.6270 C.3   1 <1>   0.3430 
 11 O       -1.7070    -0.7300     1.3690 O.3   1 <1>  -0.6800 
 12 C       -2.7710     0.8190     0.0000 C.3   1 <1>  -0.2400 
 13 N        2.2510    -3.3970    -0.3080 N.4   1 <1>  -0.9590 
 14 C        3.4730    -4.1760     0.0120 C.3   1 <1>   0.4860 
 15 C        4.6470    -3.2170     0.0420 C.ar  1 <1>  -0.1440 
 16 C        5.6020    -3.2430    -0.9640 C.ar  1 <1>  -0.1500 
 17 C        4.7690    -2.2910     1.0680 C.ar  1 <1>  -0.1500 
 18 C        6.6540    -2.3460    -0.9460 C.ar  1 <1>  -0.1500 
 19 C        5.8260    -1.4000     1.0780 C.ar  1 <1>  -0.1500 
 20 C        6.7840    -1.4070     0.0710 C.ar  1 <1>   0.0000 
 21 C        7.8840    -0.4690     0.0830 C.ar  1 <1>   0.0000 
 22 C        9.2030    -0.9140     0.0910 C.ar  1 <1>  -0.1500 
 23 C        7.6550     0.9030     0.0850 C.ar  1 <1>  -0.1500 
 24 C       10.2640    -0.0240     0.1000 C.ar  1 <1>  -0.1440 
 25 C        8.7070     1.8000     0.0940 C.ar  1 <1>  -0.1500 
 26 C       10.0100     1.3370     0.1000 C.ar  1 <1>  -0.1500 
 27 C       11.6960    -0.5290     0.1070 C.3   1 <1>  -0.0970 
 28 H        1.4750     0.5590    -0.6070 H     1 <1>   0.0800 
 29 H        1.7590     0.5720     1.1150 H     1 <1>   0.0800 
 30 H       -1.9570    -1.5340    -1.1260 H     1 <1>   0.0800 
 31 H       -0.9670    -0.2890    -1.7720 H     1 <1>   0.0800 
 32 H       -0.9720    -3.5640    -0.7010 H     1 <1>   0.0800 
 33 H       -0.5900    -3.0670     0.9000 H     1 <1>   0.0800 
 34 H        1.2840    -0.9470    -2.3040 H     1 <1>   0.0800 
 35 H        0.4500    -2.4160    -2.6290 H     1 <1>   0.0800 
 36 H       -0.3340     1.8190    -0.0650 H     1 <1>   0.0800 
 37 H       -0.3700     1.3190     1.5830 H     1 <1>   0.0800 
 38 H        0.8440    -4.8450    -0.8980 H     1 <1>   0.0800 
 39 H        1.0000    -4.6610     0.8340 H     1 <1>   0.0800 
 40 H        3.1500    -2.0260    -1.6290 H     1 <1>   0.0800 
 41 H        2.4570    -3.4190    -2.4200 H     1 <1>   0.0800 
 42 H       -0.8380    -1.0540     1.6750 H     1 <1>   0.4000 
 43 H       -2.6660     1.4400    -0.8710 H     1 <1>   0.0800 
 44 H       -2.9970     1.4500     0.8420 H     1 <1>   0.0800 
 45 H       -3.5920     0.1440    -0.1600 H     1 <1>   0.0800 
 46 H        2.2080    -2.6080     0.3660 H     1 <1>   0.4500 
 47 H        3.6350    -4.9400    -0.7300 H     1 <1>   0.0800 
 48 H        3.3730    -4.6460     0.9770 H     1 <1>   0.0800 
 49 H        5.5410    -3.9550    -1.7690 H     1 <1>   0.1500 
 50 H        4.0510    -2.2530     1.8700 H     1 <1>   0.1500 
 51 H        7.3920    -2.3660    -1.7300 H     1 <1>   0.1500 
 52 H        5.9200    -0.6870     1.8800 H     1 <1>   0.1500 
 53 H        9.3920    -1.9720     0.0930 H     1 <1>   0.1500 
 54 H        6.6450     1.2700     0.0770 H     1 <1>   0.1500 
 55 H        8.5140     2.8580     0.0940 H     1 <1>   0.1500 
 56 H       10.8250     2.0390     0.1050 H     1 <1>   0.1500 
 57 H       11.7380    -1.5520     0.4350 H     1 <1>   0.0800 
 58 H       12.2950     0.0650     0.7730 H     1 <1>   0.0800 
 59 H       12.1080    -0.4650    -0.8840 H     1 <1>   0.0800 
@<TRIPOS>BOND
  1   1   2  1   
  2   1   3  1   
  3   2   4  1   
  4   2   5  1   
  5   2   6  1   
  6   3   7  1   
  7   3  28  1   
  8   3  29  1   
  9   4   8  1   
 10   4  30  1   
 11   4  31  1   
 12   5   9  1   
 13   5  32  1   
 14   5  33  1   
 15   6  10  1   
 16   6  34  1   
 17   6  35  1   
 18   7   8  1   
 19   7  36  1   
 20   7  37  1   
 21   8  11  1   
 22   8  12  1   
 23   9  13  1   
 24   9  38  1   
 25   9  39  1   
 26  10  13  1   
 27  10  40  1   
 28  10  41  1   
 29  11  42  1   
 30  12  43  1   
 31  12  44  1   
 32  12  45  1   
 33  13  14  1   
 34  13  46  1   
 35  14  15  1   
 36  14  47  1   
 37  14  48  1   
 38  15  16  ar  
 39  15  17  ar  
 40  16  18  ar  
 41  16  49  1   
 42  17  19  ar  
 43  17  50  1   
 44  18  20  ar  
 45  18  51  1   
 46  19  20  ar  
 47  19  52  1   
 48  20  21  1   
 49  21  22  ar  
 50  21  23  ar  
 51  22  24  ar  
 52  22  53  1   
 53  23  25  ar  
 54  23  54  1   
 55  24  26  ar  
 56  24  27  1   
 57  25  26  ar  
 58  25  55  1   
 59  26  56  1   
 60  27  57  1   
 61  27  58  1   
 62  27  59  1   
@<TRIPOS>SUBSTRUCTURE
  1 ****  17 GROUP 4 **** **** 0

# MOE 2024.06 (io_trps.svl 2023.06)
