@<TRIPOS>MOLECULE
NONAME
46 48 1 0 0 
SMALL
USER_CHARGES


@<TRIPOS>ATOM
  1 O        0.4090     0.7450    -0.5670 O.2   1 <1>  -0.5700 
  2 C        0.1530     1.9300    -0.4070 C.2   1 <1>   0.5440 
  3 N        1.1740     2.8460    -0.2000 N.am  1 <1>  -0.2980 
  4 C       -1.1900     2.4290    -0.4060 C.ar  1 <1>   0.0860 
  5 N        0.9940     4.1860    -0.0860 N.2   1 <1>  -0.5120 
  6 C        2.5730     2.3580    -0.1380 C.3   1 <1>   0.0600 
  7 C       -1.3900     3.8130    -0.2460 C.ar  1 <1>   0.0860 
  8 C       -2.2880     1.5710    -0.5330 C.ar  1 <1>  -0.1500 
  9 C       -0.2210     4.6740    -0.1580 C.2   1 <1>   0.3640 
 10 C       -2.7230     4.2550    -0.1560 C.ar  1 <1>  -0.1500 
 11 C       -3.5780     2.0430    -0.4720 C.ar  1 <1>  -0.1500 
 12 C       -0.3440     6.1230    -0.1390 C.2   1 <1>   0.6300 
 13 C       -3.7930     3.3960    -0.2740 C.ar  1 <1>  -0.1500 
 14 O       -1.2540     6.7160    -0.6980 O.2   1 <1>  -0.5700 
 15 N        0.6310     6.8540     0.4940 N.am  1 <1>  -0.4930 
 16 C        0.7950     8.2550     0.6290 C.2   1 <1>   0.0630 
 17 C       -0.1420     9.2390     0.9590 C.2   1 <1>   0.1080 
 18 C        1.9590     8.9250     0.4810 C.2   1 <1>  -0.3320 
 19 N        0.3880    10.4210     1.0110 N.2   1 <1>  -0.7070 
 20 C       -1.6110     9.0250     1.2500 C.3   1 <1>  -0.0590 
 21 N        1.6840    10.2340     0.7100 N.pl3 1 <1>   0.3140 
 22 C        3.3370     8.3880     0.1180 C.3   1 <1>  -0.0600 
 23 C        2.6200    11.3760     0.6530 C.3   1 <1>   0.0960 
 24 C        2.6880    11.9590    -0.7660 C.3   1 <1>  -0.1600 
 25 C        3.6670    13.1370    -0.8410 C.3   1 <1>  -0.2400 
 26 H        2.6680     1.6430     0.6600 H     1 <1>   0.0800 
 27 H        3.2460     3.1780     0.0380 H     1 <1>   0.0800 
 28 H        2.8280     1.8830    -1.0680 H     1 <1>   0.0800 
 29 H       -2.1130     0.5170    -0.6760 H     1 <1>   0.1500 
 30 H       -2.9520     5.2910     0.0110 H     1 <1>   0.1500 
 31 H       -4.4140     1.3710    -0.5710 H     1 <1>   0.1500 
 32 H       -4.8010     3.7710    -0.2120 H     1 <1>   0.1500 
 33 H        1.4540     6.3030     0.7410 H     1 <1>   0.3700 
 34 H       -1.7620     8.0720     1.7200 H     1 <1>   0.0800 
 35 H       -2.1650     9.0610     0.3310 H     1 <1>   0.0800 
 36 H       -1.9680     9.7990     1.9040 H     1 <1>   0.0800 
 37 H        3.2990     7.3290    -0.0620 H     1 <1>   0.0800 
 38 H        4.0300     8.5730     0.9200 H     1 <1>   0.0800 
 39 H        3.6980     8.8670    -0.7740 H     1 <1>   0.0800 
 40 H        3.5890    11.0460     0.9730 H     1 <1>   0.0800 
 41 H        2.2690    12.1260     1.3400 H     1 <1>   0.0800 
 42 H        1.7060    12.2960    -1.0530 H     1 <1>   0.0800 
 43 H        2.9990    11.1950    -1.4560 H     1 <1>   0.0800 
 44 H        3.3610    13.9240    -0.1740 H     1 <1>   0.0800 
 45 H        3.6910    13.5300    -1.8420 H     1 <1>   0.0800 
 46 H        4.6610    12.8210    -0.5740 H     1 <1>   0.0800 
@<TRIPOS>BOND
  1   1   2  2   
  2   2   3  am  
  3   2   4  1   
  4   3   5  1   
  5   3   6  1   
  6   4   7  ar  
  7   4   8  ar  
  8   5   9  2   
  9   6  26  1   
 10   6  27  1   
 11   6  28  1   
 12   7   9  1   
 13   7  10  ar  
 14   8  11  ar  
 15   8  29  1   
 16   9  12  1   
 17  10  13  ar  
 18  10  30  1   
 19  11  13  ar  
 20  11  31  1   
 21  12  14  2   
 22  12  15  am  
 23  13  32  1   
 24  15  16  1   
 25  15  33  1   
 26  16  17  1   
 27  16  18  2   
 28  17  19  2   
 29  17  20  1   
 30  18  21  1   
 31  18  22  1   
 32  19  21  1   
 33  20  34  1   
 34  20  35  1   
 35  20  36  1   
 36  21  23  1   
 37  22  37  1   
 38  22  38  1   
 39  22  39  1   
 40  23  24  1   
 41  23  40  1   
 42  23  41  1   
 43  24  25  1   
 44  24  42  1   
 45  24  43  1   
 46  25  44  1   
 47  25  45  1   
 48  25  46  1   
@<TRIPOS>SUBSTRUCTURE
  1 ****  12 GROUP 4 **** **** 0

# MOE 2024.06 (io_trps.svl 2023.06)
