@<TRIPOS>MOLECULE
NONAME
51 55 1 0 0 
SMALL
USER_CHARGES


@<TRIPOS>ATOM
  1 O       -0.8860     0.4920    -1.1190 O.2   1 <1>  -0.5700 
  2 C       -1.8850     1.1590    -0.9090 C.2   1 <1>   0.6160 
  3 N       -3.1120     0.6220    -1.2370 N.am  1 <1>  -0.6600 
  4 C       -1.7420     2.4760    -0.2970 C.2   1 <1>   0.1140 
  5 C       -4.3300     0.7950    -0.3990 C.3   1 <1>   0.1400 
  6 C       -3.2410    -0.4340    -2.2800 C.3   1 <1>   0.1400 
  7 N       -0.6390     2.7130     0.5150 N.pl3 1 <1>  -0.6000 
  8 C       -2.6150     3.5130    -0.4790 C.2   1 <1>  -0.1360 
  9 C       -4.6600    -0.5340     0.2850 C.3   1 <1>  -0.1600 
 10 C       -3.5660    -1.7710    -1.6150 C.3   1 <1>  -0.1600 
 11 C       -0.4120     3.9090     1.1450 C.2   1 <1>  -0.0380 
 12 C       -2.4360     4.7650     0.1530 C.2   1 <1>   0.5410 
 13 C       -4.8130    -1.6720    -0.7330 C.3   1 <1>   0.4600 
 14 C       -1.2940     4.9270     0.9760 C.2   1 <1>  -0.1360 
 15 C        0.8360     4.0100     1.9970 C.3   1 <1>  -0.1020 
 16 O       -3.2470     5.6730     0.0000 O.2   1 <1>  -0.5700 
 17 O       -5.8900    -1.3750    -1.5970 O.3   1 <1>  -0.5600 
 18 C       -5.0770    -3.0020    -0.0380 C.2   1 <1>  -0.3320 
 19 C       -7.1960    -1.6580    -1.1530 C.3   1 <1>   0.1200 
 20 N       -4.2030    -3.6920     0.7560 N.pl3 1 <1>   0.0330 
 21 C       -6.2350    -3.6860    -0.1230 C.2   1 <1>  -0.1810 
 22 C       -7.3960    -3.1670    -0.9330 C.3   1 <1>   0.0210 
 23 C       -4.8280    -4.8410     1.1770 C.ar  1 <1>  -0.1520 
 24 C       -6.1110    -4.8680     0.6370 C.ar  1 <1>   0.0000 
 25 C       -4.3740    -5.8780     1.9960 C.ar  1 <1>  -0.1500 
 26 C       -6.9570    -5.9460     0.9160 C.ar  1 <1>  -0.1500 
 27 C       -5.2170    -6.9320     2.2630 C.ar  1 <1>  -0.1500 
 28 C       -6.5090    -6.9670     1.7230 C.ar  1 <1>  -0.1500 
 29 H       -5.1510     1.1020    -1.0250 H     1 <1>   0.0800 
 30 H       -4.1750     1.5470     0.3540 H     1 <1>   0.0800 
 31 H       -2.3270    -0.5180    -2.8450 H     1 <1>   0.0800 
 32 H       -4.0290    -0.1620    -2.9620 H     1 <1>   0.0800 
 33 H        0.0460     1.9440     0.5760 H     1 <1>   0.4000 
 34 H       -3.4720     3.4230    -1.1170 H     1 <1>   0.1500 
 35 H       -5.5540    -0.4390     0.8700 H     1 <1>   0.0800 
 36 H       -3.8630    -0.7740     0.9630 H     1 <1>   0.0800 
 37 H       -2.7200    -2.0690    -1.0230 H     1 <1>   0.0800 
 38 H       -3.7230    -2.5250    -2.3640 H     1 <1>   0.0800 
 39 H       -1.1710     5.8850     1.4430 H     1 <1>   0.1500 
 40 H        0.8060     3.2750     2.7810 H     1 <1>   0.0800 
 41 H        0.9130     4.9850     2.4430 H     1 <1>   0.0800 
 42 H        1.7080     3.8400     1.3910 H     1 <1>   0.0800 
 43 H       -7.8820    -1.2990    -1.8990 H     1 <1>   0.0800 
 44 H       -7.3700    -1.1220    -0.2370 H     1 <1>   0.0800 
 45 H       -3.2420    -3.4240     0.9890 H     1 <1>   0.2700 
 46 H       -7.4330    -3.6750    -1.8790 H     1 <1>   0.0800 
 47 H       -8.3190    -3.3390    -0.4110 H     1 <1>   0.0800 
 48 H       -3.3810    -5.8450     2.4060 H     1 <1>   0.1500 
 49 H       -7.9440    -5.9590     0.4930 H     1 <1>   0.1500 
 50 H       -4.8910    -7.7430     2.8900 H     1 <1>   0.1500 
 51 H       -7.1470    -7.8030     1.9460 H     1 <1>   0.1500 
@<TRIPOS>BOND
  1   1   2  2   
  2   2   3  am  
  3   2   4  1   
  4   3   5  1   
  5   3   6  1   
  6   4   7  1   
  7   4   8  2   
  8   5   9  1   
  9   5  29  1   
 10   5  30  1   
 11   6  10  1   
 12   6  31  1   
 13   6  32  1   
 14   7  11  1   
 15   7  33  1   
 16   8  12  1   
 17   8  34  1   
 18   9  13  1   
 19   9  35  1   
 20   9  36  1   
 21  10  13  1   
 22  10  37  1   
 23  10  38  1   
 24  11  14  2   
 25  11  15  1   
 26  12  14  1   
 27  12  16  2   
 28  13  17  1   
 29  13  18  1   
 30  14  39  1   
 31  15  40  1   
 32  15  41  1   
 33  15  42  1   
 34  17  19  1   
 35  18  20  1   
 36  18  21  2   
 37  19  22  1   
 38  19  43  1   
 39  19  44  1   
 40  20  23  1   
 41  20  45  1   
 42  21  22  1   
 43  21  24  1   
 44  22  46  1   
 45  22  47  1   
 46  23  24  ar  
 47  23  25  ar  
 48  24  26  ar  
 49  25  27  ar  
 50  25  48  1   
 51  26  28  ar  
 52  26  49  1   
 53  27  28  ar  
 54  27  50  1   
 55  28  51  1   
@<TRIPOS>SUBSTRUCTURE
  1 ****   9 GROUP 4 **** **** 0

# MOE 2024.06 (io_trps.svl 2023.06)
