@<TRIPOS>MOLECULE
NONAME
56 58 1 0 0 
SMALL
USER_CHARGES


@<TRIPOS>ATOM
  1 O       -0.6680     0.6700    -0.5430 O.2   1 <1>  -0.5700 
  2 C       -1.7040     0.5680     0.0770 C.2   1 <1>   0.5690 
  3 N       -2.1580    -0.6620     0.5070 N.am  1 <1>  -0.5090 
  4 C       -2.4850     1.8670     0.3360 C.3   1 <1>  -0.0190 
  5 C       -1.3650    -1.8840     0.2200 C.3   1 <1>   0.0490 
  6 C       -3.2820    -0.8690     1.4670 C.3   1 <1>   0.2840 
  7 C       -3.2370     2.3150    -0.9320 C.3   1 <1>  -0.1600 
  8 C       -1.6090     3.0300     0.8630 C.3   1 <1>  -0.1600 
  9 C       -1.2460    -2.3170    -1.2080 C.3   1 <1>  -0.2000 
 10 C       -2.0360    -3.1420    -0.2470 C.3   1 <1>  -0.2000 
 11 C       -4.6300    -0.4310     0.9000 C.ar  1 <1>  -0.1440 
 12 C       -4.2350     3.4520    -0.6300 C.3   1 <1>   0.2000 
 13 C       -2.2800     4.4140     0.7150 C.3   1 <1>  -0.1600 
 14 C       -5.0020    -0.7230    -0.4030 C.ar  1 <1>  -0.1500 
 15 C       -5.5050     0.2890     1.7000 C.ar  1 <1>  -0.1500 
 16 O       -4.3340     4.2780    -1.7660 O.3   1 <1>  -0.5600 
 17 C       -3.8050     4.3100     0.5910 C.3   1 <1>   0.2000 
 18 C       -6.2180    -0.2880    -0.9020 C.ar  1 <1>  -0.1500 
 19 C       -6.7200     0.7220     1.2000 C.ar  1 <1>  -0.1500 
 20 C       -5.0660     3.7460    -2.8270 C.3   1 <1>   0.0400 
 21 O       -4.3120     5.5850     0.4490 O.3   1 <1>  -0.6800 
 22 C       -7.0880     0.4430    -0.1070 C.ar  1 <1>  -0.1430 
 23 C       -8.4270     0.9140    -0.6720 C.3   1 <1>   0.0630 
 24 C       -8.5870     2.4330    -0.5420 C.3   1 <1>  -0.2400 
 25 C       -9.5840     0.1880     0.0200 C.3   1 <1>  -0.2400 
 26 H       -3.2130     1.6880     1.0980 H     1 <1>   0.0800 
 27 H       -0.4840    -1.9570     0.8370 H     1 <1>   0.1000 
 28 H       -3.3450    -1.9080     1.7380 H     1 <1>   0.0800 
 29 H       -3.0650    -0.3200     2.3650 H     1 <1>   0.0800 
 30 H       -3.7690     1.4840    -1.3540 H     1 <1>   0.0800 
 31 H       -2.5100     2.6490    -1.6530 H     1 <1>   0.0800 
 32 H       -1.3820     2.8460     1.8980 H     1 <1>   0.0800 
 33 H       -0.6720     3.0560     0.3320 H     1 <1>   0.0800 
 34 H       -1.7550    -1.7330    -1.9550 H     1 <1>   0.1000 
 35 H       -0.2950    -2.6850    -1.5500 H     1 <1>   0.1000 
 36 H       -1.6260    -4.0900     0.0530 H     1 <1>   0.1000 
 37 H       -3.1040    -3.1740    -0.3650 H     1 <1>   0.1000 
 38 H       -5.2070     3.0380    -0.4170 H     1 <1>   0.0800 
 39 H       -1.9020     4.8840    -0.1760 H     1 <1>   0.0800 
 40 H       -2.0230     5.0330     1.5570 H     1 <1>   0.0800 
 41 H       -4.3410    -1.2820    -1.0430 H     1 <1>   0.1500 
 42 H       -5.2490     0.5210     2.7190 H     1 <1>   0.1500 
 43 H       -4.2100     3.8940     1.4970 H     1 <1>   0.0800 
 44 H       -6.4820    -0.5260    -1.9170 H     1 <1>   0.1500 
 45 H       -7.3820     1.2770     1.8410 H     1 <1>   0.1500 
 46 H       -5.1050     4.4840    -3.6080 H     1 <1>   0.0800 
 47 H       -6.0630     3.5180    -2.4940 H     1 <1>   0.0800 
 48 H       -4.5780     2.8600    -3.1950 H     1 <1>   0.0800 
 49 H       -4.3600     5.7410    -0.5220 H     1 <1>   0.4000 
 50 H       -8.4640     0.6700    -1.7200 H     1 <1>   0.0800 
 51 H       -8.6370     2.7300     0.4900 H     1 <1>   0.0800 
 52 H       -9.4880     2.7540    -1.0330 H     1 <1>   0.0800 
 53 H       -7.7520     2.9320    -0.9990 H     1 <1>   0.0800 
 54 H       -9.6120     0.4260     1.0680 H     1 <1>   0.0800 
 55 H       -9.4640    -0.8750    -0.0860 H     1 <1>   0.0800 
 56 H      -10.5220     0.4720    -0.4230 H     1 <1>   0.0800 
@<TRIPOS>BOND
  1   1   2  2   
  2   2   3  am  
  3   2   4  1   
  4   3   5  1   
  5   3   6  1   
  6   4   7  1   
  7   4   8  1   
  8   4  26  1   
  9   5   9  1   
 10   5  10  1   
 11   5  27  1   
 12   6  11  1   
 13   6  28  1   
 14   6  29  1   
 15   7  12  1   
 16   7  30  1   
 17   7  31  1   
 18   8  13  1   
 19   8  32  1   
 20   8  33  1   
 21   9  10  1   
 22   9  34  1   
 23   9  35  1   
 24  10  36  1   
 25  10  37  1   
 26  11  14  ar  
 27  11  15  ar  
 28  12  16  1   
 29  12  17  1   
 30  12  38  1   
 31  13  17  1   
 32  13  39  1   
 33  13  40  1   
 34  14  18  ar  
 35  14  41  1   
 36  15  19  ar  
 37  15  42  1   
 38  16  20  1   
 39  17  21  1   
 40  17  43  1   
 41  18  22  ar  
 42  18  44  1   
 43  19  22  ar  
 44  19  45  1   
 45  20  46  1   
 46  20  47  1   
 47  20  48  1   
 48  21  49  1   
 49  22  23  1   
 50  23  24  1   
 51  23  25  1   
 52  23  50  1   
 53  24  51  1   
 54  24  52  1   
 55  24  53  1   
 56  25  54  1   
 57  25  55  1   
 58  25  56  1   
@<TRIPOS>SUBSTRUCTURE
  1 ****   7 GROUP 4 **** **** 0

# MOE 2024.06 (io_trps.svl 2023.06)
