@<TRIPOS>MOLECULE
NONAME
50 52 1 0 0 
SMALL
USER_CHARGES


@<TRIPOS>ATOM
  1 S        0.1460     1.5790     0.2460 S.3   1 <1>  -0.0800 
  2 C       -0.1480    -0.0600     0.8030 C.2   1 <1>  -0.1400 
  3 C        1.5010     1.0480    -0.7310 C.2   1 <1>  -0.1100 
  4 C        0.7510    -0.9050     0.2630 C.2   1 <1>  -0.1500 
  5 C       -1.2940    -0.2750     1.7690 C.3   1 <1>   0.5230 
  6 C        1.6950    -0.2820    -0.6190 C.2   1 <1>   0.0190 
  7 N       -2.5210    -0.6260     1.0070 N.4   1 <1>  -0.9590 
  8 C        2.7120    -1.0450    -1.2760 C.1   1 <1>  -0.0190 
  9 C       -3.0520     0.5440     0.2450 C.3   1 <1>   0.3430 
 10 C       -3.5620    -1.1900     1.9100 C.3   1 <1>   0.3430 
 11 C        3.5560    -1.6860    -1.8180 C.1   1 <1>  -0.2000 
 12 C       -4.2500     0.1180    -0.5960 C.3   1 <1>  -0.1600 
 13 C       -4.7620    -1.6510     1.0920 C.3   1 <1>  -0.1600 
 14 C        4.6140    -2.4850    -2.4930 C.3   1 <1>   0.3200 
 15 C       -5.3570    -0.4950     0.2770 C.3   1 <1>   0.2800 
 16 O        5.3700    -3.0830    -1.5080 O.3   1 <1>  -0.6800 
 17 O       -5.6940     0.5010     1.2160 O.3   1 <1>  -0.5600 
 18 C       -6.5860    -0.9940    -0.5430 C.3   1 <1>   0.2000 
 19 C       -7.0130     0.9760     1.2670 C.3   1 <1>   0.1200 
 20 O       -6.1870    -1.8630    -1.5640 O.3   1 <1>  -0.6800 
 21 C       -7.5060     0.1490    -1.0710 C.3   1 <1>   0.2800 
 22 C       -7.4620     1.3720    -0.1410 C.3   1 <1>  -0.1600 
 23 O       -8.7940    -0.3460    -1.0360 O.3   1 <1>  -0.6800 
 24 C       -7.2800     0.5700    -2.5310 C.3   1 <1>  -0.2400 
 25 H        2.0290     1.7920    -1.3000 H     1 <1>   0.1500 
 26 H        0.8150    -1.9660     0.4370 H     1 <1>   0.1500 
 27 H       -1.4520     0.6110     2.3630 H     1 <1>   0.0800 
 28 H       -1.0360    -1.0870     2.4290 H     1 <1>   0.0800 
 29 H       -2.2530    -1.3420     0.3200 H     1 <1>   0.4500 
 30 H       -3.3590     1.3180     0.9300 H     1 <1>   0.0800 
 31 H       -2.2920     0.9430    -0.4050 H     1 <1>   0.0800 
 32 H       -3.1640    -2.0250     2.4630 H     1 <1>   0.0800 
 33 H       -3.8840    -0.4360     2.6110 H     1 <1>   0.0800 
 34 H       -3.9280    -0.5850    -1.3440 H     1 <1>   0.0800 
 35 H       -4.6280     0.9800    -1.1110 H     1 <1>   0.0800 
 36 H       -5.5130    -2.0400     1.7560 H     1 <1>   0.0800 
 37 H       -4.4670    -2.4520     0.4380 H     1 <1>   0.0800 
 38 H        5.2570    -1.8520    -3.0810 H     1 <1>   0.0800 
 39 H        4.1900    -3.2560    -3.1130 H     1 <1>   0.0800 
 40 H        5.5150    -2.4400    -0.7880 H     1 <1>   0.4000 
 41 H       -7.1760    -1.5900     0.1310 H     1 <1>   0.0800 
 42 H       -7.6470     0.2080     1.6800 H     1 <1>   0.0800 
 43 H       -7.0290     1.8290     1.9230 H     1 <1>   0.0800 
 44 H       -6.9890    -2.1790    -2.0310 H     1 <1>   0.4000 
 45 H       -6.7620     2.0990    -0.5120 H     1 <1>   0.0800 
 46 H       -8.4240     1.8520    -0.0980 H     1 <1>   0.0800 
 47 H       -9.4060     0.2910    -1.4520 H     1 <1>   0.4000 
 48 H       -6.2680     0.8960    -2.6780 H     1 <1>   0.0800 
 49 H       -7.9310     1.3840    -2.7970 H     1 <1>   0.0800 
 50 H       -7.4610    -0.2510    -3.2010 H     1 <1>   0.0800 
@<TRIPOS>BOND
  1   1   2  1   
  2   1   3  1   
  3   2   4  2   
  4   2   5  1   
  5   3   6  2   
  6   3  25  1   
  7   4   6  1   
  8   4  26  1   
  9   5   7  1   
 10   5  27  1   
 11   5  28  1   
 12   6   8  1   
 13   7   9  1   
 14   7  10  1   
 15   7  29  1   
 16   8  11  3   
 17   9  12  1   
 18   9  30  1   
 19   9  31  1   
 20  10  13  1   
 21  10  32  1   
 22  10  33  1   
 23  11  14  1   
 24  12  15  1   
 25  12  34  1   
 26  12  35  1   
 27  13  15  1   
 28  13  36  1   
 29  13  37  1   
 30  14  16  1   
 31  14  38  1   
 32  14  39  1   
 33  15  17  1   
 34  15  18  1   
 35  16  40  1   
 36  17  19  1   
 37  18  20  1   
 38  18  21  1   
 39  18  41  1   
 40  19  22  1   
 41  19  42  1   
 42  19  43  1   
 43  20  44  1   
 44  21  22  1   
 45  21  23  1   
 46  21  24  1   
 47  22  45  1   
 48  22  46  1   
 49  23  47  1   
 50  24  48  1   
 51  24  49  1   
 52  24  50  1   
@<TRIPOS>SUBSTRUCTURE
  1 ****   9 GROUP 4 **** **** 0

# MOE 2024.06 (io_trps.svl 2023.06)
