@<TRIPOS>MOLECULE
NONAME
42 44 1 0 0 
SMALL
USER_CHARGES


@<TRIPOS>ATOM
  1 O       -2.4600     1.2780    -3.1930 O.2   1 <1>  -0.5700 
  2 C       -2.0460     1.4460    -2.0720 C.2   1 <1>   0.5690 
  3 N       -1.9790     0.4280    -1.1770 N.am  1 <1>  -0.7300 
  4 C       -1.6080     2.8370    -1.6610 C.3   1 <1>   0.1570 
  5 C       -2.3210    -0.9880    -1.4250 C.3   1 <1>   0.2200 
  6 N       -0.4450     2.7650    -0.7610 N.pl3 1 <1>   0.3140 
  7 C       -3.3360    -1.4380    -0.3890 C.3   1 <1>  -0.0800 
  8 C       -1.1130    -1.8760    -1.1150 C.3   1 <1>   0.1200 
  9 N       -0.5570     2.3430     0.5170 N.2   1 <1>  -0.7070 
 10 C        0.8340     3.0590    -1.0640 C.2   1 <1>  -0.3020 
 11 C       -2.4250    -1.8240     0.7760 C.3   1 <1>   0.1200 
 12 C       -4.1680    -2.6320    -0.8960 C.3   1 <1>  -0.0160 
 13 O       -1.2600    -2.3310     0.2010 O.3   1 <1>  -0.5600 
 14 C        0.6500     2.3810     0.9880 C.2   1 <1>   0.1080 
 15 C        1.5680     2.8230     0.0430 C.2   1 <1>  -0.1500 
 16 C       -5.1850    -3.0820     0.1410 C.ar  1 <1>  -0.1440 
 17 C        0.9800     1.9780     2.4060 C.3   1 <1>  -0.0590 
 18 C       -6.3420    -2.3690     0.3800 C.ar  1 <1>  -0.1500 
 19 C       -5.0040    -4.2230     0.8970 C.ar  1 <1>  -0.1500 
 20 C       -7.2360    -2.8170     1.3390 C.ar  1 <1>   0.1600 
 21 C       -5.9610    -4.5830     1.8310 C.ar  1 <1>   0.1600 
 22 N       -7.0730    -3.9070     2.0710 N.ar  1 <1>  -0.6200 
 23 H       -1.5360     0.6320    -0.2660 H     1 <1>   0.3700 
 24 H       -2.4110     3.3260    -1.1460 H     1 <1>   0.0800 
 25 H       -1.3460     3.4050    -2.5320 H     1 <1>   0.0800 
 26 H       -2.6640    -1.1140    -2.4380 H     1 <1>   0.0800 
 27 H       -4.0000    -0.6380    -0.1130 H     1 <1>   0.0800 
 28 H       -0.1820    -1.3450    -1.2070 H     1 <1>   0.0800 
 29 H       -1.1040    -2.7400    -1.7550 H     1 <1>   0.0800 
 30 H        1.1490     3.4100    -2.0300 H     1 <1>   0.1500 
 31 H       -2.8500    -2.5640     1.4300 H     1 <1>   0.0800 
 32 H       -2.1520    -0.9540     1.3490 H     1 <1>   0.0800 
 33 H       -3.5210    -3.4550    -1.1480 H     1 <1>   0.0800 
 34 H       -4.6920    -2.3460    -1.7910 H     1 <1>   0.0800 
 35 H        2.6270     2.9400     0.1900 H     1 <1>   0.1500 
 36 H        2.0230     2.1360     2.6090 H     1 <1>   0.0800 
 37 H        0.7460     0.9390     2.5470 H     1 <1>   0.0800 
 38 H        0.3950     2.5630     3.0910 H     1 <1>   0.0800 
 39 H       -6.5570    -1.4710    -0.1690 H     1 <1>   0.1500 
 40 H       -4.1280    -4.8330     0.7700 H     1 <1>   0.1500 
 41 H       -8.1330    -2.2480     1.5120 H     1 <1>   0.1500 
 42 H       -5.8030    -5.4760     2.4120 H     1 <1>   0.1500 
@<TRIPOS>BOND
  1   1   2  2   
  2   2   3  am  
  3   2   4  1   
  4   3   5  1   
  5   3  23  1   
  6   4   6  1   
  7   4  24  1   
  8   4  25  1   
  9   5   7  1   
 10   5   8  1   
 11   5  26  1   
 12   6   9  1   
 13   6  10  1   
 14   7  11  1   
 15   7  12  1   
 16   7  27  1   
 17   8  13  1   
 18   8  28  1   
 19   8  29  1   
 20   9  14  2   
 21  10  15  2   
 22  10  30  1   
 23  11  13  1   
 24  11  31  1   
 25  11  32  1   
 26  12  16  1   
 27  12  33  1   
 28  12  34  1   
 29  14  15  1   
 30  14  17  1   
 31  15  35  1   
 32  16  18  ar  
 33  16  19  ar  
 34  17  36  1   
 35  17  37  1   
 36  17  38  1   
 37  18  20  ar  
 38  18  39  1   
 39  19  21  ar  
 40  19  40  1   
 41  20  22  ar  
 42  20  41  1   
 43  21  22  ar  
 44  21  42  1   
@<TRIPOS>SUBSTRUCTURE
  1 ****   7 GROUP 4 **** **** 0

# MOE 2024.06 (io_trps.svl 2023.06)
