@<TRIPOS>MOLECULE
Untitled Document
63 65 1 0 0 
SMALL
USER_CHARGES


@<TRIPOS>ATOM
  1 S       -2.6760    -2.3920     2.4920 S.3   1 <1>  -0.0800 
  2 C       -3.4110    -2.3130     0.9080 C.2   1 <1>  -0.0130 
  3 C       -2.1660    -4.0280     2.1650 C.2   1 <1>   0.2280 
  4 C       -4.0900    -1.1000     0.5250 C.ar  1 <1>   0.0530 
  5 C       -3.1890    -3.5050     0.3050 C.2   1 <1>   0.0460 
  6 N       -2.4960    -4.4630     1.0160 N.2   1 <1>  -0.5650 
  7 C       -5.3670    -1.1360    -0.0290 C.ar  1 <1>  -0.1500 
  8 C       -3.4980     0.1480     0.6960 C.ar  1 <1>  -0.1500 
  9 C       -3.6150    -3.9000    -1.0940 C.3   1 <1>  -0.0590 
 10 C       -6.0200     0.0220    -0.4070 C.ar  1 <1>  -0.1500 
 11 C       -4.1480     1.3100     0.3210 C.ar  1 <1>  -0.1500 
 12 C       -5.4160     1.2590    -0.2420 C.ar  1 <1>  -0.1430 
 13 C       -6.1630     2.5170    -0.6690 C.3   1 <1>   0.3640 
 14 N       -6.5120     3.2720     0.5390 N.am  1 <1>  -0.7300 
 15 C       -5.3310     3.4120    -1.5830 C.3   1 <1>  -0.2400 
 16 C       -7.6800     3.8700     0.8780 C.2   1 <1>   0.5690 
 17 O       -7.7960     4.2810     2.0280 O.2   1 <1>  -0.5700 
 18 C       -8.8430     4.0610    -0.1440 C.3   1 <1>   0.2810 
 19 N      -10.0220     3.2580     0.1940 N.am  1 <1>  -0.6600 
 20 C       -9.3890     5.4900    -0.1720 C.3   1 <1>  -0.1600 
 21 C      -10.1820     1.9900    -0.2470 C.2   1 <1>   0.5690 
 22 C      -10.8960     4.0540     1.0540 C.3   1 <1>   0.1400 
 23 C      -10.3980     5.5050     0.9740 C.3   1 <1>   0.2000 
 24 O       -9.3080     1.4940    -0.9560 O.2   1 <1>  -0.5700 
 25 C      -11.4230     1.1050     0.1260 C.3   1 <1>   0.2510 
 26 O      -11.4410     6.4170     0.6890 O.3   1 <1>  -0.6800 
 27 N      -11.9650     1.3040     1.4950 N.3   1 <1>  -0.9900 
 28 C      -12.5690     1.1260    -0.9420 C.3   1 <1>   0.0000 
 29 C      -13.6490     0.0840    -0.5860 C.3   1 <1>  -0.2400 
 30 C      -12.0240     0.7530    -2.3340 C.3   1 <1>  -0.2400 
 31 C      -13.2520     2.5000    -1.0580 C.3   1 <1>  -0.2400 
 32 H       -1.6230    -4.5380     2.9410 H     1 <1>   0.1500 
 33 H       -5.8570    -2.0850    -0.1560 H     1 <1>   0.1500 
 34 H       -2.5140     0.2070     1.1260 H     1 <1>   0.1500 
 35 H       -4.0620    -3.0720    -1.6110 H     1 <1>   0.0800 
 36 H       -4.3210    -4.7080    -1.0420 H     1 <1>   0.0800 
 37 H       -2.7550    -4.2260    -1.6510 H     1 <1>   0.0800 
 38 H       -7.0110    -0.0430    -0.8280 H     1 <1>   0.1500 
 39 H       -3.6560     2.2550     0.4730 H     1 <1>   0.1500 
 40 H       -7.0510     2.2270    -1.1970 H     1 <1>   0.0800 
 41 H       -5.8580     3.1270     1.3080 H     1 <1>   0.3700 
 42 H       -4.4630     3.7870    -1.0730 H     1 <1>   0.0800 
 43 H       -5.9230     4.2400    -1.9250 H     1 <1>   0.0800 
 44 H       -5.0090     2.8480    -2.4390 H     1 <1>   0.0800 
 45 H       -8.4830     3.8210    -1.1440 H     1 <1>   0.0800 
 46 H       -9.8900     5.6640    -1.1240 H     1 <1>   0.0800 
 47 H       -8.5990     6.2250    -0.0130 H     1 <1>   0.0800 
 48 H      -11.9310     4.0070     0.7230 H     1 <1>   0.0800 
 49 H      -10.8220     3.7140     2.0890 H     1 <1>   0.0800 
 50 H       -9.9000     5.7690     1.9100 H     1 <1>   0.0800 
 51 H      -11.0330     0.0870     0.1160 H     1 <1>   0.0800 
 52 H      -11.8000     6.2280    -0.1810 H     1 <1>   0.4000 
 53 H      -12.4580     2.1820     1.5200 H     1 <1>   0.3600 
 54 H      -11.1890     1.3190     2.1440 H     1 <1>   0.3600 
 55 H      -14.4110     0.0460    -1.3440 H     1 <1>   0.0800 
 56 H      -14.1230     0.3250     0.3490 H     1 <1>   0.0800 
 57 H      -13.2110    -0.8950    -0.4960 H     1 <1>   0.0800 
 58 H      -12.8230     0.6740    -3.0490 H     1 <1>   0.0800 
 59 H      -11.5120    -0.1930    -2.2970 H     1 <1>   0.0800 
 60 H      -11.3340     1.4950    -2.6940 H     1 <1>   0.0800 
 61 H      -14.0340     2.4670    -1.7970 H     1 <1>   0.0800 
 62 H      -12.5460     3.2530    -1.3590 H     1 <1>   0.0800 
 63 H      -13.6960     2.7850    -0.1220 H     1 <1>   0.0800 
@<TRIPOS>BOND
  1   1   2  1   
  2   1   3  1   
  3   2   4  1   
  4   2   5  2   
  5   3   6  2   
  6   3  32  1   
  7   4   7  ar  
  8   4   8  ar  
  9   5   6  1   
 10   5   9  1   
 11   7  10  ar  
 12   7  33  1   
 13   8  11  ar  
 14   8  34  1   
 15   9  35  1   
 16   9  36  1   
 17   9  37  1   
 18  10  12  ar  
 19  10  38  1   
 20  11  12  ar  
 21  11  39  1   
 22  12  13  1   
 23  13  14  1   
 24  13  15  1   
 25  13  40  1   
 26  14  16  am  
 27  14  41  1   
 28  15  42  1   
 29  15  43  1   
 30  15  44  1   
 31  16  17  2   
 32  16  18  1   
 33  18  19  1   
 34  18  20  1   
 35  18  45  1   
 36  19  21  am  
 37  19  22  1   
 38  20  23  1   
 39  20  46  1   
 40  20  47  1   
 41  21  24  2   
 42  21  25  1   
 43  22  23  1   
 44  22  48  1   
 45  22  49  1   
 46  23  26  1   
 47  23  50  1   
 48  25  27  1   
 49  25  28  1   
 50  25  51  1   
 51  26  52  1   
 52  27  53  1   
 53  27  54  1   
 54  28  29  1   
 55  28  30  1   
 56  28  31  1   
 57  29  55  1   
 58  29  56  1   
 59  29  57  1   
 60  30  58  1   
 61  30  59  1   
 62  30  60  1   
 63  31  61  1   
 64  31  62  1   
 65  31  63  1   
@<TRIPOS>SUBSTRUCTURE
  1 ****  10 GROUP 4 **** **** 0

# MOE 2024.06 (io_trps.svl 2023.06)
