@<TRIPOS>MOLECULE
NONAME
47 48 1 0 0 
SMALL
USER_CHARGES


@<TRIPOS>ATOM
  1 CL       1.7170     2.0070    -2.1200 Cl    1 <1>  -0.1770 
  2 C        0.1830     2.3070    -1.3440 C.ar  1 <1>   0.1770 
  3 C       -0.5510     1.2380    -0.8670 C.ar  1 <1>  -0.1500 
  4 C       -0.2670     3.6050    -1.2220 C.ar  1 <1>  -0.1500 
  5 C       -1.7750     1.4860    -0.2540 C.ar  1 <1>   0.0830 
  6 C       -1.4830     3.8720    -0.5990 C.ar  1 <1>   0.0860 
  7 O       -2.5740     0.5130     0.2470 O.3   1 <1>  -0.3630 
  8 C       -2.2270     2.7890    -0.1320 C.ar  1 <1>  -0.1500 
  9 C       -1.9370     5.2370    -0.4430 C.2   1 <1>   0.5440 
 10 C       -2.2050    -0.8470     0.1800 C.3   1 <1>   0.0400 
 11 O       -2.2680     5.8590    -1.4360 O.2   1 <1>  -0.5700 
 12 N       -1.9700     5.8650     0.7880 N.am  1 <1>  -0.6600 
 13 C       -1.5470     5.1880     2.0620 C.3   1 <1>   0.1400 
 14 C       -2.1700     7.3390     0.8630 C.3   1 <1>   0.1400 
 15 C       -0.4510     5.9470     2.8290 C.3   1 <1>   0.1400 
 16 C       -0.8680     8.0740     0.5000 C.3   1 <1>  -0.1600 
 17 N        0.5460     6.5430     1.8960 N.am  1 <1>  -0.6600 
 18 C        0.2680     7.9590     1.5280 C.3   1 <1>   0.1400 
 19 C        1.4860     5.7390     1.3040 C.2   1 <1>   0.5690 
 20 O        1.6080     4.5790     1.6280 O.2   1 <1>  -0.5700 
 21 C        2.3850     6.2880     0.2100 C.3   1 <1>  -0.0990 
 22 C        3.2530     5.2060    -0.4300 C.3   1 <1>   0.1200 
 23 O        3.9740     5.7900    -1.4660 O.3   1 <1>  -0.5600 
 24 C        4.7400     4.8810    -2.1890 C.3   1 <1>   0.0400 
 25 H       -0.1560     0.2480    -0.9840 H     1 <1>   0.1500 
 26 H        0.3220     4.4180    -1.6050 H     1 <1>   0.1500 
 27 H       -3.1770     2.9690     0.3380 H     1 <1>   0.1500 
 28 H       -2.9850    -1.4280     0.6380 H     1 <1>   0.0800 
 29 H       -1.2830    -0.9860     0.7180 H     1 <1>   0.0800 
 30 H       -2.0970    -1.1300    -0.8520 H     1 <1>   0.0800 
 31 H       -1.1640     4.2050     1.8570 H     1 <1>   0.0800 
 32 H       -2.4050     5.0670     2.6990 H     1 <1>   0.0800 
 33 H       -2.5040     7.6190     1.8470 H     1 <1>   0.0800 
 34 H       -2.9400     7.6210     0.1650 H     1 <1>   0.0800 
 35 H        0.0450     5.2660     3.5000 H     1 <1>   0.0800 
 36 H       -0.8990     6.7180     3.4300 H     1 <1>   0.0800 
 37 H       -1.0990     9.1170     0.3830 H     1 <1>   0.0800 
 38 H       -0.5230     7.7280    -0.4580 H     1 <1>   0.0800 
 39 H        0.0010     8.5030     2.4180 H     1 <1>   0.0800 
 40 H        1.1550     8.4210     1.1330 H     1 <1>   0.0800 
 41 H        3.0230     7.0410     0.6330 H     1 <1>   0.0800 
 42 H        1.7700     6.7260    -0.5520 H     1 <1>   0.0800 
 43 H        2.6380     4.4200    -0.8330 H     1 <1>   0.0800 
 44 H        3.9420     4.7960     0.2890 H     1 <1>   0.0800 
 45 H        5.2610     5.4200    -2.9590 H     1 <1>   0.0800 
 46 H        4.0920     4.1450    -2.6340 H     1 <1>   0.0800 
 47 H        5.4490     4.4110    -1.5290 H     1 <1>   0.0800 
@<TRIPOS>BOND
  1   1   2  1   
  2   2   3  ar  
  3   2   4  ar  
  4   3   5  ar  
  5   3  25  1   
  6   4   6  ar  
  7   4  26  1   
  8   5   7  1   
  9   5   8  ar  
 10   6   8  ar  
 11   6   9  1   
 12   7  10  1   
 13   8  27  1   
 14   9  11  2   
 15   9  12  am  
 16  10  28  1   
 17  10  29  1   
 18  10  30  1   
 19  12  13  1   
 20  12  14  1   
 21  13  15  1   
 22  13  31  1   
 23  13  32  1   
 24  14  16  1   
 25  14  33  1   
 26  14  34  1   
 27  15  17  1   
 28  15  35  1   
 29  15  36  1   
 30  16  18  1   
 31  16  37  1   
 32  16  38  1   
 33  17  18  1   
 34  17  19  am  
 35  18  39  1   
 36  18  40  1   
 37  19  20  2   
 38  19  21  1   
 39  21  22  1   
 40  21  41  1   
 41  21  42  1   
 42  22  23  1   
 43  22  43  1   
 44  22  44  1   
 45  23  24  1   
 46  24  45  1   
 47  24  46  1   
 48  24  47  1   
@<TRIPOS>SUBSTRUCTURE
  1 ****   4 GROUP 4 **** **** 0

# MOE 2024.06 (io_trps.svl 2023.06)
