@<TRIPOS>MOLECULE
NONAME
42 44 1 0 0 
SMALL
USER_CHARGES


@<TRIPOS>ATOM
  1 S        0.3110    -0.4010     0.0300 S.3   1 <1>  -0.0800 
  2 C       -1.2770    -0.9340    -0.4130 C.2   1 <1>   0.4420 
  3 C       -0.1730     1.2030    -0.4130 C.2   1 <1>   0.1980 
  4 N       -2.0110     0.0320    -0.8290 N.2   1 <1>  -0.3380 
  5 N       -1.5360    -2.2780    -0.2690 N.am  1 <1>  -0.4940 
  6 N       -1.3770     1.2440    -0.8290 N.2   1 <1>  -0.3380 
  7 C        0.8770     2.3090    -0.2520 C.3   1 <1>   0.3800 
  8 C       -2.6850    -2.9840    -0.4830 C.2   1 <1>   0.7150 
  9 O        0.3090     3.5810    -0.1260 O.3   1 <1>  -0.5600 
 10 C        1.8050     2.3710    -1.4630 C.3   1 <1>  -0.2400 
 11 O       -3.7100    -2.4120    -0.7880 O.2   1 <1>  -0.5700 
 12 C       -2.6290    -4.4170    -0.3170 C.2   1 <1>  -0.2370 
 13 C       -0.4330     3.8000     1.0350 C.3   1 <1>   0.0400 
 14 N       -3.7380    -5.2390    -0.2010 N.pl3 1 <1>   0.0480 
 15 C       -1.5180    -5.2130    -0.2440 C.2   1 <1>  -0.1500 
 16 C       -3.3090    -6.5390    -0.0540 C.ar  1 <1>  -0.1520 
 17 C       -5.1570    -4.8170    -0.2140 C.3   1 <1>   0.0160 
 18 C       -1.9210    -6.5450    -0.0760 C.ar  1 <1>   0.0000 
 19 C       -4.0130    -7.7390     0.0990 C.ar  1 <1>  -0.1500 
 20 C       -1.2210    -7.7500     0.0560 C.ar  1 <1>  -0.1500 
 21 C       -3.3190    -8.9200     0.2290 C.ar  1 <1>  -0.1500 
 22 C       -1.9110    -8.9290     0.2080 C.ar  1 <1>   0.0820 
 23 O       -1.1690   -10.0650     0.3320 O.3   1 <1>  -0.3620 
 24 C       -1.7870   -11.3250     0.4770 C.3   1 <1>   0.0400 
 25 H       -0.7650    -2.8460     0.0590 H     1 <1>   0.3700 
 26 H        1.4600     2.1240     0.6330 H     1 <1>   0.0800 
 27 H        1.2300     2.5700    -2.3510 H     1 <1>   0.0800 
 28 H        2.3170     1.4350    -1.5870 H     1 <1>   0.0800 
 29 H        2.5330     3.1490    -1.3280 H     1 <1>   0.0800 
 30 H       -0.7490     4.8280     1.0370 H     1 <1>   0.0800 
 31 H        0.1820     3.6100     1.8970 H     1 <1>   0.0800 
 32 H       -1.3010     3.1640     1.0370 H     1 <1>   0.0800 
 33 H       -0.4830    -4.9310    -0.3090 H     1 <1>   0.1500 
 34 H       -5.3040    -4.0390     0.5130 H     1 <1>   0.0800 
 35 H       -5.7970    -5.6440     0.0240 H     1 <1>   0.0800 
 36 H       -5.4050    -4.4420    -1.1900 H     1 <1>   0.0800 
 37 H       -5.0880    -7.7390     0.1140 H     1 <1>   0.1500 
 38 H       -0.1480    -7.7480     0.0370 H     1 <1>   0.1500 
 39 H       -3.8690    -9.8330     0.3460 H     1 <1>   0.1500 
 40 H       -1.0130   -12.0680     0.5500 H     1 <1>   0.0800 
 41 H       -2.3960   -11.5170    -0.3880 H     1 <1>   0.0800 
 42 H       -2.3770   -11.3230     1.3760 H     1 <1>   0.0800 
@<TRIPOS>BOND
  1   1   2  1   
  2   1   3  1   
  3   2   4  2   
  4   2   5  1   
  5   3   6  2   
  6   3   7  1   
  7   4   6  1   
  8   5   8  am  
  9   5  25  1   
 10   7   9  1   
 11   7  10  1   
 12   7  26  1   
 13   8  11  2   
 14   8  12  1   
 15   9  13  1   
 16  10  27  1   
 17  10  28  1   
 18  10  29  1   
 19  12  14  1   
 20  12  15  2   
 21  13  30  1   
 22  13  31  1   
 23  13  32  1   
 24  14  16  1   
 25  14  17  1   
 26  15  18  1   
 27  15  33  1   
 28  16  18  ar  
 29  16  19  ar  
 30  17  34  1   
 31  17  35  1   
 32  17  36  1   
 33  18  20  ar  
 34  19  21  ar  
 35  19  37  1   
 36  20  22  ar  
 37  20  38  1   
 38  21  22  ar  
 39  21  39  1   
 40  22  23  1   
 41  23  24  1   
 42  24  40  1   
 43  24  41  1   
 44  24  42  1   
@<TRIPOS>SUBSTRUCTURE
  1 ****   8 GROUP 4 **** **** 0

# MOE 2024.06 (io_trps.svl 2023.06)
