@<TRIPOS>MOLECULE
NONAME
47 50 1 0 0 
SMALL
USER_CHARGES


@<TRIPOS>ATOM
  1 O        0.5340     0.0540    -2.6380 O.2   1 <1>  -0.5700 
  2 C        1.1290    -0.5580    -1.7700 C.2   1 <1>   0.7150 
  3 N        2.0710     0.0550    -0.9910 N.am  1 <1>  -0.4940 
  4 C        0.8900    -1.9640    -1.5860 C.2   1 <1>  -0.2370 
  5 C        2.4500     1.4180    -0.9050 C.2   1 <1>  -0.0880 
  6 N        0.3370    -2.6860    -2.6150 N.pl3 1 <1>   0.0330 
  7 C        1.1070    -2.8290    -0.5440 C.2   1 <1>  -0.1810 
  8 N        3.5200     1.8950    -0.2090 N.pl3 1 <1>   0.3140 
  9 C        1.8500     2.4970    -1.4610 C.2   1 <1>  -0.1500 
 10 C        0.2330    -3.9980    -2.2470 C.ar  1 <1>  -0.1520 
 11 C        0.7140    -4.1210    -0.9510 C.ar  1 <1>   0.0000 
 12 C        1.6350    -2.5460     0.8520 C.3   1 <1>  -0.0590 
 13 N        3.5990     3.2470    -0.2970 N.2   1 <1>  -0.7070 
 14 C        4.4880     1.0700     0.5740 C.3   1 <1>   0.1760 
 15 C        2.6010     3.5890    -1.0500 C.2   1 <1>   0.1390 
 16 C       -0.2480    -5.1040    -2.9510 C.ar  1 <1>  -0.1500 
 17 C        0.7210    -5.3810    -0.3360 C.ar  1 <1>  -0.1500 
 18 C        4.0670     0.9070     2.0350 C.3   1 <1>  -0.1600 
 19 C        5.9020     1.6470     0.6630 C.3   1 <1>  -0.1600 
 20 C       -0.2360    -6.3330    -2.3360 C.ar  1 <1>  -0.1500 
 21 C        0.2470    -6.4800    -1.0280 C.ar  1 <1>   0.0830 
 22 C        5.3580     0.6060     2.8070 C.3   1 <1>  -0.1600 
 23 C        6.5220     0.9290     1.8610 C.3   1 <1>  -0.1600 
 24 O        0.2090    -7.7430    -0.5220 O.3   1 <1>  -0.3620 
 25 C        0.6480    -8.0030     0.7920 C.3   1 <1>   0.0400 
 26 H        2.5650    -0.6080    -0.4000 H     1 <1>   0.3700 
 27 H        0.0320    -2.2780    -3.5060 H     1 <1>   0.2700 
 28 H        0.9760     2.5270    -2.0860 H     1 <1>   0.1500 
 29 H        1.5080    -1.5120     1.1140 H     1 <1>   0.0800 
 30 H        2.6760    -2.8100     0.9130 H     1 <1>   0.0800 
 31 H        1.0890    -3.1310     1.5710 H     1 <1>   0.0800 
 32 H        4.5560     0.1000     0.1170 H     1 <1>   0.0800 
 33 H        2.3860     4.6100    -1.3200 H     1 <1>   0.1500 
 34 H       -0.6180    -4.9890    -3.9540 H     1 <1>   0.1500 
 35 H        1.0980    -5.4530     0.6630 H     1 <1>   0.1500 
 36 H        3.3390     0.1250     2.1580 H     1 <1>   0.0800 
 37 H        3.6570     1.8380     2.3910 H     1 <1>   0.0800 
 38 H        5.8610     2.7020     0.8760 H     1 <1>   0.0800 
 39 H        6.4620     1.4830    -0.2410 H     1 <1>   0.0800 
 40 H       -0.5980    -7.2080    -2.8450 H     1 <1>   0.1500 
 41 H        5.3980    -0.4290     3.1010 H     1 <1>   0.0800 
 42 H        5.4090     1.2170     3.6920 H     1 <1>   0.0800 
 43 H        7.2680     1.5400     2.3410 H     1 <1>   0.0800 
 44 H        6.9830     0.0130     1.5330 H     1 <1>   0.0800 
 45 H        0.5220    -9.0530     0.9840 H     1 <1>   0.0800 
 46 H        0.0500    -7.4320     1.4800 H     1 <1>   0.0800 
 47 H        1.6880    -7.7390     0.8710 H     1 <1>   0.0800 
@<TRIPOS>BOND
  1   1   2  2   
  2   2   3  am  
  3   2   4  1   
  4   3   5  1   
  5   3  26  1   
  6   4   6  1   
  7   4   7  2   
  8   5   8  1   
  9   5   9  2   
 10   6  10  1   
 11   6  27  1   
 12   7  11  1   
 13   7  12  1   
 14   8  13  1   
 15   8  14  1   
 16   9  15  1   
 17   9  28  1   
 18  10  11  ar  
 19  10  16  ar  
 20  11  17  ar  
 21  12  29  1   
 22  12  30  1   
 23  12  31  1   
 24  13  15  2   
 25  14  18  1   
 26  14  19  1   
 27  14  32  1   
 28  15  33  1   
 29  16  20  ar  
 30  16  34  1   
 31  17  21  ar  
 32  17  35  1   
 33  18  22  1   
 34  18  36  1   
 35  18  37  1   
 36  19  23  1   
 37  19  38  1   
 38  19  39  1   
 39  20  21  ar  
 40  20  40  1   
 41  21  24  1   
 42  22  23  1   
 43  22  41  1   
 44  22  42  1   
 45  23  43  1   
 46  23  44  1   
 47  24  25  1   
 48  25  45  1   
 49  25  46  1   
 50  25  47  1   
@<TRIPOS>SUBSTRUCTURE
  1 ****   7 GROUP 4 **** **** 0

# MOE 2024.06 (io_trps.svl 2023.06)
