@<TRIPOS>MOLECULE
NONAME
48 49 1 0 0 
SMALL
USER_CHARGES


@<TRIPOS>ATOM
  1 O       -1.4030     0.1620    -1.3820 O.2   1 <1>  -0.5700 
  2 C       -2.3020     0.7970    -0.8800 C.2   1 <1>   0.5690 
  3 N       -3.5610     0.2580    -0.7600 N.am  1 <1>  -0.6600 
  4 C       -1.9850     2.2160    -0.3810 C.3   1 <1>  -0.0190 
  5 C       -3.8540    -1.0970    -1.3050 C.3   1 <1>   0.3200 
  6 C       -4.7450     0.9680    -0.1850 C.3   1 <1>   0.1400 
  7 C       -2.1630     3.2440    -1.5130 C.3   1 <1>  -0.1600 
  8 C       -0.5680     2.3320     0.2140 C.3   1 <1>  -0.1600 
  9 C       -4.1160    -2.0610    -0.1640 C.2   1 <1>  -0.3320 
 10 C       -4.8310     0.7690     1.3340 C.3   1 <1>   0.1200 
 11 C       -1.8720     4.6710    -1.0280 C.3   1 <1>  -0.1600 
 12 C       -0.2720     3.7570     0.7030 C.3   1 <1>  -0.1600 
 13 N       -3.1770    -2.5030     0.6970 N.pl3 1 <1>   0.0480 
 14 C       -5.2780    -2.6480     0.2000 C.2   1 <1>   0.0770 
 15 O       -5.7370     1.6790     1.8630 O.3   1 <1>  -0.6800 
 16 C       -0.4630     4.7930    -0.4210 C.3   1 <1>  -0.0800 
 17 C       -3.8450    -3.3270     1.5350 C.2   1 <1>   0.0360 
 18 C       -1.7380    -2.1840     0.7270 C.3   1 <1>   0.0160 
 19 N       -5.1060    -3.4410     1.2720 N.2   1 <1>  -0.5650 
 20 C       -0.2340     6.2350     0.0700 C.3   1 <1>  -0.1600 
 21 C        1.2060     6.5030     0.5280 C.3   1 <1>  -0.2400 
 22 H       -2.6640     2.4660     0.4100 H     1 <1>   0.0800 
 23 H       -3.0390    -1.4620    -1.9050 H     1 <1>   0.0800 
 24 H       -4.7200    -1.0430    -1.9410 H     1 <1>   0.0800 
 25 H       -5.6480     0.5940    -0.6360 H     1 <1>   0.0800 
 26 H       -4.6790     2.0170    -0.4120 H     1 <1>   0.0800 
 27 H       -3.1660     3.1950    -1.8980 H     1 <1>   0.0800 
 28 H       -1.4920     2.9990    -2.3190 H     1 <1>   0.0800 
 29 H        0.1590     2.0620    -0.5340 H     1 <1>   0.0800 
 30 H       -0.4630     1.6420     1.0330 H     1 <1>   0.0800 
 31 H       -3.8790     0.9280     1.8070 H     1 <1>   0.0800 
 32 H       -5.1860    -0.2210     1.5660 H     1 <1>   0.0800 
 33 H       -2.6060     4.9520    -0.2910 H     1 <1>   0.0800 
 34 H       -1.9660     5.3490    -1.8590 H     1 <1>   0.0800 
 35 H        0.7410     3.7880     1.0630 H     1 <1>   0.0800 
 36 H       -0.9220     3.9950     1.5270 H     1 <1>   0.0800 
 37 H       -6.2480    -2.5390    -0.2560 H     1 <1>   0.1500 
 38 H       -5.3630     2.5810     1.8840 H     1 <1>   0.4000 
 39 H        0.2520     4.5840    -1.2000 H     1 <1>   0.0800 
 40 H       -3.3520    -3.8380     2.3430 H     1 <1>   0.1500 
 41 H       -1.3320    -2.2670    -0.2650 H     1 <1>   0.0800 
 42 H       -1.2270    -2.8670     1.3790 H     1 <1>   0.0800 
 43 H       -1.6040    -1.1790     1.0820 H     1 <1>   0.0800 
 44 H       -0.9100     6.4570     0.8780 H     1 <1>   0.0800 
 45 H       -0.4580     6.9150    -0.7350 H     1 <1>   0.0800 
 46 H        1.4400     5.9420     1.4150 H     1 <1>   0.0800 
 47 H        1.3280     7.5480     0.7530 H     1 <1>   0.0800 
 48 H        1.9030     6.2380    -0.2470 H     1 <1>   0.0800 
@<TRIPOS>BOND
  1   1   2  2   
  2   2   3  am  
  3   2   4  1   
  4   3   5  1   
  5   3   6  1   
  6   4   7  1   
  7   4   8  1   
  8   4  22  1   
  9   5   9  1   
 10   5  23  1   
 11   5  24  1   
 12   6  10  1   
 13   6  25  1   
 14   6  26  1   
 15   7  11  1   
 16   7  27  1   
 17   7  28  1   
 18   8  12  1   
 19   8  29  1   
 20   8  30  1   
 21   9  13  1   
 22   9  14  2   
 23  10  15  1   
 24  10  31  1   
 25  10  32  1   
 26  11  16  1   
 27  11  33  1   
 28  11  34  1   
 29  12  16  1   
 30  12  35  1   
 31  12  36  1   
 32  13  17  1   
 33  13  18  1   
 34  14  19  1   
 35  14  37  1   
 36  15  38  1   
 37  16  20  1   
 38  16  39  1   
 39  17  19  2   
 40  17  40  1   
 41  18  41  1   
 42  18  42  1   
 43  18  43  1   
 44  20  21  1   
 45  20  44  1   
 46  20  45  1   
 47  21  46  1   
 48  21  47  1   
 49  21  48  1   
@<TRIPOS>SUBSTRUCTURE
  1 ****   2 GROUP 4 **** **** 0

# MOE 2024.06 (io_trps.svl 2023.06)
