@<TRIPOS>MOLECULE
NONAME
51 55 1 0 0 
SMALL
USER_CHARGES


@<TRIPOS>ATOM
  1 O        0.8660    -0.5540    -1.1330 O.3   1 <1>  -0.5600 
  2 C        1.8680    -1.1200    -0.3180 C.3   1 <1>   0.4600 
  3 C       -0.4820    -0.7600    -0.7760 C.3   1 <1>   0.1200 
  4 C        1.4270    -2.4990     0.1560 C.2   1 <1>  -0.3320 
  5 C        2.1400    -0.1780     0.8590 C.3   1 <1>  -0.1600 
  6 C        3.1120    -1.2310    -1.2020 C.3   1 <1>  -0.1600 
  7 C       -0.8480    -2.2510    -0.8330 C.3   1 <1>   0.0210 
  8 N        2.1680    -3.4010     0.8710 N.pl3 1 <1>   0.0330 
  9 C        0.2070    -3.0210    -0.0800 C.2   1 <1>  -0.1810 
 10 C        2.6300     1.1880     0.3790 C.3   1 <1>   0.2090 
 11 C        3.5690     0.1490    -1.6740 C.3   1 <1>   0.2090 
 12 C        1.3950    -4.5180     1.0790 C.ar  1 <1>  -0.1520 
 13 C        0.1520    -4.3100     0.4870 C.ar  1 <1>   0.0000 
 14 N        3.8470     1.0130    -0.4800 N.pl3 1 <1>  -0.8380 
 15 C        1.6800    -5.7130     1.7440 C.ar  1 <1>  -0.1500 
 16 C       -0.8240    -5.3090     0.5560 C.ar  1 <1>  -0.1500 
 17 C        4.9760     1.7600    -0.3080 C.ar  1 <1>   0.4610 
 18 C        0.7100    -6.6870     1.8060 C.ar  1 <1>  -0.1500 
 19 C       -0.5420    -6.4850     1.2120 C.ar  1 <1>  -0.1500 
 20 N        6.1490     1.2740    -0.7390 N.ar  1 <1>  -0.1790 
 21 C        5.0300     2.9980     0.2990 C.ar  1 <1>  -0.1500 
 22 C        7.3060     1.9470    -0.5900 C.ar  1 <1>   0.7710 
 23 C        6.2450     3.6360     0.4240 C.ar  1 <1>   0.3930 
 24 N        7.3910     3.1200    -0.0170 N.ar  1 <1>  -0.6200 
 25 N        8.4460     1.4170    -1.0350 N.pl3 1 <1>  -0.9000 
 26 O        6.2590     4.8280     1.0170 O.3   1 <1>  -0.3620 
 27 C        7.4370     5.5890     1.2060 C.3   1 <1>   0.0400 
 28 H       -1.0950    -0.2010    -1.4610 H     1 <1>   0.0800 
 29 H       -0.6350    -0.3770     0.2180 H     1 <1>   0.0800 
 30 H        2.8860    -0.6100     1.4980 H     1 <1>   0.0800 
 31 H        1.2480    -0.0650     1.4460 H     1 <1>   0.0800 
 32 H        2.8760    -1.8490    -2.0500 H     1 <1>   0.0800 
 33 H        3.9060    -1.7070    -0.6600 H     1 <1>   0.0800 
 34 H       -0.8850    -2.5840    -1.8550 H     1 <1>   0.0800 
 35 H       -1.8120    -2.4050    -0.3840 H     1 <1>   0.0800 
 36 H        3.1270    -3.2920     1.2100 H     1 <1>   0.2700 
 37 H        2.8470     1.7970     1.2400 H     1 <1>   0.0800 
 38 H        1.8540     1.6750    -0.1910 H     1 <1>   0.0800 
 39 H        2.7880     0.6040    -2.2640 H     1 <1>   0.0800 
 40 H        4.4330     0.0530    -2.3050 H     1 <1>   0.0800 
 41 H        2.6430    -5.8620     2.1980 H     1 <1>   0.1500 
 42 H       -1.7790    -5.1400     0.0950 H     1 <1>   0.1500 
 43 H        0.9040    -7.6160     2.3120 H     1 <1>   0.1500 
 44 H       -1.2820    -7.2630     1.2730 H     1 <1>   0.1500 
 45 H        6.1650     0.3510    -1.1400 H     1 <1>   0.4570 
 46 H        4.1470     3.4830     0.6660 H     1 <1>   0.1500 
 47 H        9.3040     1.9640    -0.9000 H     1 <1>   0.4000 
 48 H        8.5940     0.5340    -1.5260 H     1 <1>   0.4000 
 49 H        7.1730     6.5040     1.7050 H     1 <1>   0.0800 
 50 H        7.8720     5.8060     0.2460 H     1 <1>   0.0800 
 51 H        8.1250     5.0250     1.8120 H     1 <1>   0.0800 
@<TRIPOS>BOND
  1   1   2  1   
  2   1   3  1   
  3   2   4  1   
  4   2   5  1   
  5   2   6  1   
  6   3   7  1   
  7   3  28  1   
  8   3  29  1   
  9   4   8  1   
 10   4   9  2   
 11   5  10  1   
 12   5  30  1   
 13   5  31  1   
 14   6  11  1   
 15   6  32  1   
 16   6  33  1   
 17   7   9  1   
 18   7  34  1   
 19   7  35  1   
 20   8  12  1   
 21   8  36  1   
 22   9  13  1   
 23  10  14  1   
 24  10  37  1   
 25  10  38  1   
 26  11  14  1   
 27  11  39  1   
 28  11  40  1   
 29  12  13  ar  
 30  12  15  ar  
 31  13  16  ar  
 32  14  17  1   
 33  15  18  ar  
 34  15  41  1   
 35  16  19  ar  
 36  16  42  1   
 37  17  20  ar  
 38  17  21  ar  
 39  18  19  ar  
 40  18  43  1   
 41  19  44  1   
 42  20  22  ar  
 43  20  45  1   
 44  21  23  ar  
 45  21  46  1   
 46  22  24  ar  
 47  22  25  1   
 48  23  24  ar  
 49  23  26  1   
 50  25  47  1   
 51  25  48  1   
 52  26  27  1   
 53  27  49  1   
 54  27  50  1   
 55  27  51  1   
@<TRIPOS>SUBSTRUCTURE
  1 ****   5 GROUP 4 **** **** 0

# MOE 2024.06 (io_trps.svl 2023.06)
