@<TRIPOS>MOLECULE
NONAME
47 49 1 0 0 
SMALL
USER_CHARGES


@<TRIPOS>ATOM
  1 S        1.1640     0.0630    -0.1850 S.o2  1 <1>   1.3330 
  2 O        1.3530    -1.2300     0.4340 O.2   1 <1>  -0.6500 
  3 O        0.8770     0.1300    -1.6010 O.2   1 <1>  -0.6500 
  4 N       -0.1060     0.8330     0.6360 N.am  1 <1>  -0.8490 
  5 C        2.5640     1.1340     0.1370 C.3   1 <1>  -0.0550 
  6 C       -0.0460     0.6570     2.0910 C.3   1 <1>   0.1160 
  7 C       -1.4160     0.4090     0.1350 C.3   1 <1>   0.1160 
  8 C        3.8310     0.7900    -0.6780 C.3   1 <1>  -0.0800 
  9 C        4.9800     1.7710    -0.4810 C.3   1 <1>   0.2200 
 10 C        4.4880    -0.4950    -0.1700 C.3   1 <1>   0.1200 
 11 N        4.5890     3.2090    -0.4630 N.am  1 <1>  -0.7300 
 12 C        5.6740     1.2420     0.7770 C.3   1 <1>   0.1200 
 13 O        5.3370    -0.1130     0.8680 O.3   1 <1>  -0.5600 
 14 C        4.1000     3.9880     0.5400 C.2   1 <1>   0.5690 
 15 O        3.7970     3.5500     1.6230 O.2   1 <1>  -0.5700 
 16 C        3.8870     5.4630     0.2660 C.3   1 <1>   0.0820 
 17 C        5.0070     6.0420    -0.5800 C.2   1 <1>   0.1080 
 18 N        5.1170     5.8250    -1.8510 N.2   1 <1>  -0.7070 
 19 C        6.0290     6.8700    -0.0760 C.ar  1 <1>   0.0000 
 20 N        6.2130     6.5260    -2.2290 N.pl3 1 <1>   0.3000 
 21 C        6.7970     7.1710    -1.1810 C.ar  1 <1>  -0.1520 
 22 C        6.3890     7.3910     1.1750 C.ar  1 <1>  -0.1500 
 23 C        7.9250     7.9930    -1.0850 C.ar  1 <1>  -0.1500 
 24 C        7.4970     8.1980     1.2770 C.ar  1 <1>  -0.1500 
 25 C        8.2660     8.5010     0.1450 C.ar  1 <1>  -0.1500 
 26 H        2.2590     2.1300    -0.1120 H     1 <1>   0.0800 
 27 H        2.8010     1.1200     1.1840 H     1 <1>   0.0800 
 28 H       -0.8350     1.2160     2.5640 H     1 <1>   0.0800 
 29 H        0.8950     1.0170     2.4710 H     1 <1>   0.0800 
 30 H       -0.1490    -0.3840     2.3500 H     1 <1>   0.0800 
 31 H       -2.2010     0.9290     0.6560 H     1 <1>   0.0800 
 32 H       -1.5410    -0.6530     0.2690 H     1 <1>   0.0800 
 33 H       -1.4990     0.6380    -0.9140 H     1 <1>   0.0800 
 34 H        3.5810     0.7000    -1.7210 H     1 <1>   0.0800 
 35 H        5.6750     1.6380    -1.2930 H     1 <1>   0.0800 
 36 H        5.0970    -0.9390    -0.9390 H     1 <1>   0.0800 
 37 H        3.7950    -1.2300     0.1990 H     1 <1>   0.0800 
 38 H        4.8290     3.7290    -1.3220 H     1 <1>   0.3700 
 39 H        5.3230     1.7150     1.6740 H     1 <1>   0.0800 
 40 H        6.7430     1.3290     0.7080 H     1 <1>   0.0800 
 41 H        2.9560     5.5820    -0.2530 H     1 <1>   0.0800 
 42 H        3.8190     5.9900     1.1980 H     1 <1>   0.0800 
 43 H        6.5420     6.5660    -3.2010 H     1 <1>   0.2700 
 44 H        5.7980     7.1530     2.0410 H     1 <1>   0.1500 
 45 H        8.5090     8.2190    -1.9600 H     1 <1>   0.1500 
 46 H        7.7880     8.6080     2.2300 H     1 <1>   0.1500 
 47 H        9.1280     9.1370     0.2540 H     1 <1>   0.1500 
@<TRIPOS>BOND
  1   1   2  2   
  2   1   3  2   
  3   1   4  am  
  4   1   5  1   
  5   4   6  1   
  6   4   7  1   
  7   5   8  1   
  8   5  26  1   
  9   5  27  1   
 10   6  28  1   
 11   6  29  1   
 12   6  30  1   
 13   7  31  1   
 14   7  32  1   
 15   7  33  1   
 16   8   9  1   
 17   8  10  1   
 18   8  34  1   
 19   9  11  1   
 20   9  12  1   
 21   9  35  1   
 22  10  13  1   
 23  10  36  1   
 24  10  37  1   
 25  11  14  am  
 26  11  38  1   
 27  12  13  1   
 28  12  39  1   
 29  12  40  1   
 30  14  15  2   
 31  14  16  1   
 32  16  17  1   
 33  16  41  1   
 34  16  42  1   
 35  17  18  2   
 36  17  19  1   
 37  18  20  1   
 38  19  21  ar  
 39  19  22  ar  
 40  20  21  1   
 41  20  43  1   
 42  21  23  ar  
 43  22  24  ar  
 44  22  44  1   
 45  23  25  ar  
 46  23  45  1   
 47  24  25  ar  
 48  24  46  1   
 49  25  47  1   
@<TRIPOS>SUBSTRUCTURE
  1 ****  11 GROUP 4 **** **** 0

# MOE 2024.06 (io_trps.svl 2023.06)
