@<TRIPOS>MOLECULE
NONAME
55 56 1 0 0 
SMALL
USER_CHARGES


@<TRIPOS>ATOM
  1 O        4.0680    -1.1200    -0.4630 O.co2 1 <1>  -0.9000 
  2 C        3.1770    -0.6480     0.2600 C.2   1 <1>   0.9060 
  3 O        3.0820    -0.9890     1.4370 O.co2 1 <1>  -0.9000 
  4 C        2.3960     0.5940    -0.2220 C.3   1 <1>  -0.1060 
  5 C        2.9120     0.9680    -1.6450 C.3   1 <1>   0.2000 
  6 C        2.7870     1.7700     0.7140 C.3   1 <1>  -0.1600 
  7 C        0.8690     0.2670    -0.1850 C.3   1 <1>  -0.1600 
  8 O        2.0590     1.8820    -2.2460 O.3   1 <1>  -0.6800 
  9 C        4.3220     1.6150    -1.6370 C.3   1 <1>   0.3430 
 10 C        4.3140     1.9440     0.8310 C.3   1 <1>   0.3430 
 11 C       -0.1080     1.4530    -0.0440 C.3   1 <1>  -0.1600 
 12 N        5.0460     1.3860    -0.3500 N.4   1 <1>  -0.9590 
 13 C       -1.5580     0.9730    -0.1490 C.3   1 <1>  -0.2400 
 14 C        6.4870     1.7130    -0.3800 C.3   1 <1>   0.5240 
 15 C        6.6940     3.2160    -0.3360 C.2   1 <1>  -0.1810 
 16 C        6.7170     4.0820    -1.4250 C.2   1 <1>   0.1080 
 17 C        6.9020     4.0090     0.7430 C.2   1 <1>  -0.3320 
 18 N        6.8980     5.3070    -1.0620 N.2   1 <1>  -0.7070 
 19 C        6.5710     3.7320    -2.8900 C.3   1 <1>  -0.0590 
 20 N        7.0190     5.2780     0.2800 N.pl3 1 <1>   0.3140 
 21 C        7.0050     3.6230     2.2130 C.3   1 <1>  -0.0600 
 22 C        7.2470     6.5230     1.0780 C.3   1 <1>   0.1760 
 23 C        6.0510     7.4760     0.9440 C.3   1 <1>  -0.2400 
 24 C        8.5480     7.2160     0.6470 C.3   1 <1>  -0.2400 
 25 H        2.9200     0.0920    -2.2720 H     1 <1>   0.0800 
 26 H        2.3920     1.5970     1.7000 H     1 <1>   0.0800 
 27 H        2.3640     2.6910     0.3540 H     1 <1>   0.0800 
 28 H        0.6200    -0.3130    -1.0570 H     1 <1>   0.0800 
 29 H        0.6900    -0.3770     0.6620 H     1 <1>   0.0800 
 30 H        1.1380     1.5700    -2.1330 H     1 <1>   0.4000 
 31 H        4.2160     2.6750    -1.7940 H     1 <1>   0.0800 
 32 H        4.8900     1.1970    -2.4500 H     1 <1>   0.0800 
 33 H        4.6480     1.4270     1.7170 H     1 <1>   0.0800 
 34 H        4.5370     2.9920     0.9460 H     1 <1>   0.0800 
 35 H        0.0270     1.9150     0.9190 H     1 <1>   0.0800 
 36 H        0.0590     2.2040    -0.7920 H     1 <1>   0.0800 
 37 H        4.9810     0.3400    -0.2430 H     1 <1>   0.4500 
 38 H       -1.7680     0.2450     0.6160 H     1 <1>   0.0800 
 39 H       -1.7420     0.5260    -1.1100 H     1 <1>   0.0800 
 40 H       -2.2310     1.8020    -0.0230 H     1 <1>   0.0800 
 41 H        6.9680     1.2690     0.4740 H     1 <1>   0.0800 
 42 H        6.9410     1.3040    -1.2670 H     1 <1>   0.0800 
 43 H        6.7780     2.6940    -3.0680 H     1 <1>   0.0800 
 44 H        7.2640     4.3210    -3.4640 H     1 <1>   0.0800 
 45 H        5.5760     3.9660    -3.2190 H     1 <1>   0.0800 
 46 H        6.9020     2.5620     2.3440 H     1 <1>   0.0800 
 47 H        6.2340     4.1130     2.7820 H     1 <1>   0.0800 
 48 H        7.9630     3.9160     2.6050 H     1 <1>   0.0800 
 49 H        7.3420     6.2460     2.1110 H     1 <1>   0.0800 
 50 H        5.9380     7.7910    -0.0790 H     1 <1>   0.0800 
 51 H        6.1990     8.3480     1.5550 H     1 <1>   0.0800 
 52 H        5.1480     6.9850     1.2610 H     1 <1>   0.0800 
 53 H        8.4820     7.5270    -0.3810 H     1 <1>   0.0800 
 54 H        9.3790     6.5440     0.7560 H     1 <1>   0.0800 
 55 H        8.7270     8.0840     1.2560 H     1 <1>   0.0800 
@<TRIPOS>BOND
  1   1   2  ar  
  2   2   3  ar  
  3   2   4  1   
  4   4   5  1   
  5   4   6  1   
  6   4   7  1   
  7   5   8  1   
  8   5   9  1   
  9   5  25  1   
 10   6  10  1   
 11   6  26  1   
 12   6  27  1   
 13   7  11  1   
 14   7  28  1   
 15   7  29  1   
 16   8  30  1   
 17   9  12  1   
 18   9  31  1   
 19   9  32  1   
 20  10  12  1   
 21  10  33  1   
 22  10  34  1   
 23  11  13  1   
 24  11  35  1   
 25  11  36  1   
 26  12  14  1   
 27  12  37  1   
 28  13  38  1   
 29  13  39  1   
 30  13  40  1   
 31  14  15  1   
 32  14  41  1   
 33  14  42  1   
 34  15  16  1   
 35  15  17  2   
 36  16  18  2   
 37  16  19  1   
 38  17  20  1   
 39  17  21  1   
 40  18  20  1   
 41  19  43  1   
 42  19  44  1   
 43  19  45  1   
 44  20  22  1   
 45  21  46  1   
 46  21  47  1   
 47  21  48  1   
 48  22  23  1   
 49  22  24  1   
 50  22  49  1   
 51  23  50  1   
 52  23  51  1   
 53  23  52  1   
 54  24  53  1   
 55  24  54  1   
 56  24  55  1   
@<TRIPOS>SUBSTRUCTURE
  1 ****  10 GROUP 4 **** **** 0

# MOE 2024.06 (io_trps.svl 2023.06)
