@<TRIPOS>MOLECULE
NONAME
57 60 1 0 0 
SMALL
USER_CHARGES


@<TRIPOS>ATOM
  1 O       -0.4320     0.4320     0.7110 O.2   1 <1>  -0.5700 
  2 C       -1.0300     1.4770     0.9220 C.2   1 <1>   0.7160 
  3 N       -2.4070     1.3930     1.0780 N.am  1 <1>  -0.6600 
  4 C       -0.2680     2.7270     0.9890 C.2   1 <1>   0.2030 
  5 C       -3.0420     0.0790     1.3940 C.3   1 <1>   0.1400 
  6 C       -3.3060     2.5740     0.9310 C.3   1 <1>   0.1400 
  7 N       -0.6570     3.8930     1.4840 N.2   1 <1>  -0.7070 
  8 C        1.0460     2.8350     0.5220 C.2   1 <1>  -0.1500 
  9 C       -3.4280    -0.6770     0.1140 C.3   1 <1>   0.1400 
 10 C       -4.6410     2.2600     0.2410 C.3   1 <1>  -0.1600 
 11 N        0.3940     4.7100     1.3290 N.pl3 1 <1>   0.3000 
 12 C        1.4530     4.1070     0.7470 C.2   1 <1>  -0.2050 
 13 N       -4.6400    -0.0920    -0.5440 N.am  1 <1>  -0.6600 
 14 C       -4.5070     1.3310    -0.9700 C.3   1 <1>   0.1400 
 15 C        2.7050     4.7580     0.4550 C.ar  1 <1>   0.0530 
 16 C       -5.8390    -0.7530    -0.7290 C.2   1 <1>   0.5690 
 17 C        3.4040     4.4550    -0.7080 C.ar  1 <1>  -0.1500 
 18 C        3.2560     5.7050     1.3150 C.ar  1 <1>  -0.1500 
 19 O       -6.8410    -0.1330    -1.0170 O.2   1 <1>  -0.5700 
 20 C       -5.9520    -2.2850    -0.5250 C.3   1 <1>   0.2610 
 21 C        4.6020     5.0790    -1.0090 C.ar  1 <1>  -0.1500 
 22 C        4.4530     6.3320     1.0170 C.ar  1 <1>  -0.1500 
 23 O       -6.8040    -2.9020    -1.4570 O.3   1 <1>  -0.5600 
 24 C       -6.5160    -2.6570     0.8540 C.3   1 <1>  -0.1600 
 25 C        5.1350     6.0230    -0.1480 C.ar  1 <1>  -0.1430 
 26 C       -8.0610    -3.0880    -0.9020 C.3   1 <1>   0.1200 
 27 C       -7.7830    -3.4430     0.5480 C.3   1 <1>  -0.1600 
 28 C        6.4510     6.7090    -0.4760 C.3   1 <1>  -0.0170 
 29 C        6.2060     7.9860    -1.2830 C.3   1 <1>  -0.2400 
 30 H       -2.3400    -0.5210     1.9470 H     1 <1>   0.0800 
 31 H       -3.9060     0.2200     2.0190 H     1 <1>   0.0800 
 32 H       -3.4880     3.0030     1.9010 H     1 <1>   0.0800 
 33 H       -2.8080     3.3170     0.3330 H     1 <1>   0.0800 
 34 H        1.6070     2.0320     0.0780 H     1 <1>   0.1500 
 35 H       -3.6020    -1.6980     0.3900 H     1 <1>   0.0800 
 36 H       -2.6000    -0.6650    -0.5740 H     1 <1>   0.0800 
 37 H       -5.0530     3.1930    -0.0960 H     1 <1>   0.0800 
 38 H       -5.3450     1.8500     0.9430 H     1 <1>   0.0800 
 39 H        0.3770     5.6950     1.6170 H     1 <1>   0.2700 
 40 H       -3.5620     1.4810    -1.4640 H     1 <1>   0.0800 
 41 H       -5.2820     1.5660    -1.6810 H     1 <1>   0.0800 
 42 H        3.0020     3.7260    -1.3870 H     1 <1>   0.1500 
 43 H        2.7530     5.9510     2.2320 H     1 <1>   0.1500 
 44 H       -4.9930    -2.7410    -0.6760 H     1 <1>   0.0800 
 45 H        5.1180     4.8260    -1.9190 H     1 <1>   0.1500 
 46 H        4.8560     7.0620     1.6980 H     1 <1>   0.1500 
 47 H       -5.8120    -3.2430     1.4160 H     1 <1>   0.0800 
 48 H       -6.7510    -1.7660     1.4090 H     1 <1>   0.0800 
 49 H       -8.6030    -2.1600    -0.9850 H     1 <1>   0.0800 
 50 H       -8.5740    -3.8690    -1.4360 H     1 <1>   0.0800 
 51 H       -8.6050    -3.1740     1.1880 H     1 <1>   0.0800 
 52 H       -7.6000    -4.5000     0.6240 H     1 <1>   0.0800 
 53 H        6.9720     6.9520     0.4340 H     1 <1>   0.0800 
 54 H        7.0780     6.0410    -1.0410 H     1 <1>   0.0800 
 55 H        5.5960     8.6690    -0.7200 H     1 <1>   0.0800 
 56 H        5.7000     7.7510    -2.2030 H     1 <1>   0.0800 
 57 H        7.1410     8.4650    -1.5140 H     1 <1>   0.0800 
@<TRIPOS>BOND
  1   1   2  2   
  2   2   3  am  
  3   2   4  1   
  4   3   5  1   
  5   3   6  1   
  6   4   7  2   
  7   4   8  1   
  8   5   9  1   
  9   5  30  1   
 10   5  31  1   
 11   6  10  1   
 12   6  32  1   
 13   6  33  1   
 14   7  11  1   
 15   8  12  2   
 16   8  34  1   
 17   9  13  1   
 18   9  35  1   
 19   9  36  1   
 20  10  14  1   
 21  10  37  1   
 22  10  38  1   
 23  11  12  1   
 24  11  39  1   
 25  12  15  1   
 26  13  14  1   
 27  13  16  am  
 28  14  40  1   
 29  14  41  1   
 30  15  17  ar  
 31  15  18  ar  
 32  16  19  2   
 33  16  20  1   
 34  17  21  ar  
 35  17  42  1   
 36  18  22  ar  
 37  18  43  1   
 38  20  23  1   
 39  20  24  1   
 40  20  44  1   
 41  21  25  ar  
 42  21  45  1   
 43  22  25  ar  
 44  22  46  1   
 45  23  26  1   
 46  24  27  1   
 47  24  47  1   
 48  24  48  1   
 49  25  28  1   
 50  26  27  1   
 51  26  49  1   
 52  26  50  1   
 53  27  51  1   
 54  27  52  1   
 55  28  29  1   
 56  28  53  1   
 57  28  54  1   
 58  29  55  1   
 59  29  56  1   
 60  29  57  1   
@<TRIPOS>SUBSTRUCTURE
  1 ****   2 GROUP 4 **** **** 0

# MOE 2024.06 (io_trps.svl 2023.06)
