@<TRIPOS>MOLECULE
NONAME
52 55 1 0 0 
SMALL
USER_CHARGES


@<TRIPOS>ATOM
  1 O       -1.2780     1.4130     2.7770 O.3   1 <1>  -0.5600 
  2 C       -0.1450     1.0430     2.0610 C.3   1 <1>   0.1200 
  3 C       -2.3510     1.5940     1.8980 C.3   1 <1>   0.1200 
  4 C       -0.2530     1.8380     0.7660 C.3   1 <1>   0.2890 
  5 C       -1.7490     1.7460     0.4900 C.3   1 <1>  -0.0800 
  6 N        0.0890     3.2550     1.0680 N.pl3 1 <1>  -0.8690 
  7 C       -2.0890     0.5480    -0.4190 C.3   1 <1>  -0.0170 
  8 C        0.7290     4.1530     0.3070 C.ar  1 <1>   0.4610 
  9 C       -3.5840     0.4590    -0.6830 C.ar  1 <1>  -0.1440 
 10 N        0.9820     5.3620     0.8080 N.ar  1 <1>  -0.1790 
 11 C        1.1570     3.9020    -1.0190 C.ar  1 <1>  -0.1500 
 12 C       -4.2250     1.3270    -1.5450 C.ar  1 <1>  -0.1500 
 13 C       -4.3790    -0.4960    -0.0810 C.ar  1 <1>  -0.1500 
 14 C        1.6340     6.3810     0.1350 C.ar  1 <1>   0.3610 
 15 C        1.8060     4.8470    -1.7540 C.ar  1 <1>  -0.1440 
 16 C       -5.5890     1.2060    -1.7510 C.ar  1 <1>   0.1600 
 17 C       -5.7360    -0.5310    -0.3540 C.ar  1 <1>   0.1600 
 18 C        2.0650     6.1320    -1.1820 C.ar  1 <1>   0.0000 
 19 C        1.8570     7.6280     0.7510 C.ar  1 <1>  -0.1430 
 20 C        2.2520     4.5360    -3.1780 C.3   1 <1>  -0.0970 
 21 N       -6.3600     0.3000    -1.1730 N.ar  1 <1>  -0.6200 
 22 C        2.7270     7.1670    -1.8560 C.ar  1 <1>  -0.1500 
 23 C        2.5150     8.6240     0.0510 C.ar  1 <1>  -0.1430 
 24 C        1.3650     7.8540     2.1880 C.3   1 <1>  -0.0970 
 25 C        2.9440     8.3780    -1.2530 C.ar  1 <1>  -0.1500 
 26 C        2.8080    10.0060     0.6280 C.3   1 <1>  -0.0970 
 27 H        0.7390     1.2780     2.6280 H     1 <1>   0.0800 
 28 H       -0.1940    -0.0170     1.8780 H     1 <1>   0.0800 
 29 H       -3.0030     0.7420     1.9820 H     1 <1>   0.0800 
 30 H       -2.8840     2.4800     2.1990 H     1 <1>   0.0800 
 31 H        0.3650     1.4280    -0.0140 H     1 <1>   0.0800 
 32 H       -2.1120     2.6430     0.0200 H     1 <1>   0.0800 
 33 H       -0.2600     3.4600     2.0150 H     1 <1>   0.4000 
 34 H       -1.7500    -0.3700     0.0290 H     1 <1>   0.0800 
 35 H       -1.5820     0.6540    -1.3620 H     1 <1>   0.0800 
 36 H        0.6890     5.5550     1.7590 H     1 <1>   0.4570 
 37 H        0.9530     2.9370    -1.4410 H     1 <1>   0.1500 
 38 H       -3.6800     2.0950    -2.0620 H     1 <1>   0.1500 
 39 H       -3.9620    -1.2160     0.6000 H     1 <1>   0.1500 
 40 H       -6.0730     1.8910    -2.4260 H     1 <1>   0.1500 
 41 H       -6.3410    -1.2810     0.1260 H     1 <1>   0.1500 
 42 H        1.9830     3.5340    -3.4620 H     1 <1>   0.0800 
 43 H        3.3210     4.6290    -3.2620 H     1 <1>   0.0800 
 44 H        1.7870     5.2150    -3.8710 H     1 <1>   0.0800 
 45 H        3.0750     7.0220    -2.8630 H     1 <1>   0.1500 
 46 H        1.5690     8.8460     2.5440 H     1 <1>   0.0800 
 47 H        1.8540     7.1730     2.8620 H     1 <1>   0.0800 
 48 H        0.3000     7.7150     2.2460 H     1 <1>   0.0800 
 49 H        3.4560     9.1520    -1.8010 H     1 <1>   0.1500 
 50 H        3.3390    10.6210    -0.0770 H     1 <1>   0.0800 
 51 H        3.4150     9.9200     1.5110 H     1 <1>   0.0800 
 52 H        1.8900    10.5080     0.8760 H     1 <1>   0.0800 
@<TRIPOS>BOND
  1   1   2  1   
  2   1   3  1   
  3   2   4  1   
  4   2  27  1   
  5   2  28  1   
  6   3   5  1   
  7   3  29  1   
  8   3  30  1   
  9   4   5  1   
 10   4   6  1   
 11   4  31  1   
 12   5   7  1   
 13   5  32  1   
 14   6   8  1   
 15   6  33  1   
 16   7   9  1   
 17   7  34  1   
 18   7  35  1   
 19   8  10  ar  
 20   8  11  ar  
 21   9  12  ar  
 22   9  13  ar  
 23  10  14  ar  
 24  10  36  1   
 25  11  15  ar  
 26  11  37  1   
 27  12  16  ar  
 28  12  38  1   
 29  13  17  ar  
 30  13  39  1   
 31  14  18  ar  
 32  14  19  ar  
 33  15  18  ar  
 34  15  20  1   
 35  16  21  ar  
 36  16  40  1   
 37  17  21  ar  
 38  17  41  1   
 39  18  22  ar  
 40  19  23  ar  
 41  19  24  1   
 42  20  42  1   
 43  20  43  1   
 44  20  44  1   
 45  22  25  ar  
 46  22  45  1   
 47  23  25  ar  
 48  23  26  1   
 49  24  46  1   
 50  24  47  1   
 51  24  48  1   
 52  25  49  1   
 53  26  50  1   
 54  26  51  1   
 55  26  52  1   
@<TRIPOS>SUBSTRUCTURE
  1 ****   8 GROUP 4 **** **** 0

# MOE 2024.06 (io_trps.svl 2023.06)
