@<TRIPOS>MOLECULE
NONAME
42 44 1 0 0 
SMALL
USER_CHARGES


@<TRIPOS>ATOM
  1 S       -1.2520    -0.1430    -0.1520 S.3   1 <1>  -0.0800 
  2 C       -0.3400     1.3230    -0.1920 C.2   1 <1>   0.1980 
  3 C       -0.1830    -0.6690     1.1020 C.2   1 <1>   0.1980 
  4 N        0.6150     1.3420     0.6490 N.2   1 <1>  -0.3380 
  5 C       -0.7410     2.4100    -1.1770 C.3   1 <1>   0.5230 
  6 N        0.7040     0.1970     1.3880 N.2   1 <1>  -0.3380 
  7 C       -0.4000    -2.0400     1.7030 C.3   1 <1>  -0.0600 
  8 N        0.3220     3.4660    -1.2580 N.4   1 <1>  -0.9590 
  9 C       -0.1800     4.7620    -1.7790 C.3   1 <1>   0.5240 
 10 C        1.5460     2.9840    -1.9800 C.3   1 <1>   0.2630 
 11 C        0.8810     5.8050    -1.5140 C.2   1 <1>  -0.1810 
 12 C        1.5910     6.5040    -2.4830 C.2   1 <1>   0.1390 
 13 C        1.3680     6.2670    -0.3410 C.2   1 <1>  -0.3020 
 14 N        2.4500     7.3160    -1.9620 N.2   1 <1>  -0.7070 
 15 N        2.3210     7.1930    -0.6160 N.pl3 1 <1>   0.5930 
 16 C        3.1000     7.8990     0.3420 C.ar  1 <1>  -0.0230 
 17 C        2.9830     9.2810     0.5160 C.ar  1 <1>  -0.1440 
 18 C        3.9950     7.1920     1.1410 C.ar  1 <1>  -0.1500 
 19 C        3.7500     9.9180     1.4790 C.ar  1 <1>  -0.1500 
 20 C        2.0290    10.1100    -0.3350 C.3   1 <1>  -0.0970 
 21 C        4.7550     7.8360     2.0990 C.ar  1 <1>  -0.1500 
 22 C        4.6310     9.2020     2.2680 C.ar  1 <1>  -0.1500 
 23 H       -1.6670     2.8430    -0.8370 H     1 <1>   0.0800 
 24 H       -0.9040     1.9720    -2.1480 H     1 <1>   0.0800 
 25 H       -1.3780    -2.0960     2.1450 H     1 <1>   0.0800 
 26 H        0.3360    -2.2240     2.4650 H     1 <1>   0.0800 
 27 H       -0.3100    -2.7930     0.9430 H     1 <1>   0.0800 
 28 H        0.6200     3.6360    -0.2830 H     1 <1>   0.4500 
 29 H       -1.0870     5.0460    -1.2690 H     1 <1>   0.0800 
 30 H       -0.3810     4.6940    -2.8360 H     1 <1>   0.0800 
 31 H        1.3200     2.7710    -3.0120 H     1 <1>   0.0800 
 32 H        1.9250     2.0870    -1.5150 H     1 <1>   0.0800 
 33 H        2.3220     3.7330    -1.9440 H     1 <1>   0.0800 
 34 H        1.4660     6.4010    -3.5500 H     1 <1>   0.1500 
 35 H        1.1170     6.0210     0.6750 H     1 <1>   0.1500 
 36 H        4.1050     6.1290     1.0140 H     1 <1>   0.1500 
 37 H        3.6690    10.9820     1.6200 H     1 <1>   0.1500 
 38 H        1.0320     9.7120    -0.2760 H     1 <1>   0.0800 
 39 H        2.3500    10.0950    -1.3620 H     1 <1>   0.0800 
 40 H        2.0040    11.1330    -0.0050 H     1 <1>   0.0800 
 41 H        5.4440     7.2790     2.7100 H     1 <1>   0.1500 
 42 H        5.2220     9.7090     3.0120 H     1 <1>   0.1500 
@<TRIPOS>BOND
  1   1   2  1   
  2   1   3  1   
  3   2   4  2   
  4   2   5  1   
  5   3   6  2   
  6   3   7  1   
  7   4   6  1   
  8   5   8  1   
  9   5  23  1   
 10   5  24  1   
 11   7  25  1   
 12   7  26  1   
 13   7  27  1   
 14   8   9  1   
 15   8  10  1   
 16   8  28  1   
 17   9  11  1   
 18   9  29  1   
 19   9  30  1   
 20  10  31  1   
 21  10  32  1   
 22  10  33  1   
 23  11  12  1   
 24  11  13  2   
 25  12  14  2   
 26  12  34  1   
 27  13  15  1   
 28  13  35  1   
 29  14  15  1   
 30  15  16  1   
 31  16  17  ar  
 32  16  18  ar  
 33  17  19  ar  
 34  17  20  1   
 35  18  21  ar  
 36  18  36  1   
 37  19  22  ar  
 38  19  37  1   
 39  20  38  1   
 40  20  39  1   
 41  20  40  1   
 42  21  22  ar  
 43  21  41  1   
 44  22  42  1   
@<TRIPOS>SUBSTRUCTURE
  1 ****  13 GROUP 4 **** **** 0

# MOE 2024.06 (io_trps.svl 2023.06)
