@<TRIPOS>MOLECULE
NONAME
50 52 1 0 0 
SMALL
USER_CHARGES


@<TRIPOS>ATOM
  1 S       -2.5480     0.3500    -0.6220 S.3   1 <1>  -0.0800 
  2 C       -3.3940    -1.1840    -0.4770 C.2   1 <1>  -0.1400 
  3 C       -3.0080     0.4940    -2.3090 C.2   1 <1>  -0.1100 
  4 C       -3.9660    -1.5190    -1.6480 C.2   1 <1>  -0.1500 
  5 C       -3.3590    -1.8890     0.8660 C.3   1 <1>   0.0200 
  6 C       -3.7460    -0.5640    -2.6910 C.2   1 <1>  -0.1500 
  7 C       -1.9740    -2.5080     1.1040 C.3   1 <1>  -0.1600 
  8 C       -1.7050    -3.6130     0.0650 C.3   1 <1>   0.4230 
  9 N       -1.6160    -4.9680     0.6910 N.4   1 <1>  -0.9590 
 10 C       -0.4070    -3.3290    -0.7060 C.3   1 <1>  -0.1600 
 11 C       -1.4910    -5.9980    -0.3850 C.3   1 <1>   0.3430 
 12 C       -2.8200    -5.3220     1.5450 C.3   1 <1>   0.4040 
 13 C       -0.1400    -4.3910    -1.7780 C.3   1 <1>  -0.1600 
 14 C       -0.1900    -5.7910    -1.1590 C.3   1 <1>  -0.1600 
 15 C       -2.7310    -6.7090     2.2330 C.2   1 <1>   0.5690 
 16 O       -1.6360    -7.1680     2.4680 O.2   1 <1>  -0.5700 
 17 N       -3.8610    -7.4330     2.4640 N.am  1 <1>  -0.7300 
 18 C       -4.0280    -8.7310     1.7630 C.3   1 <1>   0.3200 
 19 C       -4.6990    -8.3960     0.4380 C.2   1 <1>  -0.0400 
 20 O       -4.3260    -7.2690    -0.1160 O.3   1 <1>  -0.2800 
 21 C       -5.6640    -8.9640    -0.3190 C.2   1 <1>  -0.1500 
 22 C       -5.0610    -7.0080    -1.1820 C.2   1 <1>  -0.0920 
 23 C       -5.8910    -8.0700    -1.3760 C.2   1 <1>  -0.1500 
 24 C       -4.8820    -5.7300    -1.8460 C.2   1 <1>   1.0320 
 25 O       -5.3700    -5.4910    -2.9600 O.co2 1 <1>  -0.9000 
 26 O       -4.2130    -4.8370    -1.2780 O.co2 1 <1>  -0.9000 
 27 H       -2.6740     1.3650    -2.8430 H     1 <1>   0.1500 
 28 H       -4.5400    -2.4140    -1.8390 H     1 <1>   0.1500 
 29 H       -4.1150    -2.6560     0.8750 H     1 <1>   0.0800 
 30 H       -3.5900    -1.1800     1.6410 H     1 <1>   0.0800 
 31 H       -4.1570    -0.7290    -3.6720 H     1 <1>   0.1500 
 32 H       -1.8920    -2.8700     2.1100 H     1 <1>   0.0800 
 33 H       -1.2460    -1.7220     1.0030 H     1 <1>   0.0800 
 34 H       -2.5140    -3.6140    -0.6500 H     1 <1>   0.0800 
 35 H       -0.7780    -5.0380     1.2760 H     1 <1>   0.4500 
 36 H        0.4210    -3.2790    -0.0210 H     1 <1>   0.0800 
 37 H       -0.4940    -2.3710    -1.1900 H     1 <1>   0.0800 
 38 H       -2.3240    -5.9220    -1.0640 H     1 <1>   0.0800 
 39 H       -1.4970    -6.9880     0.0400 H     1 <1>   0.0800 
 40 H       -3.7010    -5.3010     0.9270 H     1 <1>   0.0800 
 41 H       -2.9470    -4.5870     2.3180 H     1 <1>   0.0800 
 42 H        0.8170    -4.2220    -2.2410 H     1 <1>   0.0800 
 43 H       -0.8980    -4.3160    -2.5420 H     1 <1>   0.0800 
 44 H       -0.1320    -6.5280    -1.9420 H     1 <1>   0.0800 
 45 H        0.6480    -5.9440    -0.5020 H     1 <1>   0.0800 
 46 H       -4.7500    -6.9290     2.4170 H     1 <1>   0.3700 
 47 H       -4.6370    -9.4000     2.3450 H     1 <1>   0.0800 
 48 H       -3.0670    -9.1850     1.5880 H     1 <1>   0.0800 
 49 H       -6.1920    -9.8890    -0.1660 H     1 <1>   0.1500 
 50 H       -6.6060    -8.1870    -2.1720 H     1 <1>   0.1500 
@<TRIPOS>BOND
  1   1   2  1   
  2   1   3  1   
  3   2   4  2   
  4   2   5  1   
  5   3   6  2   
  6   3  27  1   
  7   4   6  1   
  8   4  28  1   
  9   5   7  1   
 10   5  29  1   
 11   5  30  1   
 12   6  31  1   
 13   7   8  1   
 14   7  32  1   
 15   7  33  1   
 16   8   9  1   
 17   8  10  1   
 18   8  34  1   
 19   9  11  1   
 20   9  12  1   
 21   9  35  1   
 22  10  13  1   
 23  10  36  1   
 24  10  37  1   
 25  11  14  1   
 26  11  38  1   
 27  11  39  1   
 28  12  15  1   
 29  12  40  1   
 30  12  41  1   
 31  13  14  1   
 32  13  42  1   
 33  13  43  1   
 34  14  44  1   
 35  14  45  1   
 36  15  16  2   
 37  15  17  am  
 38  17  18  1   
 39  17  46  1   
 40  18  19  1   
 41  18  47  1   
 42  18  48  1   
 43  19  20  1   
 44  19  21  2   
 45  20  22  1   
 46  21  23  1   
 47  21  49  1   
 48  22  23  2   
 49  22  24  1   
 50  23  50  1   
 51  24  25  ar  
 52  24  26  ar  
@<TRIPOS>SUBSTRUCTURE
  1 ****  26 GROUP 4 **** **** 0

# MOE 2024.06 (io_trps.svl 2023.06)
