@<TRIPOS>MOLECULE
NONAME
49 51 1 0 0 
SMALL
USER_CHARGES


@<TRIPOS>ATOM
  1 O       -0.1570     1.8240    -1.9980 O.2   1 <1>  -0.5700 
  2 C       -0.1470     2.9820    -1.6700 C.2   1 <1>   0.5690 
  3 N       -0.8590     3.4080    -0.6040 N.am  1 <1>  -0.7300 
  4 C        0.6510     4.0050    -2.4770 C.3   1 <1>   0.1810 
  5 C       -0.9460     4.8270    -0.1770 C.3   1 <1>   0.3640 
  6 O        0.9650     5.1560    -1.7230 O.3   1 <1>  -0.5600 
  7 C       -2.4250     5.2080    -0.1310 C.ar  1 <1>  -0.1440 
  8 C       -0.1520     5.7910    -1.1070 C.3   1 <1>   0.2610 
  9 C       -3.2710     4.9270    -1.1950 C.ar  1 <1>  -0.1500 
 10 C       -2.9480     5.8500     0.9800 C.ar  1 <1>  -0.1500 
 11 C        0.3220     7.0370    -0.3430 C.2   1 <1>   0.5690 
 12 C       -4.6120     5.2740    -1.1680 C.ar  1 <1>   0.0830 
 13 C       -4.2820     6.2120     1.0230 C.ar  1 <1>  -0.1500 
 14 O       -0.3020     7.4590     0.6030 O.2   1 <1>  -0.5700 
 15 N        1.4660     7.6540    -0.7450 N.am  1 <1>  -0.7300 
 16 O       -5.3130     4.9230    -2.2830 O.3   1 <1>  -0.3630 
 17 C       -5.1320     5.9410    -0.0470 C.ar  1 <1>   0.0830 
 18 C        2.0110     8.9160    -0.1860 C.3   1 <1>   0.1400 
 19 C       -6.6780     4.5760    -2.2090 C.3   1 <1>   0.0400 
 20 O       -6.4410     6.3290    -0.0260 O.3   1 <1>  -0.3630 
 21 C        2.7030     8.6540     1.1510 C.3   1 <1>   0.0960 
 22 C       -6.9360     7.2350     0.9360 C.3   1 <1>   0.0400 
 23 N        3.2530     9.9130     1.6750 N.pl3 1 <1>   0.3140 
 24 N        4.3050    10.5220     1.0970 N.2   1 <1>  -0.7070 
 25 C        2.8070    10.6130     2.7380 C.2   1 <1>  -0.3020 
 26 C        4.5040    11.5890     1.8080 C.2   1 <1>   0.1390 
 27 C        3.5950    11.7020     2.8530 C.2   1 <1>  -0.1500 
 28 H       -1.4500     2.7350    -0.1130 H     1 <1>   0.3700 
 29 H        0.0860     4.3040    -3.3410 H     1 <1>   0.0800 
 30 H        1.5750     3.5610    -2.7990 H     1 <1>   0.0800 
 31 H       -0.5340     4.8930     0.8160 H     1 <1>   0.0800 
 32 H       -0.8010     6.1270    -1.8960 H     1 <1>   0.0800 
 33 H       -2.9020     4.4230    -2.0700 H     1 <1>   0.1500 
 34 H       -2.3140     6.0850     1.8190 H     1 <1>   0.1500 
 35 H       -4.6370     6.7090     1.9050 H     1 <1>   0.1500 
 36 H        2.0150     7.1920    -1.4800 H     1 <1>   0.3700 
 37 H        2.7130     9.3410    -0.8840 H     1 <1>   0.0800 
 38 H        1.2020     9.6130    -0.0390 H     1 <1>   0.0800 
 39 H       -6.9260     4.0030    -3.0840 H     1 <1>   0.0800 
 40 H       -7.2630     5.4770    -2.1860 H     1 <1>   0.0800 
 41 H       -6.8440     3.9890    -1.3230 H     1 <1>   0.0800 
 42 H        3.5150     7.9630     1.0190 H     1 <1>   0.0800 
 43 H        2.0010     8.2580     1.8610 H     1 <1>   0.0800 
 44 H       -7.9520     7.4720     0.6790 H     1 <1>   0.0800 
 45 H       -6.3360     8.1280     0.9160 H     1 <1>   0.0800 
 46 H       -6.9050     6.7690     1.9050 H     1 <1>   0.0800 
 47 H        1.9720    10.3030     3.3390 H     1 <1>   0.1500 
 48 H        5.2880    12.3000     1.6030 H     1 <1>   0.1500 
 49 H        3.5550    12.4960     3.5770 H     1 <1>   0.1500 
@<TRIPOS>BOND
  1   1   2  2   
  2   2   3  am  
  3   2   4  1   
  4   3   5  1   
  5   3  28  1   
  6   4   6  1   
  7   4  29  1   
  8   4  30  1   
  9   5   7  1   
 10   5   8  1   
 11   5  31  1   
 12   6   8  1   
 13   7   9  ar  
 14   7  10  ar  
 15   8  11  1   
 16   8  32  1   
 17   9  12  ar  
 18   9  33  1   
 19  10  13  ar  
 20  10  34  1   
 21  11  14  2   
 22  11  15  am  
 23  12  16  1   
 24  12  17  ar  
 25  13  17  ar  
 26  13  35  1   
 27  15  18  1   
 28  15  36  1   
 29  16  19  1   
 30  17  20  1   
 31  18  21  1   
 32  18  37  1   
 33  18  38  1   
 34  19  39  1   
 35  19  40  1   
 36  19  41  1   
 37  20  22  1   
 38  21  23  1   
 39  21  42  1   
 40  21  43  1   
 41  22  44  1   
 42  22  45  1   
 43  22  46  1   
 44  23  24  1   
 45  23  25  1   
 46  24  26  2   
 47  25  27  2   
 48  25  47  1   
 49  26  27  1   
 50  26  48  1   
 51  27  49  1   
@<TRIPOS>SUBSTRUCTURE
  1 ****  14 GROUP 4 **** **** 0

# MOE 2024.06 (io_trps.svl 2023.06)
