@<TRIPOS>MOLECULE
NONAME
50 52 1 0 0 
SMALL
USER_CHARGES


@<TRIPOS>ATOM
  1 O       -0.3270    -0.1630     1.5700 O.2   1 <1>  -0.5700 
  2 C       -1.2830     0.5470     1.3090 C.2   1 <1>   0.5440 
  3 N       -2.5400    -0.0350     1.3360 N.am  1 <1>  -0.6600 
  4 C       -1.0560     1.9610     0.9980 C.ar  1 <1>   0.3960 
  5 C       -2.7340    -1.5060     1.1580 C.3   1 <1>   0.1400 
  6 C       -3.8240     0.7110     1.1880 C.3   1 <1>   0.1400 
  7 N       -1.6640     2.5220    -0.0640 N.ar  1 <1>  -0.6200 
  8 C       -0.1970     2.6910     1.8200 C.ar  1 <1>  -0.1500 
  9 C       -3.4770    -1.7940    -0.1610 C.3   1 <1>   0.3440 
 10 C       -4.4730     0.3610    -0.1690 C.3   1 <1>   0.2000 
 11 C       -1.4270     3.7960    -0.2750 C.ar  1 <1>   0.4100 
 12 C        0.0460     4.0280     1.5850 C.ar  1 <1>  -0.1500 
 13 O       -4.6580    -1.0330    -0.2390 O.3   1 <1>  -0.5600 
 14 C       -3.8190    -3.2770    -0.2740 C.ar  1 <1>  -0.1440 
 15 C       -5.8280     1.0780    -0.4490 C.3   1 <1>   0.0000 
 16 N       -2.0650     4.3070    -1.3570 N.pl3 1 <1>  -0.9000 
 17 C       -0.5950     4.5860     0.5070 C.ar  1 <1>  -0.1500 
 18 C       -2.9270    -4.1420    -0.8940 C.ar  1 <1>  -0.1500 
 19 C       -5.0020    -3.7890     0.2430 C.ar  1 <1>  -0.1500 
 20 C       -5.6490     2.6080    -0.4320 C.3   1 <1>  -0.2400 
 21 C       -6.9080     0.7010     0.5820 C.3   1 <1>  -0.2400 
 22 C       -6.3370     0.6850    -1.8480 C.3   1 <1>  -0.2400 
 23 C       -3.2110    -5.4930    -0.9940 C.ar  1 <1>  -0.1500 
 24 C       -5.2880    -5.1390     0.1440 C.ar  1 <1>  -0.1500 
 25 C       -4.3920    -5.9930    -0.4750 C.ar  1 <1>  -0.1500 
 26 H       -1.7890    -2.0190     1.1470 H     1 <1>   0.0800 
 27 H       -3.3080    -1.8940     1.9810 H     1 <1>   0.0800 
 28 H       -4.4850     0.4260     1.9870 H     1 <1>   0.0800 
 29 H       -3.6590     1.7680     1.2670 H     1 <1>   0.0800 
 30 H        0.2800     2.1940     2.6470 H     1 <1>   0.1500 
 31 H       -2.8520    -1.5110    -0.9910 H     1 <1>   0.0800 
 32 H       -3.7850     0.6380    -0.9500 H     1 <1>   0.0800 
 33 H        0.7040     4.6020     2.2160 H     1 <1>   0.1500 
 34 H       -2.4660     3.5850    -1.9570 H     1 <1>   0.4000 
 35 H       -1.5830     5.0380    -1.8800 H     1 <1>   0.4000 
 36 H       -0.4630     5.6230     0.2620 H     1 <1>   0.1500 
 37 H       -2.0040    -3.7670    -1.3010 H     1 <1>   0.1500 
 38 H       -5.7060    -3.1300     0.7220 H     1 <1>   0.1500 
 39 H       -6.5580     3.0970    -0.7370 H     1 <1>   0.0800 
 40 H       -4.8650     2.9040    -1.1060 H     1 <1>   0.0800 
 41 H       -5.4020     2.9640     0.5520 H     1 <1>   0.0800 
 42 H       -7.8470     1.1620     0.3290 H     1 <1>   0.0800 
 43 H       -6.6350     1.0240     1.5700 H     1 <1>   0.0800 
 44 H       -7.0520    -0.3650     0.6000 H     1 <1>   0.0800 
 45 H       -7.2550     1.1940    -2.0790 H     1 <1>   0.0800 
 46 H       -6.5190    -0.3740    -1.8990 H     1 <1>   0.0800 
 47 H       -5.6090     0.9370    -2.5990 H     1 <1>   0.0800 
 48 H       -2.5130    -6.1550    -1.4760 H     1 <1>   0.1500 
 49 H       -6.2080    -5.5240     0.5470 H     1 <1>   0.1500 
 50 H       -4.6130    -7.0430    -0.5520 H     1 <1>   0.1500 
@<TRIPOS>BOND
  1   1   2  2   
  2   2   3  am  
  3   2   4  1   
  4   3   5  1   
  5   3   6  1   
  6   4   7  ar  
  7   4   8  ar  
  8   5   9  1   
  9   5  26  1   
 10   5  27  1   
 11   6  10  1   
 12   6  28  1   
 13   6  29  1   
 14   7  11  ar  
 15   8  12  ar  
 16   8  30  1   
 17   9  13  1   
 18   9  14  1   
 19   9  31  1   
 20  10  13  1   
 21  10  15  1   
 22  10  32  1   
 23  11  16  1   
 24  11  17  ar  
 25  12  17  ar  
 26  12  33  1   
 27  14  18  ar  
 28  14  19  ar  
 29  15  20  1   
 30  15  21  1   
 31  15  22  1   
 32  16  34  1   
 33  16  35  1   
 34  17  36  1   
 35  18  23  ar  
 36  18  37  1   
 37  19  24  ar  
 38  19  38  1   
 39  20  39  1   
 40  20  40  1   
 41  20  41  1   
 42  21  42  1   
 43  21  43  1   
 44  21  44  1   
 45  22  45  1   
 46  22  46  1   
 47  22  47  1   
 48  23  25  ar  
 49  23  48  1   
 50  24  25  ar  
 51  24  49  1   
 52  25  50  1   
@<TRIPOS>SUBSTRUCTURE
  1 ****   3 GROUP 4 **** **** 0

# MOE 2024.06 (io_trps.svl 2023.06)
