@<TRIPOS>MOLECULE
NONAME
47 49 1 0 0 
SMALL
USER_CHARGES


@<TRIPOS>ATOM
  1 O       -1.5030    -1.2290     0.2810 O.2   1 <1>  -0.5700 
  2 C       -2.1690    -0.2140     0.3670 C.2   1 <1>   0.5440 
  3 N       -1.5260     1.0060     0.3230 N.am  1 <1>  -0.6600 
  4 C       -3.6030    -0.3260     0.4990 C.ar  1 <1>   0.0860 
  5 C       -2.1580     2.2610    -0.1850 C.3   1 <1>   0.1400 
  6 C       -0.0440     1.1240     0.4860 C.3   1 <1>   0.1400 
  7 C       -4.3070    -1.2620    -0.2530 C.ar  1 <1>   0.1600 
  8 C       -4.3480     0.4620     1.3720 C.ar  1 <1>  -0.1500 
  9 C       -1.3900     2.8030    -1.4040 C.3   1 <1>   0.1200 
 10 C        0.5940     1.7210    -0.7780 C.3   1 <1>   0.1200 
 11 N       -5.6150    -1.4530    -0.2310 N.ar  1 <1>  -0.6200 
 12 C       -5.7080     0.2740     1.4120 C.ar  1 <1>  -0.1500 
 13 O       -0.0260     2.9300    -1.1170 O.3   1 <1>  -0.5600 
 14 C       -6.3070    -0.6850     0.6000 C.ar  1 <1>   0.4100 
 15 N       -7.6630    -0.8680     0.6530 N.pl3 1 <1>  -0.8690 
 16 C       -8.3980    -1.9170    -0.1170 C.3   1 <1>   0.2090 
 17 C       -8.1730    -3.3270     0.4580 C.3   1 <1>   0.2000 
 18 O       -8.9600    -4.2250    -0.3020 O.3   1 <1>  -0.3630 
 19 C       -8.5960    -3.4500     1.9300 C.3   1 <1>  -0.2400 
 20 C       -8.6840    -5.5540    -0.3990 C.ar  1 <1>   0.0830 
 21 C       -9.5760    -6.3430    -1.1160 C.ar  1 <1>   0.1600 
 22 C       -7.5740    -6.1630     0.1680 C.ar  1 <1>  -0.1500 
 23 N       -9.4630    -7.6500    -1.3090 N.ar  1 <1>  -0.6200 
 24 C       -7.4400    -7.5220    -0.0250 C.ar  1 <1>  -0.1500 
 25 C       -8.3960    -8.2070    -0.7580 C.ar  1 <1>   0.1600 
 26 H       -2.1500     3.0030     0.5940 H     1 <1>   0.0800 
 27 H       -3.1790     2.0850    -0.4720 H     1 <1>   0.0800 
 28 H        0.3970     0.1630     0.6880 H     1 <1>   0.0800 
 29 H        0.1690     1.7640     1.3230 H     1 <1>   0.0800 
 30 H       -3.7380    -1.8910    -0.9180 H     1 <1>   0.1500 
 31 H       -3.8620     1.1910     1.9980 H     1 <1>   0.1500 
 32 H       -1.7600     3.7750    -1.6750 H     1 <1>   0.0800 
 33 H       -1.5030     2.1430    -2.2470 H     1 <1>   0.0800 
 34 H        0.5010     1.0380    -1.6050 H     1 <1>   0.0800 
 35 H        1.6370     1.9210    -0.6090 H     1 <1>   0.0800 
 36 H       -6.3230     0.8610     2.0680 H     1 <1>   0.1500 
 37 H       -8.1830    -0.4410     1.4210 H     1 <1>   0.4000 
 38 H       -8.0590    -1.9010    -1.1390 H     1 <1>   0.0800 
 39 H       -9.4480    -1.6880    -0.1030 H     1 <1>   0.0800 
 40 H       -7.1370    -3.5770     0.3240 H     1 <1>   0.0800 
 41 H       -9.6250    -3.1620     2.0480 H     1 <1>   0.0800 
 42 H       -7.9860    -2.8100     2.5400 H     1 <1>   0.0800 
 43 H       -8.4690    -4.4590     2.2770 H     1 <1>   0.0800 
 44 H      -10.4310    -5.8580    -1.5510 H     1 <1>   0.1500 
 45 H       -6.8360    -5.6270     0.7350 H     1 <1>   0.1500 
 46 H       -6.6010    -8.0510     0.3890 H     1 <1>   0.1500 
 47 H       -8.2760    -9.2670    -0.8990 H     1 <1>   0.1500 
@<TRIPOS>BOND
  1   1   2  2   
  2   2   3  am  
  3   2   4  1   
  4   3   5  1   
  5   3   6  1   
  6   4   7  ar  
  7   4   8  ar  
  8   5   9  1   
  9   5  26  1   
 10   5  27  1   
 11   6  10  1   
 12   6  28  1   
 13   6  29  1   
 14   7  11  ar  
 15   7  30  1   
 16   8  12  ar  
 17   8  31  1   
 18   9  13  1   
 19   9  32  1   
 20   9  33  1   
 21  10  13  1   
 22  10  34  1   
 23  10  35  1   
 24  11  14  ar  
 25  12  14  ar  
 26  12  36  1   
 27  14  15  1   
 28  15  16  1   
 29  15  37  1   
 30  16  17  1   
 31  16  38  1   
 32  16  39  1   
 33  17  18  1   
 34  17  19  1   
 35  17  40  1   
 36  18  20  1   
 37  19  41  1   
 38  19  42  1   
 39  19  43  1   
 40  20  21  ar  
 41  20  22  ar  
 42  21  23  ar  
 43  21  44  1   
 44  22  24  ar  
 45  22  45  1   
 46  23  25  ar  
 47  24  25  ar  
 48  24  46  1   
 49  25  47  1   
@<TRIPOS>SUBSTRUCTURE
  1 ****  11 GROUP 4 **** **** 0

# MOE 2024.06 (io_trps.svl 2023.06)
