@<TRIPOS>MOLECULE
NONAME
31 33 1 0 0 
SMALL
USER_CHARGES


@<TRIPOS>ATOM
  1 CL      -1.2490     0.2220     2.0560 Cl    1 <1>  -0.1770 
  2 C       -2.2640     0.7990     0.7520 C.ar  1 <1>   0.1770 
  3 C       -2.3420     2.1600     0.5070 C.ar  1 <1>   0.1770 
  4 C       -2.9890    -0.1050    -0.0190 C.ar  1 <1>   0.0860 
  5 CL      -1.4290     3.2970     1.4740 Cl    1 <1>  -0.1770 
  6 C       -3.1440     2.6560    -0.5040 C.ar  1 <1>  -0.1500 
  7 C       -2.9240    -1.5290     0.2070 C.2   1 <1>   0.5440 
  8 C       -3.7950     0.4120    -1.0360 C.ar  1 <1>  -0.1500 
  9 C       -3.8760     1.7730    -1.2790 C.ar  1 <1>  -0.1500 
 10 O       -1.9390    -2.1410    -0.1600 O.2   1 <1>  -0.5700 
 11 N       -3.9670    -2.1980     0.7890 N.am  1 <1>  -0.6600 
 12 C       -5.2480    -1.5790     1.2400 C.3   1 <1>   0.2350 
 13 C       -4.1780    -3.6650     0.6310 C.3   1 <1>   0.2350 
 14 C       -6.3320    -2.5030     0.7260 C.3   1 <1>  -0.2420 
 15 C       -5.6720    -3.8160     0.3770 C.3   1 <1>  -0.2420 
 16 C       -7.6720    -2.1360     1.3670 C.2   1 <1>   0.9470 
 17 C       -6.3400    -2.9990    -0.7000 C.3   1 <1>  -0.2000 
 18 C       -6.1270    -5.2570     0.6150 C.2   1 <1>   0.9470 
 19 O       -8.6090    -1.7720     0.6430 O.co2 1 <1>  -0.9000 
 20 O       -7.7340    -2.0220     2.5980 O.co2 1 <1>  -0.9000 
 21 O       -5.7900    -5.8250     1.6630 O.co2 1 <1>  -0.9000 
 22 O       -6.6890    -5.8790    -0.2970 O.co2 1 <1>  -0.9000 
 23 H       -3.1940     3.7170    -0.6790 H     1 <1>   0.1500 
 24 H       -4.3690    -0.2760    -1.6360 H     1 <1>   0.1500 
 25 H       -4.5110     2.1410    -2.0680 H     1 <1>   0.1500 
 26 H       -5.2700    -1.5570     2.3170 H     1 <1>   0.0800 
 27 H       -5.3930    -0.5860     0.8590 H     1 <1>   0.0800 
 28 H       -3.6080    -4.0640    -0.1890 H     1 <1>   0.0800 
 29 H       -3.9020    -4.1660     1.5440 H     1 <1>   0.0800 
 30 H       -5.7390    -2.5110    -1.4420 H     1 <1>   0.1000 
 31 H       -7.2710    -3.3660    -1.0990 H     1 <1>   0.1000 
@<TRIPOS>BOND
  1   1   2  1   
  2   2   3  ar  
  3   2   4  ar  
  4   3   5  1   
  5   3   6  ar  
  6   4   7  1   
  7   4   8  ar  
  8   6   9  ar  
  9   6  23  1   
 10   7  10  2   
 11   7  11  am  
 12   8   9  ar  
 13   8  24  1   
 14   9  25  1   
 15  11  12  1   
 16  11  13  1   
 17  12  14  1   
 18  12  26  1   
 19  12  27  1   
 20  13  15  1   
 21  13  28  1   
 22  13  29  1   
 23  14  15  1   
 24  14  16  1   
 25  14  17  1   
 26  15  17  1   
 27  15  18  1   
 28  16  19  ar  
 29  16  20  ar  
 30  17  30  1   
 31  17  31  1   
 32  18  21  ar  
 33  18  22  ar  
@<TRIPOS>SUBSTRUCTURE
  1 ****  11 GROUP 4 **** **** 0

# MOE 2024.06 (io_trps.svl 2023.06)
