@<TRIPOS>MOLECULE
NONAME
48 49 1 0 0 
SMALL
USER_CHARGES


@<TRIPOS>ATOM
  1 S       -0.7460    -0.1350     0.0220 S.3   1 <1>  -0.0800 
  2 C       -0.5210    -1.4290    -1.1080 C.2   1 <1>   0.4420 
  3 C        0.2490     0.8380    -1.0070 C.2   1 <1>   0.1980 
  4 N        0.2230    -1.0870    -2.0970 N.2   1 <1>  -0.3380 
  5 N       -1.1240    -2.6280    -0.8030 N.am  1 <1>  -0.4940 
  6 N        0.6560     0.2090    -2.0330 N.2   1 <1>  -0.3380 
  7 C        0.5170     2.2750    -0.6030 C.3   1 <1>   0.0200 
  8 C       -1.3210    -3.7430    -1.5780 C.2   1 <1>   0.6160 
  9 C        1.4790     2.3570     0.5900 C.3   1 <1>  -0.1600 
 10 O       -1.2860    -3.6190    -2.7870 O.2   1 <1>  -0.5700 
 11 C       -1.5860    -5.0320    -0.9780 C.2   1 <1>   0.0290 
 12 C        1.7690     3.8130     0.9800 C.3   1 <1>  -0.1600 
 13 C       -2.4010    -5.0750     0.2060 C.2   1 <1>   0.6160 
 14 C       -1.1070    -6.2230    -1.4850 C.2   1 <1>  -0.1380 
 15 C        2.7300     3.8840     2.1710 C.3   1 <1>  -0.1600 
 16 O       -2.7840    -4.0430     0.7560 O.2   1 <1>  -0.5700 
 17 N       -2.7550    -6.3010     0.7690 N.am  1 <1>  -0.4690 
 18 C       -1.4740    -7.4380    -0.8750 C.2   1 <1>  -0.1500 
 19 C       -0.1800    -6.3200    -2.6940 C.3   1 <1>  -0.1020 
 20 C        3.0200     5.3360     2.5600 C.3   1 <1>  -0.2400 
 21 C       -2.2810    -7.4760     0.2200 C.2   1 <1>  -0.0290 
 22 C       -3.6670    -6.2980     1.9570 C.3   1 <1>   0.1400 
 23 C       -2.6520    -8.8210     0.8330 C.3   1 <1>  -0.1020 
 24 C       -5.1240    -6.2710     1.4930 C.3   1 <1>  -0.2400 
 25 H       -1.5840    -2.6850     0.1100 H     1 <1>   0.3700 
 26 H       -0.4170     2.7500    -0.3610 H     1 <1>   0.0800 
 27 H        0.9440     2.7900    -1.4450 H     1 <1>   0.0800 
 28 H        2.4010     1.8640     0.3310 H     1 <1>   0.0800 
 29 H        1.0510     1.8410     1.4330 H     1 <1>   0.0800 
 30 H        0.8480     4.3080     1.2360 H     1 <1>   0.0800 
 31 H        2.2050     4.3300     0.1410 H     1 <1>   0.0800 
 32 H        3.6560     3.3940     1.9200 H     1 <1>   0.0800 
 33 H        2.3010     3.3710     3.0160 H     1 <1>   0.0800 
 34 H       -1.1000    -8.3520    -1.3040 H     1 <1>   0.1500 
 35 H        0.4070    -7.2200    -2.6610 H     1 <1>   0.0800 
 36 H        0.5020    -5.4890    -2.7250 H     1 <1>   0.0800 
 37 H       -0.7610    -6.3190    -3.5990 H     1 <1>   0.0800 
 38 H        3.4720     5.8630     1.7380 H     1 <1>   0.0800 
 39 H        3.6960     5.3650     3.3970 H     1 <1>   0.0800 
 40 H        2.1110     5.8400     2.8380 H     1 <1>   0.0800 
 41 H       -3.4680    -5.4370     2.5720 H     1 <1>   0.0800 
 42 H       -3.4930    -7.1610     2.5710 H     1 <1>   0.0800 
 43 H       -3.7200    -8.9400     0.8600 H     1 <1>   0.0800 
 44 H       -2.2590    -8.8950     1.8310 H     1 <1>   0.0800 
 45 H       -2.2440    -9.6300     0.2550 H     1 <1>   0.0800 
 46 H       -5.3190    -5.3710     0.9380 H     1 <1>   0.0800 
 47 H       -5.7760    -6.2890     2.3470 H     1 <1>   0.0800 
 48 H       -5.3420    -7.1230     0.8760 H     1 <1>   0.0800 
@<TRIPOS>BOND
  1   1   2  1   
  2   1   3  1   
  3   2   4  2   
  4   2   5  1   
  5   3   6  2   
  6   3   7  1   
  7   4   6  1   
  8   5   8  am  
  9   5  25  1   
 10   7   9  1   
 11   7  26  1   
 12   7  27  1   
 13   8  10  2   
 14   8  11  1   
 15   9  12  1   
 16   9  28  1   
 17   9  29  1   
 18  11  13  1   
 19  11  14  2   
 20  12  15  1   
 21  12  30  1   
 22  12  31  1   
 23  13  16  2   
 24  13  17  am  
 25  14  18  1   
 26  14  19  1   
 27  15  20  1   
 28  15  32  1   
 29  15  33  1   
 30  17  21  1   
 31  17  22  1   
 32  18  21  2   
 33  18  34  1   
 34  19  35  1   
 35  19  36  1   
 36  19  37  1   
 37  20  38  1   
 38  20  39  1   
 39  20  40  1   
 40  21  23  1   
 41  22  24  1   
 42  22  41  1   
 43  22  42  1   
 44  23  43  1   
 45  23  44  1   
 46  23  45  1   
 47  24  46  1   
 48  24  47  1   
 49  24  48  1   
@<TRIPOS>SUBSTRUCTURE
  1 ****   5 GROUP 4 **** **** 0

# MOE 2024.06 (io_trps.svl 2023.06)
