@<TRIPOS>MOLECULE
NONAME
46 48 1 0 0 
SMALL
USER_CHARGES


@<TRIPOS>ATOM
  1 O       -0.2660     0.5640     1.8720 O.3   1 <1>  -0.5600 
  2 C        0.6240     0.8560     0.8350 C.3   1 <1>   0.1200 
  3 C       -1.5880     0.6760     1.4260 C.3   1 <1>   0.1200 
  4 C       -0.1380     1.7600    -0.1250 C.3   1 <1>   0.2890 
  5 C       -1.5310     1.1590    -0.0270 C.3   1 <1>  -0.0800 
  6 N       -0.1230     3.1510     0.3990 N.pl3 1 <1>  -0.8690 
  7 C       -2.6900     2.0880    -0.4330 C.3   1 <1>  -0.0170 
  8 C        0.1580     4.2610    -0.3560 C.ar  1 <1>   0.4100 
  9 C       -4.0210     1.3560    -0.3670 C.ar  1 <1>  -0.1430 
 10 N        0.0880     4.1500    -1.6680 N.ar  1 <1>  -0.6200 
 11 C        0.4910     5.4500     0.2430 C.ar  1 <1>  -0.1500 
 12 C       -4.4440     0.5250    -1.3840 C.ar  1 <1>  -0.1500 
 13 C       -4.8730     1.4800     0.7120 C.ar  1 <1>  -0.1500 
 14 C        0.3660     5.2510    -2.3390 C.ar  1 <1>   0.4700 
 15 C        0.7600     6.5330    -0.5580 C.ar  1 <1>   0.4100 
 16 C       -5.6620    -0.1270    -1.2750 C.ar  1 <1>   0.1600 
 17 C       -6.0700     0.7830     0.7230 C.ar  1 <1>   0.1600 
 18 N        0.7000     6.4380    -1.8740 N.ar  1 <1>  -0.6200 
 19 N        1.0870     7.7570    -0.0070 N.pl3 1 <1>  -0.8380 
 20 N       -6.4840    -0.0200    -0.2440 N.ar  1 <1>  -0.6200 
 21 C        2.0490     8.6430    -0.7120 C.3   1 <1>   0.2090 
 22 C        0.0630     8.4490     0.8220 C.3   1 <1>   0.1290 
 23 C        3.0350     9.2250     0.2960 C.3   1 <1>  -0.2400 
 24 H        1.5070     1.3230     1.2330 H     1 <1>   0.0800 
 25 H        0.8830    -0.0710     0.3560 H     1 <1>   0.0800 
 26 H       -2.0730    -0.2810     1.5120 H     1 <1>   0.0800 
 27 H       -2.0820     1.3940     2.0580 H     1 <1>   0.0800 
 28 H        0.2650     1.7120    -1.1220 H     1 <1>   0.0800 
 29 H       -1.5590     0.2890    -0.6580 H     1 <1>   0.0800 
 30 H        0.0020     3.1980     1.4130 H     1 <1>   0.4000 
 31 H       -2.5250     2.4460    -1.4340 H     1 <1>   0.0800 
 32 H       -2.7230     2.9500     0.2110 H     1 <1>   0.0800 
 33 H        0.5490     5.5400     1.3060 H     1 <1>   0.1500 
 34 H       -3.8390     0.3800    -2.2600 H     1 <1>   0.1500 
 35 H       -4.6180     2.1120     1.5430 H     1 <1>   0.1500 
 36 H        0.3140     5.1700    -3.4110 H     1 <1>   0.1500 
 37 H       -5.9750    -0.7710    -2.0780 H     1 <1>   0.1500 
 38 H       -6.7220     0.8930     1.5730 H     1 <1>   0.1500 
 39 H        2.5970     8.0760    -1.4470 H     1 <1>   0.0800 
 40 H        1.5180     9.4280    -1.2220 H     1 <1>   0.0800 
 41 H        0.4910     8.7280     1.7690 H     1 <1>   0.0800 
 42 H       -0.7790     7.8020     0.9980 H     1 <1>   0.0800 
 43 H       -0.2860     9.3320     0.3160 H     1 <1>   0.0800 
 44 H        3.5320     8.4280     0.8200 H     1 <1>   0.0800 
 45 H        2.5290     9.8590     1.0000 H     1 <1>   0.0800 
 46 H        3.7730     9.8100    -0.2200 H     1 <1>   0.0800 
@<TRIPOS>BOND
  1   1   2  1   
  2   1   3  1   
  3   2   4  1   
  4   2  24  1   
  5   2  25  1   
  6   3   5  1   
  7   3  26  1   
  8   3  27  1   
  9   4   5  1   
 10   4   6  1   
 11   4  28  1   
 12   5   7  1   
 13   5  29  1   
 14   6   8  1   
 15   6  30  1   
 16   7   9  1   
 17   7  31  1   
 18   7  32  1   
 19   8  10  ar  
 20   8  11  ar  
 21   9  12  ar  
 22   9  13  ar  
 23  10  14  ar  
 24  11  15  ar  
 25  11  33  1   
 26  12  16  ar  
 27  12  34  1   
 28  13  17  ar  
 29  13  35  1   
 30  14  18  ar  
 31  14  36  1   
 32  15  18  ar  
 33  15  19  1   
 34  16  20  ar  
 35  16  37  1   
 36  17  20  ar  
 37  17  38  1   
 38  19  21  1   
 39  19  22  1   
 40  21  23  1   
 41  21  39  1   
 42  21  40  1   
 43  22  41  1   
 44  22  42  1   
 45  22  43  1   
 46  23  44  1   
 47  23  45  1   
 48  23  46  1   
@<TRIPOS>SUBSTRUCTURE
  1 ****   6 GROUP 4 **** **** 0

# MOE 2024.06 (io_trps.svl 2023.06)
