@<TRIPOS>MOLECULE
NONAME
52 56 1 0 0 
SMALL
USER_CHARGES


@<TRIPOS>ATOM
  1 O       -0.7740     0.4760     1.4310 O.2   1 <1>  -0.5700 
  2 C       -1.8160     1.0720     1.2180 C.2   1 <1>   0.7160 
  3 N       -3.0070     0.4610     1.5600 N.am  1 <1>  -0.6600 
  4 C       -1.7920     2.3860     0.6050 C.2   1 <1>  -0.0860 
  5 C       -4.3000     0.7640     0.8910 C.3   1 <1>   0.1400 
  6 C       -3.0550    -0.7220     2.4610 C.3   1 <1>   0.1400 
  7 C       -1.0790     2.8540    -0.4750 C.2   1 <1>  -0.3320 
  8 C       -2.5420     3.4920     1.0530 C.2   1 <1>  -0.1500 
  9 C       -4.7240    -0.4510     0.0630 C.3   1 <1>  -0.1600 
 10 C       -3.4660    -1.9520     1.6510 C.3   1 <1>  -0.1600 
 11 N       -1.3640     4.1620    -0.6950 N.pl3 1 <1>   0.0480 
 12 C       -0.0950     2.0730    -1.3330 C.3   1 <1>  -0.0600 
 13 C       -2.2640     4.5440     0.2460 C.2   1 <1>  -0.3020 
 14 C       -4.7900    -1.7250     0.9150 C.3   1 <1>   0.4600 
 15 C       -0.8030     5.0350    -1.7400 C.3   1 <1>   0.0160 
 16 O       -5.7770    -1.5640     1.9130 O.3   1 <1>  -0.5600 
 17 C       -5.1320    -2.9400     0.0610 C.2   1 <1>  -0.3320 
 18 C       -7.1210    -1.7870     1.5590 C.3   1 <1>   0.1200 
 19 N       -4.3440    -3.4970    -0.9080 N.pl3 1 <1>   0.0330 
 20 C       -6.2810    -3.6370     0.1560 C.2   1 <1>  -0.1810 
 21 C       -7.3530    -3.2490     1.1430 C.3   1 <1>   0.0210 
 22 C       -5.0160    -4.5750    -1.4320 C.ar  1 <1>  -0.1520 
 23 C       -6.2410    -4.6920    -0.7790 C.ar  1 <1>   0.0000 
 24 C       -4.6520    -5.4760    -2.4360 C.ar  1 <1>  -0.1500 
 25 C       -7.1170    -5.7230    -1.1310 C.ar  1 <1>  -0.1500 
 26 C       -5.5240    -6.4850    -2.7740 C.ar  1 <1>  -0.1500 
 27 C       -6.7570    -6.6090    -2.1210 C.ar  1 <1>  -0.1500 
 28 H       -4.2120     1.6180     0.2440 H     1 <1>   0.0800 
 29 H       -5.0430     0.9800     1.6400 H     1 <1>   0.0800 
 30 H       -3.7740    -0.5410     3.2420 H     1 <1>   0.0800 
 31 H       -2.0970    -0.8900     2.9230 H     1 <1>   0.0800 
 32 H       -3.2060     3.4700     1.8990 H     1 <1>   0.1500 
 33 H       -4.0050    -0.5890    -0.7240 H     1 <1>   0.0800 
 34 H       -5.6720    -0.2680    -0.4050 H     1 <1>   0.0800 
 35 H       -3.5630    -2.8030     2.2990 H     1 <1>   0.0800 
 36 H       -2.6850    -2.1660     0.9460 H     1 <1>   0.0800 
 37 H       -0.0420     1.0470    -1.0160 H     1 <1>   0.0800 
 38 H        0.8880     2.5010    -1.2480 H     1 <1>   0.0800 
 39 H       -0.4010     2.0930    -2.3640 H     1 <1>   0.0800 
 40 H       -2.6540     5.5440     0.2960 H     1 <1>   0.1500 
 41 H        0.2660     5.0700    -1.6340 H     1 <1>   0.0800 
 42 H       -1.2060     6.0250    -1.6380 H     1 <1>   0.0800 
 43 H       -1.0580     4.6410    -2.7060 H     1 <1>   0.0800 
 44 H       -7.3770    -1.1240     0.7520 H     1 <1>   0.0800 
 45 H       -7.7290    -1.5430     2.4120 H     1 <1>   0.0800 
 46 H       -3.4110    -3.1870    -1.1940 H     1 <1>   0.2700 
 47 H       -8.3250    -3.3490     0.6940 H     1 <1>   0.0800 
 48 H       -7.3030    -3.8890     2.0040 H     1 <1>   0.0800 
 49 H       -3.7030    -5.3740    -2.9320 H     1 <1>   0.1500 
 50 H       -8.0580    -5.8060    -0.6210 H     1 <1>   0.1500 
 51 H       -5.2670    -7.1910    -3.5440 H     1 <1>   0.1500 
 52 H       -7.4200    -7.4070    -2.4030 H     1 <1>   0.1500 
@<TRIPOS>BOND
  1   1   2  2   
  2   2   3  am  
  3   2   4  1   
  4   3   5  1   
  5   3   6  1   
  6   4   7  2   
  7   4   8  1   
  8   5   9  1   
  9   5  28  1   
 10   5  29  1   
 11   6  10  1   
 12   6  30  1   
 13   6  31  1   
 14   7  11  1   
 15   7  12  1   
 16   8  13  2   
 17   8  32  1   
 18   9  14  1   
 19   9  33  1   
 20   9  34  1   
 21  10  14  1   
 22  10  35  1   
 23  10  36  1   
 24  11  13  1   
 25  11  15  1   
 26  12  37  1   
 27  12  38  1   
 28  12  39  1   
 29  13  40  1   
 30  14  16  1   
 31  14  17  1   
 32  15  41  1   
 33  15  42  1   
 34  15  43  1   
 35  16  18  1   
 36  17  19  1   
 37  17  20  2   
 38  18  21  1   
 39  18  44  1   
 40  18  45  1   
 41  19  22  1   
 42  19  46  1   
 43  20  21  1   
 44  20  23  1   
 45  21  47  1   
 46  21  48  1   
 47  22  23  ar  
 48  22  24  ar  
 49  23  25  ar  
 50  24  26  ar  
 51  24  49  1   
 52  25  27  ar  
 53  25  50  1   
 54  26  27  ar  
 55  26  51  1   
 56  27  52  1   
@<TRIPOS>SUBSTRUCTURE
  1 ****   9 GROUP 4 **** **** 0

# MOE 2024.06 (io_trps.svl 2023.06)
