@<TRIPOS>MOLECULE
NONAME
49 50 1 0 0 
SMALL
USER_CHARGES


@<TRIPOS>ATOM
  1 O       -1.1290     0.2400    -1.9620 O.2   1 <1>  -0.5700 
  2 C       -1.8210     0.8270    -1.1400 C.2   1 <1>   0.5440 
  3 N       -2.9250     0.1630    -0.6330 N.am  1 <1>  -0.6600 
  4 C       -1.4780     2.1610    -0.7350 C.ar  1 <1>   0.0860 
  5 C       -3.4950    -1.0250    -1.3530 C.3   1 <1>   0.1400 
  6 C       -3.6150     0.5590     0.6370 C.3   1 <1>   0.1400 
  7 C       -2.4060     3.2040    -0.7800 C.ar  1 <1>  -0.1500 
  8 C       -0.2000     2.4790    -0.2750 C.ar  1 <1>  -0.1500 
  9 C       -4.5310    -1.7550    -0.4890 C.3   1 <1>   0.2000 
 10 C       -5.1240     0.5610     0.3870 C.3   1 <1>  -0.1600 
 11 C       -2.1180     4.4770    -0.3530 C.ar  1 <1>   0.0820 
 12 C        0.1390     3.7360     0.1650 C.ar  1 <1>   0.0820 
 13 O       -5.0330    -2.8590    -1.1590 O.3   1 <1>  -0.6800 
 14 C       -5.6910    -0.8480     0.0060 C.3   1 <1>  -0.1060 
 15 O       -3.1670     5.3580    -0.4880 O.3   1 <1>  -0.3630 
 16 C       -0.8290     4.7860     0.1740 C.ar  1 <1>  -0.1710 
 17 O        1.4470     3.8510     0.5740 O.3   1 <1>  -0.3630 
 18 C       -6.2550    -1.6250     1.2090 C.2   1 <1>   0.9060 
 19 C       -6.7980    -0.6460    -1.0780 C.3   1 <1>  -0.1600 
 20 C       -2.9210     6.7440    -0.4500 C.3   1 <1>   0.0400 
 21 O       -0.5640     5.9280     0.6560 O.3   1 <1>  -0.8290 
 22 C        2.0510     5.1230     0.6010 C.3   1 <1>   0.0400 
 23 O       -6.1800    -1.1590     2.3520 O.co2 1 <1>  -0.9000 
 24 O       -6.7220    -2.7560     1.0000 O.co2 1 <1>  -0.9000 
 25 C       -7.9900     0.2070    -0.6060 C.3   1 <1>  -0.1600 
 26 C       -9.0430     0.3370    -1.7100 C.3   1 <1>  -0.2400 
 27 H       -3.9590    -0.6890    -2.2620 H     1 <1>   0.0800 
 28 H       -2.6990    -1.7060    -1.5980 H     1 <1>   0.0800 
 29 H       -3.3760    -0.1460     1.4160 H     1 <1>   0.0800 
 30 H       -3.3000     1.5310     0.9710 H     1 <1>   0.0800 
 31 H       -3.3870     2.9990    -1.1630 H     1 <1>   0.1500 
 32 H        0.5450     1.7070    -0.2640 H     1 <1>   0.1500 
 33 H       -4.0070    -2.1460     0.3680 H     1 <1>   0.0800 
 34 H       -5.6260     0.9470     1.2560 H     1 <1>   0.0800 
 35 H       -5.3010     1.2650    -0.4060 H     1 <1>   0.0800 
 36 H       -5.7590    -3.2060    -0.5690 H     1 <1>   0.4000 
 37 H       -6.3610    -0.1980    -1.9530 H     1 <1>   0.0800 
 38 H       -7.1870    -1.6060    -1.3720 H     1 <1>   0.0800 
 39 H       -3.7960     7.2560    -0.8000 H     1 <1>   0.0800 
 40 H       -2.0760     6.9630    -1.0780 H     1 <1>   0.0800 
 41 H       -2.7060     7.0230     0.5670 H     1 <1>   0.0800 
 42 H        3.1140     4.9940     0.6660 H     1 <1>   0.0800 
 43 H        1.6860     5.6540     1.4610 H     1 <1>   0.0800 
 44 H        1.7860     5.6510    -0.2980 H     1 <1>   0.0800 
 45 H       -8.4400    -0.2560     0.2570 H     1 <1>   0.0800 
 46 H       -7.6630     1.1900    -0.3180 H     1 <1>   0.0800 
 47 H       -9.4090    -0.6360    -1.9880 H     1 <1>   0.0800 
 48 H       -8.6200     0.8120    -2.5770 H     1 <1>   0.0800 
 49 H       -9.8700     0.9280    -1.3600 H     1 <1>   0.0800 
@<TRIPOS>BOND
  1   1   2  2   
  2   2   3  am  
  3   2   4  1   
  4   3   5  1   
  5   3   6  1   
  6   4   7  ar  
  7   4   8  ar  
  8   5   9  1   
  9   5  27  1   
 10   5  28  1   
 11   6  10  1   
 12   6  29  1   
 13   6  30  1   
 14   7  11  ar  
 15   7  31  1   
 16   8  12  ar  
 17   8  32  1   
 18   9  13  1   
 19   9  14  1   
 20   9  33  1   
 21  10  14  1   
 22  10  34  1   
 23  10  35  1   
 24  11  15  1   
 25  11  16  ar  
 26  12  16  ar  
 27  12  17  1   
 28  13  36  1   
 29  14  18  1   
 30  14  19  1   
 31  15  20  1   
 32  16  21  1   
 33  17  22  1   
 34  18  23  ar  
 35  18  24  ar  
 36  19  25  1   
 37  19  37  1   
 38  19  38  1   
 39  20  39  1   
 40  20  40  1   
 41  20  41  1   
 42  22  42  1   
 43  22  43  1   
 44  22  44  1   
 45  25  26  1   
 46  25  45  1   
 47  25  46  1   
 48  26  47  1   
 49  26  48  1   
 50  26  49  1   
@<TRIPOS>SUBSTRUCTURE
  1 ****   6 GROUP 4 **** **** 0

# MOE 2024.06 (io_trps.svl 2023.06)
