@<TRIPOS>MOLECULE
NONAME
21 21 1 0 0 
SMALL
USER_CHARGES


@<TRIPOS>ATOM
  1 O        0.6230    -0.8230    -2.4790 O.co2 1 <1>  -0.9000 
  2 C        1.3800    -0.2520    -1.6960 C.2   1 <1>   0.8710 
  3 O        1.6110     0.9690    -1.7080 O.co2 1 <1>  -0.9000 
  4 C        2.1380    -1.0110    -0.5960 C.3   1 <1>   0.4010 
  5 N        2.9670    -0.0480     0.1960 N.4   1 <1>  -0.8220 
  6 C        1.2930    -1.9630     0.2970 C.3   1 <1>   0.0000 
  7 C        2.9400    -2.2600    -1.0560 C.3   1 <1>   0.0000 
  8 C        2.5020    -2.9380     0.2730 C.3   1 <1>   0.0000 
  9 C        2.1210    -4.4180     0.1590 C.3   1 <1>   0.1200 
 10 O        3.2500    -5.1440    -0.1790 O.3   1 <1>  -0.6800 
 11 H        2.7400     0.8380    -0.3180 H     1 <1>   0.4500 
 12 H        3.9660    -0.2260     0.1040 H     1 <1>   0.4500 
 13 H        2.6400     0.0500     1.1550 H     1 <1>   0.4500 
 14 H        0.4310    -2.3600    -0.2130 H     1 <1>   0.0000 
 15 H        1.0640    -1.5690     1.2720 H     1 <1>   0.0000 
 16 H        4.0010    -2.1000    -1.1400 H     1 <1>   0.0000 
 17 H        2.5130    -2.7370    -1.9220 H     1 <1>   0.0000 
 18 H        3.1830    -2.7400     1.0830 H     1 <1>   0.0000 
 19 H        1.3720    -4.5820    -0.5980 H     1 <1>   0.0800 
 20 H        1.7590    -4.7870     1.1040 H     1 <1>   0.0800 
 21 H        3.4760    -5.0180    -1.1220 H     1 <1>   0.4000 
@<TRIPOS>BOND
  1   1   2  ar  
  2   2   3  ar  
  3   2   4  1   
  4   4   5  1   
  5   4   6  1   
  6   4   7  1   
  7   5  11  1   
  8   5  12  1   
  9   5  13  1   
 10   6   8  1   
 11   6  14  1   
 12   6  15  1   
 13   7   8  1   
 14   7  16  1   
 15   7  17  1   
 16   8   9  1   
 17   8  18  1   
 18   9  10  1   
 19   9  19  1   
 20   9  20  1   
 21  10  21  1   
@<TRIPOS>SUBSTRUCTURE
  1 ****   4 GROUP 4 **** **** 0

# MOE 2024.06 (io_trps.svl 2023.06)
