@<TRIPOS>MOLECULE
NONAME
45 48 1 0 0 
SMALL
USER_CHARGES


@<TRIPOS>ATOM
  1 S        0.3470     1.3070     1.0190 S.3   1 <1>  -0.0800 
  2 C        1.7700     1.5770     0.0350 C.ar  1 <1>   0.0400 
  3 C        0.3230    -0.3720     0.4910 C.2   1 <1>   0.1980 
  4 C        2.0850     0.3880    -0.5910 C.ar  1 <1>   0.2270 
  5 C        2.4910     2.7440    -0.1280 C.ar  1 <1>  -0.1500 
  6 N        1.2530    -0.6910    -0.3130 N.2   1 <1>  -0.5650 
  7 C       -0.7810    -1.2460     1.0380 C.3   1 <1>  -0.0600 
  8 C        3.1880     0.3740    -1.4310 C.ar  1 <1>  -0.1500 
  9 C        3.6080     2.7390    -0.9670 C.ar  1 <1>   0.0860 
 10 C        3.9290     1.5310    -1.6110 C.ar  1 <1>  -0.1500 
 11 C        4.4140     3.9330    -1.1700 C.2   1 <1>   0.5440 
 12 O        5.3060     3.9800    -1.9970 O.2   1 <1>  -0.5700 
 13 N        4.2480     5.0590    -0.4070 N.am  1 <1>  -0.6600 
 14 C        5.0270     5.1370     0.8790 C.3   1 <1>   0.2200 
 15 C        3.8610     6.3230    -1.1050 C.3   1 <1>   0.1400 
 16 C        4.4220     6.1290     1.8850 C.3   1 <1>   0.1200 
 17 C        6.5240     5.4600     0.6200 C.3   1 <1>   0.3430 
 18 C        4.6980     7.5620    -0.7340 C.3   1 <1>  -0.0800 
 19 O        4.9200     7.4150     1.6680 O.3   1 <1>  -0.5600 
 20 N        6.7720     6.0470    -0.7420 N.4   1 <1>  -0.9590 
 21 C        4.3200     8.1310     0.6430 C.3   1 <1>   0.1200 
 22 C        6.2250     7.4290    -0.9190 C.3   1 <1>   0.3430 
 23 C        8.2100     5.9690    -1.1220 C.3   1 <1>   0.2630 
 24 H        2.1790     3.6330     0.3870 H     1 <1>   0.1500 
 25 H       -0.6850    -2.2400     0.6420 H     1 <1>   0.0800 
 26 H       -1.7360    -0.8460     0.7540 H     1 <1>   0.0800 
 27 H       -0.7160    -1.2880     2.1090 H     1 <1>   0.0800 
 28 H        3.4460    -0.5420    -1.9300 H     1 <1>   0.1500 
 29 H        4.7800     1.5030    -2.2700 H     1 <1>   0.1500 
 30 H        4.9800     4.1680     1.3460 H     1 <1>   0.0800 
 31 H        3.9320     6.1680    -2.1700 H     1 <1>   0.0800 
 32 H        2.8230     6.5210    -0.8920 H     1 <1>   0.0800 
 33 H        4.7250     5.8510     2.8800 H     1 <1>   0.0800 
 34 H        3.3460     6.1330     1.8500 H     1 <1>   0.0800 
 35 H        7.0750     4.5390     0.7070 H     1 <1>   0.0800 
 36 H        6.8870     6.1270     1.3850 H     1 <1>   0.0800 
 37 H        4.3910     8.3270    -1.4250 H     1 <1>   0.0800 
 38 H        6.2310     5.4220    -1.3830 H     1 <1>   0.4500 
 39 H        3.2530     8.1380     0.7950 H     1 <1>   0.0800 
 40 H        4.6720     9.1450     0.7270 H     1 <1>   0.0800 
 41 H        6.7170     8.1010    -0.2350 H     1 <1>   0.0800 
 42 H        6.4630     7.7550    -1.9190 H     1 <1>   0.0800 
 43 H        8.8060     6.5770    -0.4610 H     1 <1>   0.0800 
 44 H        8.3470     6.3160    -2.1330 H     1 <1>   0.0800 
 45 H        8.5540     4.9490    -1.0630 H     1 <1>   0.0800 
@<TRIPOS>BOND
  1   1   2  1   
  2   1   3  1   
  3   2   4  ar  
  4   2   5  ar  
  5   3   6  2   
  6   3   7  1   
  7   4   6  1   
  8   4   8  ar  
  9   5   9  ar  
 10   5  24  1   
 11   7  25  1   
 12   7  26  1   
 13   7  27  1   
 14   8  10  ar  
 15   8  28  1   
 16   9  10  ar  
 17   9  11  1   
 18  10  29  1   
 19  11  12  2   
 20  11  13  am  
 21  13  14  1   
 22  13  15  1   
 23  14  16  1   
 24  14  17  1   
 25  14  30  1   
 26  15  18  1   
 27  15  31  1   
 28  15  32  1   
 29  16  19  1   
 30  16  33  1   
 31  16  34  1   
 32  17  20  1   
 33  17  35  1   
 34  17  36  1   
 35  18  21  1   
 36  18  22  1   
 37  18  37  1   
 38  19  21  1   
 39  20  22  1   
 40  20  23  1   
 41  20  38  1   
 42  21  39  1   
 43  21  40  1   
 44  22  41  1   
 45  22  42  1   
 46  23  43  1   
 47  23  44  1   
 48  23  45  1   
@<TRIPOS>SUBSTRUCTURE
  1 ****  11 GROUP 4 **** **** 0

# MOE 2024.06 (io_trps.svl 2023.06)
