@<TRIPOS>MOLECULE
NONAME
51 53 1 0 0 
SMALL
USER_CHARGES


@<TRIPOS>ATOM
  1 O        0.8340    -1.0240     0.8730 O.3   1 <1>  -0.5160 
  2 C        1.0300     0.3590     0.6030 C.3   1 <1>   0.2580 
  3 C        1.9280    -1.3740     0.0380 C.3   1 <1>   0.2580 
  4 C        2.5000     0.0320     0.2890 C.3   1 <1>   0.0000 
  5 C        3.0240     0.6840    -1.0040 C.3   1 <1>   0.2090 
  6 C        3.4380     0.1050     1.5140 C.3   1 <1>  -0.2400 
  7 N        3.3190     2.1450    -0.8250 N.pl3 1 <1>  -0.8380 
  8 C        4.5430     2.6860    -0.5380 C.ar  1 <1>   0.4100 
  9 C        2.1170     3.0250    -1.0070 C.3   1 <1>   0.1290 
 10 N        4.6080     4.0000    -0.4080 N.ar  1 <1>  -0.6200 
 11 C        5.7000     1.8960    -0.3730 C.ar  1 <1>  -0.1500 
 12 C        5.7720     4.5680    -0.1290 C.ar  1 <1>   0.7710 
 13 C        6.8840     2.4900    -0.0910 C.ar  1 <1>   0.2170 
 14 N        6.8870     3.8370     0.0220 N.ar  1 <1>  -0.1790 
 15 N        5.8440     5.9210     0.0030 N.pl3 1 <1>  -0.8380 
 16 C        8.1890     1.7270     0.1020 C.3   1 <1>  -0.0170 
 17 C        7.0230     6.6840     0.5420 C.3   1 <1>   0.2090 
 18 C        4.6370     6.7580    -0.3380 C.3   1 <1>   0.2090 
 19 C        9.2300     2.0830    -0.9680 C.3   1 <1>  -0.2400 
 20 C        6.5570     7.9030     1.3430 C.3   1 <1>  -0.1600 
 21 C        5.0340     8.1960    -0.6830 C.3   1 <1>  -0.1600 
 22 C        5.7590     8.8940     0.4790 C.3   1 <1>  -0.1600 
 23 H        0.8670     0.9430     1.4900 H     1 <1>   0.0000 
 24 H        0.4330     0.6500    -0.2450 H     1 <1>   0.0000 
 25 H        1.5770    -1.5550    -0.9640 H     1 <1>   0.0000 
 26 H        2.4880    -2.1840     0.4710 H     1 <1>   0.0000 
 27 H        2.2920     0.5680    -1.7860 H     1 <1>   0.0800 
 28 H        3.8980     0.1590    -1.3390 H     1 <1>   0.0800 
 29 H        2.9940    -0.3940     2.3590 H     1 <1>   0.0800 
 30 H        3.6120     1.1310     1.7870 H     1 <1>   0.0800 
 31 H        4.3780    -0.3680     1.2980 H     1 <1>   0.0800 
 32 H        1.3270     2.5050    -1.5200 H     1 <1>   0.0800 
 33 H        2.3720     3.8940    -1.5890 H     1 <1>   0.0800 
 34 H        1.7570     3.3460    -0.0440 H     1 <1>   0.0800 
 35 H        5.6380     0.8330    -0.4700 H     1 <1>   0.1500 
 36 H        7.7340     4.3600     0.1950 H     1 <1>   0.4570 
 37 H        7.9950     0.6690     0.0530 H     1 <1>   0.0800 
 38 H        8.5890     1.9320     1.0800 H     1 <1>   0.0800 
 39 H        7.6390     7.0160    -0.2780 H     1 <1>   0.0800 
 40 H        7.6150     6.0660     1.1930 H     1 <1>   0.0800 
 41 H        3.9620     6.7610     0.5020 H     1 <1>   0.0800 
 42 H        4.1160     6.3350    -1.1820 H     1 <1>   0.0800 
 43 H        8.8430     1.8820    -1.9530 H     1 <1>   0.0800 
 44 H       10.1140     1.4840    -0.8300 H     1 <1>   0.0800 
 45 H        9.5180     3.1180    -0.9130 H     1 <1>   0.0800 
 46 H        7.4060     8.4070     1.7690 H     1 <1>   0.0800 
 47 H        5.9430     7.5610     2.1590 H     1 <1>   0.0800 
 48 H        4.1550     8.7580    -0.9450 H     1 <1>   0.0800 
 49 H        5.6690     8.1740    -1.5510 H     1 <1>   0.0800 
 50 H        6.4190     9.6430     0.0740 H     1 <1>   0.0800 
 51 H        5.0430     9.3990     1.1050 H     1 <1>   0.0800 
@<TRIPOS>BOND
  1   1   2  1   
  2   1   3  1   
  3   2   4  1   
  4   2  23  1   
  5   2  24  1   
  6   3   4  1   
  7   3  25  1   
  8   3  26  1   
  9   4   5  1   
 10   4   6  1   
 11   5   7  1   
 12   5  27  1   
 13   5  28  1   
 14   6  29  1   
 15   6  30  1   
 16   6  31  1   
 17   7   8  1   
 18   7   9  1   
 19   8  10  ar  
 20   8  11  ar  
 21   9  32  1   
 22   9  33  1   
 23   9  34  1   
 24  10  12  ar  
 25  11  13  ar  
 26  11  35  1   
 27  12  14  ar  
 28  12  15  1   
 29  13  14  ar  
 30  13  16  1   
 31  14  36  1   
 32  15  17  1   
 33  15  18  1   
 34  16  19  1   
 35  16  37  1   
 36  16  38  1   
 37  17  20  1   
 38  17  39  1   
 39  17  40  1   
 40  18  21  1   
 41  18  41  1   
 42  18  42  1   
 43  19  43  1   
 44  19  44  1   
 45  19  45  1   
 46  20  22  1   
 47  20  46  1   
 48  20  47  1   
 49  21  22  1   
 50  21  48  1   
 51  21  49  1   
 52  22  50  1   
 53  22  51  1   
@<TRIPOS>SUBSTRUCTURE
  1 ****   8 GROUP 4 **** **** 0

# MOE 2024.06 (io_trps.svl 2023.06)
