@<TRIPOS>MOLECULE
NONAME
47 49 1 0 0 
SMALL
USER_CHARGES


@<TRIPOS>ATOM
  1 CL       0.4850     3.2690     2.5860 Cl    1 <1>  -0.1770 
  2 C        0.3850     3.0220     0.8590 C.ar  1 <1>   0.1770 
  3 C        1.3780     2.3360     0.1670 C.ar  1 <1>  -0.1440 
  4 C       -0.7310     3.5220     0.2140 C.ar  1 <1>  -0.1500 
  5 C        1.2030     2.1380    -1.1990 C.ar  1 <1>  -0.1500 
  6 C        2.6280     1.8050     0.8700 C.3   1 <1>   0.3640 
  7 C       -0.8810     3.3300    -1.1470 C.ar  1 <1>  -0.1500 
  8 C        0.0860     2.6340    -1.8510 C.ar  1 <1>  -0.1500 
  9 N        2.6430     0.3310     0.7050 N.am  1 <1>  -0.7300 
 10 C        3.9250     2.4420     0.2970 C.3   1 <1>   0.2610 
 11 C        3.7610    -0.3810     0.4480 C.2   1 <1>   0.5690 
 12 O        5.0670     1.6930     0.6830 O.3   1 <1>  -0.5600 
 13 C        4.0640     3.9260     0.6850 C.2   1 <1>   0.5690 
 14 O        3.7190    -1.5820     0.3630 O.2   1 <1>  -0.5700 
 15 C        5.0860     0.3570     0.2270 C.3   1 <1>   0.1810 
 16 O        3.4480     4.3040     1.6570 O.2   1 <1>  -0.5700 
 17 N        4.8490     4.7780    -0.0760 N.am  1 <1>  -0.5090 
 18 C        4.7120     6.2700    -0.1240 C.3   1 <1>   0.0490 
 19 C        5.9650     4.2660    -0.9330 C.3   1 <1>   0.1400 
 20 C        4.6250     7.0590     1.1460 C.3   1 <1>  -0.2000 
 21 C        3.4340     6.9620     0.2430 C.3   1 <1>  -0.2000 
 22 C        7.2620     4.0410    -0.1290 C.3   1 <1>  -0.0800 
 23 C        7.8500     5.3440     0.4320 C.3   1 <1>  -0.2400 
 24 C        8.3090     3.3520    -1.0140 C.3   1 <1>  -0.2400 
 25 H       -1.4760     4.0550     0.7780 H     1 <1>   0.1500 
 26 H        1.9330     1.5900    -1.7690 H     1 <1>   0.1500 
 27 H        2.5880     2.0120     1.9250 H     1 <1>   0.0800 
 28 H       -1.7480     3.7170    -1.6560 H     1 <1>   0.1500 
 29 H       -0.0330     2.4760    -2.9090 H     1 <1>   0.1500 
 30 H        1.7700    -0.1690     0.8840 H     1 <1>   0.3700 
 31 H        3.8670     2.3990    -0.7730 H     1 <1>   0.0800 
 32 H        5.3200     0.3610    -0.8220 H     1 <1>   0.0800 
 33 H        5.8690    -0.1570     0.7540 H     1 <1>   0.0800 
 34 H        5.2700     6.7090    -0.9330 H     1 <1>   0.1000 
 35 H        5.6770     3.3400    -1.3930 H     1 <1>   0.0800 
 36 H        6.1580     4.9590    -1.7330 H     1 <1>   0.0800 
 37 H        4.6030     6.5390     2.0870 H     1 <1>   0.1000 
 38 H        5.1390     8.0010     1.2080 H     1 <1>   0.1000 
 39 H        3.1460     7.8430    -0.3020 H     1 <1>   0.1000 
 40 H        2.5840     6.3920     0.5730 H     1 <1>   0.1000 
 41 H        7.0460     3.3840     0.6970 H     1 <1>   0.0800 
 42 H        8.0190     6.0580    -0.3540 H     1 <1>   0.0800 
 43 H        8.7850     5.1490     0.9280 H     1 <1>   0.0800 
 44 H        7.1810     5.7740     1.1560 H     1 <1>   0.0800 
 45 H        8.5670     3.9730    -1.8540 H     1 <1>   0.0800 
 46 H        7.9310     2.4130    -1.3800 H     1 <1>   0.0800 
 47 H        9.2020     3.1530    -0.4480 H     1 <1>   0.0800 
@<TRIPOS>BOND
  1   1   2  1   
  2   2   3  ar  
  3   2   4  ar  
  4   3   5  ar  
  5   3   6  1   
  6   4   7  ar  
  7   4  25  1   
  8   5   8  ar  
  9   5  26  1   
 10   6   9  1   
 11   6  10  1   
 12   6  27  1   
 13   7   8  ar  
 14   7  28  1   
 15   8  29  1   
 16   9  11  am  
 17   9  30  1   
 18  10  12  1   
 19  10  13  1   
 20  10  31  1   
 21  11  14  2   
 22  11  15  1   
 23  12  15  1   
 24  13  16  2   
 25  13  17  am  
 26  15  32  1   
 27  15  33  1   
 28  17  18  1   
 29  17  19  1   
 30  18  20  1   
 31  18  21  1   
 32  18  34  1   
 33  19  22  1   
 34  19  35  1   
 35  19  36  1   
 36  20  21  1   
 37  20  37  1   
 38  20  38  1   
 39  21  39  1   
 40  21  40  1   
 41  22  23  1   
 42  22  24  1   
 43  22  41  1   
 44  23  42  1   
 45  23  43  1   
 46  23  44  1   
 47  24  45  1   
 48  24  46  1   
 49  24  47  1   
@<TRIPOS>SUBSTRUCTURE
  1 ****  10 GROUP 4 **** **** 0

# MOE 2024.06 (io_trps.svl 2023.06)
