@<TRIPOS>MOLECULE
NONAME
51 53 1 0 0 
SMALL
USER_CHARGES


@<TRIPOS>ATOM
  1 O       -0.5000     0.4380    -0.9410 O.2   1 <1>  -0.5700 
  2 C       -1.5760     0.9530    -0.7430 C.2   1 <1>   0.5690 
  3 N       -2.6990     0.2060    -0.5180 N.am  1 <1>  -0.6600 
  4 C       -1.6200     2.4910    -0.7320 C.3   1 <1>   0.4040 
  5 C       -4.0950     0.6960    -0.3530 C.3   1 <1>   0.1400 
  6 C       -2.6650    -1.2800    -0.4810 C.3   1 <1>   0.1400 
  7 N       -0.3070     3.1120    -0.3130 N.4   1 <1>  -0.9590 
  8 C       -4.9610    -0.5640    -0.3850 C.3   1 <1>   0.2000 
  9 C       -4.0380    -1.7010     0.0450 C.3   1 <1>  -0.0800 
 10 C       -0.0130     2.8640     1.1210 C.3   1 <1>   0.3430 
 11 C       -0.2020     4.5520    -0.6560 C.3   1 <1>   0.3430 
 12 O       -6.0350    -0.4590     0.4800 O.3   1 <1>  -0.6800 
 13 C       -4.4950    -3.0800    -0.4560 C.3   1 <1>   0.0200 
 14 C        1.4340     2.4000     1.2880 C.3   1 <1>  -0.1600 
 15 C        1.2570     4.9640    -0.8640 C.3   1 <1>  -0.1600 
 16 C       -3.4870    -4.1480    -0.0820 C.2   1 <1>  -0.0400 
 17 C        2.4940     3.1490     0.4610 C.3   1 <1>  -0.1600 
 18 C        2.2260     4.6530     0.2930 C.3   1 <1>  -0.1600 
 19 O       -3.1930    -4.3560     1.1740 O.3   1 <1>  -0.0190 
 20 C       -2.7580    -4.9960    -0.8220 C.2   1 <1>  -0.1500 
 21 N       -2.3010    -5.2920     1.3130 N.2   1 <1>  -0.4100 
 22 C       -2.0210    -5.6990     0.1270 C.2   1 <1>   0.1080 
 23 C       -1.0240    -6.7930    -0.1830 C.3   1 <1>  -0.0590 
 24 H       -2.4050     2.8150    -0.0720 H     1 <1>   0.0800 
 25 H       -1.8630     2.8120    -1.7300 H     1 <1>   0.0800 
 26 H       -4.1920     1.1910     0.5980 H     1 <1>   0.0800 
 27 H       -4.3700     1.3570    -1.1550 H     1 <1>   0.0800 
 28 H       -2.5050    -1.6520    -1.4800 H     1 <1>   0.0800 
 29 H       -1.8730    -1.6360     0.1580 H     1 <1>   0.0800 
 30 H        0.4180     2.5880    -0.8310 H     1 <1>   0.4500 
 31 H       -5.3420    -0.7180    -1.3810 H     1 <1>   0.0800 
 32 H       -3.9700    -1.7210     1.1190 H     1 <1>   0.0800 
 33 H       -0.1690     3.7680     1.6870 H     1 <1>   0.0800 
 34 H       -0.6660     2.1030     1.5170 H     1 <1>   0.0800 
 35 H       -0.7430     4.7510    -1.5670 H     1 <1>   0.0800 
 36 H       -0.6400     5.1480     0.1290 H     1 <1>   0.0800 
 37 H       -5.7550    -0.5740     1.4090 H     1 <1>   0.4000 
 38 H       -4.6160    -3.0660    -1.5250 H     1 <1>   0.0800 
 39 H       -5.4460    -3.3260    -0.0160 H     1 <1>   0.0800 
 40 H        1.6810     2.4970     2.3310 H     1 <1>   0.0800 
 41 H        1.4920     1.3490     1.0590 H     1 <1>   0.0800 
 42 H        1.6240     4.5140    -1.7700 H     1 <1>   0.0800 
 43 H        1.2690     6.0280    -1.0280 H     1 <1>   0.0800 
 44 H        3.4450     3.0220     0.9530 H     1 <1>   0.0800 
 45 H        2.5940     2.6900    -0.5090 H     1 <1>   0.0800 
 46 H        3.1660     5.1270     0.0630 H     1 <1>   0.0800 
 47 H        1.8780     5.0850     1.2160 H     1 <1>   0.0800 
 48 H       -2.7190    -5.1300    -1.8870 H     1 <1>   0.1500 
 49 H       -0.2520    -6.4120    -0.8260 H     1 <1>   0.0800 
 50 H       -1.5210    -7.6120    -0.6700 H     1 <1>   0.0800 
 51 H       -0.5750    -7.1490     0.7270 H     1 <1>   0.0800 
@<TRIPOS>BOND
  1   1   2  2   
  2   2   3  am  
  3   2   4  1   
  4   3   5  1   
  5   3   6  1   
  6   4   7  1   
  7   4  24  1   
  8   4  25  1   
  9   5   8  1   
 10   5  26  1   
 11   5  27  1   
 12   6   9  1   
 13   6  28  1   
 14   6  29  1   
 15   7  10  1   
 16   7  11  1   
 17   7  30  1   
 18   8   9  1   
 19   8  12  1   
 20   8  31  1   
 21   9  13  1   
 22   9  32  1   
 23  10  14  1   
 24  10  33  1   
 25  10  34  1   
 26  11  15  1   
 27  11  35  1   
 28  11  36  1   
 29  12  37  1   
 30  13  16  1   
 31  13  38  1   
 32  13  39  1   
 33  14  17  1   
 34  14  40  1   
 35  14  41  1   
 36  15  18  1   
 37  15  42  1   
 38  15  43  1   
 39  16  19  1   
 40  16  20  2   
 41  17  18  1   
 42  17  44  1   
 43  17  45  1   
 44  18  46  1   
 45  18  47  1   
 46  19  21  1   
 47  20  22  1   
 48  20  48  1   
 49  21  22  2   
 50  22  23  1   
 51  23  49  1   
 52  23  50  1   
 53  23  51  1   
@<TRIPOS>SUBSTRUCTURE
  1 ****   3 GROUP 4 **** **** 0

# MOE 2024.06 (io_trps.svl 2023.06)
