@<TRIPOS>MOLECULE
NONAME
54 57 1 0 0 
SMALL
USER_CHARGES


@<TRIPOS>ATOM
  1 O       -0.4790    -1.8020    -2.4950 O.2   1 <1>  -0.5700 
  2 C       -0.8310    -2.0160    -1.3610 C.2   1 <1>   0.5690 
  3 N       -0.0190    -2.2720    -0.3160 N.am  1 <1>  -0.6600 
  4 C       -2.2720    -2.0420    -0.9380 C.3   1 <1>  -0.0990 
  5 C       -0.7740    -2.5790     0.9120 C.3   1 <1>   0.1400 
  6 C        1.4410    -2.4820    -0.4090 C.3   1 <1>   0.2840 
  7 C       -2.1830    -2.0380     0.6020 C.3   1 <1>  -0.0190 
  8 C        1.7470    -3.9690    -0.3500 C.ar  1 <1>  -0.1440 
  9 C       -3.3200    -2.7980     1.2810 C.2   1 <1>   0.5690 
 10 C        1.4780    -4.7960    -1.4220 C.ar  1 <1>  -0.1500 
 11 C        2.3040    -4.5710     0.7600 C.ar  1 <1>  -0.1500 
 12 O       -3.0630    -3.8670     1.7820 O.2   1 <1>  -0.5700 
 13 N       -4.5950    -2.2820     1.3160 N.am  1 <1>  -0.6600 
 14 C        1.7740    -6.1460    -1.3370 C.ar  1 <1>   0.1600 
 15 C        2.5610    -5.9320     0.7420 C.ar  1 <1>   0.1600 
 16 C       -5.7200    -3.0500     1.9240 C.3   1 <1>   0.1400 
 17 C       -5.0340    -0.9690     0.7650 C.3   1 <1>   0.1400 
 18 N        2.3140    -6.7340    -0.2810 N.ar  1 <1>  -0.6200 
 19 C       -6.7850    -3.3130     0.8570 C.3   1 <1>  -0.1600 
 20 C       -6.0750    -1.2120    -0.3290 C.3   1 <1>  -0.1600 
 21 C       -7.2700    -2.0150     0.2040 C.3   1 <1>   0.4180 
 22 O       -7.9080    -1.2800     1.2200 O.3   1 <1>  -0.5600 
 23 C       -8.2530    -2.3420    -0.9180 C.2   1 <1>  -0.2880 
 24 C       -8.8110    -0.2830     0.8300 C.3   1 <1>   0.1200 
 25 C       -9.4940    -1.8550    -0.9930 C.2   1 <1>  -0.2760 
 26 C       -9.9950    -0.8920     0.0660 C.3   1 <1>  -0.0220 
 27 C      -10.4920    -2.2050    -2.0820 C.3   1 <1>  -0.1020 
 28 H       -2.7200    -2.9500    -1.2980 H     1 <1>   0.0800 
 29 H       -2.7980    -1.1890    -1.3220 H     1 <1>   0.0800 
 30 H       -0.3450    -2.0920     1.7700 H     1 <1>   0.0800 
 31 H       -0.7740    -3.6470     1.0590 H     1 <1>   0.0800 
 32 H        1.9290    -1.9620     0.3960 H     1 <1>   0.0800 
 33 H        1.8040    -2.0770    -1.3390 H     1 <1>   0.0800 
 34 H       -2.1970    -1.0230     0.9510 H     1 <1>   0.0800 
 35 H        1.0360    -4.3970    -2.3180 H     1 <1>   0.1500 
 36 H        2.5390    -3.9980     1.6380 H     1 <1>   0.1500 
 37 H        1.5540    -6.7740    -2.1830 H     1 <1>   0.1500 
 38 H        2.9950    -6.3860     1.6170 H     1 <1>   0.1500 
 39 H       -6.1440    -2.4770     2.7320 H     1 <1>   0.0800 
 40 H       -5.3770    -3.9870     2.3280 H     1 <1>   0.0800 
 41 H       -4.2110    -0.4080     0.3630 H     1 <1>   0.0800 
 42 H       -5.4720    -0.3860     1.5590 H     1 <1>   0.0800 
 43 H       -7.6230    -3.8220     1.2950 H     1 <1>   0.0800 
 44 H       -6.3650    -3.9610     0.1090 H     1 <1>   0.0800 
 45 H       -5.6120    -1.7590    -1.1300 H     1 <1>   0.0800 
 46 H       -6.4110    -0.2770    -0.7360 H     1 <1>   0.0800 
 47 H       -7.8430    -3.0180    -1.6460 H     1 <1>   0.1500 
 48 H       -8.2930     0.4290     0.2130 H     1 <1>   0.0800 
 49 H       -9.1570     0.2150     1.7180 H     1 <1>   0.0800 
 50 H      -10.5540    -0.0940    -0.3890 H     1 <1>   0.0800 
 51 H      -10.6430    -1.4080     0.7520 H     1 <1>   0.0800 
 52 H      -11.3690    -2.6520    -1.6490 H     1 <1>   0.0800 
 53 H      -10.0610    -2.9040    -2.7770 H     1 <1>   0.0800 
 54 H      -10.7810    -1.3210    -2.6210 H     1 <1>   0.0800 
@<TRIPOS>BOND
  1   1   2  2   
  2   2   3  am  
  3   2   4  1   
  4   3   5  1   
  5   3   6  1   
  6   4   7  1   
  7   4  28  1   
  8   4  29  1   
  9   5   7  1   
 10   5  30  1   
 11   5  31  1   
 12   6   8  1   
 13   6  32  1   
 14   6  33  1   
 15   7   9  1   
 16   7  34  1   
 17   8  10  ar  
 18   8  11  ar  
 19   9  12  2   
 20   9  13  am  
 21  10  14  ar  
 22  10  35  1   
 23  11  15  ar  
 24  11  36  1   
 25  13  16  1   
 26  13  17  1   
 27  14  18  ar  
 28  14  37  1   
 29  15  18  ar  
 30  15  38  1   
 31  16  19  1   
 32  16  39  1   
 33  16  40  1   
 34  17  20  1   
 35  17  41  1   
 36  17  42  1   
 37  19  21  1   
 38  19  43  1   
 39  19  44  1   
 40  20  21  1   
 41  20  45  1   
 42  20  46  1   
 43  21  22  1   
 44  21  23  1   
 45  22  24  1   
 46  23  25  2   
 47  23  47  1   
 48  24  26  1   
 49  24  48  1   
 50  24  49  1   
 51  25  26  1   
 52  25  27  1   
 53  26  50  1   
 54  26  51  1   
 55  27  52  1   
 56  27  53  1   
 57  27  54  1   
@<TRIPOS>SUBSTRUCTURE
  1 ****   9 GROUP 4 **** **** 0

# MOE 2024.06 (io_trps.svl 2023.06)
