@<TRIPOS>MOLECULE
NONAME
45 47 1 0 0 
SMALL
USER_CHARGES


@<TRIPOS>ATOM
  1 O        0.8250    -0.0580     1.7030 O.2   1 <1>  -0.5700 
  2 C        1.4440    -0.5820     0.8000 C.2   1 <1>   0.5690 
  3 N        2.3340     0.1390     0.0340 N.am  1 <1>  -0.5090 
  4 C        1.1970    -2.0850     0.5290 C.3   1 <1>   0.2810 
  5 C        2.4110     1.6160     0.1490 C.3   1 <1>   0.0490 
  6 C        3.4010    -0.4680    -0.8130 C.3   1 <1>   0.2840 
  7 N        2.2290    -2.9390     1.1880 N.am  1 <1>  -0.7300 
  8 C       -0.1990    -2.5650     0.9660 C.3   1 <1>   0.0200 
  9 C        1.1750     2.4320    -0.0730 C.3   1 <1>  -0.2000 
 10 C        2.2710     2.4490    -1.0880 C.3   1 <1>  -0.2000 
 11 C        4.7790    -0.1230    -0.2720 C.ar  1 <1>  -0.1440 
 12 C        2.8820    -4.0150     0.7040 C.2   1 <1>   0.5690 
 13 C       -1.3040    -1.8660     0.1870 C.2   1 <1>  -0.3320 
 14 C        5.3130    -0.8290     0.7970 C.ar  1 <1>   0.1600 
 15 C        5.5240     0.8970    -0.8320 C.ar  1 <1>  -0.1500 
 16 O        3.7430    -4.5330     1.3600 O.2   1 <1>  -0.5700 
 17 C        2.5550    -4.5800    -0.6570 C.3   1 <1>  -0.1790 
 18 N       -1.6630    -0.5850     0.4030 N.pl3 1 <1>   0.0330 
 19 C       -2.1070    -2.3210    -0.8020 C.2   1 <1>   0.0770 
 20 N        6.5000    -0.6000     1.3370 N.ar  1 <1>  -0.6200 
 21 C        6.7620     1.1470    -0.2810 C.ar  1 <1>  -0.1500 
 22 C       -2.6530    -0.3410    -0.4790 C.2   1 <1>   0.0360 
 23 N       -2.9470    -1.3570    -1.2230 N.2   1 <1>  -0.5650 
 24 C        7.1950     0.3800     0.7870 C.ar  1 <1>   0.1600 
 25 H        1.2500    -2.2300    -0.5340 H     1 <1>   0.0800 
 26 H        3.1010     1.9360     0.9150 H     1 <1>   0.1000 
 27 H        3.3080    -1.5360    -0.8550 H     1 <1>   0.0800 
 28 H        3.3030    -0.0970    -1.8180 H     1 <1>   0.0800 
 29 H        2.4720    -2.6700     2.1480 H     1 <1>   0.3700 
 30 H       -0.3380    -2.3940     2.0200 H     1 <1>   0.0800 
 31 H       -0.2770    -3.6220     0.7890 H     1 <1>   0.0800 
 32 H        0.2560     1.9290    -0.3120 H     1 <1>   0.1000 
 33 H        1.0240     3.3050     0.5360 H     1 <1>   0.1000 
 34 H        2.8580     3.3470    -1.1780 H     1 <1>   0.1000 
 35 H        2.0790     1.9810    -2.0370 H     1 <1>   0.1000 
 36 H        4.7390    -1.6270     1.2370 H     1 <1>   0.1500 
 37 H        5.1600     1.4800    -1.6610 H     1 <1>   0.1500 
 38 H        1.5000    -4.7600    -0.7410 H     1 <1>   0.0800 
 39 H        3.0720    -5.5130    -0.7900 H     1 <1>   0.0800 
 40 H        2.8720    -3.9010    -1.4250 H     1 <1>   0.0800 
 41 H       -1.2400     0.0620     1.0840 H     1 <1>   0.2700 
 42 H       -2.1280    -3.3030    -1.2440 H     1 <1>   0.1500 
 43 H        7.3880     1.9280    -0.6720 H     1 <1>   0.1500 
 44 H       -3.1380     0.6170    -0.5420 H     1 <1>   0.1500 
 45 H        8.1640     0.5840     1.2100 H     1 <1>   0.1500 
@<TRIPOS>BOND
  1   1   2  2   
  2   2   3  am  
  3   2   4  1   
  4   3   5  1   
  5   3   6  1   
  6   4   7  1   
  7   4   8  1   
  8   4  25  1   
  9   5   9  1   
 10   5  10  1   
 11   5  26  1   
 12   6  11  1   
 13   6  27  1   
 14   6  28  1   
 15   7  12  am  
 16   7  29  1   
 17   8  13  1   
 18   8  30  1   
 19   8  31  1   
 20   9  10  1   
 21   9  32  1   
 22   9  33  1   
 23  10  34  1   
 24  10  35  1   
 25  11  14  ar  
 26  11  15  ar  
 27  12  16  2   
 28  12  17  1   
 29  13  18  1   
 30  13  19  2   
 31  14  20  ar  
 32  14  36  1   
 33  15  21  ar  
 34  15  37  1   
 35  17  38  1   
 36  17  39  1   
 37  17  40  1   
 38  18  22  1   
 39  18  41  1   
 40  19  23  1   
 41  19  42  1   
 42  20  24  ar  
 43  21  24  ar  
 44  21  43  1   
 45  22  23  2   
 46  22  44  1   
 47  24  45  1   
@<TRIPOS>SUBSTRUCTURE
  1 ****   2 GROUP 4 **** **** 0

# MOE 2024.06 (io_trps.svl 2023.06)
