@<TRIPOS>MOLECULE
NONAME
50 53 1 0 0 
SMALL
USER_CHARGES


@<TRIPOS>ATOM
  1 S        0.3400    -0.5610     0.3170 S.3   1 <1>  -0.0800 
  2 C       -0.2420     1.0730     0.5940 C.2   1 <1>  -0.1400 
  3 C       -1.1850    -1.2550     0.8370 C.2   1 <1>  -0.1400 
  4 C       -1.5070     1.0410     1.0540 C.2   1 <1>  -0.1500 
  5 C        0.7280     2.2080     0.2950 C.3   1 <1>   0.1000 
  6 C       -2.0440    -0.2780     1.1940 C.2   1 <1>  -0.1500 
  7 C       -1.2550    -2.7670     0.7950 C.3   1 <1>   0.5230 
  8 C        0.1720     3.5980     0.5900 C.3   1 <1>  -0.1600 
  9 C        1.1120     2.2910    -1.1810 C.3   1 <1>  -0.1600 
 10 N       -2.6730    -3.2040     0.8000 N.4   1 <1>  -0.9590 
 11 C        1.0640     4.5470    -0.2110 C.3   1 <1>  -0.1600 
 12 C        1.5670     3.7370    -1.4110 C.3   1 <1>  -0.1600 
 13 C       -3.4480    -2.7900    -0.3980 C.3   1 <1>   0.3430 
 14 C       -2.8730    -4.6740     0.9240 C.3   1 <1>   0.3430 
 15 C       -4.7040    -3.6550    -0.3140 C.3   1 <1>   0.2000 
 16 C       -4.1720    -5.0100     0.1650 C.3   1 <1>  -0.0800 
 17 O       -5.5070    -3.1310     0.6930 O.3   1 <1>  -0.6800 
 18 C       -3.9190    -5.9680    -1.0200 C.3   1 <1>  -0.0170 
 19 C       -3.4360    -7.3380    -0.5630 C.ar  1 <1>   0.1670 
 20 N       -2.1940    -7.4000    -0.1080 N.ar  1 <1>  -0.6200 
 21 C       -4.2840    -8.4420    -0.6410 C.ar  1 <1>   0.1600 
 22 C       -1.8570    -8.6320     0.2490 C.ar  1 <1>   0.1600 
 23 N       -3.9510    -9.6660    -0.2720 N.ar  1 <1>  -0.6200 
 24 C       -2.7080    -9.7270     0.1710 C.ar  1 <1>   0.1600 
 25 H       -2.0990     1.9030     1.3110 H     1 <1>   0.1500 
 26 H        1.6230     2.0680     0.8770 H     1 <1>   0.0800 
 27 H       -3.0490    -0.4020     1.5600 H     1 <1>   0.1500 
 28 H       -0.7350    -3.1690     1.6490 H     1 <1>   0.0800 
 29 H       -0.7680    -3.1230    -0.0980 H     1 <1>   0.0800 
 30 H       -0.8350     3.6730     0.2200 H     1 <1>   0.0800 
 31 H        0.1830     3.8210     1.6430 H     1 <1>   0.0800 
 32 H        1.8820     1.5830    -1.4320 H     1 <1>   0.0800 
 33 H        0.2430     2.0930    -1.7860 H     1 <1>   0.0800 
 34 H       -3.1510    -2.7600     1.5980 H     1 <1>   0.4500 
 35 H        0.5250     5.4260    -0.5190 H     1 <1>   0.0800 
 36 H        1.9030     4.8480     0.3940 H     1 <1>   0.0800 
 37 H        2.6410     3.7890    -1.4630 H     1 <1>   0.0800 
 38 H        1.1560     4.1160    -2.3320 H     1 <1>   0.0800 
 39 H       -3.6910    -1.7400    -0.3850 H     1 <1>   0.0800 
 40 H       -2.8990    -3.0260    -1.2950 H     1 <1>   0.0800 
 41 H       -2.0400    -5.1920     0.4800 H     1 <1>   0.0800 
 42 H       -2.9500    -4.9630     1.9600 H     1 <1>   0.0800 
 43 H       -5.2630    -3.6820    -1.2340 H     1 <1>   0.0800 
 44 H       -4.8730    -5.4840     0.8320 H     1 <1>   0.0800 
 45 H       -6.3980    -3.5430     0.6950 H     1 <1>   0.4000 
 46 H       -3.1830    -5.5540    -1.6890 H     1 <1>   0.0800 
 47 H       -4.8290    -6.0880    -1.5810 H     1 <1>   0.0800 
 48 H       -5.2810    -8.3150    -1.0240 H     1 <1>   0.1500 
 49 H       -0.8600    -8.7860     0.6220 H     1 <1>   0.1500 
 50 H       -2.3460   -10.6900     0.4870 H     1 <1>   0.1500 
@<TRIPOS>BOND
  1   1   2  1   
  2   1   3  1   
  3   2   4  2   
  4   2   5  1   
  5   3   6  2   
  6   3   7  1   
  7   4   6  1   
  8   4  25  1   
  9   5   8  1   
 10   5   9  1   
 11   5  26  1   
 12   6  27  1   
 13   7  10  1   
 14   7  28  1   
 15   7  29  1   
 16   8  11  1   
 17   8  30  1   
 18   8  31  1   
 19   9  12  1   
 20   9  32  1   
 21   9  33  1   
 22  10  13  1   
 23  10  14  1   
 24  10  34  1   
 25  11  12  1   
 26  11  35  1   
 27  11  36  1   
 28  12  37  1   
 29  12  38  1   
 30  13  15  1   
 31  13  39  1   
 32  13  40  1   
 33  14  16  1   
 34  14  41  1   
 35  14  42  1   
 36  15  16  1   
 37  15  17  1   
 38  15  43  1   
 39  16  18  1   
 40  16  44  1   
 41  17  45  1   
 42  18  19  1   
 43  18  46  1   
 44  18  47  1   
 45  19  20  ar  
 46  19  21  ar  
 47  20  22  ar  
 48  21  23  ar  
 49  21  48  1   
 50  22  24  ar  
 51  22  49  1   
 52  23  24  ar  
 53  24  50  1   
@<TRIPOS>SUBSTRUCTURE
  1 ****   7 GROUP 4 **** **** 0

# MOE 2024.06 (io_trps.svl 2023.06)
