@<TRIPOS>MOLECULE
NONAME
47 49 1 0 0 
SMALL
USER_CHARGES


@<TRIPOS>ATOM
  1 O        0.0520     0.6700     1.4180 O.2   1 <1>  -0.5700 
  2 C       -0.0900     1.7450     0.8670 C.2   1 <1>   0.5440 
  3 N       -1.3600     2.2550     0.6940 N.am  1 <1>  -0.6600 
  4 C        1.0750     2.4710     0.4070 C.ar  1 <1>   0.0860 
  5 C       -1.6240     3.4650    -0.1390 C.3   1 <1>   0.1400 
  6 C       -2.5450     1.6040     1.3270 C.3   1 <1>   0.1400 
  7 C        1.8510     2.0310    -0.6700 C.ar  1 <1>   0.1660 
  8 C        1.4560     3.6500     1.0330 C.ar  1 <1>  -0.1500 
  9 C       -3.0780     3.4840    -0.6150 C.3   1 <1>  -0.1600 
 10 C       -3.5580     2.6690     1.7560 C.3   1 <1>  -0.1600 
 11 N        2.9160     2.6630    -1.1420 N.ar  1 <1>  -0.6200 
 12 C        1.4920     0.7440    -1.3940 C.3   1 <1>  -0.0970 
 13 C        2.5640     4.3120     0.5540 C.ar  1 <1>  -0.1500 
 14 C       -4.0620     3.5360     0.5750 C.3   1 <1>   0.2800 
 15 C        3.2510     3.7830    -0.5230 C.ar  1 <1>   0.1600 
 16 O       -4.0050     4.8720     1.0340 O.3   1 <1>  -0.5600 
 17 C       -5.5160     3.1290     0.1750 C.3   1 <1>   0.2000 
 18 C       -5.1650     5.6560     1.0350 C.3   1 <1>   0.1200 
 19 O       -5.5810     1.8450    -0.3790 O.3   1 <1>  -0.6800 
 20 C       -6.2400     4.1800    -0.7190 C.3   1 <1>   0.2800 
 21 C       -5.8030     5.6100    -0.3550 C.3   1 <1>  -0.1600 
 22 O       -7.5900     4.0760    -0.4370 O.3   1 <1>  -0.6800 
 23 C       -6.1330     3.9500    -2.2340 C.3   1 <1>  -0.2400 
 24 H       -1.4280     4.3470     0.4470 H     1 <1>   0.0800 
 25 H       -0.9700     3.4690    -0.9940 H     1 <1>   0.0800 
 26 H       -2.9970     0.9280     0.6210 H     1 <1>   0.0800 
 27 H       -2.2370     1.0350     2.1880 H     1 <1>   0.0800 
 28 H        0.8940     4.0260     1.8700 H     1 <1>   0.1500 
 29 H       -3.2470     2.6020    -1.2060 H     1 <1>   0.0800 
 30 H       -3.2270     4.3340    -1.2510 H     1 <1>   0.0800 
 31 H       -3.0830     3.2900     2.4950 H     1 <1>   0.0800 
 32 H       -4.3810     2.1730     2.2370 H     1 <1>   0.0800 
 33 H        0.4430     0.7210    -1.6260 H     1 <1>   0.0800 
 34 H        1.7320    -0.0970    -0.7690 H     1 <1>   0.0800 
 35 H        2.0460     0.6590    -2.3120 H     1 <1>   0.0800 
 36 H        2.8970     5.2280     1.0090 H     1 <1>   0.1500 
 37 H        4.1170     4.3030    -0.8940 H     1 <1>   0.1500 
 38 H       -6.0710     3.0710     1.0950 H     1 <1>   0.0800 
 39 H       -5.8350     5.2880     1.7930 H     1 <1>   0.0800 
 40 H       -4.8760     6.6620     1.2860 H     1 <1>   0.0800 
 41 H       -6.5190     1.6470    -0.5770 H     1 <1>   0.4000 
 42 H       -5.0660     5.9630    -1.0540 H     1 <1>   0.0800 
 43 H       -6.6350     6.2900    -0.3990 H     1 <1>   0.0800 
 44 H       -8.0950     4.6600    -1.0330 H     1 <1>   0.4000 
 45 H       -5.1040     3.9450    -2.5420 H     1 <1>   0.0800 
 46 H       -6.6350     4.7320    -2.7740 H     1 <1>   0.0800 
 47 H       -6.5630     3.0040    -2.5100 H     1 <1>   0.0800 
@<TRIPOS>BOND
  1   1   2  2   
  2   2   3  am  
  3   2   4  1   
  4   3   5  1   
  5   3   6  1   
  6   4   7  ar  
  7   4   8  ar  
  8   5   9  1   
  9   5  24  1   
 10   5  25  1   
 11   6  10  1   
 12   6  26  1   
 13   6  27  1   
 14   7  11  ar  
 15   7  12  1   
 16   8  13  ar  
 17   8  28  1   
 18   9  14  1   
 19   9  29  1   
 20   9  30  1   
 21  10  14  1   
 22  10  31  1   
 23  10  32  1   
 24  11  15  ar  
 25  12  33  1   
 26  12  34  1   
 27  12  35  1   
 28  13  15  ar  
 29  13  36  1   
 30  14  16  1   
 31  14  17  1   
 32  15  37  1   
 33  16  18  1   
 34  17  19  1   
 35  17  20  1   
 36  17  38  1   
 37  18  21  1   
 38  18  39  1   
 39  18  40  1   
 40  19  41  1   
 41  20  21  1   
 42  20  22  1   
 43  20  23  1   
 44  21  42  1   
 45  21  43  1   
 46  22  44  1   
 47  23  45  1   
 48  23  46  1   
 49  23  47  1   
@<TRIPOS>SUBSTRUCTURE
  1 ****   5 GROUP 4 **** **** 0

# MOE 2024.06 (io_trps.svl 2023.06)
