@<TRIPOS>MOLECULE
NONAME
48 50 1 0 0 
SMALL
USER_CHARGES


@<TRIPOS>ATOM
  1 O       -0.4380    -0.0270    -0.7110 O.2   1 <1>  -0.5700 
  2 C       -1.4540     0.6430    -0.7000 C.2   1 <1>   0.5440 
  3 N       -2.6610     0.0100    -0.5270 N.am  1 <1>  -0.6600 
  4 C       -1.3860     2.0790    -0.8640 C.ar  1 <1>   0.0860 
  5 C       -3.9570     0.6870    -0.3010 C.3   1 <1>   0.1400 
  6 C       -2.7910    -1.4530    -0.3720 C.3   1 <1>   0.1400 
  7 C       -0.7520     2.9110     0.0650 C.ar  1 <1>   0.1660 
  8 C       -1.9680     2.6870    -1.9680 C.ar  1 <1>  -0.1500 
  9 C       -4.8350    -0.3600     0.3990 C.3   1 <1>  -0.0800 
 10 C       -4.2730    -1.7130    -0.0810 C.3   1 <1>  -0.0800 
 11 N       -0.6780     4.2300    -0.0280 N.ar  1 <1>  -0.6200 
 12 C       -0.0860     2.3180     1.2960 C.3   1 <1>  -0.0970 
 13 C       -1.8930     4.0570    -2.0740 C.ar  1 <1>  -0.1500 
 14 C       -6.3760    -0.1880     0.2310 C.3   1 <1>   0.2800 
 15 C       -5.0340    -2.2180    -1.3160 C.3   1 <1>  -0.1600 
 16 C       -1.2440     4.7790    -1.0880 C.ar  1 <1>   0.1670 
 17 O       -6.6620     0.4640    -0.9540 O.3   1 <1>  -0.6800 
 18 C       -7.0570    -1.5670     0.1430 C.3   1 <1>  -0.1600 
 19 C       -7.0130     0.6430     1.3670 C.3   1 <1>  -0.1600 
 20 C       -6.5260    -2.4480    -1.0090 C.3   1 <1>  -0.1600 
 21 C       -1.1460     6.2870    -1.1810 C.3   1 <1>  -0.0970 
 22 C       -6.4860     2.0810     1.5160 C.3   1 <1>  -0.2400 
 23 H       -3.8350     1.5680     0.3030 H     1 <1>   0.0800 
 24 H       -4.3570     0.9630    -1.2600 H     1 <1>   0.0800 
 25 H       -2.4590    -1.9540    -1.2650 H     1 <1>   0.0800 
 26 H       -2.1820    -1.7700     0.4580 H     1 <1>   0.0800 
 27 H       -2.4640     2.0930    -2.7160 H     1 <1>   0.1500 
 28 H       -4.6100    -0.3040     1.4490 H     1 <1>   0.0800 
 29 H       -4.3550    -2.4540     0.6950 H     1 <1>   0.0800 
 30 H       -0.7330     1.6030     1.7680 H     1 <1>   0.0800 
 31 H        0.1450     3.0900     2.0080 H     1 <1>   0.0800 
 32 H        0.8270     1.8300     1.0090 H     1 <1>   0.0800 
 33 H       -2.3350     4.5580    -2.9160 H     1 <1>   0.1500 
 34 H       -4.9480    -1.4810    -2.0980 H     1 <1>   0.0800 
 35 H       -4.5960    -3.1300    -1.6810 H     1 <1>   0.0800 
 36 H       -7.6270     0.4920    -1.0810 H     1 <1>   0.4000 
 37 H       -6.8750    -2.0830     1.0700 H     1 <1>   0.0800 
 38 H       -8.1230    -1.4590     0.0530 H     1 <1>   0.0800 
 39 H       -8.0770     0.6840     1.2130 H     1 <1>   0.0800 
 40 H       -6.8560     0.1290     2.2990 H     1 <1>   0.0800 
 41 H       -6.6850    -3.4810    -0.7540 H     1 <1>   0.0800 
 42 H       -7.0900    -2.2460    -1.9040 H     1 <1>   0.0800 
 43 H       -1.6300     6.6550    -2.0670 H     1 <1>   0.0800 
 44 H       -0.1120     6.5770    -1.2020 H     1 <1>   0.0800 
 45 H       -1.6110     6.7300    -0.3200 H     1 <1>   0.0800 
 46 H       -6.5710     2.6190     0.5880 H     1 <1>   0.0800 
 47 H       -5.4570     2.0830     1.8260 H     1 <1>   0.0800 
 48 H       -7.0580     2.6030     2.2630 H     1 <1>   0.0800 
@<TRIPOS>BOND
  1   1   2  2   
  2   2   3  am  
  3   2   4  1   
  4   3   5  1   
  5   3   6  1   
  6   4   7  ar  
  7   4   8  ar  
  8   5   9  1   
  9   5  23  1   
 10   5  24  1   
 11   6  10  1   
 12   6  25  1   
 13   6  26  1   
 14   7  11  ar  
 15   7  12  1   
 16   8  13  ar  
 17   8  27  1   
 18   9  10  1   
 19   9  14  1   
 20   9  28  1   
 21  10  15  1   
 22  10  29  1   
 23  11  16  ar  
 24  12  30  1   
 25  12  31  1   
 26  12  32  1   
 27  13  16  ar  
 28  13  33  1   
 29  14  17  1   
 30  14  18  1   
 31  14  19  1   
 32  15  20  1   
 33  15  34  1   
 34  15  35  1   
 35  16  21  1   
 36  17  36  1   
 37  18  20  1   
 38  18  37  1   
 39  18  38  1   
 40  19  22  1   
 41  19  39  1   
 42  19  40  1   
 43  20  41  1   
 44  20  42  1   
 45  21  43  1   
 46  21  44  1   
 47  21  45  1   
 48  22  46  1   
 49  22  47  1   
 50  22  48  1   
@<TRIPOS>SUBSTRUCTURE
  1 ****   5 GROUP 4 **** **** 0

# MOE 2024.06 (io_trps.svl 2023.06)
