@<TRIPOS>MOLECULE
NONAME
43 45 1 0 0 
SMALL
USER_CHARGES


@<TRIPOS>ATOM
  1 CL      -2.1950    -1.4840    -3.4970 Cl    1 <1>  -0.1770 
  2 C       -2.7680    -1.7390    -1.8640 C.ar  1 <1>   0.1770 
  3 C       -2.9610    -0.6730    -1.0010 C.ar  1 <1>   0.1900 
  4 C       -3.0320    -3.0250    -1.4340 C.ar  1 <1>  -0.1500 
  5 F       -2.7130     0.5480    -1.4020 F     1 <1>  -0.1900 
  6 C       -3.4130    -0.8650     0.2920 C.ar  1 <1>  -0.1500 
  7 C       -3.4890    -3.2390    -0.1410 C.ar  1 <1>   0.0830 
  8 C       -3.6780    -2.1570     0.7220 C.ar  1 <1>  -0.1500 
  9 O       -3.7300    -4.5270     0.2050 O.3   1 <1>  -0.3630 
 10 C       -4.2230    -4.8700     1.4940 C.3   1 <1>   0.1810 
 11 C       -4.4320    -6.3760     1.6360 C.2   1 <1>   0.5690 
 12 O       -3.9060    -6.9320     2.5720 O.2   1 <1>  -0.5700 
 13 N       -5.2140    -7.0740     0.7530 N.am  1 <1>  -0.6600 
 14 C       -5.8680    -6.5350    -0.4670 C.3   1 <1>   0.1400 
 15 C       -5.3860    -8.5450     0.8260 C.3   1 <1>   0.1400 
 16 C       -6.8020    -7.6550    -0.9220 C.3   1 <1>   0.2000 
 17 C       -6.0710    -8.9320    -0.4910 C.3   1 <1>  -0.0800 
 18 O       -7.9900    -7.5390    -0.2170 O.3   1 <1>  -0.6800 
 19 C       -6.9590   -10.1870    -0.3890 C.3   1 <1>   0.0200 
 20 C       -6.1710   -11.4530    -0.0990 C.2   1 <1>  -0.0400 
 21 O       -6.8270   -12.5560     0.1470 O.3   1 <1>  -0.0190 
 22 C       -4.8590   -11.7360    -0.0330 C.2   1 <1>  -0.1500 
 23 N       -6.0280   -13.5580     0.3780 N.2   1 <1>  -0.4100 
 24 C       -4.8360   -13.0930     0.2770 C.2   1 <1>   0.1080 
 25 C       -3.5820   -13.9170     0.4710 C.3   1 <1>  -0.0590 
 26 H       -2.8810    -3.8560    -2.0980 H     1 <1>   0.1500 
 27 H       -3.5520    -0.0200     0.9430 H     1 <1>   0.1500 
 28 H       -4.0270    -2.2960     1.7290 H     1 <1>   0.1500 
 29 H       -3.5060    -4.5430     2.2240 H     1 <1>   0.0800 
 30 H       -5.1590    -4.3660     1.6470 H     1 <1>   0.0800 
 31 H       -6.4030    -5.6220    -0.2730 H     1 <1>   0.0800 
 32 H       -5.1150    -6.3600    -1.2170 H     1 <1>   0.0800 
 33 H       -4.4330    -9.0320     0.9410 H     1 <1>   0.0800 
 34 H       -6.0090    -8.7840     1.6720 H     1 <1>   0.0800 
 35 H       -7.0230    -7.6200    -1.9750 H     1 <1>   0.0800 
 36 H       -5.3000    -9.1210    -1.2170 H     1 <1>   0.0800 
 37 H       -7.7870    -7.4480     0.7360 H     1 <1>   0.4000 
 38 H       -7.4920   -10.3230    -1.3140 H     1 <1>   0.0800 
 39 H       -7.6900   -10.0580     0.3900 H     1 <1>   0.0800 
 40 H       -4.0000   -11.1090    -0.1760 H     1 <1>   0.1500 
 41 H       -3.0000   -13.5110     1.2770 H     1 <1>   0.0800 
 42 H       -2.9980   -13.9100    -0.4300 H     1 <1>   0.0800 
 43 H       -3.8440   -14.9330     0.7080 H     1 <1>   0.0800 
@<TRIPOS>BOND
  1   1   2  1   
  2   2   3  ar  
  3   2   4  ar  
  4   3   5  1   
  5   3   6  ar  
  6   4   7  ar  
  7   4  26  1   
  8   6   8  ar  
  9   6  27  1   
 10   7   8  ar  
 11   7   9  1   
 12   8  28  1   
 13   9  10  1   
 14  10  11  1   
 15  10  29  1   
 16  10  30  1   
 17  11  12  2   
 18  11  13  am  
 19  13  14  1   
 20  13  15  1   
 21  14  16  1   
 22  14  31  1   
 23  14  32  1   
 24  15  17  1   
 25  15  33  1   
 26  15  34  1   
 27  16  17  1   
 28  16  18  1   
 29  16  35  1   
 30  17  19  1   
 31  17  36  1   
 32  18  37  1   
 33  19  20  1   
 34  19  38  1   
 35  19  39  1   
 36  20  21  1   
 37  20  22  2   
 38  21  23  1   
 39  22  24  1   
 40  22  40  1   
 41  23  24  2   
 42  24  25  1   
 43  25  41  1   
 44  25  42  1   
 45  25  43  1   
@<TRIPOS>SUBSTRUCTURE
  1 ****  13 GROUP 4 **** **** 0

# MOE 2024.06 (io_trps.svl 2023.06)
