@<TRIPOS>MOLECULE
NONAME
53 55 1 0 0 
SMALL
USER_CHARGES


@<TRIPOS>ATOM
  1 O       -0.0530     1.0970     0.1480 O.2   1 <1>  -0.5700 
  2 C       -0.0430     2.3010     0.1740 C.2   1 <1>   0.5690 
  3 N       -1.0390     2.9900     0.7710 N.am  1 <1>  -0.7300 
  4 C        1.0820     3.0790    -0.5050 C.3   1 <1>   0.1810 
  5 C       -1.1570     4.4690     0.7430 C.3   1 <1>   0.3640 
  6 O        1.2160     4.3830     0.0150 O.3   1 <1>  -0.5600 
  7 C       -2.5010     4.8170     0.1050 C.ar  1 <1>  -0.1440 
  8 C        0.0200     5.1620    -0.0040 C.3   1 <1>   0.2610 
  9 C       -3.3200     5.7720     0.6930 C.ar  1 <1>  -0.1500 
 10 C       -2.9290     4.1970    -1.0640 C.ar  1 <1>  -0.1500 
 11 C        0.2880     6.5440     0.6090 C.2   1 <1>   0.5690 
 12 C       -4.5400     6.0990     0.1280 C.ar  1 <1>  -0.1500 
 13 C       -4.1500     4.5220    -1.6290 C.ar  1 <1>  -0.1500 
 14 O       -0.6150     7.3380     0.7290 O.2   1 <1>  -0.5700 
 15 N        1.5510     6.8520     1.0130 N.am  1 <1>  -0.7300 
 16 C       -4.9570     5.4740    -1.0330 C.ar  1 <1>  -0.1500 
 17 C        1.9850     8.1330     1.5990 C.3   1 <1>   0.1400 
 18 C        2.8320     8.8840     0.5740 C.3   1 <1>  -0.1600 
 19 C        3.1940    10.2830     1.0870 C.3   1 <1>   0.0960 
 20 N        3.9660    11.0290     0.0690 N.pl3 1 <1>   0.0480 
 21 C        3.6040    12.0830    -0.7120 C.2   1 <1>   0.0060 
 22 C        5.2410    10.7670    -0.2750 C.2   1 <1>  -0.3020 
 23 N        4.5520    12.4770    -1.5060 N.2   1 <1>  -0.5650 
 24 C        2.2170    12.7350    -0.6600 C.3   1 <1>   0.1000 
 25 C        5.5780    11.6550    -1.2330 C.2   1 <1>   0.0770 
 26 C        1.2100    11.9180    -1.4780 C.3   1 <1>  -0.2400 
 27 C        2.2420    14.1820    -1.1710 C.3   1 <1>  -0.2400 
 28 H       -1.8250     2.4710     1.1650 H     1 <1>   0.3700 
 29 H        0.8910     3.1470    -1.5600 H     1 <1>   0.0800 
 30 H        2.0140     2.5660    -0.3500 H     1 <1>   0.0800 
 31 H       -1.1590     4.8140     1.7630 H     1 <1>   0.0800 
 32 H       -0.2520     5.3090    -1.0340 H     1 <1>   0.0800 
 33 H       -3.0100     6.2760     1.5920 H     1 <1>   0.1500 
 34 H       -2.3180     3.4510    -1.5430 H     1 <1>   0.1500 
 35 H       -5.1640     6.8430     0.5920 H     1 <1>   0.1500 
 36 H       -4.4720     4.0350    -2.5330 H     1 <1>   0.1500 
 37 H        2.2670     6.1300     0.8700 H     1 <1>   0.3700 
 38 H       -5.9060     5.7280    -1.4710 H     1 <1>   0.1500 
 39 H        1.1200     8.7200     1.8620 H     1 <1>   0.0800 
 40 H        2.5520     7.9430     2.4950 H     1 <1>   0.0800 
 41 H        2.2720     8.9780    -0.3400 H     1 <1>   0.0800 
 42 H        3.7310     8.3270     0.3780 H     1 <1>   0.0800 
 43 H        3.7930    10.2080     1.9770 H     1 <1>   0.0800 
 44 H        2.3000    10.8270     1.3270 H     1 <1>   0.0800 
 45 H        5.8290     9.9840     0.1660 H     1 <1>   0.1500 
 46 H        1.8890    12.7690     0.3630 H     1 <1>   0.0800 
 47 H        6.5190    11.7480    -1.7480 H     1 <1>   0.1500 
 48 H        1.5380    11.8530    -2.5010 H     1 <1>   0.0800 
 49 H        0.2400    12.3810    -1.4530 H     1 <1>   0.0800 
 50 H        1.1220    10.9230    -1.0850 H     1 <1>   0.0800 
 51 H        2.5300    14.2080    -2.2070 H     1 <1>   0.0800 
 52 H        2.9570    14.7550    -0.6070 H     1 <1>   0.0800 
 53 H        1.2740    14.6380    -1.0670 H     1 <1>   0.0800 
@<TRIPOS>BOND
  1   1   2  2   
  2   2   3  am  
  3   2   4  1   
  4   3   5  1   
  5   3  28  1   
  6   4   6  1   
  7   4  29  1   
  8   4  30  1   
  9   5   7  1   
 10   5   8  1   
 11   5  31  1   
 12   6   8  1   
 13   7   9  ar  
 14   7  10  ar  
 15   8  11  1   
 16   8  32  1   
 17   9  12  ar  
 18   9  33  1   
 19  10  13  ar  
 20  10  34  1   
 21  11  14  2   
 22  11  15  am  
 23  12  16  ar  
 24  12  35  1   
 25  13  16  ar  
 26  13  36  1   
 27  15  17  1   
 28  15  37  1   
 29  16  38  1   
 30  17  18  1   
 31  17  39  1   
 32  17  40  1   
 33  18  19  1   
 34  18  41  1   
 35  18  42  1   
 36  19  20  1   
 37  19  43  1   
 38  19  44  1   
 39  20  21  1   
 40  20  22  1   
 41  21  23  2   
 42  21  24  1   
 43  22  25  2   
 44  22  45  1   
 45  23  25  1   
 46  24  26  1   
 47  24  27  1   
 48  24  46  1   
 49  25  47  1   
 50  26  48  1   
 51  26  49  1   
 52  26  50  1   
 53  27  51  1   
 54  27  52  1   
 55  27  53  1   
@<TRIPOS>SUBSTRUCTURE
  1 ****  11 GROUP 4 **** **** 0

# MOE 2024.06 (io_trps.svl 2023.06)
