@<TRIPOS>MOLECULE
NONAME
40 41 1 0 0 
SMALL
USER_CHARGES


@<TRIPOS>ATOM
  1 O       -0.9710     1.1870     2.5550 O.2   1 <1>  -0.5700 
  2 C       -0.5170     2.0770     1.8700 C.2   1 <1>   0.5690 
  3 N       -1.3370     3.0110     1.2760 N.am  1 <1>  -0.6600 
  4 C        1.0080     2.1280     1.7270 C.3   1 <1>   0.1810 
  5 C       -2.8220     2.8620     1.2950 C.3   1 <1>   0.1400 
  6 C       -0.8710     4.1370     0.4220 C.3   1 <1>   0.1400 
  7 O        1.4300     2.0720     0.3850 O.3   1 <1>  -0.5600 
  8 C       -3.3680     2.6080    -0.1330 C.3   1 <1>   0.0000 
  9 C       -1.3630     3.9260    -1.0130 C.3   1 <1>  -0.1600 
 10 C        2.8050     2.0140     0.2250 C.3   1 <1>   0.1200 
 11 C       -4.9050     2.4690    -0.1530 C.3   1 <1>   0.2000 
 12 C       -2.8900     3.7390    -1.0710 C.3   1 <1>  -0.1600 
 13 C       -2.9300     1.2200    -0.6370 C.3   1 <1>  -0.1600 
 14 C        3.0890     2.0100    -1.2710 C.3   1 <1>  -0.2400 
 15 O       -5.5400     3.3140     0.7410 O.3   1 <1>  -0.6800 
 16 C       -5.2240     1.0100     0.1840 C.3   1 <1>  -0.1600 
 17 C       -3.9160     0.2320    -0.0120 C.3   1 <1>  -0.1600 
 18 H        1.4300     1.2880     2.2490 H     1 <1>   0.0800 
 19 H        1.3740     3.0380     2.1640 H     1 <1>   0.0800 
 20 H       -3.1120     2.0610     1.9510 H     1 <1>   0.0800 
 21 H       -3.2400     3.7720     1.6880 H     1 <1>   0.0800 
 22 H       -1.2740     5.0560     0.8110 H     1 <1>   0.0800 
 23 H        0.2000     4.2190     0.4290 H     1 <1>   0.0800 
 24 H       -1.0820     4.7750    -1.6110 H     1 <1>   0.0800 
 25 H       -0.8680     3.0630    -1.4230 H     1 <1>   0.0800 
 26 H        3.2500     2.8750     0.6940 H     1 <1>   0.0800 
 27 H        3.1720     1.1100     0.6840 H     1 <1>   0.0800 
 28 H       -5.2750     2.6960    -1.1390 H     1 <1>   0.0800 
 29 H       -3.1890     3.5350    -2.0850 H     1 <1>   0.0800 
 30 H       -3.3650     4.6580    -0.7730 H     1 <1>   0.0800 
 31 H       -3.0280     1.1750    -1.7080 H     1 <1>   0.0800 
 32 H       -1.9130     0.9790    -0.3810 H     1 <1>   0.0800 
 33 H        2.7050     2.9070    -1.7220 H     1 <1>   0.0800 
 34 H        2.6290     1.1530    -1.7300 H     1 <1>   0.0800 
 35 H        4.1490     1.9640    -1.4420 H     1 <1>   0.0800 
 36 H       -5.3840     3.0060     1.6530 H     1 <1>   0.4000 
 37 H       -5.5640     0.8980     1.1990 H     1 <1>   0.0800 
 38 H       -5.9800     0.6430    -0.4860 H     1 <1>   0.0800 
 39 H       -3.5390    -0.0900     0.9450 H     1 <1>   0.0800 
 40 H       -4.0530    -0.6340    -0.6370 H     1 <1>   0.0800 
@<TRIPOS>BOND
  1   1   2  2   
  2   2   3  am  
  3   2   4  1   
  4   3   5  1   
  5   3   6  1   
  6   4   7  1   
  7   4  18  1   
  8   4  19  1   
  9   5   8  1   
 10   5  20  1   
 11   5  21  1   
 12   6   9  1   
 13   6  22  1   
 14   6  23  1   
 15   7  10  1   
 16   8  11  1   
 17   8  12  1   
 18   8  13  1   
 19   9  12  1   
 20   9  24  1   
 21   9  25  1   
 22  10  14  1   
 23  10  26  1   
 24  10  27  1   
 25  11  15  1   
 26  11  16  1   
 27  11  28  1   
 28  12  29  1   
 29  12  30  1   
 30  13  17  1   
 31  13  31  1   
 32  13  32  1   
 33  14  33  1   
 34  14  34  1   
 35  14  35  1   
 36  15  36  1   
 37  16  17  1   
 38  16  37  1   
 39  16  38  1   
 40  17  39  1   
 41  17  40  1   
@<TRIPOS>SUBSTRUCTURE
  1 ****   3 GROUP 4 **** **** 0

# MOE 2024.06 (io_trps.svl 2023.06)
