@<TRIPOS>MOLECULE
NONAME
50 52 1 0 0 
SMALL
USER_CHARGES


@<TRIPOS>ATOM
  1 O       -1.1380    -0.7470    -0.1400 O.3   1 <1>  -0.2800 
  2 C       -1.1730    -1.7510    -0.9990 C.2   1 <1>  -0.0400 
  3 C       -1.2350     0.3750    -0.8250 C.2   1 <1>  -0.0400 
  4 C       -1.2930    -1.2850    -2.2600 C.2   1 <1>  -0.1500 
  5 C       -1.0620    -3.1770    -0.4810 C.3   1 <1>   0.2900 
  6 C       -1.3350     0.1100    -2.1460 C.2   1 <1>  -0.1500 
  7 C       -1.2120     1.6830    -0.0520 C.3   1 <1>   0.0200 
  8 N       -2.3720    -3.7250    -0.0510 N.3   1 <1>  -0.8100 
  9 C       -1.3390     2.9110    -0.9650 C.3   1 <1>  -0.1600 
 10 C       -2.2370    -5.1210     0.4250 C.3   1 <1>   0.1100 
 11 C       -3.0290    -2.8770     0.9780 C.3   1 <1>   0.1100 
 12 C       -1.3180     4.2160    -0.1600 C.3   1 <1>  -0.2400 
 13 C       -3.5990    -5.7420     0.8250 C.3   1 <1>   0.3430 
 14 C       -4.3450    -3.4880     1.5130 C.3   1 <1>   0.3430 
 15 N       -4.7040    -4.7280     0.7560 N.4   1 <1>  -0.9590 
 16 C       -6.0500    -5.2690     1.0770 C.3   1 <1>   0.4860 
 17 C       -6.3280    -6.4650     0.1860 C.ar  1 <1>  -0.1430 
 18 C       -6.5060    -6.2920    -1.1780 C.ar  1 <1>  -0.1500 
 19 C       -6.4000    -7.7430     0.7260 C.ar  1 <1>  -0.1500 
 20 C       -6.7410    -7.3860    -1.9890 C.ar  1 <1>   0.0820 
 21 C       -6.6390    -8.8360    -0.0920 C.ar  1 <1>  -0.1500 
 22 O       -6.9030    -7.1920    -3.3050 O.3   1 <1>  -0.5330 
 23 C       -6.8090    -8.6610    -1.4540 C.ar  1 <1>  -0.1500 
 24 H       -1.3460    -1.8360    -3.1820 H     1 <1>   0.1500 
 25 H       -0.3600    -3.1980     0.3350 H     1 <1>   0.0800 
 26 H       -0.6730    -3.7910    -1.2730 H     1 <1>   0.0800 
 27 H       -1.4260     0.7960    -2.9690 H     1 <1>   0.1500 
 28 H       -0.2890     1.7380     0.4970 H     1 <1>   0.0800 
 29 H       -2.0210     1.6770     0.6560 H     1 <1>   0.0800 
 30 H       -2.2610     2.8510    -1.5170 H     1 <1>   0.0800 
 31 H       -0.5250     2.9170    -1.6690 H     1 <1>   0.0800 
 32 H       -1.5730    -5.1550     1.2730 H     1 <1>   0.0800 
 33 H       -1.8000    -5.7260    -0.3520 H     1 <1>   0.0800 
 34 H       -3.2650    -1.9170     0.5490 H     1 <1>   0.0800 
 35 H       -2.3550    -2.7020     1.8000 H     1 <1>   0.0800 
 36 H       -2.1370     4.2430     0.5370 H     1 <1>   0.0800 
 37 H       -1.4080     5.0580    -0.8240 H     1 <1>   0.0800 
 38 H       -0.3950     4.3080     0.3850 H     1 <1>   0.0800 
 39 H       -3.5260    -6.1470     1.8200 H     1 <1>   0.0800 
 40 H       -3.8140    -6.5590     0.1550 H     1 <1>   0.0800 
 41 H       -5.1300    -2.7550     1.4210 H     1 <1>   0.0800 
 42 H       -4.2280    -3.7160     2.5590 H     1 <1>   0.0800 
 43 H       -4.6910    -4.4380    -0.2340 H     1 <1>   0.4500 
 44 H       -6.8020    -4.5160     0.9070 H     1 <1>   0.0800 
 45 H       -6.0920    -5.5690     2.1110 H     1 <1>   0.0800 
 46 H       -6.4700    -5.3190    -1.6360 H     1 <1>   0.1500 
 47 H       -6.2750    -7.9060     1.7830 H     1 <1>   0.1500 
 48 H       -6.6950    -9.8250     0.3310 H     1 <1>   0.1500 
 49 H       -7.1040    -8.0090    -3.7970 H     1 <1>   0.4500 
 50 H       -6.9940    -9.5120    -2.0850 H     1 <1>   0.1500 
@<TRIPOS>BOND
  1   1   2  1   
  2   1   3  1   
  3   2   4  2   
  4   2   5  1   
  5   3   6  2   
  6   3   7  1   
  7   4   6  1   
  8   4  24  1   
  9   5   8  1   
 10   5  25  1   
 11   5  26  1   
 12   6  27  1   
 13   7   9  1   
 14   7  28  1   
 15   7  29  1   
 16   8  10  1   
 17   8  11  1   
 18   9  12  1   
 19   9  30  1   
 20   9  31  1   
 21  10  13  1   
 22  10  32  1   
 23  10  33  1   
 24  11  14  1   
 25  11  34  1   
 26  11  35  1   
 27  12  36  1   
 28  12  37  1   
 29  12  38  1   
 30  13  15  1   
 31  13  39  1   
 32  13  40  1   
 33  14  15  1   
 34  14  41  1   
 35  14  42  1   
 36  15  16  1   
 37  15  43  1   
 38  16  17  1   
 39  16  44  1   
 40  16  45  1   
 41  17  18  ar  
 42  17  19  ar  
 43  18  20  ar  
 44  18  46  1   
 45  19  21  ar  
 46  19  47  1   
 47  20  22  1   
 48  20  23  ar  
 49  21  23  ar  
 50  21  48  1   
 51  22  49  1   
 52  23  50  1   
@<TRIPOS>SUBSTRUCTURE
  1 ****   8 GROUP 4 **** **** 0

# MOE 2024.06 (io_trps.svl 2023.06)
