@<TRIPOS>MOLECULE
NONAME
52 54 1 0 0 
SMALL
USER_CHARGES


@<TRIPOS>ATOM
  1 O        1.2860    -0.1060    -2.2090 O.2   1 <1>  -0.5700 
  2 C        1.7600    -0.6310    -1.2330 C.2   1 <1>   0.5690 
  3 N        2.6500     0.0520    -0.4320 N.am  1 <1>  -0.6600 
  4 C        1.3140    -2.0500    -0.9520 C.3   1 <1>   0.1570 
  5 C        3.4460    -0.5290     0.7030 C.3   1 <1>   0.1400 
  6 C        2.7130     1.5380    -0.5270 C.3   1 <1>   0.1400 
  7 N        0.5200    -2.0590     0.2780 N.pl3 1 <1>   0.3140 
  8 C        4.9770    -0.4790     0.4830 C.3   1 <1>   0.3430 
  9 C        3.8370     1.9680    -1.4720 C.3   1 <1>  -0.1600 
 10 N        0.9410    -2.6070     1.3970 N.2   1 <1>  -0.4180 
 11 C       -0.6550    -1.5110     0.5210 C.2   1 <1>   0.0360 
 12 N        5.5060     0.8420    -0.0120 N.4   1 <1>  -0.9590 
 13 C        5.0820     1.0850    -1.4250 C.3   1 <1>   0.3430 
 14 N        0.0290    -2.3850     2.2730 N.2   1 <1>   0.0000 
 15 N       -0.9770    -1.6970     1.7420 N.2   1 <1>  -0.3380 
 16 C        6.9880     0.8950     0.1320 C.3   1 <1>   0.3430 
 17 C        7.4750     2.3420     0.0520 C.3   1 <1>  -0.1600 
 18 C        8.9880     2.4480     0.3020 C.3   1 <1>   0.1000 
 19 C        9.4190     3.9040     0.3890 C.2   1 <1>  -0.0400 
 20 C        9.8000     1.7400    -0.7920 C.3   1 <1>  -0.2400 
 21 O       10.6040     4.1570     0.9080 O.3   1 <1>  -0.2800 
 22 C        8.8120     5.0580     0.0310 C.2   1 <1>  -0.1500 
 23 C       10.7830     5.4610     0.8950 C.2   1 <1>  -0.0400 
 24 C        9.7090     6.0800     0.3640 C.2   1 <1>  -0.1500 
 25 C       12.0780     6.0190     1.4410 C.3   1 <1>  -0.0600 
 26 H        2.1610    -2.6980    -0.8410 H     1 <1>   0.0800 
 27 H        0.7040    -2.4080    -1.7600 H     1 <1>   0.0800 
 28 H        3.1840    -1.5580     0.8630 H     1 <1>   0.0800 
 29 H        3.1980    -0.0060     1.6110 H     1 <1>   0.0800 
 30 H        2.8700     1.9560     0.4530 H     1 <1>   0.0800 
 31 H        1.7730     1.9280    -0.8870 H     1 <1>   0.0800 
 32 H        5.2450    -1.2510    -0.2190 H     1 <1>   0.0800 
 33 H        5.4510    -0.7250     1.4190 H     1 <1>   0.0800 
 34 H        4.1020     2.9900    -1.2690 H     1 <1>   0.0800 
 35 H        3.4530     1.9450    -2.4780 H     1 <1>   0.0800 
 36 H       -1.2390    -0.9820    -0.2110 H     1 <1>   0.1500 
 37 H        5.1060     1.5900     0.5690 H     1 <1>   0.4500 
 38 H        5.8700     1.5650    -1.9820 H     1 <1>   0.0800 
 39 H        4.8660     0.1440    -1.9060 H     1 <1>   0.0800 
 40 H        7.4560     0.3020    -0.6370 H     1 <1>   0.0800 
 41 H        7.2740     0.4890     1.0900 H     1 <1>   0.0800 
 42 H        6.9720     2.9240     0.8050 H     1 <1>   0.0800 
 43 H        7.2570     2.7630    -0.9130 H     1 <1>   0.0800 
 44 H        9.2180     1.9950     1.2520 H     1 <1>   0.0800 
 45 H        9.5890     2.1700    -1.7560 H     1 <1>   0.0800 
 46 H        9.5990     0.6860    -0.8210 H     1 <1>   0.0800 
 47 H       10.8510     1.8700    -0.5980 H     1 <1>   0.0800 
 48 H        7.8500     5.2190    -0.4190 H     1 <1>   0.1500 
 49 H        9.5450     7.1320     0.2130 H     1 <1>   0.1500 
 50 H       12.1870     5.7390     2.4730 H     1 <1>   0.0800 
 51 H       12.0840     7.0910     1.3660 H     1 <1>   0.0800 
 52 H       12.9070     5.6230     0.8820 H     1 <1>   0.0800 
@<TRIPOS>BOND
  1   1   2  2   
  2   2   3  am  
  3   2   4  1   
  4   3   5  1   
  5   3   6  1   
  6   4   7  1   
  7   4  26  1   
  8   4  27  1   
  9   5   8  1   
 10   5  28  1   
 11   5  29  1   
 12   6   9  1   
 13   6  30  1   
 14   6  31  1   
 15   7  10  1   
 16   7  11  1   
 17   8  12  1   
 18   8  32  1   
 19   8  33  1   
 20   9  13  1   
 21   9  34  1   
 22   9  35  1   
 23  10  14  2   
 24  11  15  2   
 25  11  36  1   
 26  12  13  1   
 27  12  16  1   
 28  12  37  1   
 29  13  38  1   
 30  13  39  1   
 31  14  15  1   
 32  16  17  1   
 33  16  40  1   
 34  16  41  1   
 35  17  18  1   
 36  17  42  1   
 37  17  43  1   
 38  18  19  1   
 39  18  20  1   
 40  18  44  1   
 41  19  21  1   
 42  19  22  2   
 43  20  45  1   
 44  20  46  1   
 45  20  47  1   
 46  21  23  1   
 47  22  24  1   
 48  22  48  1   
 49  23  24  2   
 50  23  25  1   
 51  24  49  1   
 52  25  50  1   
 53  25  51  1   
 54  25  52  1   
@<TRIPOS>SUBSTRUCTURE
  1 ****  12 GROUP 4 **** **** 0

# MOE 2024.06 (io_trps.svl 2023.06)
