@<TRIPOS>MOLECULE
NONAME
46 48 1 0 0 
SMALL
USER_CHARGES


@<TRIPOS>ATOM
  1 O       -0.0850     0.9100     1.7370 O.2   1 <1>  -0.5700 
  2 C        0.0410     1.7910     0.9070 C.2   1 <1>   0.6900 
  3 N       -1.0270     2.5940     0.5890 N.am  1 <1>  -0.6600 
  4 N        1.2340     2.0030     0.2730 N.am  1 <1>  -0.5470 
  5 C       -2.3950     2.2410     1.0950 C.3   1 <1>   0.1400 
  6 C       -0.9120     3.8370    -0.2310 C.3   1 <1>   0.1400 
  7 C        2.4850     1.3740     0.3610 C.ar  1 <1>   0.1170 
  8 C       -3.5110     2.6490     0.1030 C.3   1 <1>   0.0000 
  9 C       -2.0570     4.8030     0.0800 C.3   1 <1>  -0.1600 
 10 C        3.5960     2.0450    -0.1330 C.ar  1 <1>  -0.1500 
 11 C        2.6720     0.1040     0.9020 C.ar  1 <1>  -0.1500 
 12 C       -4.8720     2.1860     0.6670 C.3   1 <1>   0.2000 
 13 C       -3.4470     4.1820    -0.1490 C.3   1 <1>  -0.1600 
 14 C       -3.3960     1.8180    -1.1960 C.3   1 <1>  -0.1600 
 15 C        4.8590     1.4820    -0.0900 C.ar  1 <1>   0.0830 
 16 C        3.9300    -0.4690     0.9530 C.ar  1 <1>  -0.1500 
 17 O       -5.9090     2.8120    -0.0050 O.3   1 <1>  -0.6800 
 18 C       -4.9640     0.6980     0.3360 C.3   1 <1>  -0.1600 
 19 C       -4.1160     0.4890    -0.9260 C.3   1 <1>  -0.1600 
 20 O        5.8740     2.2250    -0.5990 O.3   1 <1>  -0.3630 
 21 C        5.0270     0.2140     0.4590 C.ar  1 <1>  -0.1500 
 22 C        7.2030     1.7520    -0.5850 C.3   1 <1>   0.0400 
 23 H        1.1980     2.7850    -0.3670 H     1 <1>   0.3700 
 24 H       -2.4410     1.1820     1.2800 H     1 <1>   0.0800 
 25 H       -2.5480     2.7410     2.0350 H     1 <1>   0.0800 
 26 H        0.0220     4.3280    -0.0200 H     1 <1>   0.0800 
 27 H       -0.9360     3.5730    -1.2750 H     1 <1>   0.0800 
 28 H       -1.9660     5.1060     1.1090 H     1 <1>   0.0800 
 29 H       -1.9560     5.6890    -0.5220 H     1 <1>   0.0800 
 30 H        3.4890     3.0250    -0.5570 H     1 <1>   0.1500 
 31 H        1.8340    -0.4470     1.2860 H     1 <1>   0.1500 
 32 H       -4.9850     2.3900     1.7190 H     1 <1>   0.0800 
 33 H       -3.7760     4.4010    -1.1490 H     1 <1>   0.0800 
 34 H       -4.1320     4.6830     0.5150 H     1 <1>   0.0800 
 35 H       -3.9020     2.3200    -2.0010 H     1 <1>   0.0800 
 36 H       -2.3770     1.6500    -1.4970 H     1 <1>   0.0800 
 37 H        4.0510    -1.4500     1.3780 H     1 <1>   0.1500 
 38 H       -5.8510     2.5850    -0.9510 H     1 <1>   0.4000 
 39 H       -4.5310     0.1340     1.1440 H     1 <1>   0.0800 
 40 H       -5.9820     0.3720     0.2090 H     1 <1>   0.0800 
 41 H       -3.3980    -0.2970    -0.7570 H     1 <1>   0.0800 
 42 H       -4.7330     0.2170    -1.7660 H     1 <1>   0.0800 
 43 H        5.9920    -0.2530     0.5100 H     1 <1>   0.1500 
 44 H        7.8300     2.5050    -1.0280 H     1 <1>   0.0800 
 45 H        7.2570     0.8450    -1.1600 H     1 <1>   0.0800 
 46 H        7.5010     1.5820     0.4350 H     1 <1>   0.0800 
@<TRIPOS>BOND
  1   1   2  2   
  2   2   3  am  
  3   2   4  am  
  4   3   5  1   
  5   3   6  1   
  6   4   7  1   
  7   4  23  1   
  8   5   8  1   
  9   5  24  1   
 10   5  25  1   
 11   6   9  1   
 12   6  26  1   
 13   6  27  1   
 14   7  10  ar  
 15   7  11  ar  
 16   8  12  1   
 17   8  13  1   
 18   8  14  1   
 19   9  13  1   
 20   9  28  1   
 21   9  29  1   
 22  10  15  ar  
 23  10  30  1   
 24  11  16  ar  
 25  11  31  1   
 26  12  17  1   
 27  12  18  1   
 28  12  32  1   
 29  13  33  1   
 30  13  34  1   
 31  14  19  1   
 32  14  35  1   
 33  14  36  1   
 34  15  20  1   
 35  15  21  ar  
 36  16  21  ar  
 37  16  37  1   
 38  17  38  1   
 39  18  19  1   
 40  18  39  1   
 41  18  40  1   
 42  19  41  1   
 43  19  42  1   
 44  20  22  1   
 45  21  43  1   
 46  22  44  1   
 47  22  45  1   
 48  22  46  1   
@<TRIPOS>SUBSTRUCTURE
  1 ****   2 GROUP 4 **** **** 0

# MOE 2024.06 (io_trps.svl 2023.06)
