@<TRIPOS>MOLECULE
NONAME
44 45 1 0 0 
SMALL
USER_CHARGES


@<TRIPOS>ATOM
  1 O        1.9690     3.1380    -2.4300 O.3   1 <1>  -0.3630 
  2 C        1.4100     3.1100    -1.1970 C.ar  1 <1>   0.0830 
  3 C        1.8050     2.0660    -3.3340 C.3   1 <1>   0.0400 
  4 C        1.6870     4.1850    -0.3690 C.ar  1 <1>  -0.1500 
  5 C        0.5930     2.0830    -0.7360 C.ar  1 <1>  -0.1500 
  6 C        1.1550     4.2550     0.9120 C.ar  1 <1>  -0.1430 
  7 C        0.0640     2.1430     0.5410 C.ar  1 <1>  -0.1500 
  8 C        0.3430     3.2230     1.3620 C.ar  1 <1>  -0.1500 
  9 C        1.4380     5.4460     1.8180 C.3   1 <1>   0.5660 
 10 N        0.9860     6.6830     1.1330 N.4   1 <1>  -0.9590 
 11 C        2.9290     5.5010     2.1540 C.3   1 <1>  -0.2400 
 12 C        1.3140     7.9610     1.8230 C.3   1 <1>   0.5240 
 13 C       -0.4290     6.6320     0.6600 C.3   1 <1>   0.2630 
 14 C        2.4980     8.5750     1.0800 C.2   1 <1>   0.1080 
 15 N        2.8910     8.1420    -0.0860 N.2   1 <1>  -0.7070 
 16 C        3.2860     9.6240     1.5400 C.2   1 <1>  -0.1500 
 17 N        3.9530     8.9120    -0.4030 N.pl3 1 <1>   0.3140 
 18 C        4.2030     9.8110     0.5690 C.2   1 <1>  -0.3020 
 19 C        4.7090     8.7410    -1.6630 C.3   1 <1>   0.0960 
 20 C        5.8070     7.6810    -1.5060 C.3   1 <1>  -0.2400 
 21 H        2.3530     2.2970    -4.2300 H     1 <1>   0.0800 
 22 H        0.7600     1.9580    -3.5640 H     1 <1>   0.0800 
 23 H        2.1970     1.1690    -2.8880 H     1 <1>   0.0800 
 24 H        2.3280     4.9590    -0.7540 H     1 <1>   0.1500 
 25 H        0.3600     1.2350    -1.3520 H     1 <1>   0.1500 
 26 H       -0.5650     1.3440     0.8970 H     1 <1>   0.1500 
 27 H       -0.0800     3.2420     2.3530 H     1 <1>   0.1500 
 28 H        0.8810     5.3210     2.7320 H     1 <1>   0.0800 
 29 H        1.5970     6.7620     0.2940 H     1 <1>   0.4500 
 30 H        3.5160     5.7090     1.2780 H     1 <1>   0.0800 
 31 H        3.2370     4.5460     2.5390 H     1 <1>   0.0800 
 32 H        3.1370     6.2360     2.9090 H     1 <1>   0.0800 
 33 H        1.5670     7.7910     2.8550 H     1 <1>   0.0800 
 34 H        0.4810     8.6420     1.7710 H     1 <1>   0.0800 
 35 H       -1.1050     6.5610     1.4960 H     1 <1>   0.0800 
 36 H       -0.5790     5.7760     0.0210 H     1 <1>   0.0800 
 37 H       -0.6640     7.5180     0.0930 H     1 <1>   0.0800 
 38 H        3.1820    10.1620     2.4670 H     1 <1>   0.1500 
 39 H        5.0090    10.5210     0.5160 H     1 <1>   0.1500 
 40 H        5.1410     9.6860    -1.9360 H     1 <1>   0.0800 
 41 H        4.0190     8.4440    -2.4320 H     1 <1>   0.0800 
 42 H        6.5060     7.9740    -0.7430 H     1 <1>   0.0800 
 43 H        6.3400     7.5700    -2.4340 H     1 <1>   0.0800 
 44 H        5.3730     6.7310    -1.2480 H     1 <1>   0.0800 
@<TRIPOS>BOND
  1   1   2  1   
  2   1   3  1   
  3   2   4  ar  
  4   2   5  ar  
  5   3  21  1   
  6   3  22  1   
  7   3  23  1   
  8   4   6  ar  
  9   4  24  1   
 10   5   7  ar  
 11   5  25  1   
 12   6   8  ar  
 13   6   9  1   
 14   7   8  ar  
 15   7  26  1   
 16   8  27  1   
 17   9  10  1   
 18   9  11  1   
 19   9  28  1   
 20  10  12  1   
 21  10  13  1   
 22  10  29  1   
 23  11  30  1   
 24  11  31  1   
 25  11  32  1   
 26  12  14  1   
 27  12  33  1   
 28  12  34  1   
 29  13  35  1   
 30  13  36  1   
 31  13  37  1   
 32  14  15  2   
 33  14  16  1   
 34  15  17  1   
 35  16  18  2   
 36  16  38  1   
 37  17  18  1   
 38  17  19  1   
 39  18  39  1   
 40  19  20  1   
 41  19  40  1   
 42  19  41  1   
 43  20  42  1   
 44  20  43  1   
 45  20  44  1   
@<TRIPOS>SUBSTRUCTURE
  1 ****  10 GROUP 4 **** **** 0

# MOE 2024.06 (io_trps.svl 2023.06)
