@<TRIPOS>MOLECULE
NONAME
66 69 1 0 0 
SMALL
USER_CHARGES


@<TRIPOS>ATOM
  1 O        0.5520    -1.2910    -1.5850 O.2   1 <1>  -0.5700 
  2 C        1.3610    -1.9790    -1.0130 C.2   1 <1>   0.5690 
  3 N        1.0230    -3.0370    -0.2130 N.am  1 <1>  -0.6600 
  4 C        2.8350    -1.6710    -1.1760 C.3   1 <1>  -0.0990 
  5 C        2.0720    -3.8220     0.4810 C.3   1 <1>   0.1400 
  6 C       -0.3910    -3.4140     0.0570 C.3   1 <1>   0.0600 
  7 C        3.6280    -2.9660    -1.4290 C.3   1 <1>  -0.0800 
  8 C        3.2300    -4.1310    -0.4900 C.3   1 <1>  -0.0800 
  9 C        5.1450    -2.7830    -1.2830 C.3   1 <1>  -0.1600 
 10 C        4.5210    -4.5490     0.2280 C.3   1 <1>  -0.1600 
 11 C        5.6300    -4.1160    -0.7270 C.3   1 <1>   0.4230 
 12 N        7.0030    -4.0820    -0.1430 N.4   1 <1>  -0.9590 
 13 C        7.1880    -3.5880     1.2540 C.3   1 <1>   0.4860 
 14 C        7.6720    -5.4060    -0.2930 C.3   1 <1>   0.2630 
 15 C        6.9800    -2.0870     1.3380 C.ar  1 <1>  -0.1430 
 16 C        7.6880    -1.2140     0.5160 C.ar  1 <1>   0.0820 
 17 C        6.0720    -1.5690     2.2510 C.ar  1 <1>  -0.1500 
 18 O        8.5570    -1.6990    -0.3980 O.3   1 <1>  -0.3630 
 19 C        7.4770     0.1550     0.5980 C.ar  1 <1>  -0.1500 
 20 C        5.8670    -0.2020     2.3350 C.ar  1 <1>  -0.1500 
 21 C        9.9410    -1.4080    -0.2100 C.3   1 <1>   0.1810 
 22 C        6.5670     0.6590     1.5090 C.ar  1 <1>  -0.1500 
 23 C       10.7270    -2.6350     0.2670 C.2   1 <1>   0.5690 
 24 O       10.1250    -3.6770     0.4210 O.2   1 <1>  -0.5700 
 25 N       12.0770    -2.5470     0.5040 N.am  1 <1>  -0.6600 
 26 C       12.9030    -1.3150     0.3360 C.3   1 <1>   0.1400 
 27 C       12.8780    -3.7390     0.9070 C.3   1 <1>   0.1400 
 28 C       13.9680    -1.5600    -0.7390 C.3   1 <1>  -0.1600 
 29 C       13.9480    -4.0170    -0.1540 C.3   1 <1>  -0.1600 
 30 C       14.8300    -2.7860    -0.4070 C.3   1 <1>  -0.1600 
 31 H        2.9690    -0.9870    -1.9950 H     1 <1>   0.0800 
 32 H        3.1680    -1.1860    -0.2760 H     1 <1>   0.0800 
 33 H        2.4240    -3.2410     1.3160 H     1 <1>   0.0800 
 34 H        1.6570    -4.7410     0.8590 H     1 <1>   0.0800 
 35 H       -0.5670    -4.4250    -0.2660 H     1 <1>   0.0800 
 36 H       -1.0640    -2.7620    -0.4740 H     1 <1>   0.0800 
 37 H       -0.5960    -3.3340     1.1100 H     1 <1>   0.0800 
 38 H        3.4150    -3.2820    -2.4390 H     1 <1>   0.0800 
 39 H        2.9120    -4.9520    -1.1120 H     1 <1>   0.0800 
 40 H        5.3320    -1.9830    -0.5960 H     1 <1>   0.0800 
 41 H        5.6040    -2.5560    -2.2290 H     1 <1>   0.0800 
 42 H        4.5410    -5.6090     0.4120 H     1 <1>   0.0800 
 43 H        4.5850    -4.0120     1.1550 H     1 <1>   0.0800 
 44 H        5.6300    -4.8060    -1.5550 H     1 <1>   0.0800 
 45 H        7.5560    -3.3960    -0.6890 H     1 <1>   0.4500 
 46 H        6.5140    -4.0960     1.9230 H     1 <1>   0.0800 
 47 H        8.1920    -3.8010     1.5800 H     1 <1>   0.0800 
 48 H        7.1440    -6.1590     0.2680 H     1 <1>   0.0800 
 49 H        8.6870    -5.3600     0.0650 H     1 <1>   0.0800 
 50 H        7.6940    -5.6970    -1.3310 H     1 <1>   0.0800 
 51 H        5.5170    -2.2160     2.9080 H     1 <1>   0.1500 
 52 H        8.0110     0.8250    -0.0520 H     1 <1>   0.1500 
 53 H        5.1620     0.1960     3.0460 H     1 <1>   0.1500 
 54 H       10.3320    -1.0850    -1.1560 H     1 <1>   0.0800 
 55 H       10.0430    -0.6140     0.5070 H     1 <1>   0.0800 
 56 H        6.4020     1.7220     1.5760 H     1 <1>   0.1500 
 57 H       12.3030    -0.4680     0.0590 H     1 <1>   0.0800 
 58 H       13.3830    -1.0880     1.2730 H     1 <1>   0.0800 
 59 H       13.3470    -3.5430     1.8560 H     1 <1>   0.0800 
 60 H       12.2500    -4.6060     1.0200 H     1 <1>   0.0800 
 61 H       13.4830    -1.7040    -1.6890 H     1 <1>   0.0800 
 62 H       14.5970    -0.6920    -0.8210 H     1 <1>   0.0800 
 63 H       14.5610    -4.8400     0.1680 H     1 <1>   0.0800 
 64 H       13.4620    -4.3110    -1.0680 H     1 <1>   0.0800 
 65 H       15.4170    -2.5830     0.4730 H     1 <1>   0.0800 
 66 H       15.5100    -2.9860    -1.2180 H     1 <1>   0.0800 
@<TRIPOS>BOND
  1   1   2  2   
  2   2   3  am  
  3   2   4  1   
  4   3   5  1   
  5   3   6  1   
  6   4   7  1   
  7   4  31  1   
  8   4  32  1   
  9   5   8  1   
 10   5  33  1   
 11   5  34  1   
 12   6  35  1   
 13   6  36  1   
 14   6  37  1   
 15   7   8  1   
 16   7   9  1   
 17   7  38  1   
 18   8  10  1   
 19   8  39  1   
 20   9  11  1   
 21   9  40  1   
 22   9  41  1   
 23  10  11  1   
 24  10  42  1   
 25  10  43  1   
 26  11  12  1   
 27  11  44  1   
 28  12  13  1   
 29  12  14  1   
 30  12  45  1   
 31  13  15  1   
 32  13  46  1   
 33  13  47  1   
 34  14  48  1   
 35  14  49  1   
 36  14  50  1   
 37  15  16  ar  
 38  15  17  ar  
 39  16  18  1   
 40  16  19  ar  
 41  17  20  ar  
 42  17  51  1   
 43  18  21  1   
 44  19  22  ar  
 45  19  52  1   
 46  20  22  ar  
 47  20  53  1   
 48  21  23  1   
 49  21  54  1   
 50  21  55  1   
 51  22  56  1   
 52  23  24  2   
 53  23  25  am  
 54  25  26  1   
 55  25  27  1   
 56  26  28  1   
 57  26  57  1   
 58  26  58  1   
 59  27  29  1   
 60  27  59  1   
 61  27  60  1   
 62  28  30  1   
 63  28  61  1   
 64  28  62  1   
 65  29  30  1   
 66  29  63  1   
 67  29  64  1   
 68  30  65  1   
 69  30  66  1   
@<TRIPOS>SUBSTRUCTURE
  1 ****  15 GROUP 4 **** **** 0

# MOE 2024.06 (io_trps.svl 2023.06)
