@<TRIPOS>MOLECULE
NONAME
61 63 1 0 0 
SMALL
USER_CHARGES


@<TRIPOS>ATOM
  1 O        0.2010    -0.4630    -0.8810 O.2   1 <1>  -0.5700 
  2 C        0.9440    -1.3460    -0.5290 C.2   1 <1>   0.5690 
  3 N        0.5560    -2.3870     0.2690 N.am  1 <1>  -0.6600 
  4 C        2.3880    -1.3170    -0.9870 C.3   1 <1>  -0.0990 
  5 C        1.5350    -3.4120     0.7040 C.3   1 <1>   0.1400 
  6 C       -0.8270    -2.5080     0.8060 C.3   1 <1>   0.0600 
  7 C        2.8220    -2.7170    -1.4600 C.3   1 <1>  -0.0800 
  8 C        2.4200    -3.8480    -0.4830 C.3   1 <1>  -0.0800 
  9 C        4.3370    -2.8340    -1.6790 C.3   1 <1>  -0.1600 
 10 C        3.7350    -4.5050    -0.0420 C.3   1 <1>  -0.1600 
 11 C        4.6860    -4.2410    -1.2070 C.3   1 <1>   0.4230 
 12 N        6.1440    -4.4350    -0.9260 N.4   1 <1>  -0.9590 
 13 C        6.6610    -4.0410     0.4240 C.3   1 <1>   0.4860 
 14 C        6.5380    -5.8430    -1.2280 C.3   1 <1>   0.2630 
 15 C        6.7800    -2.5350     0.5080 C.ar  1 <1>  -0.1440 
 16 C        7.6750    -1.8650    -0.3120 C.ar  1 <1>  -0.1500 
 17 C        5.9970    -1.8090     1.3950 C.ar  1 <1>  -0.1500 
 18 C        7.7780    -0.4850    -0.2730 C.ar  1 <1>   0.0820 
 19 C        6.0960    -0.4290     1.4410 C.ar  1 <1>  -0.1500 
 20 O        8.6740     0.0700    -1.1270 O.3   1 <1>  -0.3630 
 21 C        6.9790     0.2350     0.6090 C.ar  1 <1>  -0.1500 
 22 C        8.9910     1.4480    -1.1160 C.3   1 <1>   0.1200 
 23 C        9.9420     1.7480     0.0510 C.3   1 <1>  -0.1600 
 24 C       10.4040     3.2160     0.0840 C.3   1 <1>  -0.0800 
 25 C       11.4630     3.4000     1.1760 C.3   1 <1>  -0.2400 
 26 C        9.2370     4.1800     0.3380 C.3   1 <1>  -0.2400 
 27 H        2.4940    -0.6060    -1.7860 H     1 <1>   0.0800 
 28 H        2.9880    -0.9860    -0.1600 H     1 <1>   0.0800 
 29 H        2.1370    -2.9810     1.4860 H     1 <1>   0.0800 
 30 H        1.0200    -4.2670     1.1090 H     1 <1>   0.0800 
 31 H       -1.2620    -3.4380     0.4860 H     1 <1>   0.0800 
 32 H       -1.4430    -1.7010     0.4490 H     1 <1>   0.0800 
 33 H       -0.8050    -2.4740     1.8810 H     1 <1>   0.0800 
 34 H        2.3210    -2.9070    -2.3960 H     1 <1>   0.0800 
 35 H        1.8570    -4.5730    -1.0480 H     1 <1>   0.0800 
 36 H        4.8380    -2.0860    -1.0970 H     1 <1>   0.0800 
 37 H        4.5840    -2.6940    -2.7160 H     1 <1>   0.0800 
 38 H        3.6030    -5.5570     0.1390 H     1 <1>   0.0800 
 39 H        4.0700    -4.0170     0.8520 H     1 <1>   0.0800 
 40 H        4.4000    -4.9050    -2.0080 H     1 <1>   0.0800 
 41 H        6.6330    -3.8130    -1.5850 H     1 <1>   0.4500 
 42 H        6.0230    -4.4170     1.2050 H     1 <1>   0.0800 
 43 H        7.6430    -4.4600     0.5710 H     1 <1>   0.0800 
 44 H        6.0430    -6.5240    -0.5540 H     1 <1>   0.0800 
 45 H        7.6040    -5.9670    -1.1240 H     1 <1>   0.0800 
 46 H        6.2630    -6.1000    -2.2390 H     1 <1>   0.0800 
 47 H        8.3160    -2.3910    -0.9960 H     1 <1>   0.1500 
 48 H        5.3040    -2.2990     2.0580 H     1 <1>   0.1500 
 49 H        5.4860     0.1340     2.1280 H     1 <1>   0.1500 
 50 H        7.0330     1.3060     0.6660 H     1 <1>   0.1500 
 51 H        9.4810     1.6660    -2.0480 H     1 <1>   0.0800 
 52 H        8.0800     2.0170    -1.0710 H     1 <1>   0.0800 
 53 H        9.4660     1.5070     0.9850 H     1 <1>   0.0800 
 54 H       10.8060     1.1160    -0.0550 H     1 <1>   0.0800 
 55 H       10.8550     3.4610    -0.8640 H     1 <1>   0.0800 
 56 H       11.0560     3.1680     2.1440 H     1 <1>   0.0800 
 57 H       11.8170     4.4160     1.1870 H     1 <1>   0.0800 
 58 H       12.3050     2.7550     0.9950 H     1 <1>   0.0800 
 59 H        8.7320     3.9310     1.2550 H     1 <1>   0.0800 
 60 H        8.5270     4.1500    -0.4690 H     1 <1>   0.0800 
 61 H        9.6010     5.1890     0.4140 H     1 <1>   0.0800 
@<TRIPOS>BOND
  1   1   2  2   
  2   2   3  am  
  3   2   4  1   
  4   3   5  1   
  5   3   6  1   
  6   4   7  1   
  7   4  27  1   
  8   4  28  1   
  9   5   8  1   
 10   5  29  1   
 11   5  30  1   
 12   6  31  1   
 13   6  32  1   
 14   6  33  1   
 15   7   8  1   
 16   7   9  1   
 17   7  34  1   
 18   8  10  1   
 19   8  35  1   
 20   9  11  1   
 21   9  36  1   
 22   9  37  1   
 23  10  11  1   
 24  10  38  1   
 25  10  39  1   
 26  11  12  1   
 27  11  40  1   
 28  12  13  1   
 29  12  14  1   
 30  12  41  1   
 31  13  15  1   
 32  13  42  1   
 33  13  43  1   
 34  14  44  1   
 35  14  45  1   
 36  14  46  1   
 37  15  16  ar  
 38  15  17  ar  
 39  16  18  ar  
 40  16  47  1   
 41  17  19  ar  
 42  17  48  1   
 43  18  20  1   
 44  18  21  ar  
 45  19  21  ar  
 46  19  49  1   
 47  20  22  1   
 48  21  50  1   
 49  22  23  1   
 50  22  51  1   
 51  22  52  1   
 52  23  24  1   
 53  23  53  1   
 54  23  54  1   
 55  24  25  1   
 56  24  26  1   
 57  24  55  1   
 58  25  56  1   
 59  25  57  1   
 60  25  58  1   
 61  26  59  1   
 62  26  60  1   
 63  26  61  1   
@<TRIPOS>SUBSTRUCTURE
  1 ****  17 GROUP 4 **** **** 0

# MOE 2024.06 (io_trps.svl 2023.06)
