@<TRIPOS>MOLECULE
NONAME
59 61 1 0 0 
SMALL
USER_CHARGES


@<TRIPOS>ATOM
  1 O       -0.0510    -0.1300    -0.0400 O.3   1 <1>  -0.3630 
  2 C       -0.3850    -1.3110    -0.6210 C.ar  1 <1>   0.0820 
  3 C       -0.6030     1.0960    -0.4670 C.3   1 <1>   0.0400 
  4 C        0.2490    -2.4590    -0.1560 C.ar  1 <1>  -0.1440 
  5 C       -1.3220    -1.4110    -1.6470 C.ar  1 <1>  -0.1500 
  6 C       -0.0430    -3.6790    -0.7390 C.ar  1 <1>  -0.1500 
  7 C        1.2560    -2.3780     0.9880 C.3   1 <1>   0.2640 
  8 C       -1.6330    -2.6420    -2.1970 C.ar  1 <1>  -0.1500 
  9 C       -1.0010    -3.7850    -1.7340 C.ar  1 <1>  -0.1440 
 10 O        1.2640    -3.5900     1.6930 O.3   1 <1>  -0.5600 
 11 C       -1.3630    -5.1600    -2.2460 C.3   1 <1>   0.4860 
 12 C        2.1270    -3.5870     2.7860 C.3   1 <1>   0.0400 
 13 N       -1.9280    -5.8740    -1.0690 N.4   1 <1>  -0.9590 
 14 C       -1.7850    -7.3680    -1.1610 C.3   1 <1>   0.3430 
 15 C       -3.3370    -5.4460    -0.8310 C.3   1 <1>   0.3430 
 16 C       -2.3540    -8.1090     0.0920 C.3   1 <1>   0.4230 
 17 C       -3.8520    -6.0960     0.4570 C.3   1 <1>  -0.1600 
 18 N       -2.1790    -9.6270     0.0960 N.4   1 <1>  -0.9590 
 19 C       -3.7990    -7.6500     0.4510 C.3   1 <1>   0.0000 
 20 C       -3.0250   -10.3310     1.1220 C.3   1 <1>   0.3430 
 21 C       -2.3800   -10.2920    -1.2360 C.3   1 <1>   0.2630 
 22 C       -4.1290    -8.1500     1.8860 C.3   1 <1>  -0.1600 
 23 C       -4.8890    -8.1960    -0.5160 C.3   1 <1>   0.1200 
 24 C       -3.3440    -9.4120     2.3020 C.3   1 <1>  -0.1600 
 25 O       -4.5420    -8.0010    -1.8450 O.3   1 <1>  -0.6800 
 26 H       -0.1730     1.8810     0.1280 H     1 <1>   0.0800 
 27 H       -1.6680     1.0710    -0.3220 H     1 <1>   0.0800 
 28 H       -0.3570     1.2480    -1.5030 H     1 <1>   0.0800 
 29 H       -1.8210    -0.5390    -2.0280 H     1 <1>   0.1500 
 30 H        0.4860    -4.5500    -0.3930 H     1 <1>   0.1500 
 31 H        0.9860    -1.5920     1.6720 H     1 <1>   0.0800 
 32 H        2.2420    -2.1940     0.5990 H     1 <1>   0.0800 
 33 H       -2.3700    -2.6910    -2.9810 H     1 <1>   0.1500 
 34 H       -0.4700    -5.6500    -2.6010 H     1 <1>   0.0800 
 35 H       -2.0800    -5.1010    -3.0490 H     1 <1>   0.0800 
 36 H        2.0730    -4.5500     3.2620 H     1 <1>   0.0800 
 37 H        1.8200    -2.8230     3.4800 H     1 <1>   0.0800 
 38 H        3.1330    -3.4070     2.4470 H     1 <1>   0.0800 
 39 H       -1.3780    -5.5010    -0.2790 H     1 <1>   0.4500 
 40 H       -2.3040    -7.7120    -2.0390 H     1 <1>   0.0800 
 41 H       -0.7420    -7.6160    -1.2660 H     1 <1>   0.0800 
 42 H       -3.3820    -4.3710    -0.7330 H     1 <1>   0.0800 
 43 H       -3.9590    -5.7330    -1.6640 H     1 <1>   0.0800 
 44 H       -1.7500    -7.7500     0.9090 H     1 <1>   0.0800 
 45 H       -3.2710    -5.7010     1.2730 H     1 <1>   0.0800 
 46 H       -4.8660    -5.7700     0.6180 H     1 <1>   0.0800 
 47 H       -1.2050    -9.8130     0.3810 H     1 <1>   0.4500 
 48 H       -3.9530   -10.6470     0.6760 H     1 <1>   0.0800 
 49 H       -2.5150   -11.2140     1.4750 H     1 <1>   0.0800 
 50 H       -3.3820   -10.1270    -1.5950 H     1 <1>   0.0800 
 51 H       -2.2220   -11.3560    -1.1500 H     1 <1>   0.0800 
 52 H       -1.6850    -9.9090    -1.9660 H     1 <1>   0.0800 
 53 H       -3.9140    -7.3900     2.6200 H     1 <1>   0.0800 
 54 H       -5.1860    -8.3470     1.9700 H     1 <1>   0.0800 
 55 H       -5.8280    -7.6950    -0.3410 H     1 <1>   0.0800 
 56 H       -5.0500    -9.2500    -0.3740 H     1 <1>   0.0800 
 57 H       -3.9220    -9.9600     3.0280 H     1 <1>   0.0800 
 58 H       -2.4240    -9.1340     2.7880 H     1 <1>   0.0800 
 59 H       -5.3120    -8.1960    -2.4290 H     1 <1>   0.4000 
@<TRIPOS>BOND
  1   1   2  1   
  2   1   3  1   
  3   2   4  ar  
  4   2   5  ar  
  5   3  26  1   
  6   3  27  1   
  7   3  28  1   
  8   4   6  ar  
  9   4   7  1   
 10   5   8  ar  
 11   5  29  1   
 12   6   9  ar  
 13   6  30  1   
 14   7  10  1   
 15   7  31  1   
 16   7  32  1   
 17   8   9  ar  
 18   8  33  1   
 19   9  11  1   
 20  10  12  1   
 21  11  13  1   
 22  11  34  1   
 23  11  35  1   
 24  12  36  1   
 25  12  37  1   
 26  12  38  1   
 27  13  14  1   
 28  13  15  1   
 29  13  39  1   
 30  14  16  1   
 31  14  40  1   
 32  14  41  1   
 33  15  17  1   
 34  15  42  1   
 35  15  43  1   
 36  16  18  1   
 37  16  19  1   
 38  16  44  1   
 39  17  19  1   
 40  17  45  1   
 41  17  46  1   
 42  18  20  1   
 43  18  21  1   
 44  18  47  1   
 45  19  22  1   
 46  19  23  1   
 47  20  24  1   
 48  20  48  1   
 49  20  49  1   
 50  21  50  1   
 51  21  51  1   
 52  21  52  1   
 53  22  24  1   
 54  22  53  1   
 55  22  54  1   
 56  23  25  1   
 57  23  55  1   
 58  23  56  1   
 59  24  57  1   
 60  24  58  1   
 61  25  59  1   
@<TRIPOS>SUBSTRUCTURE
  1 ****  13 GROUP 4 **** **** 0

# MOE 2024.06 (io_trps.svl 2023.06)
