@<TRIPOS>MOLECULE
NONAME
48 50 1 0 0 
SMALL
USER_CHARGES


@<TRIPOS>ATOM
  1 O       -0.0140     1.1340     1.2290 O.2   1 <1>  -0.5700 
  2 C        0.1510     2.1100     0.5210 C.2   1 <1>   0.6900 
  3 N       -0.8680     3.0060     0.3130 N.am  1 <1>  -0.6600 
  4 N        1.3590     2.3510    -0.0640 N.am  1 <1>  -0.5470 
  5 C       -2.1470     2.8830     1.0680 C.3   1 <1>   0.1400 
  6 C       -0.9160     3.9250    -0.8650 C.3   1 <1>   0.1400 
  7 C        2.5160     1.5600    -0.0630 C.ar  1 <1>   0.1170 
  8 C       -3.2580     2.2920     0.1690 C.3   1 <1>   0.0000 
  9 C       -2.3540     4.1360    -1.3700 C.3   1 <1>  -0.1600 
 10 C        2.5400     0.3020    -0.6740 C.ar  1 <1>  -0.1430 
 11 C        3.6780     2.0530     0.5360 C.ar  1 <1>  -0.1430 
 12 C       -4.6320     2.5400     0.8180 C.3   1 <1>   0.2000 
 13 C       -3.1590     2.8290    -1.2950 C.3   1 <1>  -0.1600 
 14 C       -3.2240     0.7550     0.1490 C.3   1 <1>  -0.1600 
 15 C        3.7100    -0.4400    -0.6760 C.ar  1 <1>  -0.1500 
 16 C        1.3080    -0.2860    -1.3520 C.3   1 <1>  -0.0970 
 17 C        4.8390     1.2980     0.5190 C.ar  1 <1>  -0.1500 
 18 C        3.6940     3.4110     1.2270 C.3   1 <1>  -0.0970 
 19 O       -5.1320     3.8000     0.5430 O.3   1 <1>  -0.6800 
 20 C       -5.5660     1.4560     0.2780 C.3   1 <1>  -0.1600 
 21 C       -4.6500     0.3260    -0.2140 C.3   1 <1>  -0.1600 
 22 C        4.8570     0.0550    -0.0840 C.ar  1 <1>  -0.1500 
 23 H        1.4990     3.3260    -0.2950 H     1 <1>   0.3700 
 24 H       -2.0140     2.2810     1.9510 H     1 <1>   0.0800 
 25 H       -2.4390     3.8660     1.3980 H     1 <1>   0.0800 
 26 H       -0.4810     4.8730    -0.5990 H     1 <1>   0.0800 
 27 H       -0.3360     3.4970    -1.6660 H     1 <1>   0.0800 
 28 H       -2.8330     4.8960    -0.7770 H     1 <1>   0.0800 
 29 H       -2.3230     4.4930    -2.3850 H     1 <1>   0.0800 
 30 H       -4.5580     2.4420     1.8890 H     1 <1>   0.0800 
 31 H       -2.6440     2.1100    -1.9080 H     1 <1>   0.0800 
 32 H       -4.1310     2.9610    -1.7330 H     1 <1>   0.0800 
 33 H       -2.4870     0.3570    -0.5270 H     1 <1>   0.0800 
 34 H       -2.9930     0.3860     1.1340 H     1 <1>   0.0800 
 35 H        3.7350    -1.4100    -1.1380 H     1 <1>   0.1500 
 36 H        1.5760    -1.0960    -2.0050 H     1 <1>   0.0800 
 37 H        0.8050     0.4640    -1.9340 H     1 <1>   0.0800 
 38 H        0.6290    -0.6590    -0.6050 H     1 <1>   0.0800 
 39 H        5.7370     1.6690     0.9790 H     1 <1>   0.1500 
 40 H        4.6300     3.5780     1.7280 H     1 <1>   0.0800 
 41 H        2.9080     3.4570     1.9610 H     1 <1>   0.0800 
 42 H        3.5490     4.1940     0.5050 H     1 <1>   0.0800 
 43 H       -5.1810     3.9230    -0.4230 H     1 <1>   0.4000 
 44 H       -6.2130     1.1070     1.0630 H     1 <1>   0.0800 
 45 H       -6.1620     1.8230    -0.5390 H     1 <1>   0.0800 
 46 H       -4.8990    -0.6170     0.2430 H     1 <1>   0.0800 
 47 H       -4.7380     0.2280    -1.2820 H     1 <1>   0.0800 
 48 H        5.7600    -0.5290    -0.0900 H     1 <1>   0.1500 
@<TRIPOS>BOND
  1   1   2  2   
  2   2   3  am  
  3   2   4  am  
  4   3   5  1   
  5   3   6  1   
  6   4   7  1   
  7   4  23  1   
  8   5   8  1   
  9   5  24  1   
 10   5  25  1   
 11   6   9  1   
 12   6  26  1   
 13   6  27  1   
 14   7  10  ar  
 15   7  11  ar  
 16   8  12  1   
 17   8  13  1   
 18   8  14  1   
 19   9  13  1   
 20   9  28  1   
 21   9  29  1   
 22  10  15  ar  
 23  10  16  1   
 24  11  17  ar  
 25  11  18  1   
 26  12  19  1   
 27  12  20  1   
 28  12  30  1   
 29  13  31  1   
 30  13  32  1   
 31  14  21  1   
 32  14  33  1   
 33  14  34  1   
 34  15  22  ar  
 35  15  35  1   
 36  16  36  1   
 37  16  37  1   
 38  16  38  1   
 39  17  22  ar  
 40  17  39  1   
 41  18  40  1   
 42  18  41  1   
 43  18  42  1   
 44  19  43  1   
 45  20  21  1   
 46  20  44  1   
 47  20  45  1   
 48  21  46  1   
 49  21  47  1   
 50  22  48  1   
@<TRIPOS>SUBSTRUCTURE
  1 ****   2 GROUP 4 **** **** 0

# MOE 2024.06 (io_trps.svl 2023.06)
