@<TRIPOS>MOLECULE
NONAME
52 54 1 0 0 
SMALL
USER_CHARGES


@<TRIPOS>ATOM
  1 O        1.6530     1.3640     0.6150 O.2   1 <1>  -0.5700 
  2 C        2.2420     0.5740    -0.0890 C.2   1 <1>   0.5690 
  3 N        2.3550     0.8330    -1.4470 N.am  1 <1>  -0.6600 
  4 C        2.9290    -0.6470     0.6060 C.3   1 <1>   0.3410 
  5 C        2.9800    -0.0810    -2.4670 C.3   1 <1>   0.1400 
  6 C        2.0280     2.1870    -1.9770 C.3   1 <1>   0.1400 
  7 O        4.1790    -0.9270     0.0170 O.3   1 <1>  -0.5600 
  8 C        3.3110    -0.3640     2.0660 C.3   1 <1>  -0.1600 
  9 C        2.0560    -1.9110     0.5040 C.3   1 <1>  -0.2400 
 10 C        4.4690     0.2510    -2.7180 C.3   1 <1>   0.3430 
 11 C        3.2080     3.1430    -1.7360 C.3   1 <1>  -0.1600 
 12 C        5.0410    -1.5680     0.9130 C.3   1 <1>   0.1200 
 13 C        4.5610    -1.1960     2.3100 C.3   1 <1>  -0.1600 
 14 N        4.9160     1.3540    -1.8150 N.4   1 <1>  -0.9590 
 15 C        4.5550     2.7030    -2.3240 C.3   1 <1>   0.3430 
 16 C        6.3160     1.1690    -1.3480 C.3   1 <1>   0.3430 
 17 C        6.5240     1.8240     0.0230 C.3   1 <1>   0.0200 
 18 C        7.7140     1.1960     0.7230 C.2   1 <1>   0.0060 
 19 N        8.4110     0.2380     0.2020 N.2   1 <1>  -0.5650 
 20 N        8.1380     1.5710     1.9560 N.pl3 1 <1>   0.0480 
 21 C        9.3420    -0.0280     1.1350 C.2   1 <1>   0.0770 
 22 C        9.1890     0.7730     2.2100 C.2   1 <1>  -0.3020 
 23 C        7.5990     2.6080     2.8550 C.3   1 <1>   0.0160 
 24 H        2.4370    -0.0140    -3.3940 H     1 <1>   0.0800 
 25 H        2.9040    -1.1040    -2.1460 H     1 <1>   0.0800 
 26 H        1.1490     2.5670    -1.4790 H     1 <1>   0.0800 
 27 H        1.7990     2.1280    -3.0280 H     1 <1>   0.0800 
 28 H        2.5130    -0.6030     2.7470 H     1 <1>   0.0800 
 29 H        3.5510     0.6780     2.1840 H     1 <1>   0.0800 
 30 H        1.8690    -2.1680    -0.5210 H     1 <1>   0.0800 
 31 H        1.1070    -1.7240     0.9740 H     1 <1>   0.0800 
 32 H        2.5130    -2.7470     1.0000 H     1 <1>   0.0800 
 33 H        4.6270     0.5160    -3.7500 H     1 <1>   0.0800 
 34 H        5.0430    -0.6390    -2.5130 H     1 <1>   0.0800 
 35 H        3.3160     3.3030    -0.6770 H     1 <1>   0.0800 
 36 H        2.9530     4.0970    -2.1620 H     1 <1>   0.0800 
 37 H        6.0490    -1.2370     0.7300 H     1 <1>   0.0800 
 38 H        4.9730    -2.6300     0.7490 H     1 <1>   0.0800 
 39 H        4.3310    -2.0890     2.8640 H     1 <1>   0.0800 
 40 H        5.3140    -0.6410     2.8430 H     1 <1>   0.0800 
 41 H        4.3130     1.1890    -0.9900 H     1 <1>   0.4500 
 42 H        5.3100     3.4160    -2.0370 H     1 <1>   0.0800 
 43 H        4.5020     2.6880    -3.4010 H     1 <1>   0.0800 
 44 H        7.0240     1.5550    -2.0620 H     1 <1>   0.0800 
 45 H        6.5030     0.1120    -1.2360 H     1 <1>   0.0800 
 46 H        5.6570     1.6630     0.6380 H     1 <1>   0.0800 
 47 H        6.6910     2.8780    -0.0960 H     1 <1>   0.0800 
 48 H       10.0870    -0.7930     0.9840 H     1 <1>   0.1500 
 49 H        9.7620     0.8140     3.1180 H     1 <1>   0.1500 
 50 H        6.5610     2.4100     3.0510 H     1 <1>   0.0800 
 51 H        7.7060     3.5720     2.3930 H     1 <1>   0.0800 
 52 H        8.1420     2.5970     3.7820 H     1 <1>   0.0800 
@<TRIPOS>BOND
  1   1   2  2   
  2   2   3  am  
  3   2   4  1   
  4   3   5  1   
  5   3   6  1   
  6   4   7  1   
  7   4   8  1   
  8   4   9  1   
  9   5  10  1   
 10   5  24  1   
 11   5  25  1   
 12   6  11  1   
 13   6  26  1   
 14   6  27  1   
 15   7  12  1   
 16   8  13  1   
 17   8  28  1   
 18   8  29  1   
 19   9  30  1   
 20   9  31  1   
 21   9  32  1   
 22  10  14  1   
 23  10  33  1   
 24  10  34  1   
 25  11  15  1   
 26  11  35  1   
 27  11  36  1   
 28  12  13  1   
 29  12  37  1   
 30  12  38  1   
 31  13  39  1   
 32  13  40  1   
 33  14  15  1   
 34  14  16  1   
 35  14  41  1   
 36  15  42  1   
 37  15  43  1   
 38  16  17  1   
 39  16  44  1   
 40  16  45  1   
 41  17  18  1   
 42  17  46  1   
 43  17  47  1   
 44  18  19  2   
 45  18  20  1   
 46  19  21  1   
 47  20  22  1   
 48  20  23  1   
 49  21  22  2   
 50  21  48  1   
 51  22  49  1   
 52  23  50  1   
 53  23  51  1   
 54  23  52  1   
@<TRIPOS>SUBSTRUCTURE
  1 ****   7 GROUP 4 **** **** 0

# MOE 2024.06 (io_trps.svl 2023.06)
