@<TRIPOS>MOLECULE
NONAME
48 51 1 0 0 
SMALL
USER_CHARGES


@<TRIPOS>ATOM
  1 O       -0.6750    -0.5760    -1.0360 O.2   1 <1>  -0.5700 
  2 C       -1.0630    -1.6590    -0.6870 C.2   1 <1>   0.4230 
  3 C       -2.2230    -1.9740     0.0840 C.ar  1 <1>   0.0860 
  4 C       -0.3380    -2.9390    -1.0440 C.3   1 <1>  -0.0990 
  5 C       -2.3400    -3.3380     0.2590 C.ar  1 <1>  -0.1440 
  6 C       -3.1750    -1.1250     0.6340 C.ar  1 <1>  -0.1500 
  7 C       -1.1850    -4.0630    -0.4130 C.3   1 <1>  -0.0160 
  8 C       -3.3940    -3.9090     0.9680 C.ar  1 <1>   0.0860 
  9 C       -4.2290    -1.6590     1.3540 C.ar  1 <1>  -0.1500 
 10 C       -3.5260    -5.3450     1.1300 C.2   1 <1>   0.5440 
 11 C       -4.3320    -3.0320     1.5190 C.ar  1 <1>  -0.1500 
 12 O       -2.6130    -5.9910     1.6080 O.2   1 <1>  -0.5700 
 13 N       -4.6670    -5.9980     0.7310 N.am  1 <1>  -0.6600 
 14 C       -5.6600    -5.4630    -0.2350 C.3   1 <1>   0.1400 
 15 C       -4.8980    -7.4450     0.9430 C.3   1 <1>   0.1400 
 16 C       -6.5820    -6.6400    -0.5830 C.3   1 <1>   0.2000 
 17 C       -5.7430    -7.8800    -0.2550 C.3   1 <1>  -0.0800 
 18 O       -7.7050    -6.6200     0.2510 O.3   1 <1>  -0.5600 
 19 C       -6.5620    -9.1590     0.0020 C.3   1 <1>   0.0200 
 20 C       -8.7710    -5.8470    -0.2040 C.3   1 <1>   0.0400 
 21 C       -5.7020   -10.4030     0.1520 C.2   1 <1>  -0.0400 
 22 O       -6.2840   -11.5340     0.4500 O.3   1 <1>  -0.0190 
 23 C       -4.3850   -10.6400     0.0390 C.2   1 <1>  -0.1500 
 24 N       -5.4300   -12.5120     0.5460 N.2   1 <1>  -0.4100 
 25 C       -4.2770   -12.0020     0.3040 C.2   1 <1>   0.1080 
 26 C       -2.9820   -12.7830     0.3090 C.3   1 <1>  -0.0590 
 27 H       -0.2870    -3.0410    -2.1130 H     1 <1>   0.0800 
 28 H        0.6550    -2.9210    -0.6320 H     1 <1>   0.0800 
 29 H       -3.0770    -0.0620     0.4940 H     1 <1>   0.1500 
 30 H       -0.6120    -4.6110     0.3160 H     1 <1>   0.0800 
 31 H       -1.5490    -4.7430    -1.1640 H     1 <1>   0.0800 
 32 H       -4.9670    -1.0070     1.7900 H     1 <1>   0.1500 
 33 H       -5.1500    -3.4390     2.0880 H     1 <1>   0.1500 
 34 H       -6.2130    -4.6460     0.1930 H     1 <1>   0.0800 
 35 H       -5.1430    -5.1300    -1.1170 H     1 <1>   0.0800 
 36 H       -3.9700    -7.9870     1.0010 H     1 <1>   0.0800 
 37 H       -5.4460    -7.5760     1.8600 H     1 <1>   0.0800 
 38 H       -6.9010    -6.6310    -1.6120 H     1 <1>   0.0800 
 39 H       -5.0780    -8.0540    -1.0820 H     1 <1>   0.0800 
 40 H       -7.2420    -9.3150    -0.8170 H     1 <1>   0.0800 
 41 H       -7.1510    -9.0410     0.8950 H     1 <1>   0.0800 
 42 H       -9.5570    -5.8990     0.5300 H     1 <1>   0.0800 
 43 H       -9.1250    -6.2460    -1.1390 H     1 <1>   0.0800 
 44 H       -8.4550    -4.8260    -0.3220 H     1 <1>   0.0800 
 45 H       -3.5740    -9.9780    -0.1970 H     1 <1>   0.1500 
 46 H       -2.2980   -12.3500     1.0160 H     1 <1>   0.0800 
 47 H       -2.5410   -12.7650    -0.6700 H     1 <1>   0.0800 
 48 H       -3.1710   -13.8040     0.5880 H     1 <1>   0.0800 
@<TRIPOS>BOND
  1   1   2  2   
  2   2   3  1   
  3   2   4  1   
  4   3   5  ar  
  5   3   6  ar  
  6   4   7  1   
  7   4  27  1   
  8   4  28  1   
  9   5   7  1   
 10   5   8  ar  
 11   6   9  ar  
 12   6  29  1   
 13   7  30  1   
 14   7  31  1   
 15   8  10  1   
 16   8  11  ar  
 17   9  11  ar  
 18   9  32  1   
 19  10  12  2   
 20  10  13  am  
 21  11  33  1   
 22  13  14  1   
 23  13  15  1   
 24  14  16  1   
 25  14  34  1   
 26  14  35  1   
 27  15  17  1   
 28  15  36  1   
 29  15  37  1   
 30  16  17  1   
 31  16  18  1   
 32  16  38  1   
 33  17  19  1   
 34  17  39  1   
 35  18  20  1   
 36  19  21  1   
 37  19  40  1   
 38  19  41  1   
 39  20  42  1   
 40  20  43  1   
 41  20  44  1   
 42  21  22  1   
 43  21  23  2   
 44  22  24  1   
 45  23  25  1   
 46  23  45  1   
 47  24  25  2   
 48  25  26  1   
 49  26  46  1   
 50  26  47  1   
 51  26  48  1   
@<TRIPOS>SUBSTRUCTURE
  1 ****  13 GROUP 4 **** **** 0

# MOE 2024.06 (io_trps.svl 2023.06)
