@<TRIPOS>MOLECULE
NONAME
55 58 1 0 0 
SMALL
USER_CHARGES


@<TRIPOS>ATOM
  1 O       -0.0850    -0.1280    -0.0960 O.2   1 <1>  -0.5700 
  2 C       -1.0450     0.4520    -0.5630 C.2   1 <1>   0.7160 
  3 N       -2.0270    -0.2930    -1.1290 N.am  1 <1>  -0.7300 
  4 C       -1.1700     1.8780    -0.5130 C.2   1 <1>  -0.0860 
  5 C       -2.2130    -1.7530    -0.9390 C.3   1 <1>   0.3200 
  6 C       -2.3700     2.5940    -0.6270 C.2   1 <1>   0.3720 
  7 C       -0.2410     2.8580    -0.3370 C.2   1 <1>   0.0870 
  8 C       -3.4650    -2.0270    -0.1210 C.2   1 <1>   0.2980 
  9 N       -2.1700     3.8600    -0.5300 N.2   1 <1>  -0.4100 
 10 N       -3.6420     2.0260    -0.8010 N.pl3 1 <1>  -0.8210 
 11 O       -0.8850     3.9980    -0.3520 O.3   1 <1>  -0.0190 
 12 C        1.1910     2.8590    -0.1650 C.ar  1 <1>   0.0530 
 13 O       -3.4780    -1.6690     1.1370 O.3   1 <1>  -0.0190 
 14 N       -4.5370    -2.5630    -0.5480 N.2   1 <1>  -0.5650 
 15 C       -4.5790     2.8370    -1.6440 C.3   1 <1>   0.2090 
 16 C       -4.3060     1.6880     0.4980 C.3   1 <1>   0.2090 
 17 C        1.8020     3.7850     0.6810 C.ar  1 <1>  -0.1500 
 18 C        2.0200     1.9620    -0.8390 C.ar  1 <1>  -0.1500 
 19 N       -4.6650    -1.9980     1.5440 N.2   1 <1>  -0.4100 
 20 C       -5.2780    -2.5290     0.5570 C.2   1 <1>   0.3350 
 21 C       -5.9380     2.1280    -1.7950 C.3   1 <1>   0.1200 
 22 C       -5.6730     1.0240     0.2570 C.3   1 <1>   0.1200 
 23 C        3.1730     3.8110     0.8540 C.ar  1 <1>  -0.1500 
 24 C        3.3930     1.9820    -0.6700 C.ar  1 <1>  -0.1500 
 25 C       -6.7230    -3.0760     0.5770 C.3   1 <1>   0.1810 
 26 O       -6.4900     1.8340    -0.5410 O.3   1 <1>  -0.5600 
 27 C        3.9730     2.9080     0.1780 C.ar  1 <1>  -0.1500 
 28 C       -7.5820    -2.3370    -0.4640 C.3   1 <1>  -0.2400 
 29 C       -6.7140    -4.5770     0.2410 C.3   1 <1>  -0.2400 
 30 C       -7.3800    -2.8940     1.9580 C.3   1 <1>  -0.2400 
 31 H       -2.8810     0.2380    -1.3570 H     1 <1>   0.3700 
 32 H       -1.3620    -2.1830    -0.4400 H     1 <1>   0.0800 
 33 H       -2.3110    -2.2220    -1.9020 H     1 <1>   0.0800 
 34 H       -4.1430     2.9900    -2.6150 H     1 <1>   0.0800 
 35 H       -4.7370     3.8020    -1.1930 H     1 <1>   0.0800 
 36 H       -4.4450     2.5850     1.0790 H     1 <1>   0.0800 
 37 H       -3.6810     1.0200     1.0640 H     1 <1>   0.0800 
 38 H        1.1910     4.4920     1.2130 H     1 <1>   0.1500 
 39 H        1.5880     1.2380    -1.5040 H     1 <1>   0.1500 
 40 H       -5.8250     1.2100    -2.3450 H     1 <1>   0.0800 
 41 H       -6.6300     2.7630    -2.3180 H     1 <1>   0.0800 
 42 H       -6.1790     0.8610     1.1920 H     1 <1>   0.0800 
 43 H       -5.5460     0.0800    -0.2380 H     1 <1>   0.0800 
 44 H        3.6200     4.5340     1.5140 H     1 <1>   0.1500 
 45 H        4.0100     1.2760    -1.1980 H     1 <1>   0.1500 
 46 H        5.0410     2.9240     0.3110 H     1 <1>   0.1500 
 47 H       -7.1690    -2.4630    -1.4490 H     1 <1>   0.0800 
 48 H       -7.6150    -1.2850    -0.2430 H     1 <1>   0.0800 
 49 H       -8.5880    -2.7170    -0.4670 H     1 <1>   0.0800 
 50 H       -6.2990    -4.7390    -0.7380 H     1 <1>   0.0800 
 51 H       -7.7110    -4.9790     0.2590 H     1 <1>   0.0800 
 52 H       -6.1130    -5.1120     0.9540 H     1 <1>   0.0800 
 53 H       -7.4160    -1.8510     2.2200 H     1 <1>   0.0800 
 54 H       -6.8130    -3.4120     2.7120 H     1 <1>   0.0800 
 55 H       -8.3830    -3.2810     1.9590 H     1 <1>   0.0800 
@<TRIPOS>BOND
  1   1   2  2   
  2   2   3  am  
  3   2   4  1   
  4   3   5  1   
  5   3  31  1   
  6   4   6  1   
  7   4   7  2   
  8   5   8  1   
  9   5  32  1   
 10   5  33  1   
 11   6   9  2   
 12   6  10  1   
 13   7  11  1   
 14   7  12  1   
 15   8  13  1   
 16   8  14  2   
 17   9  11  1   
 18  10  15  1   
 19  10  16  1   
 20  12  17  ar  
 21  12  18  ar  
 22  13  19  1   
 23  14  20  1   
 24  15  21  1   
 25  15  34  1   
 26  15  35  1   
 27  16  22  1   
 28  16  36  1   
 29  16  37  1   
 30  17  23  ar  
 31  17  38  1   
 32  18  24  ar  
 33  18  39  1   
 34  19  20  2   
 35  20  25  1   
 36  21  26  1   
 37  21  40  1   
 38  21  41  1   
 39  22  26  1   
 40  22  42  1   
 41  22  43  1   
 42  23  27  ar  
 43  23  44  1   
 44  24  27  ar  
 45  24  45  1   
 46  25  28  1   
 47  25  29  1   
 48  25  30  1   
 49  27  46  1   
 50  28  47  1   
 51  28  48  1   
 52  28  49  1   
 53  29  50  1   
 54  29  51  1   
 55  29  52  1   
 56  30  53  1   
 57  30  54  1   
 58  30  55  1   
@<TRIPOS>SUBSTRUCTURE
  1 ****   3 GROUP 4 **** **** 0

# MOE 2024.06 (io_trps.svl 2023.06)
