@<TRIPOS>MOLECULE
NONAME
51 53 1 0 0 
SMALL
USER_CHARGES


@<TRIPOS>ATOM
  1 F        1.4760     1.4520     2.2660 F     1 <1>  -0.1900 
  2 C        2.3080     1.8280     1.3280 C.ar  1 <1>   0.1900 
  3 C        2.0770     3.0580     0.6620 C.ar  1 <1>   0.3100 
  4 C        3.3590     0.9980     1.0530 C.ar  1 <1>  -0.1500 
  5 N        1.0050     3.8270     0.9920 N.ar  1 <1>  -0.6200 
  6 C        3.0030     3.4370    -0.3430 C.ar  1 <1>   0.0000 
  7 C        4.2410     1.4030     0.0580 C.ar  1 <1>   0.1900 
  8 C        0.8270     4.9340     0.3420 C.ar  1 <1>   0.1660 
  9 C        2.7970     4.6720    -1.0080 C.ar  1 <1>   0.1000 
 10 C        4.0870     2.5760    -0.6280 C.ar  1 <1>  -0.1500 
 11 F        5.2520     0.6250    -0.2200 F     1 <1>  -0.1900 
 12 C        1.6850     5.3920    -0.6550 C.ar  1 <1>  -0.1500 
 13 C       -0.3960     5.7460     0.7160 C.3   1 <1>  -0.0960 
 14 N        3.6890     5.1290    -1.9690 N.pl3 1 <1>  -0.8690 
 15 C        4.0590     6.5500    -2.1610 C.3   1 <1>   0.2090 
 16 C        4.7580     7.0980    -0.9040 C.3   1 <1>  -0.0800 
 17 C        4.9990     8.6130    -1.0550 C.3   1 <1>   0.3430 
 18 C        6.0630     6.3450    -0.5710 C.3   1 <1>  -0.1600 
 19 N        6.2050     9.0950    -0.2990 N.4   1 <1>  -0.9590 
 20 C        6.7040     6.9040     0.7140 C.3   1 <1>  -0.1600 
 21 C        6.3620     8.3720     0.9960 C.3   1 <1>   0.3430 
 22 C        6.1490    10.5850    -0.1280 C.3   1 <1>   0.3430 
 23 C        7.4710    11.1880     0.3630 C.3   1 <1>   0.1200 
 24 O        7.2950    12.5620     0.4140 O.3   1 <1>  -0.5600 
 25 C        8.4180    13.2750     0.8340 C.3   1 <1>   0.0400 
 26 H        3.5070     0.0700     1.5740 H     1 <1>   0.1500 
 27 H        4.8000     2.8330    -1.3870 H     1 <1>   0.1500 
 28 H        1.4560     6.3130    -1.1500 H     1 <1>   0.1500 
 29 H       -0.3530     6.0000     1.7590 H     1 <1>   0.0800 
 30 H       -1.2790     5.1580     0.5430 H     1 <1>   0.0800 
 31 H       -0.4630     6.6480     0.1380 H     1 <1>   0.0800 
 32 H        4.3650     4.4560    -2.3470 H     1 <1>   0.4000 
 33 H        3.1690     7.1170    -2.3740 H     1 <1>   0.0800 
 34 H        4.7120     6.6260    -3.0160 H     1 <1>   0.0800 
 35 H        4.0770     6.9700    -0.0810 H     1 <1>   0.0800 
 36 H        4.1190     9.1330    -0.7110 H     1 <1>   0.0800 
 37 H        5.1300     8.8490    -2.0990 H     1 <1>   0.0800 
 38 H        6.7520     6.4450    -1.3920 H     1 <1>   0.0800 
 39 H        5.8700     5.2940    -0.4360 H     1 <1>   0.0800 
 40 H        7.0310     8.8620    -0.8670 H     1 <1>   0.4500 
 41 H        7.7730     6.7850     0.6610 H     1 <1>   0.0800 
 42 H        6.3710     6.3230     1.5580 H     1 <1>   0.0800 
 43 H        5.4380     8.4270     1.5500 H     1 <1>   0.0800 
 44 H        7.1420     8.8130     1.5950 H     1 <1>   0.0800 
 45 H        5.3710    10.8420     0.5720 H     1 <1>   0.0800 
 46 H        5.9130    11.0430    -1.0750 H     1 <1>   0.0800 
 47 H        8.2700    10.9740    -0.3250 H     1 <1>   0.0800 
 48 H        7.7150    10.8440     1.3530 H     1 <1>   0.0800 
 49 H        8.1690    14.3220     0.8350 H     1 <1>   0.0800 
 50 H        9.2310    13.1000     0.1510 H     1 <1>   0.0800 
 51 H        8.6860    12.9690     1.8310 H     1 <1>   0.0800 
@<TRIPOS>BOND
  1   1   2  1   
  2   2   3  ar  
  3   2   4  ar  
  4   3   5  ar  
  5   3   6  ar  
  6   4   7  ar  
  7   4  26  1   
  8   5   8  ar  
  9   6   9  ar  
 10   6  10  ar  
 11   7  10  ar  
 12   7  11  1   
 13   8  12  ar  
 14   8  13  1   
 15   9  12  ar  
 16   9  14  1   
 17  10  27  1   
 18  12  28  1   
 19  13  29  1   
 20  13  30  1   
 21  13  31  1   
 22  14  15  1   
 23  14  32  1   
 24  15  16  1   
 25  15  33  1   
 26  15  34  1   
 27  16  17  1   
 28  16  18  1   
 29  16  35  1   
 30  17  19  1   
 31  17  36  1   
 32  17  37  1   
 33  18  20  1   
 34  18  38  1   
 35  18  39  1   
 36  19  21  1   
 37  19  22  1   
 38  19  40  1   
 39  20  21  1   
 40  20  41  1   
 41  20  42  1   
 42  21  43  1   
 43  21  44  1   
 44  22  23  1   
 45  22  45  1   
 46  22  46  1   
 47  23  24  1   
 48  23  47  1   
 49  23  48  1   
 50  24  25  1   
 51  25  49  1   
 52  25  50  1   
 53  25  51  1   
@<TRIPOS>SUBSTRUCTURE
  1 ****  16 GROUP 4 **** **** 0

# MOE 2024.06 (io_trps.svl 2023.06)
