@<TRIPOS>MOLECULE
NONAME
49 52 1 0 0 
SMALL
USER_CHARGES


@<TRIPOS>ATOM
  1 O        0.2510     0.6870     0.4320 O.3   1 <1>  -0.0190 
  2 N        0.2550    -0.5880     0.5570 N.2   1 <1>  -0.4100 
  3 C        1.4510     1.1180     0.1520 C.2   1 <1>   0.4250 
  4 C        1.4740    -0.9010     0.3460 C.2   1 <1>   0.3350 
  5 N        2.2780     0.1320     0.0850 N.2   1 <1>  -0.5650 
  6 C        1.7160     2.5250    -0.0390 C.ar  1 <1>   0.0530 
  7 C        2.0140    -2.3100     0.3770 C.3   1 <1>  -0.0590 
  8 C        2.9710     3.0050    -0.3670 C.ar  1 <1>  -0.1500 
  9 C        0.7370     3.5040     0.0880 C.ar  1 <1>  -0.1500 
 10 C        3.2090     4.3630    -0.5400 C.ar  1 <1>   0.4100 
 11 C        1.0550     4.8320    -0.1110 C.ar  1 <1>   0.1600 
 12 N        2.2570     5.2810    -0.4220 N.ar  1 <1>  -0.6200 
 13 N        4.4790     4.8170    -0.8570 N.pl3 1 <1>  -0.8380 
 14 C        4.6340     6.0030    -1.7560 C.3   1 <1>   0.2090 
 15 C        5.6590     4.3710    -0.0750 C.3   1 <1>   0.2090 
 16 C        4.6880     7.3210    -0.9660 C.3   1 <1>   0.2090 
 17 C        6.2350     5.4890     0.8000 C.3   1 <1>  -0.1600 
 18 N        6.0480     7.6810    -0.4250 N.pl3 1 <1>  -0.8380 
 19 C        6.9560     6.5740    -0.0040 C.3   1 <1>   0.2090 
 20 C        6.4580     8.9740    -0.3660 C.ar  1 <1>   0.1000 
 21 C        5.7800     9.9730     0.3620 C.ar  1 <1>  -0.1430 
 22 C        7.6140     9.3550    -1.0570 C.ar  1 <1>  -0.1500 
 23 C        6.2540    11.2620     0.3510 C.ar  1 <1>   0.2110 
 24 C        4.5420     9.6390     1.1910 C.3   1 <1>  -0.0970 
 25 C        8.0530    10.6510    -1.0410 C.ar  1 <1>   0.2110 
 26 N        7.3710    11.5910    -0.3440 N.ar  1 <1>  -0.1790 
 27 H        1.2250    -3.0040     0.6010 H     1 <1>   0.0800 
 28 H        2.7760    -2.3870     1.1290 H     1 <1>   0.0800 
 29 H        2.4370    -2.5540    -0.5800 H     1 <1>   0.0800 
 30 H        3.7810     2.3150    -0.5030 H     1 <1>   0.1500 
 31 H       -0.2720     3.2330     0.3410 H     1 <1>   0.1500 
 32 H        0.2760     5.5690    -0.0100 H     1 <1>   0.1500 
 33 H        3.7820     6.0390    -2.4130 H     1 <1>   0.0800 
 34 H        5.5100     5.8980    -2.3700 H     1 <1>   0.0800 
 35 H        6.4110     4.0020    -0.7510 H     1 <1>   0.0800 
 36 H        5.3740     3.5580     0.5700 H     1 <1>   0.0800 
 37 H        3.9820     7.2590    -0.1570 H     1 <1>   0.0800 
 38 H        4.3650     8.1120    -1.6190 H     1 <1>   0.0800 
 39 H        6.9610     5.0340     1.4470 H     1 <1>   0.0800 
 40 H        5.4720     5.9130     1.4270 H     1 <1>   0.0800 
 41 H        7.4250     6.1420    -0.8710 H     1 <1>   0.0800 
 42 H        7.7320     6.9920     0.6140 H     1 <1>   0.0800 
 43 H        8.1440     8.6040    -1.6140 H     1 <1>   0.1500 
 44 H        5.7470    12.0390     0.9000 H     1 <1>   0.1500 
 45 H        4.6930     8.7180     1.7270 H     1 <1>   0.0800 
 46 H        3.6850     9.5270     0.5510 H     1 <1>   0.0800 
 47 H        4.3290    10.4090     1.9100 H     1 <1>   0.0800 
 48 H        8.9410    10.9420    -1.5800 H     1 <1>   0.1500 
 49 H        7.7040    12.5610    -0.3370 H     1 <1>   0.4570 
@<TRIPOS>BOND
  1   1   2  1   
  2   1   3  1   
  3   2   4  2   
  4   3   5  2   
  5   3   6  1   
  6   4   5  1   
  7   4   7  1   
  8   6   8  ar  
  9   6   9  ar  
 10   7  27  1   
 11   7  28  1   
 12   7  29  1   
 13   8  10  ar  
 14   8  30  1   
 15   9  11  ar  
 16   9  31  1   
 17  10  12  ar  
 18  10  13  1   
 19  11  12  ar  
 20  11  32  1   
 21  13  14  1   
 22  13  15  1   
 23  14  16  1   
 24  14  33  1   
 25  14  34  1   
 26  15  17  1   
 27  15  35  1   
 28  15  36  1   
 29  16  18  1   
 30  16  37  1   
 31  16  38  1   
 32  17  19  1   
 33  17  39  1   
 34  17  40  1   
 35  18  19  1   
 36  18  20  1   
 37  19  41  1   
 38  19  42  1   
 39  20  21  ar  
 40  20  22  ar  
 41  21  23  ar  
 42  21  24  1   
 43  22  25  ar  
 44  22  43  1   
 45  23  26  ar  
 46  23  44  1   
 47  24  45  1   
 48  24  46  1   
 49  24  47  1   
 50  25  26  ar  
 51  25  48  1   
 52  26  49  1   
@<TRIPOS>SUBSTRUCTURE
  1 ****  13 GROUP 4 **** **** 0

# MOE 2024.06 (io_trps.svl 2023.06)
