@<TRIPOS>MOLECULE
NONAME
44 46 1 0 0 
SMALL
USER_CHARGES


@<TRIPOS>ATOM
  1 S        1.5590     0.2240     1.2520 S.3   1 <1>  -0.0800 
  2 C        1.4950    -1.0770     0.1110 C.2   1 <1>   0.4620 
  3 C        1.8430     1.2780    -0.0930 C.2   1 <1>   0.1980 
  4 N        1.6730    -0.6870    -1.0990 N.2   1 <1>  -0.3380 
  5 N        1.2700    -2.3400     0.5620 N.pl3 1 <1>  -0.8840 
  6 N        1.8720     0.6610    -1.2060 N.2   1 <1>  -0.3380 
  7 C        2.0190     2.7530     0.2000 C.3   1 <1>   0.0200 
  8 C        2.3080     3.5430    -1.0770 C.3   1 <1>   0.2090 
  9 N        2.5140     4.9820    -0.7500 N.pl3 1 <1>  -0.8690 
 10 C        3.6860     5.5580    -0.4050 C.ar  1 <1>   0.4100 
 11 N        4.7250     4.7610    -0.2640 N.ar  1 <1>  -0.6200 
 12 C        3.7770     6.9560    -0.2090 C.ar  1 <1>  -0.1430 
 13 C        5.8950     5.2990     0.0410 C.ar  1 <1>   0.7710 
 14 C        4.9930     7.4800     0.1020 C.ar  1 <1>   0.2180 
 15 C        2.5380     7.8430    -0.3560 C.3   1 <1>  -0.0170 
 16 N        6.0320     6.6210     0.2250 N.ar  1 <1>  -0.1790 
 17 N        6.9900     4.4970     0.1740 N.pl3 1 <1>  -0.8380 
 18 C        5.2490     8.9670     0.3250 C.3   1 <1>  -0.0170 
 19 C        2.7440     9.2480     0.2270 C.3   1 <1>  -0.1600 
 20 C        8.4160     4.9300     0.3230 C.3   1 <1>   0.1290 
 21 C        6.8650     3.0010     0.0990 C.3   1 <1>   0.1290 
 22 C        4.0940     9.8330    -0.1980 C.3   1 <1>  -0.1600 
 23 H        1.2170    -3.1170    -0.0990 H     1 <1>   0.4000 
 24 H        1.1250    -2.5570     1.5490 H     1 <1>   0.4000 
 25 H        2.8400     2.8720     0.8830 H     1 <1>   0.0800 
 26 H        1.1230     3.1270     0.6590 H     1 <1>   0.0800 
 27 H        1.4850     3.4430    -1.7650 H     1 <1>   0.0800 
 28 H        3.1880     3.1460    -1.5570 H     1 <1>   0.0800 
 29 H        1.6810     5.5610    -0.8830 H     1 <1>   0.4000 
 30 H        1.6970     7.3920     0.1430 H     1 <1>   0.0800 
 31 H        2.2970     7.9250    -1.4020 H     1 <1>   0.0800 
 32 H        6.9610     6.9260     0.4800 H     1 <1>   0.4570 
 33 H        6.1550     9.2700    -0.1700 H     1 <1>   0.0800 
 34 H        5.3680     9.1430     1.3800 H     1 <1>   0.0800 
 35 H        2.6960     9.2010     1.3030 H     1 <1>   0.0800 
 36 H        1.9470     9.8930    -0.1050 H     1 <1>   0.0800 
 37 H        8.5590     5.9550     0.0340 H     1 <1>   0.0800 
 38 H        9.0460     4.3230    -0.3070 H     1 <1>   0.0800 
 39 H        8.7330     4.7980     1.3450 H     1 <1>   0.0800 
 40 H        5.8760     2.6720     0.3730 H     1 <1>   0.0800 
 41 H        7.5630     2.5330     0.7710 H     1 <1>   0.0800 
 42 H        7.0700     2.6680    -0.9040 H     1 <1>   0.0800 
 43 H        4.1360     9.8820    -1.2730 H     1 <1>   0.0800 
 44 H        4.1940    10.8370     0.1800 H     1 <1>   0.0800 
@<TRIPOS>BOND
  1   1   2  1   
  2   1   3  1   
  3   2   4  2   
  4   2   5  1   
  5   3   6  2   
  6   3   7  1   
  7   4   6  1   
  8   5  23  1   
  9   5  24  1   
 10   7   8  1   
 11   7  25  1   
 12   7  26  1   
 13   8   9  1   
 14   8  27  1   
 15   8  28  1   
 16   9  10  1   
 17   9  29  1   
 18  10  11  ar  
 19  10  12  ar  
 20  11  13  ar  
 21  12  14  ar  
 22  12  15  1   
 23  13  16  ar  
 24  13  17  1   
 25  14  16  ar  
 26  14  18  1   
 27  15  19  1   
 28  15  30  1   
 29  15  31  1   
 30  16  32  1   
 31  17  20  1   
 32  17  21  1   
 33  18  22  1   
 34  18  33  1   
 35  18  34  1   
 36  19  22  1   
 37  19  35  1   
 38  19  36  1   
 39  20  37  1   
 40  20  38  1   
 41  20  39  1   
 42  21  40  1   
 43  21  41  1   
 44  21  42  1   
 45  22  43  1   
 46  22  44  1   
@<TRIPOS>SUBSTRUCTURE
  1 ****  11 GROUP 4 **** **** 0

# MOE 2024.06 (io_trps.svl 2023.06)
