@<TRIPOS>MOLECULE
NONAME
53 55 1 0 0 
SMALL
USER_CHARGES


@<TRIPOS>ATOM
  1 O       -0.3380     0.8530     1.0540 O.2   1 <1>  -0.5700 
  2 C       -0.0550     1.9700     0.6620 C.2   1 <1>   0.6900 
  3 N       -1.0280     2.9360     0.5520 N.am  1 <1>  -0.6600 
  4 N        1.2310     2.2960     0.3420 N.am  1 <1>  -0.5470 
  5 C       -2.4060     2.7110     1.0910 C.3   1 <1>   0.1400 
  6 C       -0.8900     4.2020    -0.2190 C.3   1 <1>   0.1400 
  7 C        2.4340     1.5730     0.2560 C.ar  1 <1>   0.1170 
  8 C       -3.4540     2.6850    -0.0500 C.3   1 <1>   0.0000 
  9 C       -1.8980     4.2150    -1.3750 C.3   1 <1>  -0.1600 
 10 C        3.6280     2.2950     0.1490 C.ar  1 <1>   0.0820 
 11 C        2.4890     0.1850     0.2580 C.ar  1 <1>  -0.1500 
 12 C       -4.8770     2.4950     0.5010 C.3   1 <1>   0.2000 
 13 C       -3.3370     3.9790    -0.8840 C.3   1 <1>  -0.1600 
 14 C       -3.2840     1.4170    -0.9070 C.3   1 <1>  -0.1600 
 15 O        3.5350     3.6630     0.1360 O.3   1 <1>  -0.3630 
 16 C        4.8430     1.6230     0.0580 C.ar  1 <1>  -0.1500 
 17 C        3.6970    -0.4860     0.1670 C.ar  1 <1>   0.0820 
 18 O       -5.0830     3.2450     1.6620 O.3   1 <1>  -0.5600 
 19 C       -5.0220     0.9930     0.7700 C.3   1 <1>  -0.1600 
 20 C       -3.9900     0.3010    -0.1310 C.3   1 <1>  -0.1600 
 21 C        4.6920     4.4710     0.1240 C.3   1 <1>   0.0400 
 22 C        4.8790     0.2390     0.0680 C.ar  1 <1>  -0.1500 
 23 O        3.6450    -1.8440     0.1790 O.3   1 <1>  -0.3620 
 24 C       -6.4130     3.3660     2.0560 C.3   1 <1>   0.0400 
 25 C        4.8210    -2.6210     0.1340 C.3   1 <1>   0.0400 
 26 H        1.3790     3.2970     0.2610 H     1 <1>   0.3700 
 27 H       -2.4480     1.7970     1.6560 H     1 <1>   0.0800 
 28 H       -2.6340     3.5130     1.7710 H     1 <1>   0.0800 
 29 H       -1.0820     5.0310     0.4400 H     1 <1>   0.0800 
 30 H        0.1020     4.3120    -0.6190 H     1 <1>   0.0800 
 31 H       -1.8430     5.1640    -1.8790 H     1 <1>   0.0800 
 32 H       -1.6230     3.4540    -2.0830 H     1 <1>   0.0800 
 33 H        1.5890    -0.3960     0.3300 H     1 <1>   0.1500 
 34 H       -5.5890     2.8030    -0.2470 H     1 <1>   0.0800 
 35 H       -4.0040     3.9410    -1.7280 H     1 <1>   0.0800 
 36 H       -3.6360     4.8110    -0.2700 H     1 <1>   0.0800 
 37 H       -3.7790     1.5490    -1.8530 H     1 <1>   0.0800 
 38 H       -2.2520     1.1730    -1.0940 H     1 <1>   0.0800 
 39 H        5.7730     2.1530    -0.0240 H     1 <1>   0.1500 
 40 H       -4.7980     0.7760     1.8000 H     1 <1>   0.0800 
 41 H       -6.0170     0.6620     0.5360 H     1 <1>   0.0800 
 42 H       -3.2700    -0.2210     0.4780 H     1 <1>   0.0800 
 43 H       -4.4520    -0.4030    -0.8010 H     1 <1>   0.0800 
 44 H        4.3820     5.5000     0.1560 H     1 <1>   0.0800 
 45 H        5.2400     4.2830    -0.7820 H     1 <1>   0.0800 
 46 H        5.2860     4.2420     0.9910 H     1 <1>   0.0800 
 47 H        5.8300    -0.2520    -0.0040 H     1 <1>   0.1500 
 48 H       -6.4440     3.9780     2.9400 H     1 <1>   0.0800 
 49 H       -6.8130     2.3920     2.2770 H     1 <1>   0.0800 
 50 H       -6.9750     3.8380     1.2690 H     1 <1>   0.0800 
 51 H        4.5370    -3.6570     0.1720 H     1 <1>   0.0800 
 52 H        5.4320    -2.3780     0.9850 H     1 <1>   0.0800 
 53 H        5.3390    -2.4170    -0.7870 H     1 <1>   0.0800 
@<TRIPOS>BOND
  1   1   2  2   
  2   2   3  am  
  3   2   4  am  
  4   3   5  1   
  5   3   6  1   
  6   4   7  1   
  7   4  26  1   
  8   5   8  1   
  9   5  27  1   
 10   5  28  1   
 11   6   9  1   
 12   6  29  1   
 13   6  30  1   
 14   7  10  ar  
 15   7  11  ar  
 16   8  12  1   
 17   8  13  1   
 18   8  14  1   
 19   9  13  1   
 20   9  31  1   
 21   9  32  1   
 22  10  15  1   
 23  10  16  ar  
 24  11  17  ar  
 25  11  33  1   
 26  12  18  1   
 27  12  19  1   
 28  12  34  1   
 29  13  35  1   
 30  13  36  1   
 31  14  20  1   
 32  14  37  1   
 33  14  38  1   
 34  15  21  1   
 35  16  22  ar  
 36  16  39  1   
 37  17  22  ar  
 38  17  23  1   
 39  18  24  1   
 40  19  20  1   
 41  19  40  1   
 42  19  41  1   
 43  20  42  1   
 44  20  43  1   
 45  21  44  1   
 46  21  45  1   
 47  21  46  1   
 48  22  47  1   
 49  23  25  1   
 50  24  48  1   
 51  24  49  1   
 52  24  50  1   
 53  25  51  1   
 54  25  52  1   
 55  25  53  1   
@<TRIPOS>SUBSTRUCTURE
  1 ****   2 GROUP 4 **** **** 0

# MOE 2024.06 (io_trps.svl 2023.06)
