@<TRIPOS>MOLECULE
NONAME
48 50 1 0 0 
SMALL
USER_CHARGES


@<TRIPOS>ATOM
  1 O        0.8520    -1.8390     0.3550 O.2   1 <1>  -0.5700 
  2 C        1.8710    -1.6000    -0.2530 C.2   1 <1>   0.5690 
  3 N        2.5130    -0.3930    -0.2210 N.am  1 <1>  -0.4940 
  4 C        2.4670    -2.7290    -1.0850 C.3   1 <1>  -0.0190 
  5 C        2.1410     0.7870     0.4740 C.2   1 <1>  -0.0880 
  6 C        1.3170    -3.5550    -1.6920 C.3   1 <1>   0.3430 
  7 C        3.4220    -3.5970    -0.2230 C.3   1 <1>  -0.1600 
  8 N        2.8370     1.9590     0.4580 N.pl3 1 <1>   0.3140 
  9 C        1.0680     1.0040     1.2720 C.2   1 <1>  -0.1500 
 10 N        0.7690    -4.4600    -0.6440 N.4   1 <1>  -0.9590 
 11 C        3.1930    -5.1030    -0.4400 C.3   1 <1>  -0.1600 
 12 N        2.2380     2.9020     1.2160 N.2   1 <1>  -0.7070 
 13 C        4.0860     2.2630    -0.2700 C.3   1 <1>   0.0960 
 14 C        1.1850     2.3200     1.6970 C.2   1 <1>   0.1390 
 15 C        1.7310    -5.5230    -0.2080 C.3   1 <1>   0.3430 
 16 C       -0.5810    -4.9960    -0.9730 C.3   1 <1>   0.5230 
 17 C        5.3080     1.6970     0.4690 C.3   1 <1>  -0.1600 
 18 C       -1.2000    -5.6280     0.2600 C.2   1 <1>  -0.0400 
 19 C        6.6040     1.9800    -0.2990 C.3   1 <1>  -0.2400 
 20 O       -0.7660    -6.8080     0.6680 O.3   1 <1>  -0.2800 
 21 C       -2.1810    -5.1800     1.0750 C.2   1 <1>  -0.1500 
 22 C       -1.4550    -7.1370     1.7420 C.2   1 <1>  -0.0100 
 23 C       -2.3470    -6.1720     2.0490 C.2   1 <1>  -0.1500 
 24 H        3.3950    -0.3360    -0.7310 H     1 <1>   0.3700 
 25 H        3.0170    -2.2980    -1.9010 H     1 <1>   0.0800 
 26 H        1.6800    -4.1390    -2.5220 H     1 <1>   0.0800 
 27 H        0.5490    -2.8870    -2.0490 H     1 <1>   0.0800 
 28 H        3.2640    -3.3830     0.8220 H     1 <1>   0.0800 
 29 H        4.4460    -3.3480    -0.4460 H     1 <1>   0.0800 
 30 H        0.2790     0.3280     1.5430 H     1 <1>   0.1500 
 31 H        0.6160    -3.8380     0.1750 H     1 <1>   0.4500 
 32 H        3.8250    -5.6680     0.2240 H     1 <1>   0.0800 
 33 H        3.4780    -5.3720    -1.4420 H     1 <1>   0.0800 
 34 H        4.1730     3.3320    -0.3500 H     1 <1>   0.0800 
 35 H        4.0150     1.8550    -1.2600 H     1 <1>   0.0800 
 36 H        0.4850     2.8120     2.3530 H     1 <1>   0.1500 
 37 H        1.5380    -6.4400    -0.7420 H     1 <1>   0.0800 
 38 H        1.5750    -5.7210     0.8410 H     1 <1>   0.0800 
 39 H       -0.5160    -5.7290    -1.7600 H     1 <1>   0.0800 
 40 H       -1.2170    -4.1910    -1.3030 H     1 <1>   0.0800 
 41 H        5.2010     0.6350     0.6020 H     1 <1>   0.0800 
 42 H        5.3690     2.1540     1.4430 H     1 <1>   0.0800 
 43 H        6.5810     1.5220    -1.2720 H     1 <1>   0.0800 
 44 H        7.4460     1.5850     0.2430 H     1 <1>   0.0800 
 45 H        6.7470     3.0400    -0.4170 H     1 <1>   0.0800 
 46 H       -2.7470    -4.2640     1.0310 H     1 <1>   0.1500 
 47 H       -1.2500    -8.0760     2.2290 H     1 <1>   0.1500 
 48 H       -3.0520    -6.1410     2.8620 H     1 <1>   0.1500 
@<TRIPOS>BOND
  1   1   2  2   
  2   2   3  am  
  3   2   4  1   
  4   3   5  1   
  5   3  24  1   
  6   4   6  1   
  7   4   7  1   
  8   4  25  1   
  9   5   8  1   
 10   5   9  2   
 11   6  10  1   
 12   6  26  1   
 13   6  27  1   
 14   7  11  1   
 15   7  28  1   
 16   7  29  1   
 17   8  12  1   
 18   8  13  1   
 19   9  14  1   
 20   9  30  1   
 21  10  15  1   
 22  10  16  1   
 23  10  31  1   
 24  11  15  1   
 25  11  32  1   
 26  11  33  1   
 27  12  14  2   
 28  13  17  1   
 29  13  34  1   
 30  13  35  1   
 31  14  36  1   
 32  15  37  1   
 33  15  38  1   
 34  16  18  1   
 35  16  39  1   
 36  16  40  1   
 37  17  19  1   
 38  17  41  1   
 39  17  42  1   
 40  18  20  1   
 41  18  21  2   
 42  19  43  1   
 43  19  44  1   
 44  19  45  1   
 45  20  22  1   
 46  21  23  1   
 47  21  46  1   
 48  22  23  2   
 49  22  47  1   
 50  23  48  1   
@<TRIPOS>SUBSTRUCTURE
  1 ****   1 GROUP 4 **** **** 0

# MOE 2024.06 (io_trps.svl 2023.06)
