@<TRIPOS>MOLECULE
NONAME
54 57 1 0 0 
SMALL
USER_CHARGES


@<TRIPOS>ATOM
  1 O       -0.5110    -0.0830    -0.5680 O.3   1 <1>  -0.0190 
  2 N        0.1590     0.7880     0.1230 N.2   1 <1>  -0.4100 
  3 C       -1.7520     0.3320    -0.4880 C.2   1 <1>   0.2980 
  4 C       -0.6770     1.6440     0.5640 C.2   1 <1>   0.3350 
  5 N       -1.9260     1.3940     0.1940 N.2   1 <1>  -0.5650 
  6 C       -2.8220    -0.4830    -1.2120 C.3   1 <1>   0.1000 
  7 C       -0.3500     2.8630     1.4280 C.3   1 <1>   0.1010 
  8 C       -4.1870     0.2280    -1.2410 C.3   1 <1>  -0.1600 
  9 C       -2.9740    -1.8740    -0.5750 C.3   1 <1>  -0.1600 
 10 C       -0.2410     4.1260     0.5620 C.3   1 <1>  -0.2400 
 11 C        0.9370     2.6770     2.2490 C.3   1 <1>  -0.2400 
 12 C       -5.2360    -0.6100    -1.9700 C.3   1 <1>   0.2090 
 13 C       -4.0340    -2.7130    -1.2900 C.3   1 <1>   0.2090 
 14 N       -5.3170    -1.9580    -1.3400 N.pl3 1 <1>  -0.8380 
 15 C       -6.5190    -2.5200    -0.9530 C.ar  1 <1>   0.7200 
 16 N       -6.5600    -3.8430    -0.8460 N.ar  1 <1>  -0.6200 
 17 N       -7.5310    -1.6870    -0.7200 N.ar  1 <1>  -0.6200 
 18 C       -7.7020    -4.3810    -0.4660 C.ar  1 <1>   0.3100 
 19 C       -8.6610    -2.2330    -0.3500 C.ar  1 <1>   0.1600 
 20 C       -7.7890    -5.8140    -0.3260 C.ar  1 <1>   0.0000 
 21 C       -8.7990    -3.5870    -0.2080 C.ar  1 <1>  -0.1500 
 22 C       -7.7530    -6.4540     0.9180 C.ar  1 <1>   0.1670 
 23 C       -7.9320    -6.6110    -1.4510 C.ar  1 <1>  -0.1500 
 24 N       -7.8810    -7.7580     1.0990 N.ar  1 <1>  -0.6200 
 25 C       -7.5580    -5.6530     2.1950 C.3   1 <1>  -0.0970 
 26 C       -8.0520    -7.9700    -1.2720 C.ar  1 <1>  -0.1500 
 27 C       -8.0250    -8.4920     0.0100 C.ar  1 <1>   0.1670 
 28 C       -8.1610    -9.9830     0.2330 C.3   1 <1>  -0.0970 
 29 H       -2.4910    -0.6080    -2.2270 H     1 <1>   0.0800 
 30 H       -1.1660     2.9950     2.1180 H     1 <1>   0.0800 
 31 H       -4.0900     1.1800    -1.7330 H     1 <1>   0.0800 
 32 H       -4.5290     0.4100    -0.2370 H     1 <1>   0.0800 
 33 H       -3.2560    -1.7700     0.4580 H     1 <1>   0.0800 
 34 H       -2.0350    -2.3970    -0.6080 H     1 <1>   0.0800 
 35 H        0.5590     4.0200    -0.1490 H     1 <1>   0.0800 
 36 H       -0.0540     4.9890     1.1750 H     1 <1>   0.0800 
 37 H       -1.1600     4.2790     0.0230 H     1 <1>   0.0800 
 38 H        1.7850     2.5630     1.5970 H     1 <1>   0.0800 
 39 H        0.8560     1.7960     2.8610 H     1 <1>   0.0800 
 40 H        1.1010     3.5260     2.8890 H     1 <1>   0.0800 
 41 H       -4.9600    -0.7260    -3.0040 H     1 <1>   0.0800 
 42 H       -6.1820    -0.0990    -1.9400 H     1 <1>   0.0800 
 43 H       -4.1480    -3.6450    -0.7640 H     1 <1>   0.0800 
 44 H       -3.7200    -2.9350    -2.2960 H     1 <1>   0.0800 
 45 H       -9.4960    -1.5810    -0.1570 H     1 <1>   0.1500 
 46 H       -9.7310    -4.0250     0.0960 H     1 <1>   0.1500 
 47 H       -7.9460    -6.1710    -2.4330 H     1 <1>   0.1500 
 48 H       -6.9070    -4.8140     2.0310 H     1 <1>   0.0800 
 49 H       -7.1150    -6.2740     2.9530 H     1 <1>   0.0800 
 50 H       -8.5090    -5.3040     2.5520 H     1 <1>   0.0800 
 51 H       -8.1640    -8.6180    -2.1220 H     1 <1>   0.1500 
 52 H       -9.0190   -10.1760     0.8500 H     1 <1>   0.0800 
 53 H       -7.2850   -10.3500     0.7350 H     1 <1>   0.0800 
 54 H       -8.2750   -10.5070    -0.6980 H     1 <1>   0.0800 
@<TRIPOS>BOND
  1   1   2  1   
  2   1   3  1   
  3   2   4  2   
  4   3   5  2   
  5   3   6  1   
  6   4   5  1   
  7   4   7  1   
  8   6   8  1   
  9   6   9  1   
 10   6  29  1   
 11   7  10  1   
 12   7  11  1   
 13   7  30  1   
 14   8  12  1   
 15   8  31  1   
 16   8  32  1   
 17   9  13  1   
 18   9  33  1   
 19   9  34  1   
 20  10  35  1   
 21  10  36  1   
 22  10  37  1   
 23  11  38  1   
 24  11  39  1   
 25  11  40  1   
 26  12  14  1   
 27  12  41  1   
 28  12  42  1   
 29  13  14  1   
 30  13  43  1   
 31  13  44  1   
 32  14  15  1   
 33  15  16  ar  
 34  15  17  ar  
 35  16  18  ar  
 36  17  19  ar  
 37  18  20  1   
 38  18  21  ar  
 39  19  21  ar  
 40  19  45  1   
 41  20  22  ar  
 42  20  23  ar  
 43  21  46  1   
 44  22  24  ar  
 45  22  25  1   
 46  23  26  ar  
 47  23  47  1   
 48  24  27  ar  
 49  25  48  1   
 50  25  49  1   
 51  25  50  1   
 52  26  27  ar  
 53  26  51  1   
 54  27  28  1   
 55  28  52  1   
 56  28  53  1   
 57  28  54  1   
@<TRIPOS>SUBSTRUCTURE
  1 ****  14 GROUP 4 **** **** 0

# MOE 2024.06 (io_trps.svl 2023.06)
