@<TRIPOS>MOLECULE
NONAME
59 62 1 0 0 
SMALL
USER_CHARGES


@<TRIPOS>ATOM
  1 F       -0.5880    -0.7480    -1.5910 F     1 <1>  -0.1900 
  2 C       -0.2170    -1.3050    -0.4680 C.ar  1 <1>   0.1900 
  3 C        1.1220    -1.6030    -0.2690 C.ar  1 <1>  -0.1440 
  4 C       -1.1870    -1.5630     0.4830 C.ar  1 <1>  -0.1500 
  5 C        1.4880    -2.1760     0.9400 C.ar  1 <1>  -0.1500 
  6 C        2.1600    -1.3050    -1.3340 C.3   1 <1>   0.2840 
  7 C       -0.8040    -2.1380     1.6820 C.ar  1 <1>  -0.1500 
  8 C        0.5300    -2.4410     1.9080 C.ar  1 <1>  -0.1500 
  9 N        2.3810     0.1570    -1.3590 N.am  1 <1>  -0.7300 
 10 C        3.5420     0.7660    -1.0040 C.2   1 <1>   0.5690 
 11 O        4.5400     0.1300    -0.7530 O.2   1 <1>  -0.5700 
 12 C        3.6110     2.3030    -0.9090 C.3   1 <1>   0.4040 
 13 N        5.0060     2.8610    -0.7340 N.4   1 <1>  -0.9590 
 14 C        5.0920     4.2680    -0.2390 C.3   1 <1>   0.4230 
 15 C        5.9140     2.5810    -1.8730 C.3   1 <1>   0.3430 
 16 C        6.5650     4.7580    -0.1480 C.3   1 <1>  -0.0800 
 17 C        4.1920     5.1990    -1.0750 C.3   1 <1>  -0.1600 
 18 C        7.3740     2.7440    -1.4340 C.3   1 <1>  -0.1600 
 19 C        7.5640     3.5750    -0.1480 C.3   1 <1>   0.4240 
 20 C        6.9050     5.8170    -1.2250 C.3   1 <1>  -0.1600 
 21 C        4.5130     6.6730    -0.7940 C.3   1 <1>  -0.1600 
 22 O        7.2240     2.7450     0.9050 O.3   1 <1>  -0.6800 
 23 C        9.0120     4.0060     0.1460 C.ar  1 <1>  -0.1430 
 24 C        5.9650     7.0320    -1.1520 C.3   1 <1>  -0.1600 
 25 C        9.2880     4.6750     1.3360 C.ar  1 <1>  -0.1500 
 26 C       10.0770     3.7500    -0.7160 C.ar  1 <1>  -0.1500 
 27 C       10.5710     5.0880     1.6490 C.ar  1 <1>  -0.1500 
 28 C       11.3610     4.1610    -0.4050 C.ar  1 <1>  -0.1500 
 29 C       11.6110     4.8330     0.7760 C.ar  1 <1>  -0.1500 
 30 H       -2.2150    -1.3190     0.2870 H     1 <1>   0.1500 
 31 H        2.5190    -2.4180     1.1380 H     1 <1>   0.1500 
 32 H        1.8080    -1.6350    -2.2970 H     1 <1>   0.0800 
 33 H        3.0790    -1.8250    -1.1170 H     1 <1>   0.0800 
 34 H       -1.5400    -2.3490     2.4390 H     1 <1>   0.1500 
 35 H        0.8250    -2.8880     2.8420 H     1 <1>   0.1500 
 36 H        1.5120     0.6740    -1.5190 H     1 <1>   0.3700 
 37 H        3.0080     2.5980    -0.0690 H     1 <1>   0.0800 
 38 H        3.1690     2.7180    -1.7970 H     1 <1>   0.0800 
 39 H        5.4360     2.2990     0.0310 H     1 <1>   0.4500 
 40 H        4.7100     4.2790     0.7700 H     1 <1>   0.0800 
 41 H        5.7670     1.5750    -2.2340 H     1 <1>   0.0800 
 42 H        5.6990     3.2640    -2.6790 H     1 <1>   0.0800 
 43 H        6.6530     5.2670     0.7950 H     1 <1>   0.0800 
 44 H        4.3310     5.0170    -2.1260 H     1 <1>   0.0800 
 45 H        3.1600     5.0260    -0.8300 H     1 <1>   0.0800 
 46 H        7.8760     3.2220    -2.2540 H     1 <1>   0.0800 
 47 H        7.8270     1.7750    -1.3120 H     1 <1>   0.0800 
 48 H        7.9190     6.1620    -1.1060 H     1 <1>   0.0800 
 49 H        6.8290     5.3860    -2.2080 H     1 <1>   0.0800 
 50 H        3.8410     7.3090    -1.3470 H     1 <1>   0.0800 
 51 H        4.3500     6.8740     0.2530 H     1 <1>   0.0800 
 52 H        8.0620     2.4210     1.3000 H     1 <1>   0.4000 
 53 H        6.3370     7.7290    -0.4200 H     1 <1>   0.0800 
 54 H        5.9850     7.5370    -2.1040 H     1 <1>   0.0800 
 55 H        8.5050     4.8840     2.0430 H     1 <1>   0.1500 
 56 H        9.9490     3.2250    -1.6440 H     1 <1>   0.1500 
 57 H       10.7620     5.6070     2.5730 H     1 <1>   0.1500 
 58 H       12.1720     3.9580    -1.0830 H     1 <1>   0.1500 
 59 H       12.6100     5.1530     1.0160 H     1 <1>   0.1500 
@<TRIPOS>BOND
  1   1   2  1   
  2   2   3  ar  
  3   2   4  ar  
  4   3   5  ar  
  5   3   6  1   
  6   4   7  ar  
  7   4  30  1   
  8   5   8  ar  
  9   5  31  1   
 10   6   9  1   
 11   6  32  1   
 12   6  33  1   
 13   7   8  ar  
 14   7  34  1   
 15   8  35  1   
 16   9  10  am  
 17   9  36  1   
 18  10  11  2   
 19  10  12  1   
 20  12  13  1   
 21  12  37  1   
 22  12  38  1   
 23  13  14  1   
 24  13  15  1   
 25  13  39  1   
 26  14  16  1   
 27  14  17  1   
 28  14  40  1   
 29  15  18  1   
 30  15  41  1   
 31  15  42  1   
 32  16  19  1   
 33  16  20  1   
 34  16  43  1   
 35  17  21  1   
 36  17  44  1   
 37  17  45  1   
 38  18  19  1   
 39  18  46  1   
 40  18  47  1   
 41  19  22  1   
 42  19  23  1   
 43  20  24  1   
 44  20  48  1   
 45  20  49  1   
 46  21  24  1   
 47  21  50  1   
 48  21  51  1   
 49  22  52  1   
 50  23  25  ar  
 51  23  26  ar  
 52  24  53  1   
 53  24  54  1   
 54  25  27  ar  
 55  25  55  1   
 56  26  28  ar  
 57  26  56  1   
 58  27  29  ar  
 59  27  57  1   
 60  28  29  ar  
 61  28  58  1   
 62  29  59  1   
@<TRIPOS>SUBSTRUCTURE
  1 ****  13 GROUP 4 **** **** 0

# MOE 2024.06 (io_trps.svl 2023.06)
