@<TRIPOS>MOLECULE
NONAME
46 48 1 0 0 
SMALL
USER_CHARGES


@<TRIPOS>ATOM
  1 O       -0.7340     0.6670    -1.1240 O.2   1 <1>  -0.5700 
  2 C       -1.6600     1.1800    -0.5250 C.2   1 <1>   0.6160 
  3 N       -2.7530     0.4100    -0.1720 N.am  1 <1>  -0.6600 
  4 C       -1.5760     2.5870    -0.2270 C.2   1 <1>  -0.1360 
  5 C       -3.0280    -0.8970    -0.8740 C.3   1 <1>   0.1400 
  6 C       -3.8990     0.9160     0.6410 C.3   1 <1>   0.1400 
  7 C       -0.4540     3.3430    -0.2000 C.2   1 <1>  -0.1780 
  8 C       -3.5400    -2.0000     0.0810 C.3   1 <1>  -0.1060 
  9 C       -4.4060    -0.1460     1.6190 C.3   1 <1>  -0.1600 
 10 C       -0.3160     4.7510     0.0810 C.ar  1 <1>   0.0280 
 11 C       -4.1000    -3.1710    -0.7340 C.2   1 <1>   0.9060 
 12 C       -4.7330    -1.4540     0.8970 C.3   1 <1>   0.2000 
 13 C       -2.4020    -2.4690     1.0410 C.3   1 <1>  -0.0650 
 14 C        0.9520     5.2940     0.2820 C.ar  1 <1>  -0.1500 
 15 C       -1.4060     5.6170     0.1620 C.ar  1 <1>  -0.1500 
 16 O       -3.9340    -4.3390    -0.3650 O.co2 1 <1>  -0.9000 
 17 O       -4.8310    -2.9100    -1.7010 O.co2 1 <1>  -0.9000 
 18 O       -5.8050    -1.1810     0.0570 O.3   1 <1>  -0.6800 
 19 C       -1.1650    -3.0700     0.3530 C.3   1 <1>  -0.1950 
 20 C        1.1270     6.6380     0.5570 C.ar  1 <1>  -0.1500 
 21 C       -1.2380     6.9620     0.4380 C.ar  1 <1>  -0.1500 
 22 C        0.0800    -3.3250     1.1420 C.3   1 <1>  -0.2000 
 23 C        0.0590    -2.2490     0.0970 C.3   1 <1>  -0.2000 
 24 C        0.0300     7.4760     0.6370 C.ar  1 <1>  -0.1500 
 25 H       -2.5180     3.0460    -0.0250 H     1 <1>   0.1500 
 26 H       -3.7720    -0.7090    -1.6290 H     1 <1>   0.0800 
 27 H       -2.1510    -1.2490    -1.3870 H     1 <1>   0.0800 
 28 H       -3.6120     1.7780     1.2150 H     1 <1>   0.0800 
 29 H       -4.6970     1.1970    -0.0260 H     1 <1>   0.0800 
 30 H        0.4800     2.8490    -0.4110 H     1 <1>   0.1500 
 31 H       -5.2920     0.2120     2.1120 H     1 <1>   0.0800 
 32 H       -3.6680    -0.3110     2.3790 H     1 <1>   0.0800 
 33 H       -5.0640    -2.2030     1.5970 H     1 <1>   0.0800 
 34 H       -2.0720    -1.6520     1.6540 H     1 <1>   0.0800 
 35 H       -2.8040    -3.2220     1.6970 H     1 <1>   0.0800 
 36 H        1.8140     4.6550     0.2230 H     1 <1>   0.1500 
 37 H       -2.4000     5.2460     0.0040 H     1 <1>   0.1500 
 38 H       -5.7370    -1.8110    -0.7210 H     1 <1>   0.4000 
 39 H       -1.4200    -3.8290    -0.3690 H     1 <1>   0.1000 
 40 H        2.1170     7.0330     0.7090 H     1 <1>   0.1500 
 41 H       -2.0940     7.6120     0.4970 H     1 <1>   0.1500 
 42 H        0.1060    -3.0390     2.1790 H     1 <1>   0.1000 
 43 H        0.6280    -4.2300     0.9480 H     1 <1>   0.1000 
 44 H        0.5720    -2.3930    -0.8380 H     1 <1>   0.1000 
 45 H        0.0740    -1.2230     0.4180 H     1 <1>   0.1000 
 46 H        0.1630     8.5230     0.8520 H     1 <1>   0.1500 
@<TRIPOS>BOND
  1   1   2  2   
  2   2   3  am  
  3   2   4  1   
  4   3   5  1   
  5   3   6  1   
  6   4   7  2   
  7   4  25  1   
  8   5   8  1   
  9   5  26  1   
 10   5  27  1   
 11   6   9  1   
 12   6  28  1   
 13   6  29  1   
 14   7  10  1   
 15   7  30  1   
 16   8  11  1   
 17   8  12  1   
 18   8  13  1   
 19   9  12  1   
 20   9  31  1   
 21   9  32  1   
 22  10  14  ar  
 23  10  15  ar  
 24  11  16  ar  
 25  11  17  ar  
 26  12  18  1   
 27  12  33  1   
 28  13  19  1   
 29  13  34  1   
 30  13  35  1   
 31  14  20  ar  
 32  14  36  1   
 33  15  21  ar  
 34  15  37  1   
 35  18  38  1   
 36  19  22  1   
 37  19  23  1   
 38  19  39  1   
 39  20  24  ar  
 40  20  40  1   
 41  21  24  ar  
 42  21  41  1   
 43  22  23  1   
 44  22  42  1   
 45  22  43  1   
 46  23  44  1   
 47  23  45  1   
 48  24  46  1   
@<TRIPOS>SUBSTRUCTURE
  1 ****   3 GROUP 4 **** **** 0

# MOE 2024.06 (io_trps.svl 2023.06)
