@<TRIPOS>MOLECULE
NONAME
53 56 1 0 0 
SMALL
USER_CHARGES


@<TRIPOS>ATOM
  1 O       -0.5520     0.9680    -1.5100 O.2   1 <1>  -0.5700 
  2 C       -0.5470     2.1750    -1.5610 C.2   1 <1>   0.5690 
  3 N       -1.2300     2.9750    -0.6740 N.am  1 <1>  -0.6600 
  4 C        0.2670     2.8150    -2.6890 C.3   1 <1>   0.1810 
  5 C       -1.1590     4.4720    -0.7930 C.3   1 <1>   0.3640 
  6 C       -1.8770     2.4740     0.5750 C.3   1 <1>   0.2200 
  7 O        0.6500     4.1360    -2.4050 O.3   1 <1>  -0.5600 
  8 C       -2.5570     5.0870    -0.7320 C.ar  1 <1>  -0.1440 
  9 C       -0.4430     4.9660    -2.0730 C.3   1 <1>   0.2610 
 10 C       -0.8300     1.8560     1.5020 C.3   1 <1>  -0.2400 
 11 C       -3.0120     1.4980     0.2630 C.3   1 <1>  -0.2400 
 12 C       -3.5930     4.5920    -1.5140 C.ar  1 <1>  -0.1500 
 13 C       -2.8030     6.1630     0.1100 C.ar  1 <1>  -0.1500 
 14 C       -0.0090     6.4250    -1.9120 C.2   1 <1>   0.5690 
 15 C       -4.8530     5.1600    -1.4530 C.ar  1 <1>  -0.1500 
 16 C       -4.0630     6.7310     0.1710 C.ar  1 <1>  -0.1500 
 17 O       -0.4520     7.2430    -2.6850 O.2   1 <1>  -0.5700 
 18 N        0.8380     6.7960    -0.9060 N.am  1 <1>  -0.5100 
 19 C       -5.0890     6.2300    -0.6090 C.ar  1 <1>  -0.1500 
 20 C        1.6170     8.0720    -0.7860 C.3   1 <1>   0.2250 
 21 C        1.9450     6.0470    -0.2210 C.3   1 <1>   0.2250 
 22 C        2.8860     7.2040    -0.6300 C.3   1 <1>   0.1080 
 23 C        3.8550     7.6630     0.4530 C.ar  1 <1>   0.2020 
 24 N        3.3710     7.8830     1.6690 N.ar  1 <1>  -0.6200 
 25 C        5.1930     7.8270     0.1200 C.ar  1 <1>  -0.1500 
 26 C        4.2470     8.2810     2.5790 C.ar  1 <1>   0.1600 
 27 C        6.0940     8.2400     1.0770 C.ar  1 <1>  -0.1500 
 28 C        5.5960     8.4710     2.3400 C.ar  1 <1>  -0.1500 
 29 H       -0.3080     2.8110    -3.5970 H     1 <1>   0.0800 
 30 H        1.1630     2.2430    -2.8460 H     1 <1>   0.0800 
 31 H       -0.6010     4.8230     0.0570 H     1 <1>   0.0800 
 32 H       -2.3130     3.3070     1.1000 H     1 <1>   0.0800 
 33 H       -1.1340     4.9280    -2.8970 H     1 <1>   0.0800 
 34 H       -0.4100     0.9660     1.0690 H     1 <1>   0.0800 
 35 H       -1.2870     1.5890     2.4370 H     1 <1>   0.0800 
 36 H       -0.0430     2.5620     1.6970 H     1 <1>   0.0800 
 37 H       -2.6390     0.5900    -0.1730 H     1 <1>   0.0800 
 38 H       -3.7190     1.9500    -0.4070 H     1 <1>   0.0800 
 39 H       -3.5270     1.2420     1.1710 H     1 <1>   0.0800 
 40 H       -3.4230     3.7580    -2.1730 H     1 <1>   0.1500 
 41 H       -2.0160     6.5710     0.7210 H     1 <1>   0.1500 
 42 H       -5.6500     4.7700    -2.0620 H     1 <1>   0.1500 
 43 H       -4.2450     7.5670     0.8250 H     1 <1>   0.1500 
 44 H       -6.0680     6.6740    -0.5620 H     1 <1>   0.1500 
 45 H        1.5990     8.6540    -1.6910 H     1 <1>   0.0000 
 46 H        1.3280     8.6170     0.0950 H     1 <1>   0.0000 
 47 H        1.7550     5.9650     0.8340 H     1 <1>   0.0000 
 48 H        2.1840     5.1140    -0.6970 H     1 <1>   0.0000 
 49 H        3.3610     7.0160    -1.5780 H     1 <1>   0.0000 
 50 H        5.5310     7.6330    -0.8820 H     1 <1>   0.1500 
 51 H        3.8680     8.4650     3.5700 H     1 <1>   0.1500 
 52 H        7.1380     8.3760     0.8480 H     1 <1>   0.1500 
 53 H        6.2450     8.7960     3.1340 H     1 <1>   0.1500 
@<TRIPOS>BOND
  1   1   2  2   
  2   2   3  am  
  3   2   4  1   
  4   3   5  1   
  5   3   6  1   
  6   4   7  1   
  7   4  29  1   
  8   4  30  1   
  9   5   8  1   
 10   5   9  1   
 11   5  31  1   
 12   6  10  1   
 13   6  11  1   
 14   6  32  1   
 15   7   9  1   
 16   8  12  ar  
 17   8  13  ar  
 18   9  14  1   
 19   9  33  1   
 20  10  34  1   
 21  10  35  1   
 22  10  36  1   
 23  11  37  1   
 24  11  38  1   
 25  11  39  1   
 26  12  15  ar  
 27  12  40  1   
 28  13  16  ar  
 29  13  41  1   
 30  14  17  2   
 31  14  18  am  
 32  15  19  ar  
 33  15  42  1   
 34  16  19  ar  
 35  16  43  1   
 36  18  20  1   
 37  18  21  1   
 38  19  44  1   
 39  20  22  1   
 40  20  45  1   
 41  20  46  1   
 42  21  22  1   
 43  21  47  1   
 44  21  48  1   
 45  22  23  1   
 46  22  49  1   
 47  23  24  ar  
 48  23  25  ar  
 49  24  26  ar  
 50  25  27  ar  
 51  25  50  1   
 52  26  28  ar  
 53  26  51  1   
 54  27  28  ar  
 55  27  52  1   
 56  28  53  1   
@<TRIPOS>SUBSTRUCTURE
  1 ****  18 GROUP 4 **** **** 0

# MOE 2024.06 (io_trps.svl 2023.06)
