@<TRIPOS>MOLECULE
NONAME
45 47 1 0 0 
SMALL
USER_CHARGES


@<TRIPOS>ATOM
  1 CL       3.2060     0.3700     1.6370 Cl    1 <1>  -0.1770 
  2 C        2.9880     2.0800     1.3740 C.ar  1 <1>   0.1770 
  3 C        2.2440     2.5310     0.2990 C.ar  1 <1>   0.1600 
  4 C        3.5580     2.9830     2.2380 C.ar  1 <1>  -0.1500 
  5 N        2.0280     3.8090     0.0240 N.ar  1 <1>  -0.6200 
  6 C        3.3360     4.3160     1.9620 C.ar  1 <1>  -0.1500 
  7 C        2.5730     4.7180     0.8580 C.ar  1 <1>   0.3960 
  8 C        2.3690     6.1520     0.6070 C.2   1 <1>   0.5440 
  9 O        2.9770     6.9970     1.2450 O.2   1 <1>  -0.5700 
 10 N        1.5640     6.6520    -0.3980 N.am  1 <1>  -0.6600 
 11 C        1.9080     6.3930    -1.8290 C.3   1 <1>   0.1400 
 12 C        0.6610     7.8130    -0.1600 C.3   1 <1>   0.1400 
 13 C        3.1990     7.1390    -2.2260 C.3   1 <1>   0.3430 
 14 C        1.3950     9.1650    -0.2420 C.3   1 <1>  -0.1600 
 15 N        3.4230     8.3590    -1.3770 N.4   1 <1>  -0.9590 
 16 C        2.3210     9.3510    -1.4470 C.3   1 <1>   0.3430 
 17 C        4.7720     8.9450    -1.5540 C.3   1 <1>   0.4860 
 18 C        5.3200     9.3020    -0.1810 C.ar  1 <1>  -0.1430 
 19 C        5.8490     8.3080     0.6470 C.ar  1 <1>   0.0730 
 20 C        5.2940    10.6220     0.2450 C.ar  1 <1>  -0.1500 
 21 C        5.8760     6.9360     0.2210 C.1   1 <1>   0.4840 
 22 C        6.3390     8.6680     1.8960 C.ar  1 <1>  -0.1500 
 23 C        5.7870    10.9620     1.4920 C.ar  1 <1>  -0.1500 
 24 N        5.7960     5.8970    -0.2420 N.1   1 <1>  -0.5570 
 25 C        6.3090     9.9840     2.3180 C.ar  1 <1>  -0.1500 
 26 H        1.8100     1.7970    -0.3590 H     1 <1>   0.1500 
 27 H        4.1430     2.6570     3.0810 H     1 <1>   0.1500 
 28 H        3.7600     5.0630     2.6090 H     1 <1>   0.1500 
 29 H        1.0970     6.7150    -2.4590 H     1 <1>   0.0800 
 30 H        2.0390     5.3390    -2.0020 H     1 <1>   0.0800 
 31 H        0.2190     7.7140     0.8180 H     1 <1>   0.0800 
 32 H       -0.1420     7.7860    -0.8770 H     1 <1>   0.0800 
 33 H        3.1620     7.4000    -3.2700 H     1 <1>   0.0800 
 34 H        4.0250     6.4590    -2.0870 H     1 <1>   0.0800 
 35 H        1.9560     9.3210     0.6620 H     1 <1>   0.0800 
 36 H        0.6490     9.9390    -0.2690 H     1 <1>   0.0800 
 37 H        3.3710     7.9980    -0.3990 H     1 <1>   0.4500 
 38 H        2.7260    10.3500    -1.4160 H     1 <1>   0.0800 
 39 H        1.7680     9.2370    -2.3650 H     1 <1>   0.0800 
 40 H        4.7260     9.8190    -2.1820 H     1 <1>   0.0800 
 41 H        5.4300     8.2290    -2.0200 H     1 <1>   0.0800 
 42 H        4.8950    11.4030    -0.3810 H     1 <1>   0.1500 
 43 H        6.7470     7.9150     2.5510 H     1 <1>   0.1500 
 44 H        5.7670    11.9870     1.8240 H     1 <1>   0.1500 
 45 H        6.6920    10.2490     3.2900 H     1 <1>   0.1500 
@<TRIPOS>BOND
  1   1   2  1   
  2   2   3  ar  
  3   2   4  ar  
  4   3   5  ar  
  5   3  26  1   
  6   4   6  ar  
  7   4  27  1   
  8   5   7  ar  
  9   6   7  ar  
 10   6  28  1   
 11   7   8  1   
 12   8   9  2   
 13   8  10  am  
 14  10  11  1   
 15  10  12  1   
 16  11  13  1   
 17  11  29  1   
 18  11  30  1   
 19  12  14  1   
 20  12  31  1   
 21  12  32  1   
 22  13  15  1   
 23  13  33  1   
 24  13  34  1   
 25  14  16  1   
 26  14  35  1   
 27  14  36  1   
 28  15  16  1   
 29  15  17  1   
 30  15  37  1   
 31  16  38  1   
 32  16  39  1   
 33  17  18  1   
 34  17  40  1   
 35  17  41  1   
 36  18  19  ar  
 37  18  20  ar  
 38  19  21  1   
 39  19  22  ar  
 40  20  23  ar  
 41  20  42  1   
 42  21  24  3   
 43  22  25  ar  
 44  22  43  1   
 45  23  25  ar  
 46  23  44  1   
 47  25  45  1   
@<TRIPOS>SUBSTRUCTURE
  1 ****   9 GROUP 4 **** **** 0

# MOE 2024.06 (io_trps.svl 2023.06)
