@<TRIPOS>MOLECULE
NONAME
50 52 1 0 0 
SMALL
USER_CHARGES


@<TRIPOS>ATOM
  1 CL      -1.6970    -2.1630     0.9370 Cl    1 <1>  -0.1770 
  2 C       -2.1830    -0.4870     0.8460 C.ar  1 <1>   0.1770 
  3 C       -3.0120    -0.0620    -0.1820 C.ar  1 <1>  -0.1440 
  4 C       -1.7240     0.3820     1.8170 C.ar  1 <1>  -0.1500 
  5 C       -3.3790     1.2810    -0.2410 C.ar  1 <1>  -0.1440 
  6 C       -3.4850    -1.0780    -1.2060 C.3   1 <1>   0.4870 
  7 C       -2.0970     1.7110     1.7600 C.ar  1 <1>  -0.1500 
  8 C       -2.9180     2.1530     0.7360 C.ar  1 <1>  -0.1500 
  9 C       -4.2670     1.8330    -1.3490 C.3   1 <1>  -0.0970 
 10 N       -4.5140    -1.9640    -0.6090 N.4   1 <1>  -0.9590 
 11 C       -4.9470    -3.0620    -1.5270 C.3   1 <1>   0.3430 
 12 C       -5.6730    -1.2450    -0.0010 C.3   1 <1>   0.3430 
 13 C       -5.7630    -4.0930    -0.7310 C.3   1 <1>   0.2000 
 14 C       -6.5230    -2.2340     0.7900 C.3   1 <1>  -0.1600 
 15 O       -4.8990    -4.5690     0.2510 O.3   1 <1>  -0.6800 
 16 C       -7.0060    -3.4430    -0.0700 C.3   1 <1>  -0.1060 
 17 C       -7.6210    -4.5200     0.8420 C.2   1 <1>   0.9060 
 18 C       -8.0130    -2.9930    -1.1890 C.3   1 <1>  -0.0170 
 19 O       -8.7130    -5.0230     0.5790 O.co2 1 <1>  -0.9000 
 20 O       -6.9350    -4.9190     1.7930 O.co2 1 <1>  -0.9000 
 21 C       -8.9070    -1.8090    -0.8310 C.ar  1 <1>  -0.1430 
 22 C       -9.8760    -1.9410     0.1520 C.ar  1 <1>  -0.1500 
 23 C       -8.7680    -0.5900    -1.4820 C.ar  1 <1>  -0.1500 
 24 C      -10.6790    -0.8680     0.4960 C.ar  1 <1>  -0.1500 
 25 C       -9.5700     0.4840    -1.1400 C.ar  1 <1>  -0.1500 
 26 C      -10.5250     0.3470    -0.1480 C.ar  1 <1>  -0.1500 
 27 H       -1.0840     0.0220     2.6030 H     1 <1>   0.1500 
 28 H       -2.6440    -1.6680    -1.5310 H     1 <1>   0.0800 
 29 H       -3.8930    -0.5720    -2.0640 H     1 <1>   0.0800 
 30 H       -1.7480     2.4020     2.5090 H     1 <1>   0.1500 
 31 H       -3.1910     3.1950     0.7090 H     1 <1>   0.1500 
 32 H       -4.4170     2.8910    -1.2280 H     1 <1>   0.0800 
 33 H       -5.2320     1.3600    -1.3350 H     1 <1>   0.0800 
 34 H       -3.8080     1.6760    -2.3090 H     1 <1>   0.0800 
 35 H       -4.0740    -2.4840     0.1750 H     1 <1>   0.4500 
 36 H       -5.5300    -2.6630    -2.3380 H     1 <1>   0.0800 
 37 H       -4.0870    -3.5610    -1.9410 H     1 <1>   0.0800 
 38 H       -5.3240    -0.4730     0.6670 H     1 <1>   0.0800 
 39 H       -6.2710    -0.7860    -0.7690 H     1 <1>   0.0800 
 40 H       -6.0550    -4.9280    -1.3470 H     1 <1>   0.0800 
 41 H       -5.9370    -2.5860     1.6220 H     1 <1>   0.0800 
 42 H       -7.3600    -1.7220     1.2280 H     1 <1>   0.0800 
 43 H       -5.4800    -4.9120     1.0050 H     1 <1>   0.4000 
 44 H       -7.4920    -2.7290    -2.0860 H     1 <1>   0.0800 
 45 H       -8.6460    -3.8160    -1.4770 H     1 <1>   0.0800 
 46 H      -10.0090    -2.8860     0.6550 H     1 <1>   0.1500 
 47 H       -8.0420    -0.4690    -2.2650 H     1 <1>   0.1500 
 48 H      -11.4230    -0.9860     1.2630 H     1 <1>   0.1500 
 49 H       -9.4610     1.4270    -1.6470 H     1 <1>   0.1500 
 50 H      -11.1510     1.1800     0.1210 H     1 <1>   0.1500 
@<TRIPOS>BOND
  1   1   2  1   
  2   2   3  ar  
  3   2   4  ar  
  4   3   5  ar  
  5   3   6  1   
  6   4   7  ar  
  7   4  27  1   
  8   5   8  ar  
  9   5   9  1   
 10   6  10  1   
 11   6  28  1   
 12   6  29  1   
 13   7   8  ar  
 14   7  30  1   
 15   8  31  1   
 16   9  32  1   
 17   9  33  1   
 18   9  34  1   
 19  10  11  1   
 20  10  12  1   
 21  10  35  1   
 22  11  13  1   
 23  11  36  1   
 24  11  37  1   
 25  12  14  1   
 26  12  38  1   
 27  12  39  1   
 28  13  15  1   
 29  13  16  1   
 30  13  40  1   
 31  14  16  1   
 32  14  41  1   
 33  14  42  1   
 34  15  43  1   
 35  16  17  1   
 36  16  18  1   
 37  17  19  ar  
 38  17  20  ar  
 39  18  21  1   
 40  18  44  1   
 41  18  45  1   
 42  21  22  ar  
 43  21  23  ar  
 44  22  24  ar  
 45  22  46  1   
 46  23  25  ar  
 47  23  47  1   
 48  24  26  ar  
 49  24  48  1   
 50  25  26  ar  
 51  25  49  1   
 52  26  50  1   
@<TRIPOS>SUBSTRUCTURE
  1 ****  12 GROUP 4 **** **** 0

# MOE 2024.06 (io_trps.svl 2023.06)
