@<TRIPOS>MOLECULE
NONAME
58 60 1 0 0 
SMALL
USER_CHARGES


@<TRIPOS>ATOM
  1 O       -0.1480     0.3580    -0.3400 O.3   1 <1>  -0.3630 
  2 C        1.1160     0.7020    -0.6990 C.ar  1 <1>   0.0830 
  3 C       -1.2530     1.1760    -0.6240 C.3   1 <1>   0.1200 
  4 C        2.1860    -0.0060    -0.1420 C.ar  1 <1>  -0.1440 
  5 C        1.3630     1.7360    -1.6010 C.ar  1 <1>  -0.1500 
  6 C       -2.4570     0.5640     0.0980 C.3   1 <1>   0.3430 
  7 C        3.4790     0.3500    -0.5010 C.ar  1 <1>  -0.1500 
  8 C        2.0230    -1.1650     0.8530 C.3   1 <1>   0.0640 
  9 C        2.6580     2.0740    -1.9430 C.ar  1 <1>  -0.1500 
 10 N       -3.7250     1.3340    -0.1190 N.4   1 <1>  -0.9590 
 11 C        3.7170     1.3810    -1.3920 C.ar  1 <1>  -0.1500 
 12 C        1.2880    -2.3590     0.2330 C.3   1 <1>  -0.2400 
 13 C        1.3650    -0.7180     2.1630 C.3   1 <1>  -0.2400 
 14 C       -4.9020     0.5420     0.3670 C.3   1 <1>   0.3430 
 15 C       -3.6910     2.6850     0.5190 C.3   1 <1>   0.3430 
 16 C       -6.2370     1.2340     0.0240 C.3   1 <1>   0.0000 
 17 C       -4.9710     3.4480     0.1770 C.3   1 <1>  -0.1600 
 18 C       -7.3870     0.3640     0.5710 C.3   1 <1>   0.2000 
 19 C       -6.2280     2.6720     0.5940 C.3   1 <1>  -0.1600 
 20 C       -6.4870     1.2030    -1.4960 C.3   1 <1>  -0.1600 
 21 O       -8.5500     1.1330     0.6060 O.3   1 <1>  -0.5600 
 22 C       -7.5630    -0.7500    -0.4690 C.3   1 <1>  -0.1600 
 23 C       -7.0290    -0.1980    -1.7990 C.3   1 <1>  -0.1600 
 24 C       -9.5490     0.6780     1.4660 C.3   1 <1>   0.0400 
 25 H       -1.0350     2.1630    -0.2570 H     1 <1>   0.0800 
 26 H       -1.4010     1.1790    -1.6890 H     1 <1>   0.0800 
 27 H        0.5680     2.2920    -2.0570 H     1 <1>   0.1500 
 28 H       -2.2400     0.5140     1.1520 H     1 <1>   0.0800 
 29 H       -2.5840    -0.4420    -0.2680 H     1 <1>   0.0800 
 30 H        4.3230    -0.1750    -0.0890 H     1 <1>   0.1500 
 31 H        3.0070    -1.5180     1.1140 H     1 <1>   0.0800 
 32 H        2.8460     2.8730    -2.6400 H     1 <1>   0.1500 
 33 H       -3.8680     1.4710    -1.1290 H     1 <1>   0.4500 
 34 H        4.7280     1.6410    -1.6560 H     1 <1>   0.1500 
 35 H        0.2660    -2.1180     0.0150 H     1 <1>   0.0800 
 36 H        1.3070    -3.1960     0.9070 H     1 <1>   0.0800 
 37 H        1.7740    -2.6480    -0.6830 H     1 <1>   0.0800 
 38 H        0.3410    -0.4390     2.0100 H     1 <1>   0.0800 
 39 H        1.8960     0.1260     2.5660 H     1 <1>   0.0800 
 40 H        1.3980    -1.5160     2.8830 H     1 <1>   0.0800 
 41 H       -4.8910    -0.4380    -0.0810 H     1 <1>   0.0800 
 42 H       -4.8360     0.4220     1.4360 H     1 <1>   0.0800 
 43 H       -3.6100     2.5820     1.5890 H     1 <1>   0.0800 
 44 H       -2.8400     3.2460     0.1670 H     1 <1>   0.0800 
 45 H       -4.9590     4.3970     0.6850 H     1 <1>   0.0800 
 46 H       -4.9970     3.6550    -0.8790 H     1 <1>   0.0800 
 47 H       -7.1850    -0.0100     1.5620 H     1 <1>   0.0800 
 48 H       -7.1030     3.2090     0.2650 H     1 <1>   0.0800 
 49 H       -6.2750     2.6250     1.6690 H     1 <1>   0.0800 
 50 H       -7.2620     1.9140    -1.7350 H     1 <1>   0.0800 
 51 H       -5.6250     1.4380    -2.0930 H     1 <1>   0.0800 
 52 H       -6.9800    -1.6070    -0.1810 H     1 <1>   0.0800 
 53 H       -8.5900    -1.0570    -0.5600 H     1 <1>   0.0800 
 54 H       -6.2510    -0.8370    -2.1810 H     1 <1>   0.0800 
 55 H       -7.8170    -0.1420    -2.5320 H     1 <1>   0.0800 
 56 H      -10.3920     1.3410     1.3780 H     1 <1>   0.0800 
 57 H       -9.1830     0.6950     2.4780 H     1 <1>   0.0800 
 58 H       -9.8450    -0.3180     1.1880 H     1 <1>   0.0800 
@<TRIPOS>BOND
  1   1   2  1   
  2   1   3  1   
  3   2   4  ar  
  4   2   5  ar  
  5   3   6  1   
  6   3  25  1   
  7   3  26  1   
  8   4   7  ar  
  9   4   8  1   
 10   5   9  ar  
 11   5  27  1   
 12   6  10  1   
 13   6  28  1   
 14   6  29  1   
 15   7  11  ar  
 16   7  30  1   
 17   8  12  1   
 18   8  13  1   
 19   8  31  1   
 20   9  11  ar  
 21   9  32  1   
 22  10  14  1   
 23  10  15  1   
 24  10  33  1   
 25  11  34  1   
 26  12  35  1   
 27  12  36  1   
 28  12  37  1   
 29  13  38  1   
 30  13  39  1   
 31  13  40  1   
 32  14  16  1   
 33  14  41  1   
 34  14  42  1   
 35  15  17  1   
 36  15  43  1   
 37  15  44  1   
 38  16  18  1   
 39  16  19  1   
 40  16  20  1   
 41  17  19  1   
 42  17  45  1   
 43  17  46  1   
 44  18  21  1   
 45  18  22  1   
 46  18  47  1   
 47  19  48  1   
 48  19  49  1   
 49  20  23  1   
 50  20  50  1   
 51  20  51  1   
 52  21  24  1   
 53  22  23  1   
 54  22  52  1   
 55  22  53  1   
 56  23  54  1   
 57  23  55  1   
 58  24  56  1   
 59  24  57  1   
 60  24  58  1   
@<TRIPOS>SUBSTRUCTURE
  1 ****   6 GROUP 4 **** **** 0

# MOE 2024.06 (io_trps.svl 2023.06)
