@<TRIPOS>MOLECULE
NONAME
56 58 1 0 0 
SMALL
USER_CHARGES


@<TRIPOS>ATOM
  1 O        0.8060     1.7060    -0.3720 O.3   1 <1>  -0.3630 
  2 C       -0.0960     2.7190    -0.4020 C.ar  1 <1>   0.0830 
  3 C        2.1740     1.9980    -0.1740 C.3   1 <1>   0.1200 
  4 C       -1.1320     2.8020     0.5380 C.ar  1 <1>   0.0820 
  5 C        0.0150     3.6910    -1.3850 C.ar  1 <1>  -0.1500 
  6 C        2.4040     2.3630     1.2930 C.3   1 <1>  -0.2400 
  7 O       -1.3230     1.9230     1.5550 O.3   1 <1>  -0.3620 
  8 C       -2.0270     3.8550     0.4700 C.ar  1 <1>  -0.1500 
  9 C       -0.8740     4.7550    -1.4310 C.ar  1 <1>  -0.1440 
 10 C       -1.2150     0.5360     1.3080 C.3   1 <1>   0.0400 
 11 C       -1.9080     4.8250    -0.5080 C.ar  1 <1>  -0.1500 
 12 C       -0.6730     5.8660    -2.4440 C.3   1 <1>   0.3530 
 13 N        0.3870     6.8550    -2.0290 N.pl3 1 <1>  -0.8380 
 14 C        0.9640     7.0770    -0.8030 C.ar  1 <1>   0.7710 
 15 C        0.7480     7.7600    -3.1750 C.3   1 <1>   0.1290 
 16 N        1.7930     8.1060    -0.6790 N.ar  1 <1>  -0.6200 
 17 N        0.7030     6.2800     0.2520 N.ar  1 <1>  -0.1790 
 18 C        2.3680     8.3410     0.4860 C.ar  1 <1>   0.4100 
 19 C        1.2450     6.4900     1.4720 C.ar  1 <1>   0.2110 
 20 N        3.2360     9.3850     0.5660 N.pl3 1 <1>  -0.8380 
 21 C        2.0910     7.5360     1.6080 C.ar  1 <1>  -0.1500 
 22 C        4.4430     9.4100     1.4600 C.3   1 <1>   0.2090 
 23 C        3.1790    10.5520    -0.3690 C.3   1 <1>   0.2090 
 24 C        5.7340     9.4810     0.6240 C.3   1 <1>   0.2000 
 25 C        4.4410    10.5800    -1.2370 C.3   1 <1>  -0.1600 
 26 O        6.8210     9.6520     1.4640 O.3   1 <1>  -0.6800 
 27 C        5.7180    10.6350    -0.3830 C.3   1 <1>  -0.1600 
 28 H        2.4740     2.7930    -0.8330 H     1 <1>   0.0800 
 29 H        2.7290     1.1110    -0.4260 H     1 <1>   0.0800 
 30 H        0.8020     3.6120    -2.1160 H     1 <1>   0.1500 
 31 H        1.8580     3.2480     1.5580 H     1 <1>   0.0800 
 32 H        3.4510     2.5400     1.4610 H     1 <1>   0.0800 
 33 H        2.0920     1.5490     1.9250 H     1 <1>   0.0800 
 34 H       -2.8280     3.9020     1.1900 H     1 <1>   0.1500 
 35 H       -1.7740     0.0160     2.0640 H     1 <1>   0.0800 
 36 H       -0.1800     0.2500     1.3630 H     1 <1>   0.0800 
 37 H       -1.6180     0.3160     0.3350 H     1 <1>   0.0800 
 38 H       -2.6250     5.6310    -0.5410 H     1 <1>   0.1500 
 39 H       -1.6010     6.3900    -2.6010 H     1 <1>   0.0800 
 40 H       -0.3930     5.4170    -3.3830 H     1 <1>   0.0800 
 41 H        0.4570     7.3340    -4.1200 H     1 <1>   0.0800 
 42 H        1.8130     7.9250    -3.2050 H     1 <1>   0.0800 
 43 H        0.2560     8.7110    -3.0580 H     1 <1>   0.0800 
 44 H        0.0700     5.5010     0.0680 H     1 <1>   0.4570 
 45 H        0.9870     5.8280     2.2840 H     1 <1>   0.1500 
 46 H        2.5410     7.7730     2.5520 H     1 <1>   0.1500 
 47 H        4.4900     8.5270     2.0680 H     1 <1>   0.0800 
 48 H        4.3790    10.2720     2.1020 H     1 <1>   0.0800 
 49 H        3.1130    11.4600     0.2060 H     1 <1>   0.0800 
 50 H        2.3060    10.5030    -0.9970 H     1 <1>   0.0800 
 51 H        5.8680     8.5440     0.1110 H     1 <1>   0.0800 
 52 H        4.4050    11.4370    -1.8860 H     1 <1>   0.0800 
 53 H        4.4530     9.7010    -1.8570 H     1 <1>   0.0800 
 54 H        6.8880    10.5830     1.7500 H     1 <1>   0.4000 
 55 H        6.5810    10.5680    -1.0230 H     1 <1>   0.0800 
 56 H        5.7450    11.5760     0.1390 H     1 <1>   0.0800 
@<TRIPOS>BOND
  1   1   2  1   
  2   1   3  1   
  3   2   4  ar  
  4   2   5  ar  
  5   3   6  1   
  6   3  28  1   
  7   3  29  1   
  8   4   7  1   
  9   4   8  ar  
 10   5   9  ar  
 11   5  30  1   
 12   6  31  1   
 13   6  32  1   
 14   6  33  1   
 15   7  10  1   
 16   8  11  ar  
 17   8  34  1   
 18   9  11  ar  
 19   9  12  1   
 20  10  35  1   
 21  10  36  1   
 22  10  37  1   
 23  11  38  1   
 24  12  13  1   
 25  12  39  1   
 26  12  40  1   
 27  13  14  1   
 28  13  15  1   
 29  14  16  ar  
 30  14  17  ar  
 31  15  41  1   
 32  15  42  1   
 33  15  43  1   
 34  16  18  ar  
 35  17  19  ar  
 36  17  44  1   
 37  18  20  1   
 38  18  21  ar  
 39  19  21  ar  
 40  19  45  1   
 41  20  22  1   
 42  20  23  1   
 43  21  46  1   
 44  22  24  1   
 45  22  47  1   
 46  22  48  1   
 47  23  25  1   
 48  23  49  1   
 49  23  50  1   
 50  24  26  1   
 51  24  27  1   
 52  24  51  1   
 53  25  27  1   
 54  25  52  1   
 55  25  53  1   
 56  26  54  1   
 57  27  55  1   
 58  27  56  1   
@<TRIPOS>SUBSTRUCTURE
  1 ****  17 GROUP 4 **** **** 0

# MOE 2024.06 (io_trps.svl 2023.06)
