@<TRIPOS>MOLECULE
NONAME
54 56 1 0 0 
SMALL
USER_CHARGES


@<TRIPOS>ATOM
  1 O        3.5360     1.9270     1.6580 O.co2 1 <1>  -0.9000 
  2 C        2.6400     1.1580     1.2830 C.2   1 <1>   0.9060 
  3 O        2.2310     0.2500     2.0070 O.co2 1 <1>  -0.9000 
  4 C        2.2480     1.1250    -0.2010 C.3   1 <1>  -0.1060 
  5 C        2.9400    -0.1570    -0.7090 C.3   1 <1>   0.2000 
  6 C        2.8160     2.3460    -0.9950 C.3   1 <1>  -0.1600 
  7 C        0.7040     1.0460    -0.3370 C.3   1 <1>  -0.0160 
  8 O        2.7430    -0.3010    -2.0860 O.3   1 <1>  -0.6800 
  9 C        4.4650    -0.0850    -0.4300 C.3   1 <1>   0.3430 
 10 C        4.2770     2.1890    -1.4500 C.3   1 <1>   0.3430 
 11 C        0.0010     2.3510     0.0210 C.ar  1 <1>  -0.1440 
 12 N        5.0150     1.3180    -0.5000 N.4   1 <1>  -0.9590 
 13 C       -0.1570     2.7170     1.3490 C.ar  1 <1>  -0.1500 
 14 C       -0.4910     3.1850    -0.9730 C.ar  1 <1>  -0.1500 
 15 C        6.5030     1.3630    -0.5840 C.3   1 <1>   0.4860 
 16 C       -0.7880     3.9030     1.6800 C.ar  1 <1>  -0.1500 
 17 C       -1.1250     4.3710    -0.6440 C.ar  1 <1>  -0.1500 
 18 C        7.0560     2.7640    -0.8500 C.ar  1 <1>   0.1670 
 19 C       -1.2720     4.7320     0.6830 C.ar  1 <1>  -0.1500 
 20 N        6.7560     3.7180     0.0050 N.ar  1 <1>  -0.6200 
 21 C        7.8310     3.0190    -1.9580 C.ar  1 <1>  -0.1500 
 22 C        7.2290     4.9270    -0.2610 C.ar  1 <1>   0.4770 
 23 C        8.2740     4.3060    -2.1410 C.ar  1 <1>   0.1600 
 24 N        7.9750     5.2700    -1.3020 N.ar  1 <1>  -0.6200 
 25 C        6.8580     6.0300     0.7410 C.3   1 <1>   0.0630 
 26 C        5.9080     7.0630     0.1150 C.3   1 <1>  -0.2400 
 27 C        8.0980     6.7310     1.3200 C.3   1 <1>  -0.2400 
 28 H        2.5320    -1.0310    -0.2280 H     1 <1>   0.0800 
 29 H        2.7280     3.2350    -0.3940 H     1 <1>   0.0800 
 30 H        2.2280     2.5160    -1.8790 H     1 <1>   0.0800 
 31 H        0.4380     0.7850    -1.3440 H     1 <1>   0.0800 
 32 H        0.3220     0.2640     0.2980 H     1 <1>   0.0800 
 33 H        1.7920    -0.4390    -2.2690 H     1 <1>   0.4000 
 34 H        4.9700    -0.7280    -1.1280 H     1 <1>   0.0800 
 35 H        4.6360    -0.4620     0.5660 H     1 <1>   0.0800 
 36 H        4.7310     3.1650    -1.5050 H     1 <1>   0.0800 
 37 H        4.2990     1.7410    -2.4300 H     1 <1>   0.0800 
 38 H        4.7550     1.7460     0.4330 H     1 <1>   0.4500 
 39 H        0.2170     2.0800     2.1350 H     1 <1>   0.1500 
 40 H       -0.3840     2.9160    -2.0080 H     1 <1>   0.1500 
 41 H        6.9160     1.0050     0.3440 H     1 <1>   0.0800 
 42 H        6.8320     0.7090    -1.3730 H     1 <1>   0.0800 
 43 H       -0.8980     4.1760     2.7140 H     1 <1>   0.1500 
 44 H       -1.5020     5.0130    -1.4200 H     1 <1>   0.1500 
 45 H       -1.7610     5.6540     0.9420 H     1 <1>   0.1500 
 46 H        8.0890     2.2520    -2.6650 H     1 <1>   0.1500 
 47 H        8.8860     4.5550    -2.9930 H     1 <1>   0.1500 
 48 H        6.3360     5.5660     1.5620 H     1 <1>   0.0800 
 49 H        6.3890     7.5650    -0.7060 H     1 <1>   0.0800 
 50 H        5.6120     7.7940     0.8460 H     1 <1>   0.0800 
 51 H        5.0250     6.5710    -0.2530 H     1 <1>   0.0800 
 52 H        8.6390     7.2430     0.5430 H     1 <1>   0.0800 
 53 H        8.7510     6.0050     1.7700 H     1 <1>   0.0800 
 54 H        7.8100     7.4450     2.0700 H     1 <1>   0.0800 
@<TRIPOS>BOND
  1   1   2  ar  
  2   2   3  ar  
  3   2   4  1   
  4   4   5  1   
  5   4   6  1   
  6   4   7  1   
  7   5   8  1   
  8   5   9  1   
  9   5  28  1   
 10   6  10  1   
 11   6  29  1   
 12   6  30  1   
 13   7  11  1   
 14   7  31  1   
 15   7  32  1   
 16   8  33  1   
 17   9  12  1   
 18   9  34  1   
 19   9  35  1   
 20  10  12  1   
 21  10  36  1   
 22  10  37  1   
 23  11  13  ar  
 24  11  14  ar  
 25  12  15  1   
 26  12  38  1   
 27  13  16  ar  
 28  13  39  1   
 29  14  17  ar  
 30  14  40  1   
 31  15  18  1   
 32  15  41  1   
 33  15  42  1   
 34  16  19  ar  
 35  16  43  1   
 36  17  19  ar  
 37  17  44  1   
 38  18  20  ar  
 39  18  21  ar  
 40  19  45  1   
 41  20  22  ar  
 42  21  23  ar  
 43  21  46  1   
 44  22  24  ar  
 45  22  25  1   
 46  23  24  ar  
 47  23  47  1   
 48  25  26  1   
 49  25  27  1   
 50  25  48  1   
 51  26  49  1   
 52  26  50  1   
 53  26  51  1   
 54  27  52  1   
 55  27  53  1   
 56  27  54  1   
@<TRIPOS>SUBSTRUCTURE
  1 ****   6 GROUP 4 **** **** 0

# MOE 2024.06 (io_trps.svl 2023.06)
