@<TRIPOS>MOLECULE
NONAME
52 53 1 0 0 
SMALL
USER_CHARGES


@<TRIPOS>ATOM
  1 S        2.3810     0.2730    -1.9460 S.o2  1 <1>   1.3330 
  2 O        2.3280    -1.1480    -1.6830 O.2   1 <1>  -0.6500 
  3 O        2.8150     0.7460    -3.2410 O.2   1 <1>  -0.6500 
  4 N        0.8270     0.9080    -1.6790 N.am  1 <1>  -0.8490 
  5 C        3.3760     1.0410    -0.6660 C.3   1 <1>  -0.0550 
  6 C        0.6450     2.2510    -2.2400 C.3   1 <1>   0.1160 
  7 C       -0.2250     0.0170    -2.1800 C.3   1 <1>   0.1160 
  8 C        3.0940     0.5170     0.7590 C.3   1 <1>  -0.0800 
  9 C        4.0060     1.0740     1.8420 C.3   1 <1>   0.2200 
 10 C        1.6950     0.8210     1.3100 C.3   1 <1>   0.1200 
 11 N        4.1710     2.5400     1.6930 N.am  1 <1>  -0.7300 
 12 C        3.1570     0.8060     3.0760 C.3   1 <1>   0.1200 
 13 O        1.8480     1.0790     2.6770 O.3   1 <1>  -0.5600 
 14 C        5.2210     3.1630     1.0840 C.2   1 <1>   0.5440 
 15 O        6.0820     2.4690     0.5800 O.2   1 <1>  -0.5700 
 16 C        5.2760     4.6110     1.0040 C.ar  1 <1>   0.0860 
 17 C        5.8770     5.2440    -0.0840 C.ar  1 <1>  -0.1500 
 18 C        4.7290     5.4280     1.9940 C.ar  1 <1>  -0.1500 
 19 C        5.9250     6.6220    -0.2020 C.ar  1 <1>  -0.1440 
 20 C        4.7650     6.8060     1.8940 C.ar  1 <1>  -0.1500 
 21 C        5.3590     7.4170     0.7920 C.ar  1 <1>   0.0820 
 22 C        6.5920     7.2330    -1.4290 C.3   1 <1>   0.1220 
 23 O        5.4100     8.7630     0.6420 O.3   1 <1>  -0.3630 
 24 C        5.5810     7.3790    -2.5530 C.2   1 <1>  -0.2880 
 25 C        4.8590     9.6510     1.5880 C.3   1 <1>   0.0400 
 26 C        5.6580     6.7830    -3.7470 C.2   1 <1>  -0.3000 
 27 H        4.4100     0.8530    -0.8860 H     1 <1>   0.0800 
 28 H        3.2350     2.1030    -0.7010 H     1 <1>   0.0800 
 29 H       -0.3220     2.6380    -1.9670 H     1 <1>   0.0800 
 30 H        0.7200     2.2250    -3.3160 H     1 <1>   0.0800 
 31 H        1.3970     2.9200    -1.8600 H     1 <1>   0.0800 
 32 H       -1.1960     0.4390    -1.9860 H     1 <1>   0.0800 
 33 H       -0.1690    -0.9370    -1.6820 H     1 <1>   0.0800 
 34 H       -0.1090    -0.1390    -3.2400 H     1 <1>   0.0800 
 35 H        3.2110    -0.5530     0.7510 H     1 <1>   0.0800 
 36 H        4.9640     0.5820     1.8820 H     1 <1>   0.0800 
 37 H        1.0240    -0.0110     1.1800 H     1 <1>   0.0800 
 38 H        1.2720     1.7020     0.8610 H     1 <1>   0.0800 
 39 H        3.3620     3.0780     2.0120 H     1 <1>   0.3700 
 40 H        3.4230     1.4290     3.9120 H     1 <1>   0.0800 
 41 H        3.2080    -0.2320     3.3580 H     1 <1>   0.0800 
 42 H        6.3090     4.6290    -0.8550 H     1 <1>   0.1500 
 43 H        4.2740     4.9790     2.8590 H     1 <1>   0.1500 
 44 H        4.3290     7.3890     2.6820 H     1 <1>   0.1500 
 45 H        7.0110     8.1950    -1.1940 H     1 <1>   0.0800 
 46 H        7.4040     6.6030    -1.7480 H     1 <1>   0.0800 
 47 H        4.7680     8.0310    -2.2800 H     1 <1>   0.1500 
 48 H        5.0230    10.6550     1.2380 H     1 <1>   0.0800 
 49 H        5.3550     9.5080     2.5310 H     1 <1>   0.0800 
 50 H        3.8040     9.4620     1.6720 H     1 <1>   0.0800 
 51 H        4.9240     6.9050    -4.5260 H     1 <1>   0.1500 
 52 H        6.4550     6.1250    -4.0490 H     1 <1>   0.1500 
@<TRIPOS>BOND
  1   1   2  2   
  2   1   3  2   
  3   1   4  am  
  4   1   5  1   
  5   4   6  1   
  6   4   7  1   
  7   5   8  1   
  8   5  27  1   
  9   5  28  1   
 10   6  29  1   
 11   6  30  1   
 12   6  31  1   
 13   7  32  1   
 14   7  33  1   
 15   7  34  1   
 16   8   9  1   
 17   8  10  1   
 18   8  35  1   
 19   9  11  1   
 20   9  12  1   
 21   9  36  1   
 22  10  13  1   
 23  10  37  1   
 24  10  38  1   
 25  11  14  am  
 26  11  39  1   
 27  12  13  1   
 28  12  40  1   
 29  12  41  1   
 30  14  15  2   
 31  14  16  1   
 32  16  17  ar  
 33  16  18  ar  
 34  17  19  ar  
 35  17  42  1   
 36  18  20  ar  
 37  18  43  1   
 38  19  21  ar  
 39  19  22  1   
 40  20  21  ar  
 41  20  44  1   
 42  21  23  1   
 43  22  24  1   
 44  22  45  1   
 45  22  46  1   
 46  23  25  1   
 47  24  26  2   
 48  24  47  1   
 49  25  48  1   
 50  25  49  1   
 51  25  50  1   
 52  26  51  1   
 53  26  52  1   
@<TRIPOS>SUBSTRUCTURE
  1 ****  14 GROUP 4 **** **** 0

# MOE 2024.06 (io_trps.svl 2023.06)
