@<TRIPOS>MOLECULE
NONAME
46 50 1 0 0 
SMALL
USER_CHARGES


@<TRIPOS>ATOM
  1 O       -0.2240     0.6390    -0.3740 O.3   1 <1>  -0.0190 
  2 N       -1.4240     0.3420    -0.7350 N.2   1 <1>  -0.4100 
  3 C       -0.1720     1.8770     0.0370 C.2   1 <1>   0.4250 
  4 C       -2.0740     1.4280    -0.5280 C.2   1 <1>   0.5990 
  5 N       -1.3290     2.4270    -0.0410 N.2   1 <1>  -0.5650 
  6 C        1.0680     2.4610     0.5010 C.ar  1 <1>   0.0530 
  7 N       -3.4360     1.6090    -0.7790 N.pl3 1 <1>  -0.8210 
  8 C        2.2680     1.7460     0.4950 C.ar  1 <1>  -0.1500 
  9 C        1.1090     3.7730     0.9750 C.ar  1 <1>  -0.1500 
 10 C       -4.1510     2.6470     0.0360 C.3   1 <1>   0.2090 
 11 C       -4.2500     0.3820    -1.0070 C.3   1 <1>   0.2090 
 12 C        3.4490     2.3120     0.9410 C.ar  1 <1>  -0.1500 
 13 C        2.2860     4.3460     1.4220 C.ar  1 <1>  -0.1500 
 14 C       -5.4770     3.0630    -0.6290 C.3   1 <1>   0.1430 
 15 C       -5.5840     0.7460    -1.6710 C.3   1 <1>  -0.1600 
 16 C        3.4600     3.6150     1.4060 C.ar  1 <1>  -0.1500 
 17 C       -6.1570     4.0860     0.2600 C.ar  1 <1>   0.1670 
 18 C       -6.3520     1.8150    -0.8750 C.3   1 <1>  -0.1600 
 19 C       -5.2260     3.8660    -1.9340 C.3   1 <1>  -0.1600 
 20 N       -6.7510     3.8300     1.4020 N.ar  1 <1>  -0.6200 
 21 C       -6.0640     5.3440    -0.2610 C.ar  1 <1>  -0.1440 
 22 C       -5.3120     5.3580    -1.5690 C.3   1 <1>  -0.0170 
 23 C       -7.2520     4.9000     2.0010 C.ar  1 <1>   0.7200 
 24 C       -6.6330     6.3750     0.4460 C.ar  1 <1>   0.1600 
 25 N       -7.2420     6.1600     1.5910 N.ar  1 <1>  -0.6200 
 26 N       -7.8700     4.6750     3.1610 N.pl3 1 <1>  -0.9000 
 27 H        2.2830     0.7310     0.1370 H     1 <1>   0.1500 
 28 H        0.2020     4.3530     0.9930 H     1 <1>   0.1500 
 29 H       -3.5380     3.5230     0.1540 H     1 <1>   0.0800 
 30 H       -4.3520     2.2490     1.0160 H     1 <1>   0.0800 
 31 H       -4.4280    -0.1050    -0.0630 H     1 <1>   0.0800 
 32 H       -3.7160    -0.3020    -1.6460 H     1 <1>   0.0800 
 33 H        4.3610     1.7410     0.9270 H     1 <1>   0.1500 
 34 H        2.2900     5.3600     1.7830 H     1 <1>   0.1500 
 35 H       -6.1860    -0.1410    -1.7560 H     1 <1>   0.0800 
 36 H       -5.3850     1.0980    -2.6680 H     1 <1>   0.0800 
 37 H        4.3770     4.0580     1.7540 H     1 <1>   0.1500 
 38 H       -7.2540     2.0900    -1.3920 H     1 <1>   0.0800 
 39 H       -6.6380     1.3990     0.0760 H     1 <1>   0.0800 
 40 H       -6.0040     3.6510    -2.6450 H     1 <1>   0.0800 
 41 H       -4.2800     3.6240    -2.3870 H     1 <1>   0.0800 
 42 H       -5.8320     5.9210    -2.3240 H     1 <1>   0.0800 
 43 H       -4.3280     5.7670    -1.4160 H     1 <1>   0.0800 
 44 H       -6.5880     7.3830     0.0720 H     1 <1>   0.1500 
 45 H       -8.5050     5.4110     3.4570 H     1 <1>   0.4000 
 46 H       -8.1690     3.7170     3.3120 H     1 <1>   0.4000 
@<TRIPOS>BOND
  1   1   2  1   
  2   1   3  1   
  3   2   4  2   
  4   3   5  2   
  5   3   6  1   
  6   4   5  1   
  7   4   7  1   
  8   6   8  ar  
  9   6   9  ar  
 10   7  10  1   
 11   7  11  1   
 12   8  12  ar  
 13   8  27  1   
 14   9  13  ar  
 15   9  28  1   
 16  10  14  1   
 17  10  29  1   
 18  10  30  1   
 19  11  15  1   
 20  11  31  1   
 21  11  32  1   
 22  12  16  ar  
 23  12  33  1   
 24  13  16  ar  
 25  13  34  1   
 26  14  17  1   
 27  14  18  1   
 28  14  19  1   
 29  15  18  1   
 30  15  35  1   
 31  15  36  1   
 32  16  37  1   
 33  17  20  ar  
 34  17  21  ar  
 35  18  38  1   
 36  18  39  1   
 37  19  22  1   
 38  19  40  1   
 39  19  41  1   
 40  20  23  ar  
 41  21  22  1   
 42  21  24  ar  
 43  22  42  1   
 44  22  43  1   
 45  23  25  ar  
 46  23  26  1   
 47  24  25  ar  
 48  24  44  1   
 49  26  45  1   
 50  26  46  1   
@<TRIPOS>SUBSTRUCTURE
  1 ****  10 GROUP 4 **** **** 0

# MOE 2024.06 (io_trps.svl 2023.06)
