@<TRIPOS>MOLECULE
NONAME
53 57 1 0 0 
SMALL
USER_CHARGES


@<TRIPOS>ATOM
  1 O        1.3090    -0.0770     0.1590 O.3   1 <1>  -0.5600 
  2 C        2.1670    -1.0500     0.7310 C.3   1 <1>   0.4600 
  3 C       -0.0850    -0.2640     0.2810 C.3   1 <1>   0.1200 
  4 C        1.5700    -2.4380     0.5540 C.2   1 <1>  -0.3320 
  5 C        2.3780    -0.6920     2.2060 C.3   1 <1>  -0.1600 
  6 C        3.5010    -0.9330    -0.0190 C.3   1 <1>  -0.1600 
  7 C       -0.5410    -1.5450    -0.4340 C.3   1 <1>   0.0210 
  8 N        2.1440    -3.6370     0.8880 N.pl3 1 <1>   0.0330 
  9 C        0.3530    -2.6690     0.0210 C.2   1 <1>  -0.1810 
 10 C        2.9260     0.7300     2.3910 C.3   1 <1>   0.3430 
 11 C        4.3370     0.2830     0.3940 C.3   1 <1>   0.3430 
 12 C        1.2680    -4.6380     0.5480 C.ar  1 <1>  -0.1520 
 13 C        0.1290    -4.0600    -0.0040 C.ar  1 <1>   0.0000 
 14 N        3.4790     1.2620     1.1140 N.4   1 <1>  -0.9590 
 15 C        1.3770    -6.0250     0.6780 C.ar  1 <1>  -0.1500 
 16 C       -0.9210    -4.8760    -0.4360 C.ar  1 <1>  -0.1500 
 17 C        4.0730     2.6170     1.2240 C.3   1 <1>   0.5240 
 18 C        0.3360    -6.8160     0.2500 C.ar  1 <1>  -0.1500 
 19 C       -0.8130    -6.2420    -0.3080 C.ar  1 <1>  -0.1500 
 20 C        4.4050     3.1030    -0.1700 C.2   1 <1>  -0.1810 
 21 C        3.4910     3.3510    -1.1930 C.2   1 <1>   0.1080 
 22 C        5.6160     3.3700    -0.7110 C.2   1 <1>  -0.3320 
 23 N        4.0780     3.7260    -2.2810 N.2   1 <1>  -0.7070 
 24 C        1.9840     3.2180    -1.1350 C.3   1 <1>  -0.0590 
 25 N        5.3880     3.7520    -1.9870 N.pl3 1 <1>   0.3000 
 26 C        7.0140     3.3030    -0.1170 C.3   1 <1>  -0.0600 
 27 H       -0.5750     0.5910    -0.1500 H     1 <1>   0.0800 
 28 H       -0.3350    -0.3170     1.3260 H     1 <1>   0.0800 
 29 H        3.0740    -1.3880     2.6360 H     1 <1>   0.0800 
 30 H        1.4580    -0.8060     2.7500 H     1 <1>   0.0800 
 31 H        3.3030    -0.8990    -1.0760 H     1 <1>   0.0800 
 32 H        4.0960    -1.8100     0.1530 H     1 <1>   0.0800 
 33 H       -0.4660    -1.4250    -1.5000 H     1 <1>   0.0800 
 34 H       -1.5630    -1.7590    -0.1810 H     1 <1>   0.0800 
 35 H        3.0650    -3.8020     1.3050 H     1 <1>   0.2700 
 36 H        3.6860     0.7250     3.1550 H     1 <1>   0.0800 
 37 H        2.1230     1.3710     2.7190 H     1 <1>   0.0800 
 38 H        4.7630     0.7310    -0.4910 H     1 <1>   0.0800 
 39 H        5.1450    -0.0280     1.0370 H     1 <1>   0.0800 
 40 H        2.6600     1.3520     0.4840 H     1 <1>   0.4500 
 41 H        2.2610    -6.4610     1.1070 H     1 <1>   0.1500 
 42 H       -1.7970    -4.4240    -0.8640 H     1 <1>   0.1500 
 43 H        4.9680     2.5850     1.8220 H     1 <1>   0.0800 
 44 H        3.3740     3.2970     1.6820 H     1 <1>   0.0800 
 45 H        0.3950    -7.8870     0.3380 H     1 <1>   0.1500 
 46 H       -1.6120    -6.8830    -0.6360 H     1 <1>   0.1500 
 47 H        1.6160     3.3790    -0.1400 H     1 <1>   0.0800 
 48 H        1.6910     2.2430    -1.4790 H     1 <1>   0.0800 
 49 H        1.5390     3.9520    -1.7840 H     1 <1>   0.0800 
 50 H        6.0940     4.0360    -2.6790 H     1 <1>   0.2700 
 51 H        6.9860     2.9780     0.9070 H     1 <1>   0.0800 
 52 H        7.4750     4.2760    -0.1490 H     1 <1>   0.0800 
 53 H        7.6250     2.6170    -0.6770 H     1 <1>   0.0800 
@<TRIPOS>BOND
  1   1   2  1   
  2   1   3  1   
  3   2   4  1   
  4   2   5  1   
  5   2   6  1   
  6   3   7  1   
  7   3  27  1   
  8   3  28  1   
  9   4   8  1   
 10   4   9  2   
 11   5  10  1   
 12   5  29  1   
 13   5  30  1   
 14   6  11  1   
 15   6  31  1   
 16   6  32  1   
 17   7   9  1   
 18   7  33  1   
 19   7  34  1   
 20   8  12  1   
 21   8  35  1   
 22   9  13  1   
 23  10  14  1   
 24  10  36  1   
 25  10  37  1   
 26  11  14  1   
 27  11  38  1   
 28  11  39  1   
 29  12  13  ar  
 30  12  15  ar  
 31  13  16  ar  
 32  14  17  1   
 33  14  40  1   
 34  15  18  ar  
 35  15  41  1   
 36  16  19  ar  
 37  16  42  1   
 38  17  20  1   
 39  17  43  1   
 40  17  44  1   
 41  18  19  ar  
 42  18  45  1   
 43  19  46  1   
 44  20  21  1   
 45  20  22  2   
 46  21  23  2   
 47  21  24  1   
 48  22  25  1   
 49  22  26  1   
 50  23  25  1   
 51  24  47  1   
 52  24  48  1   
 53  24  49  1   
 54  25  50  1   
 55  26  51  1   
 56  26  52  1   
 57  26  53  1   
@<TRIPOS>SUBSTRUCTURE
  1 ****   2 GROUP 4 **** **** 0

# MOE 2024.06 (io_trps.svl 2023.06)
