@<TRIPOS>MOLECULE
NONAME
52 55 1 0 0 
SMALL
USER_CHARGES


@<TRIPOS>ATOM
  1 O       -0.6920     0.2320    -0.6400 O.2   1 <1>  -0.5700 
  2 C       -1.5460     0.8840    -0.0690 C.2   1 <1>   0.5440 
  3 N       -2.6120     0.2190     0.4970 N.am  1 <1>  -0.6600 
  4 C       -1.4320     2.3300    -0.0230 C.ar  1 <1>   0.0860 
  5 C       -2.6010    -1.2650     0.6910 C.3   1 <1>   0.1400 
  6 C       -3.9890     0.7980     0.5650 C.3   1 <1>   0.1400 
  7 C       -1.0160     3.0570    -1.1370 C.ar  1 <1>  -0.1500 
  8 C       -1.7280     3.0570     1.1300 C.ar  1 <1>  -0.1500 
  9 C       -3.6380    -1.9450    -0.2180 C.3   1 <1>   0.3440 
 10 C       -4.9670     0.0050    -0.3340 C.3   1 <1>   0.2000 
 11 C       -0.9200     4.4350    -1.1090 C.ar  1 <1>  -0.1500 
 12 C       -1.6350     4.4350     1.1590 C.ar  1 <1>  -0.1500 
 13 O       -4.8990    -1.3590    -0.0190 O.3   1 <1>  -0.5600 
 14 C       -3.7130    -3.4410     0.0760 C.ar  1 <1>  -0.1430 
 15 C       -6.4370     0.4620    -0.1850 C.3   1 <1>  -0.0800 
 16 C       -1.2320     5.1620     0.0390 C.ar  1 <1>   0.0530 
 17 C       -4.5850    -3.9540     1.0280 C.ar  1 <1>  -0.1500 
 18 C       -2.8820    -4.3140    -0.6130 C.ar  1 <1>  -0.1500 
 19 C       -7.3780    -0.3720    -1.0720 C.3   1 <1>  -0.2400 
 20 C       -6.6250     1.9490    -0.5330 C.3   1 <1>  -0.2400 
 21 C       -1.1380     6.6030     0.0650 C.2   1 <1>   0.0870 
 22 C       -4.6250    -5.3130     1.2870 C.ar  1 <1>  -0.1500 
 23 C       -2.9210    -5.6740    -0.3550 C.ar  1 <1>  -0.1500 
 24 O       -1.5300     7.2950     1.1100 O.3   1 <1>  -0.2800 
 25 C       -0.6950     7.5150    -0.8300 C.2   1 <1>   0.0770 
 26 C       -3.7920    -6.1740     0.5960 C.ar  1 <1>  -0.1500 
 27 C       -1.3190     8.5540     0.8220 C.2   1 <1>   0.3280 
 28 N       -0.8150     8.7620    -0.3400 N.2   1 <1>  -0.5650 
 29 H       -1.6270    -1.6710     0.4810 H     1 <1>   0.0800 
 30 H       -2.8320    -1.4910     1.7160 H     1 <1>   0.0800 
 31 H       -4.3370     0.7680     1.5820 H     1 <1>   0.0800 
 32 H       -3.9740     1.8230     0.2460 H     1 <1>   0.0800 
 33 H       -0.7620     2.5190    -2.0360 H     1 <1>   0.1500 
 34 H       -2.0320     2.5260     2.0160 H     1 <1>   0.1500 
 35 H       -3.3630    -1.8000    -1.2480 H     1 <1>   0.0800 
 36 H       -4.6720     0.1200    -1.3640 H     1 <1>   0.0800 
 37 H       -0.5970     4.9520    -1.9940 H     1 <1>   0.1500 
 38 H       -1.8730     4.9610     2.0670 H     1 <1>   0.1500 
 39 H       -6.7290     0.3200     0.8420 H     1 <1>   0.0800 
 40 H       -5.2390    -3.2920     1.5690 H     1 <1>   0.1500 
 41 H       -2.1980    -3.9380    -1.3540 H     1 <1>   0.1500 
 42 H       -7.1070    -0.2760    -2.1080 H     1 <1>   0.0800 
 43 H       -8.3970    -0.0510    -0.9490 H     1 <1>   0.0800 
 44 H       -7.3250    -1.4130    -0.8020 H     1 <1>   0.0800 
 45 H       -6.2790     2.1510    -1.5320 H     1 <1>   0.0800 
 46 H       -6.0930     2.5810     0.1540 H     1 <1>   0.0800 
 47 H       -7.6670     2.2140    -0.4760 H     1 <1>   0.0800 
 48 H       -5.3060    -5.6980     2.0250 H     1 <1>   0.1500 
 49 H       -2.2720    -6.3420    -0.8940 H     1 <1>   0.1500 
 50 H       -0.2920     7.3400    -1.8120 H     1 <1>   0.1500 
 51 H       -3.8230    -7.2310     0.7960 H     1 <1>   0.1500 
 52 H       -1.5740     9.3050     1.5510 H     1 <1>   0.1500 
@<TRIPOS>BOND
  1   1   2  2   
  2   2   3  am  
  3   2   4  1   
  4   3   5  1   
  5   3   6  1   
  6   4   7  ar  
  7   4   8  ar  
  8   5   9  1   
  9   5  29  1   
 10   5  30  1   
 11   6  10  1   
 12   6  31  1   
 13   6  32  1   
 14   7  11  ar  
 15   7  33  1   
 16   8  12  ar  
 17   8  34  1   
 18   9  13  1   
 19   9  14  1   
 20   9  35  1   
 21  10  13  1   
 22  10  15  1   
 23  10  36  1   
 24  11  16  ar  
 25  11  37  1   
 26  12  16  ar  
 27  12  38  1   
 28  14  17  ar  
 29  14  18  ar  
 30  15  19  1   
 31  15  20  1   
 32  15  39  1   
 33  16  21  1   
 34  17  22  ar  
 35  17  40  1   
 36  18  23  ar  
 37  18  41  1   
 38  19  42  1   
 39  19  43  1   
 40  19  44  1   
 41  20  45  1   
 42  20  46  1   
 43  20  47  1   
 44  21  24  1   
 45  21  25  2   
 46  22  26  ar  
 47  22  48  1   
 48  23  26  ar  
 49  23  49  1   
 50  24  27  1   
 51  25  28  1   
 52  25  50  1   
 53  26  51  1   
 54  27  28  2   
 55  27  52  1   
@<TRIPOS>SUBSTRUCTURE
  1 ****   3 GROUP 4 **** **** 0

# MOE 2024.06 (io_trps.svl 2023.06)
