@<TRIPOS>MOLECULE
NONAME
52 54 1 0 0 
SMALL
USER_CHARGES


@<TRIPOS>ATOM
  1 O        0.7720     1.1300    -0.4900 O.co2 1 <1>  -0.9000 
  2 C       -0.3800     1.4580    -0.8060 C.2   1 <1>   0.9060 
  3 O       -0.8190     1.2530    -1.9510 O.co2 1 <1>  -0.9000 
  4 C       -1.3180     1.9940     0.3100 C.3   1 <1>   0.2280 
  5 N       -2.6480     1.3170     0.3530 N.3   1 <1>  -0.6890 
  6 C       -1.5830     3.5000     0.2420 C.ar  1 <1>  -0.1440 
  7 C       -3.2970     1.2600     1.6860 C.3   1 <1>   0.2100 
  8 C       -2.5020    -0.1620     0.4490 C.3   1 <1>   0.2100 
  9 C       -1.4140     4.2950     1.3660 C.ar  1 <1>  -0.1500 
 10 C       -2.0130     4.0860    -0.9390 C.ar  1 <1>  -0.1500 
 11 C       -3.8750    -0.0980     1.1750 C.3   1 <1>   0.4720 
 12 C       -1.6800     5.6520     1.3090 C.ar  1 <1>  -0.1500 
 13 C       -2.2780     5.4430    -1.0000 C.ar  1 <1>  -0.1500 
 14 N       -5.0140     0.0760     0.2080 N.4   1 <1>  -0.9280 
 15 C       -2.1150     6.2380     0.1310 C.ar  1 <1>   0.0830 
 16 C       -6.2480     0.5950     0.8500 C.3   1 <1>   0.3430 
 17 C       -5.2350    -1.1270    -0.6380 C.3   1 <1>   0.3430 
 18 O       -2.3510     7.5750     0.1710 O.3   1 <1>  -0.3630 
 19 C       -7.2810     0.9380    -0.2250 C.3   1 <1>  -0.1600 
 20 C       -6.2590    -0.8060    -1.7290 C.3   1 <1>  -0.1600 
 21 C       -2.7410     8.3210    -0.9600 C.3   1 <1>   0.2000 
 22 C       -7.5670    -0.2580    -1.1440 C.3   1 <1>  -0.1600 
 23 C       -2.3390     9.7710    -0.6990 C.3   1 <1>  -0.2400 
 24 C       -4.2550     8.1930    -1.1380 C.3   1 <1>  -0.2400 
 25 H       -0.7970     1.7880     1.2260 H     1 <1>   0.0800 
 26 H       -4.0200     2.0430     1.8270 H     1 <1>   0.0000 
 27 H       -2.5890     1.1600     2.4930 H     1 <1>   0.0000 
 28 H       -1.6860    -0.4620     1.0860 H     1 <1>   0.0000 
 29 H       -2.5090    -0.6430    -0.5120 H     1 <1>   0.0000 
 30 H       -1.0730     3.8610     2.2880 H     1 <1>   0.1500 
 31 H       -2.1360     3.4740    -1.8180 H     1 <1>   0.1500 
 32 H       -4.0460    -0.8500     1.9240 H     1 <1>   0.0000 
 33 H       -1.5480     6.2680     2.1790 H     1 <1>   0.1500 
 34 H       -2.6050     5.8520    -1.9350 H     1 <1>   0.1500 
 35 H       -4.6290     0.8170    -0.4090 H     1 <1>   0.4500 
 36 H       -6.0230     1.4800     1.4230 H     1 <1>   0.0800 
 37 H       -6.6520    -0.1510     1.5150 H     1 <1>   0.0800 
 38 H       -5.5980    -1.9380    -0.0280 H     1 <1>   0.0800 
 39 H       -4.3100    -1.4330    -1.1000 H     1 <1>   0.0800 
 40 H       -6.9220     1.7690    -0.8070 H     1 <1>   0.0800 
 41 H       -8.1950     1.2500     0.2510 H     1 <1>   0.0800 
 42 H       -6.4640    -1.6990    -2.2930 H     1 <1>   0.0800 
 43 H       -5.8320    -0.0880    -2.4090 H     1 <1>   0.0800 
 44 H       -2.2060     7.9570    -1.8200 H     1 <1>   0.0800 
 45 H       -8.2250     0.0450    -1.9420 H     1 <1>   0.0800 
 46 H       -8.0650    -1.0330    -0.5840 H     1 <1>   0.0800 
 47 H       -2.8350    10.1450     0.1790 H     1 <1>   0.0800 
 48 H       -2.6110    10.3850    -1.5370 H     1 <1>   0.0800 
 49 H       -1.2750     9.8330    -0.5600 H     1 <1>   0.0800 
 50 H       -4.7640     8.5540    -0.2620 H     1 <1>   0.0800 
 51 H       -4.5310     7.1690    -1.3070 H     1 <1>   0.0800 
 52 H       -4.5750     8.7740    -1.9840 H     1 <1>   0.0800 
@<TRIPOS>BOND
  1   1   2  ar  
  2   2   3  ar  
  3   2   4  1   
  4   4   5  1   
  5   4   6  1   
  6   4  25  1   
  7   5   7  1   
  8   5   8  1   
  9   6   9  ar  
 10   6  10  ar  
 11   7  11  1   
 12   7  26  1   
 13   7  27  1   
 14   8  11  1   
 15   8  28  1   
 16   8  29  1   
 17   9  12  ar  
 18   9  30  1   
 19  10  13  ar  
 20  10  31  1   
 21  11  14  1   
 22  11  32  1   
 23  12  15  ar  
 24  12  33  1   
 25  13  15  ar  
 26  13  34  1   
 27  14  16  1   
 28  14  17  1   
 29  14  35  1   
 30  15  18  1   
 31  16  19  1   
 32  16  36  1   
 33  16  37  1   
 34  17  20  1   
 35  17  38  1   
 36  17  39  1   
 37  18  21  1   
 38  19  22  1   
 39  19  40  1   
 40  19  41  1   
 41  20  22  1   
 42  20  42  1   
 43  20  43  1   
 44  21  23  1   
 45  21  24  1   
 46  21  44  1   
 47  22  45  1   
 48  22  46  1   
 49  23  47  1   
 50  23  48  1   
 51  23  49  1   
 52  24  50  1   
 53  24  51  1   
 54  24  52  1   
@<TRIPOS>SUBSTRUCTURE
  1 ****   6 GROUP 4 **** **** 0

# MOE 2024.06 (io_trps.svl 2023.06)
