@<TRIPOS>MOLECULE
NONAME
50 52 1 0 0 
SMALL
USER_CHARGES


@<TRIPOS>ATOM
  1 O        0.6450    -2.3680     3.2420 O.2   1 <1>  -0.5700 
  2 C        0.6280    -2.5290     2.0470 C.2   1 <1>   0.5690 
  3 N        1.7900    -2.8100     1.4050 N.am  1 <1>  -0.7300 
  4 C       -0.6890    -2.3690     1.2860 C.3   1 <1>   0.2010 
  5 C        2.0540    -2.8800    -0.0460 C.3   1 <1>   0.1400 
  6 N       -1.0030    -3.5260     0.3770 N.am  1 <1>  -0.6600 
  7 C        1.1850    -3.9350    -0.7380 C.3   1 <1>  -0.1600 
  8 C       -1.7720    -4.5710     0.8390 C.2   1 <1>   0.5690 
  9 C       -0.2790    -3.5200    -0.9210 C.3   1 <1>   0.1400 
 10 O       -2.2090    -4.5550     1.9690 O.2   1 <1>  -0.5700 
 11 C       -2.1110    -5.7750    -0.0630 C.3   1 <1>   0.2610 
 12 O       -0.9560    -6.5620    -0.3180 O.3   1 <1>  -0.5600 
 13 C       -3.2630    -6.6330     0.5280 C.3   1 <1>   0.3640 
 14 C       -1.1490    -7.6230    -1.2280 C.3   1 <1>   0.1810 
 15 N       -3.3440    -7.9680    -0.1110 N.am  1 <1>  -0.7300 
 16 C       -4.6030    -5.9260     0.3410 C.ar  1 <1>  -0.1430 
 17 C       -2.3780    -8.4770    -0.9070 C.2   1 <1>   0.5690 
 18 C       -5.2210    -5.8710    -0.9000 C.ar  1 <1>  -0.1500 
 19 C       -5.2190    -5.3070     1.4170 C.ar  1 <1>  -0.1500 
 20 O       -2.4900    -9.5780    -1.3830 O.2   1 <1>  -0.5700 
 21 C       -6.4250    -5.2130    -1.0820 C.ar  1 <1>   0.0820 
 22 C       -6.4200    -4.6390     1.2550 C.ar  1 <1>  -0.1500 
 23 O       -6.9050    -5.2500    -2.3570 O.3   1 <1>  -0.3630 
 24 C       -7.0370    -4.5720     0.0080 C.ar  1 <1>   0.0820 
 25 C       -8.2910    -5.2610    -2.6160 C.3   1 <1>   0.0400 
 26 O       -8.2020    -3.8820    -0.1700 O.3   1 <1>  -0.3630 
 27 C       -8.7500    -3.0630     0.8400 C.3   1 <1>   0.0400 
 28 H        2.5980    -2.9290     2.0200 H     1 <1>   0.3700 
 29 H       -0.6440    -1.4630     0.7120 H     1 <1>   0.0800 
 30 H       -1.4770    -2.2490     2.0080 H     1 <1>   0.0800 
 31 H        1.8920    -1.9120    -0.4880 H     1 <1>   0.0800 
 32 H        3.0910    -3.1370    -0.1860 H     1 <1>   0.0800 
 33 H        1.2450    -4.8720    -0.2110 H     1 <1>   0.0800 
 34 H        1.5960    -4.0980    -1.7180 H     1 <1>   0.0800 
 35 H       -0.7470    -4.1980    -1.6110 H     1 <1>   0.0800 
 36 H       -0.3330    -2.5370    -1.3570 H     1 <1>   0.0800 
 37 H       -2.4450    -5.3850    -1.0060 H     1 <1>   0.0800 
 38 H       -3.0830    -6.7870     1.5780 H     1 <1>   0.0800 
 39 H       -1.2500    -7.2110    -2.2140 H     1 <1>   0.0800 
 40 H       -0.2710    -8.2420    -1.1990 H     1 <1>   0.0800 
 41 H       -4.1720    -8.5300     0.0860 H     1 <1>   0.3700 
 42 H       -4.7730    -6.3480    -1.7540 H     1 <1>   0.1500 
 43 H       -4.7580    -5.3310     2.3920 H     1 <1>   0.1500 
 44 H       -6.8510    -4.1740     2.1200 H     1 <1>   0.1500 
 45 H       -8.4440    -5.6500    -3.6060 H     1 <1>   0.0800 
 46 H       -8.6620    -4.2530    -2.5610 H     1 <1>   0.0800 
 47 H       -8.7800    -5.8880    -1.8920 H     1 <1>   0.0800 
 48 H       -9.6140    -2.5680     0.4350 H     1 <1>   0.0800 
 49 H       -8.0170    -2.3340     1.1360 H     1 <1>   0.0800 
 50 H       -9.0410    -3.6800     1.6720 H     1 <1>   0.0800 
@<TRIPOS>BOND
  1   1   2  2   
  2   2   3  am  
  3   2   4  1   
  4   3   5  1   
  5   3  28  1   
  6   4   6  1   
  7   4  29  1   
  8   4  30  1   
  9   5   7  1   
 10   5  31  1   
 11   5  32  1   
 12   6   8  am  
 13   6   9  1   
 14   7   9  1   
 15   7  33  1   
 16   7  34  1   
 17   8  10  2   
 18   8  11  1   
 19   9  35  1   
 20   9  36  1   
 21  11  12  1   
 22  11  13  1   
 23  11  37  1   
 24  12  14  1   
 25  13  15  1   
 26  13  16  1   
 27  13  38  1   
 28  14  17  1   
 29  14  39  1   
 30  14  40  1   
 31  15  17  am  
 32  15  41  1   
 33  16  18  ar  
 34  16  19  ar  
 35  17  20  2   
 36  18  21  ar  
 37  18  42  1   
 38  19  22  ar  
 39  19  43  1   
 40  21  23  1   
 41  21  24  ar  
 42  22  24  ar  
 43  22  44  1   
 44  23  25  1   
 45  24  26  1   
 46  25  45  1   
 47  25  46  1   
 48  25  47  1   
 49  26  27  1   
 50  27  48  1   
 51  27  49  1   
 52  27  50  1   
@<TRIPOS>SUBSTRUCTURE
  1 ****  11 GROUP 4 **** **** 0

# MOE 2024.06 (io_trps.svl 2023.06)
