@<TRIPOS>MOLECULE
NONAME
41 43 1 0 0 
SMALL
USER_CHARGES


@<TRIPOS>ATOM
  1 O        0.4300    -0.2410     2.6360 O.2   1 <1>  -0.5700 
  2 C        1.2180    -0.7350     1.8650 C.2   1 <1>   0.5690 
  3 N        1.9350    -0.0170     0.9470 N.am  1 <1>  -0.4940 
  4 C        1.4240    -2.2320     1.9310 C.3   1 <1>   0.1570 
  5 C        1.9130     1.3440     0.5640 C.2   1 <1>  -0.0880 
  6 N        1.5270    -2.7860     0.5730 N.pl3 1 <1>   0.3140 
  7 N        1.6700     2.4410     1.3350 N.pl3 1 <1>   0.3140 
  8 C        2.1700     1.8040    -0.6820 C.2   1 <1>  -0.1810 
  9 N        2.6550    -2.6370    -0.1650 N.2   1 <1>  -0.7070 
 10 C        0.5530    -3.4480    -0.1200 C.ar  1 <1>  -0.1520 
 11 N        1.7750     3.5800     0.6140 N.2   1 <1>  -0.7070 
 12 C        1.4040     2.5140     2.7760 C.3   1 <1>   0.0160 
 13 C        2.0720     3.1890    -0.5840 C.2   1 <1>   0.1080 
 14 C        2.4880     0.9850    -1.9220 C.3   1 <1>   0.0210 
 15 C        2.3980    -3.2170    -1.2910 C.2   1 <1>   0.1390 
 16 C        1.1010    -3.7510    -1.3480 C.ar  1 <1>   0.0000 
 17 C       -0.7630    -3.8150     0.1910 C.ar  1 <1>  -0.1500 
 18 C        2.2760     4.1720    -1.7140 C.3   1 <1>  -0.0590 
 19 C        3.9870     0.6930    -2.0050 C.3   1 <1>  -0.2400 
 20 C        0.3440    -4.4470    -2.3010 C.ar  1 <1>  -0.1500 
 21 C       -1.5000    -4.4960    -0.7500 C.ar  1 <1>  -0.1500 
 22 C       -0.9450    -4.8130    -1.9970 C.ar  1 <1>  -0.1500 
 23 H        2.4830    -0.6150     0.3090 H     1 <1>   0.3700 
 24 H        0.6020    -2.6910     2.4440 H     1 <1>   0.0800 
 25 H        2.3320    -2.4440     2.4600 H     1 <1>   0.0800 
 26 H        2.0020     1.7840     3.2860 H     1 <1>   0.0800 
 27 H        0.3620     2.3200     2.9470 H     1 <1>   0.0800 
 28 H        1.6510     3.4970     3.1310 H     1 <1>   0.0800 
 29 H        2.1680     1.5160    -2.8010 H     1 <1>   0.0800 
 30 H        1.9420     0.0580    -1.8870 H     1 <1>   0.0800 
 31 H        3.0990    -3.2860    -2.1060 H     1 <1>   0.1500 
 32 H       -1.1890    -3.5670     1.1470 H     1 <1>   0.1500 
 33 H        3.1460     3.9050    -2.2830 H     1 <1>   0.0800 
 34 H        2.4120     5.1610    -1.3150 H     1 <1>   0.0800 
 35 H        1.4130     4.1700    -2.3530 H     1 <1>   0.0800 
 36 H        4.5420     1.6130    -2.0380 H     1 <1>   0.0800 
 37 H        4.2050     0.1210    -2.8880 H     1 <1>   0.0800 
 38 H        4.3020     0.1320    -1.1430 H     1 <1>   0.0800 
 39 H        0.7830    -4.6830    -3.2540 H     1 <1>   0.1500 
 40 H       -2.5130    -4.7920    -0.5390 H     1 <1>   0.1500 
 41 H       -1.5440    -5.3480    -2.7140 H     1 <1>   0.1500 
@<TRIPOS>BOND
  1   1   2  2   
  2   2   3  am  
  3   2   4  1   
  4   3   5  1   
  5   3  23  1   
  6   4   6  1   
  7   4  24  1   
  8   4  25  1   
  9   5   7  1   
 10   5   8  2   
 11   6   9  1   
 12   6  10  1   
 13   7  11  1   
 14   7  12  1   
 15   8  13  1   
 16   8  14  1   
 17   9  15  2   
 18  10  16  ar  
 19  10  17  ar  
 20  11  13  2   
 21  12  26  1   
 22  12  27  1   
 23  12  28  1   
 24  13  18  1   
 25  14  19  1   
 26  14  29  1   
 27  14  30  1   
 28  15  16  1   
 29  15  31  1   
 30  16  20  ar  
 31  17  21  ar  
 32  17  32  1   
 33  18  33  1   
 34  18  34  1   
 35  18  35  1   
 36  19  36  1   
 37  19  37  1   
 38  19  38  1   
 39  20  22  ar  
 40  20  39  1   
 41  21  22  ar  
 42  21  40  1   
 43  22  41  1   
@<TRIPOS>SUBSTRUCTURE
  1 ****   3 GROUP 4 **** **** 0

# MOE 2024.06 (io_trps.svl 2023.06)
