@<TRIPOS>MOLECULE
NONAME
47 49 1 0 0 
SMALL
USER_CHARGES


@<TRIPOS>ATOM
  1 S        0.2870     1.6110    -1.2440 S.o2  1 <1>   1.3330 
  2 O        0.7390     0.3570    -1.8010 O.2   1 <1>  -0.6500 
  3 O       -0.4180     2.5410    -2.0960 O.2   1 <1>  -0.6500 
  4 N        1.6610     2.4050    -0.6470 N.am  1 <1>  -0.8490 
  5 C       -0.7580     1.2420     0.1790 C.3   1 <1>  -0.0550 
  6 C        2.3800     3.1190    -1.7050 C.3   1 <1>   0.1160 
  7 C        2.5920     1.5290     0.0720 C.3   1 <1>   0.1160 
  8 C       -1.2630     2.3820     1.1030 C.3   1 <1>  -0.0800 
  9 C       -1.8270     3.6100     0.3800 C.3   1 <1>   0.2000 
 10 C       -0.1860     2.9440     2.0380 C.3   1 <1>   0.1400 
 11 O       -2.8270     4.1370     1.1830 O.3   1 <1>  -0.6800 
 12 C       -0.6780     4.6200     0.3410 C.3   1 <1>   0.1400 
 13 N        0.1820     4.2790     1.5070 N.am  1 <1>  -0.6600 
 14 C        1.4410     4.8050     1.7070 C.2   1 <1>   0.5440 
 15 O        2.2220     4.1940     2.4150 O.2   1 <1>  -0.5700 
 16 C        1.8590     6.0520     1.0950 C.ar  1 <1>   0.0860 
 17 C        3.0830     6.1480     0.4370 C.ar  1 <1>  -0.1500 
 18 C        1.0770     7.2060     1.1460 C.ar  1 <1>  -0.1500 
 19 C        3.4940     7.3240    -0.1610 C.ar  1 <1>  -0.1500 
 20 C        1.4870     8.3820     0.5470 C.ar  1 <1>  -0.1500 
 21 C        2.7040     8.4720    -0.1270 C.ar  1 <1>   0.0530 
 22 C        3.1340     9.6990    -0.7580 C.2   1 <1>   0.0870 
 23 O        2.4280    10.8020    -0.6660 O.3   1 <1>  -0.2800 
 24 C        4.2130    10.0180    -1.5080 C.2   1 <1>   0.0770 
 25 C        3.0800    11.7180    -1.3380 C.2   1 <1>   0.3280 
 26 N        4.1720    11.3120    -1.8760 N.2   1 <1>  -0.5650 
 27 H       -1.6300     0.7470    -0.2020 H     1 <1>   0.0800 
 28 H       -0.2530     0.5210     0.7910 H     1 <1>   0.0800 
 29 H        3.2410     3.6200    -1.2990 H     1 <1>   0.0800 
 30 H        1.7380     3.8600    -2.1520 H     1 <1>   0.0800 
 31 H        2.6980     2.4300    -2.4700 H     1 <1>   0.0800 
 32 H        3.3750     2.1170     0.5200 H     1 <1>   0.0800 
 33 H        3.0290     0.8090    -0.6010 H     1 <1>   0.0800 
 34 H        2.0810     1.0010     0.8570 H     1 <1>   0.0800 
 35 H       -2.0330     1.9400     1.7110 H     1 <1>   0.0800 
 36 H       -2.2510     3.4030    -0.5880 H     1 <1>   0.0800 
 37 H        0.6740     2.3000     2.0920 H     1 <1>   0.0800 
 38 H       -0.5820     3.0700     3.0310 H     1 <1>   0.0800 
 39 H       -2.4240     4.4760     2.0070 H     1 <1>   0.4000 
 40 H       -1.0500     5.6280     0.3960 H     1 <1>   0.0800 
 41 H       -0.1090     4.5080    -0.5630 H     1 <1>   0.0800 
 42 H        3.7160     5.2780     0.4080 H     1 <1>   0.1500 
 43 H        0.1390     7.1770     1.6700 H     1 <1>   0.1500 
 44 H        4.4470     7.3490    -0.6590 H     1 <1>   0.1500 
 45 H        0.8540     9.2510     0.6060 H     1 <1>   0.1500 
 46 H        5.0260     9.3810    -1.8060 H     1 <1>   0.1500 
 47 H        2.6730    12.7130    -1.3920 H     1 <1>   0.1500 
@<TRIPOS>BOND
  1   1   2  2   
  2   1   3  2   
  3   1   4  am  
  4   1   5  1   
  5   4   6  1   
  6   4   7  1   
  7   5   8  1   
  8   5  27  1   
  9   5  28  1   
 10   6  29  1   
 11   6  30  1   
 12   6  31  1   
 13   7  32  1   
 14   7  33  1   
 15   7  34  1   
 16   8   9  1   
 17   8  10  1   
 18   8  35  1   
 19   9  11  1   
 20   9  12  1   
 21   9  36  1   
 22  10  13  1   
 23  10  37  1   
 24  10  38  1   
 25  11  39  1   
 26  12  13  1   
 27  12  40  1   
 28  12  41  1   
 29  13  14  am  
 30  14  15  2   
 31  14  16  1   
 32  16  17  ar  
 33  16  18  ar  
 34  17  19  ar  
 35  17  42  1   
 36  18  20  ar  
 37  18  43  1   
 38  19  21  ar  
 39  19  44  1   
 40  20  21  ar  
 41  20  45  1   
 42  21  22  1   
 43  22  23  1   
 44  22  24  2   
 45  23  25  1   
 46  24  26  1   
 47  24  46  1   
 48  25  26  2   
 49  25  47  1   
@<TRIPOS>SUBSTRUCTURE
  1 ****  16 GROUP 4 **** **** 0

# MOE 2024.06 (io_trps.svl 2023.06)
