@<TRIPOS>MOLECULE
NONAME
40 42 1 0 0 
SMALL
USER_CHARGES


@<TRIPOS>ATOM
  1 O        0.4430     0.2560     1.2860 O.2   1 <1>  -0.5700 
  2 C        0.7660    -0.0700     0.1690 C.2   1 <1>   0.6300 
  3 N        1.5730     0.6770    -0.6310 N.am  1 <1>  -0.4930 
  4 C        0.2430    -1.3800    -0.3900 C.3   1 <1>  -0.1000 
  5 C        2.1900     1.9230    -0.3560 C.2   1 <1>   0.0630 
  6 C        0.5850    -2.6650     0.3040 C.3   1 <1>  -0.0680 
  7 C        1.1370    -2.3830    -1.0610 C.3   1 <1>  -0.2000 
  8 C        2.1210     2.7090     0.7960 C.2   1 <1>   0.1390 
  9 C        2.9960     2.6120    -1.1890 C.2   1 <1>  -0.3020 
 10 C       -0.5050    -3.7000     0.5050 C.ar  1 <1>  -0.0320 
 11 N        2.8260     3.7980     0.6930 N.2   1 <1>  -0.7070 
 12 N        3.3680     3.7390    -0.5410 N.pl3 1 <1>   0.3140 
 13 C       -1.6360    -3.3740     1.2360 C.ar  1 <1>  -0.1500 
 14 C       -0.3810    -4.9730    -0.0270 C.ar  1 <1>  -0.1500 
 15 C        4.2470     4.8020    -1.0500 C.3   1 <1>   0.1570 
 16 C       -2.6390    -4.3090     1.4260 C.ar  1 <1>  -0.1500 
 17 C       -1.3820    -5.9110     0.1620 C.ar  1 <1>  -0.1500 
 18 C        5.6370     4.6510    -0.4740 C.2   1 <1>   0.5690 
 19 C       -2.5130    -5.5780     0.8880 C.ar  1 <1>  -0.1500 
 20 O        6.5800     4.7700    -1.2190 O.2   1 <1>  -0.5700 
 21 N        5.7900     4.4010     0.8550 N.am  1 <1>  -0.7300 
 22 C        7.0770     4.2290     1.5700 C.3   1 <1>   0.0600 
 23 H        1.7670     0.2890    -1.5510 H     1 <1>   0.3700 
 24 H       -0.7640    -1.2800    -0.7530 H     1 <1>   0.1000 
 25 H        1.2590    -2.6090     1.1430 H     1 <1>   0.1000 
 26 H        0.7490    -2.9380    -1.8970 H     1 <1>   0.1000 
 27 H        2.1940    -2.2010    -1.1390 H     1 <1>   0.1000 
 28 H        1.5500     2.4480     1.6720 H     1 <1>   0.1500 
 29 H        3.3240     2.3730    -2.1820 H     1 <1>   0.1500 
 30 H       -1.7330    -2.3890     1.6590 H     1 <1>   0.1500 
 31 H        0.4980    -5.2370    -0.5880 H     1 <1>   0.1500 
 32 H        4.2890     4.7450    -2.1200 H     1 <1>   0.0800 
 33 H        3.8440     5.7530    -0.7610 H     1 <1>   0.0800 
 34 H       -3.5160    -4.0490     1.9940 H     1 <1>   0.1500 
 35 H       -1.2820    -6.8980    -0.2550 H     1 <1>   0.1500 
 36 H       -3.2920    -6.3050     1.0350 H     1 <1>   0.1500 
 37 H        4.9310     4.2270     1.4020 H     1 <1>   0.3700 
 38 H        7.9030     4.4050     0.9010 H     1 <1>   0.0800 
 39 H        7.1470     3.2260     1.9540 H     1 <1>   0.0800 
 40 H        7.1360     4.9270     2.3870 H     1 <1>   0.0800 
@<TRIPOS>BOND
  1   1   2  2   
  2   2   3  am  
  3   2   4  1   
  4   3   5  1   
  5   3  23  1   
  6   4   6  1   
  7   4   7  1   
  8   4  24  1   
  9   5   8  1   
 10   5   9  2   
 11   6   7  1   
 12   6  10  1   
 13   6  25  1   
 14   7  26  1   
 15   7  27  1   
 16   8  11  2   
 17   8  28  1   
 18   9  12  1   
 19   9  29  1   
 20  10  13  ar  
 21  10  14  ar  
 22  11  12  1   
 23  12  15  1   
 24  13  16  ar  
 25  13  30  1   
 26  14  17  ar  
 27  14  31  1   
 28  15  18  1   
 29  15  32  1   
 30  15  33  1   
 31  16  19  ar  
 32  16  34  1   
 33  17  19  ar  
 34  17  35  1   
 35  18  20  2   
 36  18  21  am  
 37  19  36  1   
 38  21  22  1   
 39  21  37  1   
 40  22  38  1   
 41  22  39  1   
 42  22  40  1   
@<TRIPOS>SUBSTRUCTURE
  1 ****   3 GROUP 4 **** **** 0

# MOE 2024.06 (io_trps.svl 2023.06)
