@<TRIPOS>MOLECULE
NONAME
45 47 1 0 0 
SMALL
USER_CHARGES


@<TRIPOS>ATOM
  1 CL      -2.4920     0.5890    -1.2360 Cl    1 <1>  -0.1770 
  2 C       -1.4230     1.9190    -0.8520 C.ar  1 <1>   0.1770 
  3 C       -1.7580     2.8080     0.1610 C.ar  1 <1>  -0.1440 
  4 C       -0.2620     2.0560    -1.5860 C.ar  1 <1>  -0.1500 
  5 C       -0.8910     3.8610     0.4460 C.ar  1 <1>  -0.1440 
  6 C       -3.0540     2.6030     0.9240 C.3   1 <1>   0.4870 
  7 C        0.5910     3.1060    -1.3040 C.ar  1 <1>  -0.1500 
  8 C        0.2760     3.9980    -0.2940 C.ar  1 <1>  -0.1500 
  9 C       -1.1720     4.8670     1.5560 C.3   1 <1>  -0.0960 
 10 N       -4.2040     2.8600     0.0190 N.4   1 <1>  -0.9590 
 11 C       -5.4970     2.4700     0.6610 C.3   1 <1>   0.3430 
 12 C       -4.2340     4.2610    -0.4870 C.3   1 <1>   0.3430 
 13 C       -6.6750     2.5770    -0.3330 C.3   1 <1>   0.0000 
 14 C       -5.3620     4.4160    -1.5100 C.3   1 <1>  -0.1600 
 15 C       -7.9910     2.2120     0.3770 C.3   1 <1>   0.2000 
 16 C       -6.7230     3.9980    -0.9310 C.3   1 <1>  -0.1600 
 17 C       -6.5750     1.4860    -1.4130 C.3   1 <1>  -0.1600 
 18 O       -7.9750     2.6260     1.6980 O.3   1 <1>  -0.6800 
 19 C       -8.1200     0.6880     0.3060 C.3   1 <1>  -0.1600 
 20 C       -7.1060     0.2160    -0.7450 C.3   1 <1>  -0.1600 
 21 H       -0.0280     1.3520    -2.3650 H     1 <1>   0.1500 
 22 H       -3.0990     3.2610     1.7750 H     1 <1>   0.0800 
 23 H       -3.0910     1.5860     1.2820 H     1 <1>   0.0800 
 24 H        1.5020     3.2280    -1.8670 H     1 <1>   0.1500 
 25 H        0.9590     4.8060    -0.0890 H     1 <1>   0.1500 
 26 H       -0.3910     5.6050     1.6100 H     1 <1>   0.0800 
 27 H       -1.2170     4.3690     2.5080 H     1 <1>   0.0800 
 28 H       -2.0990     5.3820     1.3790 H     1 <1>   0.0800 
 29 H       -4.0700     2.2450    -0.7950 H     1 <1>   0.4500 
 30 H       -5.4410     1.4590     1.0290 H     1 <1>   0.0800 
 31 H       -5.6910     3.1180     1.5000 H     1 <1>   0.0800 
 32 H       -4.3980     4.9410     0.3340 H     1 <1>   0.0800 
 33 H       -3.2920     4.5100    -0.9510 H     1 <1>   0.0800 
 34 H       -5.4110     5.4460    -1.8190 H     1 <1>   0.0800 
 35 H       -5.1330     3.8320    -2.3840 H     1 <1>   0.0800 
 36 H       -8.8280     2.6760    -0.1200 H     1 <1>   0.0800 
 37 H       -7.4780     4.0580    -1.6970 H     1 <1>   0.0800 
 38 H       -7.0000     4.6930    -0.1550 H     1 <1>   0.0800 
 39 H       -7.2260     1.7330    -2.2360 H     1 <1>   0.0800 
 40 H       -5.5830     1.3440    -1.8030 H     1 <1>   0.0800 
 41 H       -8.8370     2.4270     2.1210 H     1 <1>   0.4000 
 42 H       -7.9080     0.2230     1.2540 H     1 <1>   0.0800 
 43 H       -9.1170     0.4240    -0.0010 H     1 <1>   0.0800 
 44 H       -6.3010    -0.3100    -0.2610 H     1 <1>   0.0800 
 45 H       -7.5610    -0.4440    -1.4650 H     1 <1>   0.0800 
@<TRIPOS>BOND
  1   1   2  1   
  2   2   3  ar  
  3   2   4  ar  
  4   3   5  ar  
  5   3   6  1   
  6   4   7  ar  
  7   4  21  1   
  8   5   8  ar  
  9   5   9  1   
 10   6  10  1   
 11   6  22  1   
 12   6  23  1   
 13   7   8  ar  
 14   7  24  1   
 15   8  25  1   
 16   9  26  1   
 17   9  27  1   
 18   9  28  1   
 19  10  11  1   
 20  10  12  1   
 21  10  29  1   
 22  11  13  1   
 23  11  30  1   
 24  11  31  1   
 25  12  14  1   
 26  12  32  1   
 27  12  33  1   
 28  13  15  1   
 29  13  16  1   
 30  13  17  1   
 31  14  16  1   
 32  14  34  1   
 33  14  35  1   
 34  15  18  1   
 35  15  19  1   
 36  15  36  1   
 37  16  37  1   
 38  16  38  1   
 39  17  20  1   
 40  17  39  1   
 41  17  40  1   
 42  18  41  1   
 43  19  20  1   
 44  19  42  1   
 45  19  43  1   
 46  20  44  1   
 47  20  45  1   
@<TRIPOS>SUBSTRUCTURE
  1 ****  10 GROUP 4 **** **** 0

# MOE 2024.06 (io_trps.svl 2023.06)
