@<TRIPOS>MOLECULE
NONAME
58 61 1 0 0 
SMALL
USER_CHARGES


@<TRIPOS>ATOM
  1 O       -4.5140     1.2510     0.5750 O.2   1 <1>  -0.5700 
  2 C       -3.3320     1.4810     0.3720 C.2   1 <1>   0.5440 
  3 N       -2.6070     0.4880    -0.2640 N.am  1 <1>  -0.6600 
  4 C       -2.7680     2.7550     0.8300 C.ar  1 <1>   0.3960 
  5 C       -1.1470     0.4850    -0.5060 C.3   1 <1>   0.1400 
  6 C       -3.2240    -0.7680    -0.7460 C.3   1 <1>   0.1400 
  7 N       -1.6910     3.2970     0.2360 N.ar  1 <1>  -0.6200 
  8 C       -3.3930     3.3930     1.9050 C.ar  1 <1>   0.1600 
  9 C       -0.8220    -0.9480    -0.9120 C.3   1 <1>  -0.1600 
 10 C       -2.1180    -1.4780    -1.5190 C.3   1 <1>  -0.1600 
 11 C       -1.2920     4.4490     0.7520 C.ar  1 <1>   0.4100 
 12 N       -3.0200     4.5430     2.4470 N.ar  1 <1>  -0.6200 
 13 N       -0.1780     5.0270     0.1450 N.pl3 1 <1>  -0.8380 
 14 C       -1.9660     5.0430     1.8370 C.ar  1 <1>   0.1600 
 15 C        0.5310     6.2260     0.6610 C.3   1 <1>   0.4330 
 16 C        0.6980     4.2650    -0.7830 C.3   1 <1>   0.2090 
 17 C       -0.2980     7.5070     0.5370 C.ar  1 <1>  -0.1430 
 18 C        1.8080     6.3110    -0.1710 C.3   1 <1>  -0.1600 
 19 C        2.0820     4.8790    -0.6170 C.3   1 <1>  -0.1600 
 20 C       -0.1530     8.5140     1.4780 C.ar  1 <1>  -0.1500 
 21 C       -1.2010     7.6860    -0.5020 C.ar  1 <1>  -0.1500 
 22 C       -0.8950     9.6790     1.3850 C.ar  1 <1>  -0.1500 
 23 C       -1.9460     8.8480    -0.5980 C.ar  1 <1>  -0.1500 
 24 C       -1.7930     9.8560     0.3420 C.ar  1 <1>  -0.1430 
 25 C       -2.5990    11.1360     0.2290 C.3   1 <1>   0.4860 
 26 N       -2.0280    11.9660    -0.8720 N.4   1 <1>  -0.9590 
 27 C       -0.6390    12.4230    -0.5540 C.3   1 <1>   0.2630 
 28 C       -2.9170    13.1170    -1.2110 C.3   1 <1>   0.2630 
 29 H       -0.6060     0.7790     0.3770 H     1 <1>   0.0800 
 30 H       -0.9260     1.1630    -1.3130 H     1 <1>   0.0800 
 31 H       -4.0770    -0.5600    -1.3690 H     1 <1>   0.0800 
 32 H       -3.5320    -1.3540     0.1030 H     1 <1>   0.0800 
 33 H       -4.2550     2.9180     2.3410 H     1 <1>   0.1500 
 34 H       -0.5740    -1.5130    -0.0300 H     1 <1>   0.0800 
 35 H        0.0030    -0.9920    -1.6000 H     1 <1>   0.0800 
 36 H       -2.1800    -1.1940    -2.5550 H     1 <1>   0.0800 
 37 H       -2.2010    -2.5480    -1.4430 H     1 <1>   0.0800 
 38 H       -1.6040     5.9800     2.2080 H     1 <1>   0.1500 
 39 H        0.7910     6.0470     1.6910 H     1 <1>   0.0800 
 40 H        0.3400     4.4000    -1.7890 H     1 <1>   0.0800 
 41 H        0.7150     3.2150    -0.5450 H     1 <1>   0.0800 
 42 H        2.6210     6.7290     0.3930 H     1 <1>   0.0800 
 43 H        1.6300     6.9270    -1.0350 H     1 <1>   0.0800 
 44 H        2.6500     4.8330    -1.5290 H     1 <1>   0.0800 
 45 H        2.6090     4.3470     0.1550 H     1 <1>   0.0800 
 46 H        0.5390     8.3950     2.2950 H     1 <1>   0.1500 
 47 H       -1.3300     6.9080    -1.2370 H     1 <1>   0.1500 
 48 H       -0.7640    10.4380     2.1370 H     1 <1>   0.1500 
 49 H       -2.6450     8.9430    -1.4120 H     1 <1>   0.1500 
 50 H       -2.5680    11.6760     1.1610 H     1 <1>   0.0800 
 51 H       -3.6250    10.8870     0.0130 H     1 <1>   0.0800 
 52 H       -1.9630    11.3360    -1.6860 H     1 <1>   0.4500 
 53 H       -0.6400    13.0520     0.3210 H     1 <1>   0.0800 
 54 H       -0.2300    12.9820    -1.3800 H     1 <1>   0.0800 
 55 H        0.0000    11.5740    -0.3680 H     1 <1>   0.0800 
 56 H       -3.0070    13.7840    -0.3690 H     1 <1>   0.0800 
 57 H       -3.9000    12.7660    -1.4810 H     1 <1>   0.0800 
 58 H       -2.5110    13.6690    -2.0440 H     1 <1>   0.0800 
@<TRIPOS>BOND
  1   1   2  2   
  2   2   3  am  
  3   2   4  1   
  4   3   5  1   
  5   3   6  1   
  6   4   7  ar  
  7   4   8  ar  
  8   5   9  1   
  9   5  29  1   
 10   5  30  1   
 11   6  10  1   
 12   6  31  1   
 13   6  32  1   
 14   7  11  ar  
 15   8  12  ar  
 16   8  33  1   
 17   9  10  1   
 18   9  34  1   
 19   9  35  1   
 20  10  36  1   
 21  10  37  1   
 22  11  13  1   
 23  11  14  ar  
 24  12  14  ar  
 25  13  15  1   
 26  13  16  1   
 27  14  38  1   
 28  15  17  1   
 29  15  18  1   
 30  15  39  1   
 31  16  19  1   
 32  16  40  1   
 33  16  41  1   
 34  17  20  ar  
 35  17  21  ar  
 36  18  19  1   
 37  18  42  1   
 38  18  43  1   
 39  19  44  1   
 40  19  45  1   
 41  20  22  ar  
 42  20  46  1   
 43  21  23  ar  
 44  21  47  1   
 45  22  24  ar  
 46  22  48  1   
 47  23  24  ar  
 48  23  49  1   
 49  24  25  1   
 50  25  26  1   
 51  25  50  1   
 52  25  51  1   
 53  26  27  1   
 54  26  28  1   
 55  26  52  1   
 56  27  53  1   
 57  27  54  1   
 58  27  55  1   
 59  28  56  1   
 60  28  57  1   
 61  28  58  1   
@<TRIPOS>SUBSTRUCTURE
  1 ****  11 GROUP 4 **** **** 0

# MOE 2024.06 (io_trps.svl 2023.06)
