@<TRIPOS>MOLECULE
NONAME
47 49 1 0 0 
SMALL
USER_CHARGES


@<TRIPOS>ATOM
  1 O       -2.8890    -0.9650     1.0880 O.2   1 <1>  -0.5700 
  2 C       -2.8560     0.2280     0.8470 C.2   1 <1>   0.7160 
  3 N       -3.6330     1.0830     1.6000 N.am  1 <1>  -0.6600 
  4 C       -2.0280     0.7070    -0.2280 C.2   1 <1>  -0.0860 
  5 C       -4.6990     0.5410     2.4940 C.3   1 <1>   0.1400 
  6 C       -3.7090     2.5500     1.3610 C.3   1 <1>   0.1400 
  7 C       -0.6390     0.8380    -0.1830 C.2   1 <1>   0.1390 
  8 C       -2.3410     1.1220    -1.4880 C.2   1 <1>  -0.3020 
  9 C       -5.9190     0.0520     1.6920 C.3   1 <1>   0.1400 
 10 C       -4.7980     2.9260     0.3410 C.3   1 <1>  -0.1600 
 11 N       -0.1380     1.3000    -1.2850 N.2   1 <1>  -0.7070 
 12 N       -1.1980     1.4700    -2.0960 N.pl3 1 <1>   0.3000 
 13 N       -6.1130     0.8110     0.4110 N.am  1 <1>  -0.6600 
 14 C       -6.1820     2.2900     0.5550 C.3   1 <1>   0.1400 
 15 C       -6.0400     0.2310    -0.8370 C.2   1 <1>   0.5690 
 16 O       -6.0790     0.9030    -1.8450 O.2   1 <1>  -0.5700 
 17 C       -5.8520    -1.2740    -1.0120 C.3   1 <1>   0.1810 
 18 O       -6.9640    -1.9900    -0.4950 O.3   1 <1>  -0.3630 
 19 C       -7.0040    -3.3480    -0.5010 C.ar  1 <1>   0.0820 
 20 C       -8.1960    -3.9570    -0.1170 C.ar  1 <1>  -0.1430 
 21 C       -5.9150    -4.1360    -0.8690 C.ar  1 <1>  -0.1500 
 22 C       -8.2870    -5.3390    -0.1060 C.ar  1 <1>  -0.1500 
 23 C       -9.3980    -3.1160     0.2880 C.3   1 <1>  -0.0970 
 24 C       -6.0180    -5.5150    -0.8540 C.ar  1 <1>  -0.1500 
 25 C       -7.2040    -6.1170    -0.4730 C.ar  1 <1>  -0.1500 
 26 H       -5.0120     1.3020     3.1860 H     1 <1>   0.0800 
 27 H       -4.3060    -0.2760     3.0750 H     1 <1>   0.0800 
 28 H       -2.7570     2.9110     1.0120 H     1 <1>   0.0800 
 29 H       -3.9110     3.0430     2.2960 H     1 <1>   0.0800 
 30 H       -0.0450     0.5810     0.6790 H     1 <1>   0.1500 
 31 H       -3.3050     1.1740    -1.9620 H     1 <1>   0.1500 
 32 H       -6.8050     0.1420     2.2950 H     1 <1>   0.0800 
 33 H       -5.7820    -0.9960     1.4990 H     1 <1>   0.0800 
 34 H       -4.4590     2.6880    -0.6480 H     1 <1>   0.0800 
 35 H       -4.9160     3.9940     0.3670 H     1 <1>   0.0800 
 36 H       -1.1000     1.8210    -3.0580 H     1 <1>   0.2700 
 37 H       -6.8650     2.6780    -0.1830 H     1 <1>   0.0800 
 38 H       -6.5680     2.5480     1.5260 H     1 <1>   0.0800 
 39 H       -4.9650    -1.5840    -0.4920 H     1 <1>   0.0800 
 40 H       -5.7610    -1.5080    -2.0570 H     1 <1>   0.0800 
 41 H       -4.9800    -3.7010    -1.1660 H     1 <1>   0.1500 
 42 H       -9.2040    -5.8200     0.1880 H     1 <1>   0.1500 
 43 H       -9.1460    -2.5060     1.1360 H     1 <1>   0.0800 
 44 H      -10.2380    -3.7340     0.5450 H     1 <1>   0.0800 
 45 H       -9.6810    -2.4730    -0.5270 H     1 <1>   0.0800 
 46 H       -5.1750    -6.1210    -1.1380 H     1 <1>   0.1500 
 47 H       -7.2840    -7.1900    -0.4620 H     1 <1>   0.1500 
@<TRIPOS>BOND
  1   1   2  2   
  2   2   3  am  
  3   2   4  1   
  4   3   5  1   
  5   3   6  1   
  6   4   7  1   
  7   4   8  2   
  8   5   9  1   
  9   5  26  1   
 10   5  27  1   
 11   6  10  1   
 12   6  28  1   
 13   6  29  1   
 14   7  11  2   
 15   7  30  1   
 16   8  12  1   
 17   8  31  1   
 18   9  13  1   
 19   9  32  1   
 20   9  33  1   
 21  10  14  1   
 22  10  34  1   
 23  10  35  1   
 24  11  12  1   
 25  12  36  1   
 26  13  14  1   
 27  13  15  am  
 28  14  37  1   
 29  14  38  1   
 30  15  16  2   
 31  15  17  1   
 32  17  18  1   
 33  17  39  1   
 34  17  40  1   
 35  18  19  1   
 36  19  20  ar  
 37  19  21  ar  
 38  20  22  ar  
 39  20  23  1   
 40  21  24  ar  
 41  21  41  1   
 42  22  25  ar  
 43  22  42  1   
 44  23  43  1   
 45  23  44  1   
 46  23  45  1   
 47  24  25  ar  
 48  24  46  1   
 49  25  47  1   
@<TRIPOS>SUBSTRUCTURE
  1 ****  17 GROUP 4 **** **** 0

# MOE 2024.06 (io_trps.svl 2023.06)
