@<TRIPOS>MOLECULE
NONAME
48 50 1 0 0 
SMALL
USER_CHARGES


@<TRIPOS>ATOM
  1 O        0.5610    -0.2510     1.5200 O.co2 1 <1>  -0.9030 
  2 C        1.1240    -1.2890     1.1430 C.2   1 <1>   0.9770 
  3 O        0.5330    -2.3760     1.1970 O.co2 1 <1>  -0.9030 
  4 C        2.4750    -1.2170     0.6400 C.ar  1 <1>  -0.1870 
  5 C        3.1330    -2.3840     0.2130 C.ar  1 <1>   0.1520 
  6 C        3.1520    -0.0090     0.5650 C.ar  1 <1>  -0.1170 
  7 N        4.3650    -2.4470    -0.2640 N.ar  1 <1>  -0.5840 
  8 C        4.4350    -0.0590     0.0700 C.ar  1 <1>   0.3020 
  9 C        4.9740    -1.2700    -0.3120 C.ar  1 <1>   0.6150 
 10 N        5.4020     0.8920    -0.1630 N.pl3 1 <1>  -0.7040 
 11 N        6.2570    -1.0370    -0.7620 N.pl3 1 <1>  -0.7670 
 12 C        6.4830     0.2880    -0.6560 C.cat 1 <1>   1.0690 
 13 C        7.0530    -2.1450    -1.3300 C.3   1 <1>   0.3480 
 14 N        7.5980     0.9860    -0.9750 N.pl3 1 <1>  -0.5970 
 15 C        7.7400    -2.9100    -0.2010 C.3   1 <1>  -0.2470 
 16 C        7.6120     2.4790    -1.0310 C.3   1 <1>   0.1600 
 17 C        8.9350     0.4020    -1.2950 C.3   1 <1>   0.0790 
 18 C        8.0420     3.0560     0.3230 C.3   1 <1>  -0.1680 
 19 C        8.0170     4.5880     0.3120 C.3   1 <1>   0.1930 
 20 O        8.7660     5.0130    -0.7820 O.3   1 <1>  -0.5650 
 21 C        8.6100     5.1770     1.6010 C.3   1 <1>  -0.1680 
 22 C        8.7760     6.3950    -0.9910 C.3   1 <1>   0.1120 
 23 C        8.7010     6.7040     1.5130 C.3   1 <1>  -0.1680 
 24 C        9.4120     7.0970     0.2140 C.3   1 <1>  -0.1680 
 25 H        2.5810    -3.3110     0.2820 H     1 <1>   0.1420 
 26 H        2.6870     0.9120     0.8780 H     1 <1>   0.1420 
 27 H        5.3180     1.8830     0.0390 H     1 <1>   0.4440 
 28 H        7.7770    -1.7740    -2.0320 H     1 <1>   0.0720 
 29 H        6.4040    -2.8160    -1.8710 H     1 <1>   0.0720 
 30 H        8.3610    -2.2640     0.3910 H     1 <1>   0.0720 
 31 H        8.3540    -3.6890    -0.6170 H     1 <1>   0.0720 
 32 H        7.0040    -3.3710     0.4350 H     1 <1>   0.0720 
 33 H        6.6410     2.8570    -1.3000 H     1 <1>   0.0720 
 34 H        8.2970     2.8010    -1.7990 H     1 <1>   0.0720 
 35 H        9.1170    -0.4810    -0.7110 H     1 <1>   0.0720 
 36 H        9.7180     1.1060    -1.0650 H     1 <1>   0.0720 
 37 H        8.9920     0.1650    -2.3430 H     1 <1>   0.0720 
 38 H        9.0420     2.7340     0.5530 H     1 <1>   0.0720 
 39 H        7.3890     2.7100     1.1030 H     1 <1>   0.0720 
 40 H        7.0080     4.9390     0.1770 H     1 <1>   0.0720 
 41 H        9.5950     4.7710     1.7580 H     1 <1>   0.0720 
 42 H        8.0010     4.9020     2.4440 H     1 <1>   0.0720 
 43 H        7.7640     6.7280    -1.1440 H     1 <1>   0.0720 
 44 H        9.3470     6.5890    -1.8820 H     1 <1>   0.0720 
 45 H        9.2350     7.0950     2.3610 H     1 <1>   0.0720 
 46 H        7.7090     7.1230     1.5170 H     1 <1>   0.0720 
 47 H        9.3630     8.1620     0.0780 H     1 <1>   0.0720 
 48 H       10.4510     6.8190     0.2680 H     1 <1>   0.0720 
@<TRIPOS>BOND
  1   1   2  ar  
  2   2   3  ar  
  3   2   4  1   
  4   4   5  ar  
  5   4   6  ar  
  6   5   7  ar  
  7   5  25  1   
  8   6   8  ar  
  9   6  26  1   
 10   7   9  ar  
 11   8   9  ar  
 12   8  10  1   
 13   9  11  1   
 14  10  12  ar  
 15  10  27  1   
 16  11  12  ar  
 17  11  13  1   
 18  12  14  ar  
 19  13  15  1   
 20  13  28  1   
 21  13  29  1   
 22  14  16  1   
 23  14  17  1   
 24  15  30  1   
 25  15  31  1   
 26  15  32  1   
 27  16  18  1   
 28  16  33  1   
 29  16  34  1   
 30  17  35  1   
 31  17  36  1   
 32  17  37  1   
 33  18  19  1   
 34  18  38  1   
 35  18  39  1   
 36  19  20  1   
 37  19  21  1   
 38  19  40  1   
 39  20  22  1   
 40  21  23  1   
 41  21  41  1   
 42  21  42  1   
 43  22  24  1   
 44  22  43  1   
 45  22  44  1   
 46  23  24  1   
 47  23  45  1   
 48  23  46  1   
 49  24  47  1   
 50  24  48  1   
@<TRIPOS>SUBSTRUCTURE
  1 ****  10 GROUP 4 **** **** 0

# MOE 2024.06 (io_trps.svl 2023.06)
