@<TRIPOS>MOLECULE
NONAME
50 52 1 0 0 
SMALL
USER_CHARGES


@<TRIPOS>ATOM
  1 F       -1.3110     0.2530     1.2620 F     1 <1>  -0.3400 
  2 C       -2.3430     0.6250     0.5200 C.3   1 <1>   1.1640 
  3 F       -2.2990    -0.1030    -0.5880 F     1 <1>  -0.3400 
  4 F       -3.4350     0.2330     1.1670 F     1 <1>  -0.3400 
  5 C       -2.4030     2.1320     0.2050 C.ar  1 <1>  -0.1440 
  6 C       -3.4150     2.6810    -0.5950 C.ar  1 <1>  -0.1440 
  7 C       -1.4310     2.9830     0.7270 C.ar  1 <1>  -0.1500 
  8 C       -3.4200     4.0450    -0.8590 C.ar  1 <1>  -0.1500 
  9 C       -4.5370     1.8420    -1.2030 C.3   1 <1>   0.4870 
 10 C       -1.4530     4.3390     0.4630 C.ar  1 <1>  -0.1500 
 11 C       -2.4470     4.8710    -0.3320 C.ar  1 <1>  -0.1500 
 12 N       -5.8290     2.2410    -0.5890 N.4   1 <1>  -0.9590 
 13 C       -5.8920     2.0740     0.8860 C.3   1 <1>   0.3430 
 14 C       -7.0140     1.6470    -1.2690 C.3   1 <1>   0.3430 
 15 C       -7.0920     2.8540     1.4410 C.3   1 <1>  -0.1600 
 16 C       -8.3150     2.0730    -0.5760 C.3   1 <1>  -0.1600 
 17 C       -8.1330     3.2700     0.3810 C.3   1 <1>   0.2800 
 18 O       -7.5500     4.3450    -0.3230 O.3   1 <1>  -0.5600 
 19 C       -9.4300     3.7290     1.0920 C.3   1 <1>  -0.1600 
 20 C       -8.3730     5.0440    -1.2330 C.3   1 <1>   0.1200 
 21 C      -10.3650     4.6010     0.2370 C.3   1 <1>   0.2800 
 22 C       -9.5490     5.6920    -0.4950 C.3   1 <1>   0.2000 
 23 O      -10.9580     3.7850    -0.7060 O.3   1 <1>  -0.6800 
 24 C      -11.5180     5.1760     1.0650 C.3   1 <1>  -0.2400 
 25 O       -9.0130     6.6040     0.4120 O.3   1 <1>  -0.6800 
 26 H       -0.6340     2.6030     1.3480 H     1 <1>   0.1500 
 27 H       -4.1800     4.4890    -1.4820 H     1 <1>   0.1500 
 28 H       -4.3700     0.7910    -1.0470 H     1 <1>   0.0800 
 29 H       -4.5680     2.0210    -2.2650 H     1 <1>   0.0800 
 30 H       -0.6920     4.9820     0.8750 H     1 <1>   0.1500 
 31 H       -2.4590     5.9280    -0.5400 H     1 <1>   0.1500 
 32 H       -5.9420     3.2650    -0.7160 H     1 <1>   0.4500 
 33 H       -5.9900     1.0280     1.1270 H     1 <1>   0.0800 
 34 H       -4.9900     2.4450     1.3460 H     1 <1>   0.0800 
 35 H       -7.0380     1.9870    -2.2930 H     1 <1>   0.0800 
 36 H       -6.9440     0.5710    -1.2740 H     1 <1>   0.0800 
 37 H       -6.7380     3.7290     1.9560 H     1 <1>   0.0800 
 38 H       -7.5620     2.2320     2.1820 H     1 <1>   0.0800 
 39 H       -8.6860     1.2360    -0.0120 H     1 <1>   0.0800 
 40 H       -9.0570     2.2710    -1.3260 H     1 <1>   0.0800 
 41 H       -9.9680     2.8780     1.4690 H     1 <1>   0.0800 
 42 H       -9.1470     4.3120     1.9510 H     1 <1>   0.0800 
 43 H       -7.7800     5.8050    -1.7090 H     1 <1>   0.0800 
 44 H       -8.7280     4.3690    -1.9900 H     1 <1>   0.0800 
 45 H      -10.1820     6.2400    -1.1710 H     1 <1>   0.0800 
 46 H      -11.7920     3.4290    -0.3440 H     1 <1>   0.4000 
 47 H      -11.1330     5.8270     1.8300 H     1 <1>   0.0800 
 48 H      -12.0790     4.3950     1.5470 H     1 <1>   0.0800 
 49 H      -12.1730     5.7580     0.4410 H     1 <1>   0.0800 
 50 H       -8.2100     6.2100     0.8080 H     1 <1>   0.4000 
@<TRIPOS>BOND
  1   1   2  1   
  2   2   3  1   
  3   2   4  1   
  4   2   5  1   
  5   5   6  ar  
  6   5   7  ar  
  7   6   8  ar  
  8   6   9  1   
  9   7  10  ar  
 10   7  26  1   
 11   8  11  ar  
 12   8  27  1   
 13   9  12  1   
 14   9  28  1   
 15   9  29  1   
 16  10  11  ar  
 17  10  30  1   
 18  11  31  1   
 19  12  13  1   
 20  12  14  1   
 21  12  32  1   
 22  13  15  1   
 23  13  33  1   
 24  13  34  1   
 25  14  16  1   
 26  14  35  1   
 27  14  36  1   
 28  15  17  1   
 29  15  37  1   
 30  15  38  1   
 31  16  17  1   
 32  16  39  1   
 33  16  40  1   
 34  17  18  1   
 35  17  19  1   
 36  18  20  1   
 37  19  21  1   
 38  19  41  1   
 39  19  42  1   
 40  20  22  1   
 41  20  43  1   
 42  20  44  1   
 43  21  22  1   
 44  21  23  1   
 45  21  24  1   
 46  22  25  1   
 47  22  45  1   
 48  23  46  1   
 49  24  47  1   
 50  24  48  1   
 51  24  49  1   
 52  25  50  1   
@<TRIPOS>SUBSTRUCTURE
  1 ****  12 GROUP 4 **** **** 0

# MOE 2024.06 (io_trps.svl 2023.06)
