@<TRIPOS>MOLECULE
NONAME
51 53 1 0 0 
SMALL
USER_CHARGES


@<TRIPOS>ATOM
  1 O       -0.3580     0.9850    -1.0990 O.co2 1 <1>  -0.9000 
  2 C       -0.2590     1.5700    -0.0080 C.2   1 <1>   0.9060 
  3 O        0.7300     1.4650     0.7210 O.co2 1 <1>  -0.9000 
  4 C       -1.5340     2.2630     0.5340 C.3   1 <1>   0.4600 
  5 N       -2.7900     1.4630     0.2190 N.4   1 <1>  -0.9590 
  6 C       -1.7210     3.6810    -0.0040 C.ar  1 <1>  -0.1430 
  7 C       -4.0590     2.1540     0.5600 C.3   1 <1>   0.3430 
  8 C       -2.6600     0.0850     0.7670 C.3   1 <1>   0.3430 
  9 C       -2.0100     4.7150     0.8740 C.ar  1 <1>  -0.1500 
 10 C       -1.6290     3.9560    -1.3620 C.ar  1 <1>  -0.1500 
 11 C       -5.2450     1.3110     0.1070 C.3   1 <1>  -0.1600 
 12 C       -3.8410    -0.7690     0.3170 C.3   1 <1>  -0.1600 
 13 C       -2.2230     6.0040     0.4120 C.ar  1 <1>   0.0830 
 14 C       -1.8350     5.2420    -1.8320 C.ar  1 <1>  -0.1500 
 15 C       -5.1720    -0.1040     0.6790 C.3   1 <1>   0.2000 
 16 O       -2.5110     6.9430     1.3460 O.3   1 <1>  -0.3630 
 17 C       -2.1340     6.2660    -0.9510 C.ar  1 <1>  -0.1500 
 18 O       -6.2050    -0.8160     0.0910 O.3   1 <1>  -0.5600 
 19 C       -2.6000     8.3090     1.0050 C.3   1 <1>   0.0400 
 20 C       -6.6840    -1.9160     0.8070 C.3   1 <1>   0.2630 
 21 C       -7.7670    -2.6030    -0.0090 C.ar  1 <1>  -0.1430 
 22 C       -8.8360    -1.8740    -0.5100 C.ar  1 <1>  -0.1500 
 23 C       -7.7040    -3.9670    -0.2550 C.ar  1 <1>  -0.1500 
 24 C       -9.8300    -2.4990    -1.2430 C.ar  1 <1>  -0.1500 
 25 C       -8.6970    -4.5930    -0.9890 C.ar  1 <1>  -0.1500 
 26 C       -9.7610    -3.8600    -1.4830 C.ar  1 <1>  -0.1500 
 27 H       -1.4090     2.3200     1.6000 H     1 <1>   0.0800 
 28 H       -2.7060     1.3540    -0.8060 H     1 <1>   0.4500 
 29 H       -4.0990     3.1160     0.0720 H     1 <1>   0.0800 
 30 H       -4.1090     2.3130     1.6250 H     1 <1>   0.0800 
 31 H       -2.6250     0.1240     1.8440 H     1 <1>   0.0800 
 32 H       -1.7440    -0.3670     0.4150 H     1 <1>   0.0800 
 33 H       -2.0720     4.5400     1.9340 H     1 <1>   0.1500 
 34 H       -1.3880     3.1730    -2.0650 H     1 <1>   0.1500 
 35 H       -5.2550     1.2700    -0.9680 H     1 <1>   0.0800 
 36 H       -6.1550     1.7810     0.4330 H     1 <1>   0.0800 
 37 H       -3.7630    -1.7290     0.7900 H     1 <1>   0.0800 
 38 H       -3.7800    -0.9120    -0.7480 H     1 <1>   0.0800 
 39 H       -1.7580     5.4430    -2.8860 H     1 <1>   0.1500 
 40 H       -5.3190    -0.0760     1.7470 H     1 <1>   0.0800 
 41 H       -2.2910     7.2530    -1.3420 H     1 <1>   0.1500 
 42 H       -2.7780     8.8680     1.9060 H     1 <1>   0.0800 
 43 H       -3.4200     8.4470     0.3220 H     1 <1>   0.0800 
 44 H       -1.6710     8.6190     0.5600 H     1 <1>   0.0800 
 45 H       -7.0940    -1.5700     1.7400 H     1 <1>   0.0800 
 46 H       -5.8710    -2.5940     0.9950 H     1 <1>   0.0800 
 47 H       -8.8920    -0.8150    -0.3320 H     1 <1>   0.1500 
 48 H       -6.8830    -4.5520     0.1210 H     1 <1>   0.1500 
 49 H      -10.6550    -1.9250    -1.6280 H     1 <1>   0.1500 
 50 H       -8.6430    -5.6510    -1.1770 H     1 <1>   0.1500 
 51 H      -10.5330    -4.3460    -2.0540 H     1 <1>   0.1500 
@<TRIPOS>BOND
  1   1   2  ar  
  2   2   3  ar  
  3   2   4  1   
  4   4   5  1   
  5   4   6  1   
  6   4  27  1   
  7   5   7  1   
  8   5   8  1   
  9   5  28  1   
 10   6   9  ar  
 11   6  10  ar  
 12   7  11  1   
 13   7  29  1   
 14   7  30  1   
 15   8  12  1   
 16   8  31  1   
 17   8  32  1   
 18   9  13  ar  
 19   9  33  1   
 20  10  14  ar  
 21  10  34  1   
 22  11  15  1   
 23  11  35  1   
 24  11  36  1   
 25  12  15  1   
 26  12  37  1   
 27  12  38  1   
 28  13  16  1   
 29  13  17  ar  
 30  14  17  ar  
 31  14  39  1   
 32  15  18  1   
 33  15  40  1   
 34  16  19  1   
 35  17  41  1   
 36  18  20  1   
 37  19  42  1   
 38  19  43  1   
 39  19  44  1   
 40  20  21  1   
 41  20  45  1   
 42  20  46  1   
 43  21  22  ar  
 44  21  23  ar  
 45  22  24  ar  
 46  22  47  1   
 47  23  25  ar  
 48  23  48  1   
 49  24  26  ar  
 50  24  49  1   
 51  25  26  ar  
 52  25  50  1   
 53  26  51  1   
@<TRIPOS>SUBSTRUCTURE
  1 ****   7 GROUP 4 **** **** 0

# MOE 2024.06 (io_trps.svl 2023.06)
