@<TRIPOS>MOLECULE
NONAME
56 59 1 0 0 
SMALL
USER_CHARGES


@<TRIPOS>ATOM
  1 O       -1.5240     1.0590    -2.7420 O.2   1 <1>  -0.5700 
  2 C       -2.0810     1.2200    -1.6800 C.2   1 <1>   0.5690 
  3 N       -2.9490     0.2820    -1.1800 N.am  1 <1>  -0.6600 
  4 C       -1.7770     2.4850    -0.8930 C.3   1 <1>  -0.0990 
  5 C       -3.1140    -1.0420    -1.8540 C.3   1 <1>   0.1400 
  6 C       -3.8740     0.5200    -0.0390 C.3   1 <1>   0.1400 
  7 C       -0.5670     3.2650    -1.4350 C.3   1 <1>   0.0200 
  8 C       -3.0380    -2.2580    -0.8930 C.3   1 <1>   0.0000 
  9 C       -3.7020    -0.5830     0.9980 C.3   1 <1>  -0.1600 
 10 C       -0.2410     4.4960    -0.6020 C.2   1 <1>   0.0060 
 11 C       -3.9120    -1.9580     0.3580 C.3   1 <1>   0.2000 
 12 C       -3.7110    -3.4540    -1.6120 C.3   1 <1>   0.1200 
 13 C       -1.5610    -2.6830    -0.5850 C.3   1 <1>  -0.0170 
 14 N       -0.8160     4.8200     0.5050 N.2   1 <1>  -0.5650 
 15 N        0.7230     5.3690    -0.9900 N.pl3 1 <1>   0.0330 
 16 O       -3.7110    -2.9100     1.3340 O.3   1 <1>  -0.6800 
 17 O       -3.0470    -3.7890    -2.7890 O.3   1 <1>  -0.6800 
 18 C       -0.7690    -1.8920     0.4520 C.ar  1 <1>  -0.1440 
 19 C       -0.2040     5.9780     0.8820 C.ar  1 <1>   0.2270 
 20 C        0.7610     6.3360    -0.0410 C.ar  1 <1>  -0.1520 
 21 C       -0.1230    -0.7210     0.0930 C.ar  1 <1>  -0.1500 
 22 C       -0.6590    -2.3480     1.7590 C.ar  1 <1>  -0.1500 
 23 C       -0.4240     6.7760     2.0030 C.ar  1 <1>  -0.1500 
 24 C        1.5290     7.4910     0.1230 C.ar  1 <1>  -0.1500 
 25 C        0.5740     0.0180     1.0340 C.ar  1 <1>  -0.1500 
 26 C        0.0390    -1.6130     2.7020 C.ar  1 <1>  -0.1500 
 27 C        0.3290     7.9180     2.1740 C.ar  1 <1>  -0.1500 
 28 C        1.3040     8.2750     1.2340 C.ar  1 <1>  -0.1500 
 29 C        0.6490    -0.4250     2.3420 C.ar  1 <1>  -0.1500 
 30 H       -2.6410     3.1230    -0.9100 H     1 <1>   0.0800 
 31 H       -1.5730     2.2110     0.1260 H     1 <1>   0.0800 
 32 H       -4.0750    -1.0320    -2.3370 H     1 <1>   0.0800 
 33 H       -2.3740    -1.1590    -2.6260 H     1 <1>   0.0800 
 34 H       -3.6960     1.4740     0.4250 H     1 <1>   0.0800 
 35 H       -4.8860     0.5190    -0.4070 H     1 <1>   0.0800 
 36 H       -0.7710     3.5710    -2.4460 H     1 <1>   0.0800 
 37 H        0.2920     2.6170    -1.4470 H     1 <1>   0.0800 
 38 H       -4.4300    -0.4400     1.7760 H     1 <1>   0.0800 
 39 H       -2.7270    -0.4910     1.4370 H     1 <1>   0.0800 
 40 H       -4.9490    -2.0250     0.0760 H     1 <1>   0.0800 
 41 H       -4.7350    -3.2360    -1.8620 H     1 <1>   0.0800 
 42 H       -3.7000    -4.3250    -0.9770 H     1 <1>   0.0800 
 43 H       -1.5660    -3.7090    -0.2600 H     1 <1>   0.0800 
 44 H       -0.9990    -2.6780    -1.5030 H     1 <1>   0.0800 
 45 H        1.3060     5.3160    -1.8280 H     1 <1>   0.2700 
 46 H       -2.8210    -2.7660     1.7150 H     1 <1>   0.4000 
 47 H       -3.1510    -3.1000    -3.4730 H     1 <1>   0.4000 
 48 H       -0.1560    -0.3820    -0.9260 H     1 <1>   0.1500 
 49 H       -1.1050    -3.2810     2.0530 H     1 <1>   0.1500 
 50 H       -1.1780     6.4780     2.7060 H     1 <1>   0.1500 
 51 H        2.2750     7.7570    -0.6040 H     1 <1>   0.1500 
 52 H        1.0580     0.9350     0.7470 H     1 <1>   0.1500 
 53 H        0.1120    -1.9680     3.7150 H     1 <1>   0.1500 
 54 H        0.1720     8.5470     3.0340 H     1 <1>   0.1500 
 55 H        1.8780     9.1720     1.3910 H     1 <1>   0.1500 
 56 H        1.1880     0.1500     3.0740 H     1 <1>   0.1500 
@<TRIPOS>BOND
  1   1   2  2   
  2   2   3  am  
  3   2   4  1   
  4   3   5  1   
  5   3   6  1   
  6   4   7  1   
  7   4  30  1   
  8   4  31  1   
  9   5   8  1   
 10   5  32  1   
 11   5  33  1   
 12   6   9  1   
 13   6  34  1   
 14   6  35  1   
 15   7  10  1   
 16   7  36  1   
 17   7  37  1   
 18   8  11  1   
 19   8  12  1   
 20   8  13  1   
 21   9  11  1   
 22   9  38  1   
 23   9  39  1   
 24  10  14  2   
 25  10  15  1   
 26  11  16  1   
 27  11  40  1   
 28  12  17  1   
 29  12  41  1   
 30  12  42  1   
 31  13  18  1   
 32  13  43  1   
 33  13  44  1   
 34  14  19  1   
 35  15  20  1   
 36  15  45  1   
 37  16  46  1   
 38  17  47  1   
 39  18  21  ar  
 40  18  22  ar  
 41  19  20  ar  
 42  19  23  ar  
 43  20  24  ar  
 44  21  25  ar  
 45  21  48  1   
 46  22  26  ar  
 47  22  49  1   
 48  23  27  ar  
 49  23  50  1   
 50  24  28  ar  
 51  24  51  1   
 52  25  29  ar  
 53  25  52  1   
 54  26  29  ar  
 55  26  53  1   
 56  27  28  ar  
 57  27  54  1   
 58  28  55  1   
 59  29  56  1   
@<TRIPOS>SUBSTRUCTURE
  1 ****   4 GROUP 4 **** **** 0

# MOE 2024.06 (io_trps.svl 2023.06)
