@<TRIPOS>MOLECULE
NONAME
35 36 1 0 0 
SMALL
USER_CHARGES


@<TRIPOS>ATOM
  1 F       -0.6730     0.2240     0.7080 F     1 <1>  -0.1900 
  2 C       -1.3010     0.9510    -0.1890 C.ar  1 <1>   0.1900 
  3 C       -0.8960     2.2620    -0.4320 C.ar  1 <1>   0.1000 
  4 C       -2.3650     0.3870    -0.8650 C.ar  1 <1>   0.1600 
  5 N        0.1580     2.9280     0.1950 N.pl3 1 <1>  -0.8380 
  6 C       -1.6500     2.9150    -1.3920 C.ar  1 <1>  -0.1500 
  7 N       -3.0840     1.0220    -1.7860 N.ar  1 <1>  -0.6200 
  8 C        1.4810     2.2410     0.2520 C.3   1 <1>   0.3900 
  9 C       -0.1770     3.7620     1.3760 C.3   1 <1>   0.2090 
 10 C       -2.7020     2.2720    -2.0210 C.ar  1 <1>   0.1600 
 11 C        2.6100     3.2540     0.2260 C.2   1 <1>  -0.1810 
 12 C       -0.0680     5.2340     0.9950 C.3   1 <1>  -0.2400 
 13 C        3.3830     3.6470     1.3120 C.2   1 <1>   0.1390 
 14 C        3.0940     3.9720    -0.8110 C.2   1 <1>  -0.3020 
 15 N        4.2740     4.5330     0.9880 N.2   1 <1>  -0.7070 
 16 N        4.0950     4.7370    -0.3310 N.pl3 1 <1>   0.3140 
 17 C        4.9150     5.6970    -1.0940 C.3   1 <1>   0.0960 
 18 C        6.0130     4.9800    -1.8900 C.3   1 <1>  -0.2400 
 19 H       -2.6380    -0.6280    -0.6390 H     1 <1>   0.1500 
 20 H       -1.4030     3.9290    -1.6440 H     1 <1>   0.1500 
 21 H        1.5790     1.5880    -0.5980 H     1 <1>   0.0800 
 22 H        1.5430     1.6430     1.1450 H     1 <1>   0.0800 
 23 H        0.4920     3.5440     2.1920 H     1 <1>   0.0800 
 24 H       -1.1820     3.5470     1.6990 H     1 <1>   0.0800 
 25 H       -3.2630     2.8140    -2.7630 H     1 <1>   0.1500 
 26 H        0.9340     5.4660     0.6840 H     1 <1>   0.0800 
 27 H       -0.3120     5.8470     1.8430 H     1 <1>   0.0800 
 28 H       -0.7500     5.4620     0.1980 H     1 <1>   0.0800 
 29 H        3.2680     3.2700     2.3130 H     1 <1>   0.1500 
 30 H        2.7810     3.9820    -1.8380 H     1 <1>   0.1500 
 31 H        5.3560     6.3870    -0.3980 H     1 <1>   0.0800 
 32 H        4.2690     6.2440    -1.7560 H     1 <1>   0.0800 
 33 H        6.6550     4.4360    -1.2190 H     1 <1>   0.0800 
 34 H        6.6060     5.7000    -2.4240 H     1 <1>   0.0800 
 35 H        5.5780     4.2980    -2.5990 H     1 <1>   0.0800 
@<TRIPOS>BOND
  1   1   2  1   
  2   2   3  ar  
  3   2   4  ar  
  4   3   5  1   
  5   3   6  ar  
  6   4   7  ar  
  7   4  19  1   
  8   5   8  1   
  9   5   9  1   
 10   6  10  ar  
 11   6  20  1   
 12   7  10  ar  
 13   8  11  1   
 14   8  21  1   
 15   8  22  1   
 16   9  12  1   
 17   9  23  1   
 18   9  24  1   
 19  10  25  1   
 20  11  13  1   
 21  11  14  2   
 22  12  26  1   
 23  12  27  1   
 24  12  28  1   
 25  13  15  2   
 26  13  29  1   
 27  14  16  1   
 28  14  30  1   
 29  15  16  1   
 30  16  17  1   
 31  17  18  1   
 32  17  31  1   
 33  17  32  1   
 34  18  33  1   
 35  18  34  1   
 36  18  35  1   
@<TRIPOS>SUBSTRUCTURE
  1 ****   5 GROUP 4 **** **** 0

# MOE 2024.06 (io_trps.svl 2023.06)
