@<TRIPOS>MOLECULE
NONAME
56 59 1 0 0 
SMALL
USER_CHARGES


@<TRIPOS>ATOM
  1 CL      -4.9460     4.0550     1.6920 Cl    1 <1>  -0.1770 
  2 C       -3.2820     3.9450     1.1660 C.ar  1 <1>   0.1770 
  3 C       -2.7490     2.7320     0.7490 C.ar  1 <1>  -0.1440 
  4 C       -2.5270     5.1050     1.1830 C.ar  1 <1>  -0.1500 
  5 C       -1.4210     2.7260     0.3440 C.ar  1 <1>   0.1770 
  6 C       -3.5990     1.4650     0.7420 C.3   1 <1>   0.2840 
  7 C       -1.2040     5.0730     0.7760 C.ar  1 <1>  -0.1500 
  8 CL      -0.6620     1.2520    -0.2090 Cl    1 <1>  -0.1770 
  9 C       -0.6500     3.8760     0.3550 C.ar  1 <1>  -0.1500 
 10 N       -4.5750     1.4860    -0.3870 N.am  1 <1>  -0.4690 
 11 C       -5.9200     1.2200    -0.1410 C.2   1 <1>   0.6160 
 12 C       -4.1410     1.7580    -1.6660 C.2   1 <1>  -0.0410 
 13 O       -6.2530     0.8400     0.9750 O.2   1 <1>  -0.5700 
 14 C       -6.8610     1.3830    -1.2080 C.2   1 <1>   0.0290 
 15 C       -5.0200     1.8490    -2.6990 C.2   1 <1>  -0.1500 
 16 C       -8.2650     1.2260    -0.9470 C.2   1 <1>   0.6160 
 17 C       -6.3960     1.6710    -2.4670 C.2   1 <1>  -0.1500 
 18 O       -8.8840     0.4060    -1.6040 O.2   1 <1>  -0.5700 
 19 N       -8.9540     2.0260    -0.0550 N.am  1 <1>  -0.6600 
 20 C      -10.4160     1.8500     0.2010 C.3   1 <1>   0.1400 
 21 C       -8.3330     3.1740     0.6740 C.3   1 <1>   0.1400 
 22 C      -11.2050     3.0860    -0.3140 C.3   1 <1>   0.0000 
 23 C       -9.3740     4.2400     1.0580 C.3   1 <1>  -0.1600 
 24 C      -12.6360     3.1130     0.2600 C.3   1 <1>   0.2000 
 25 C      -10.4340     4.4090    -0.0420 C.3   1 <1>  -0.1600 
 26 C      -11.4930     2.9200    -1.8160 C.3   1 <1>  -0.1600 
 27 O      -12.6600     2.8130     1.6240 O.3   1 <1>  -0.5600 
 28 C      -13.4230     2.0830    -0.5540 C.3   1 <1>  -0.1600 
 29 C      -12.7140     1.9970    -1.9130 C.3   1 <1>  -0.1600 
 30 C      -13.8540     3.1170     2.2720 C.3   1 <1>   0.0400 
 31 H       -2.9750     6.0260     1.5130 H     1 <1>   0.1500 
 32 H       -4.1080     1.3970     1.6870 H     1 <1>   0.0800 
 33 H       -2.9920     0.5830     0.6520 H     1 <1>   0.0800 
 34 H       -0.6100     5.9720     0.7870 H     1 <1>   0.1500 
 35 H        0.3770     3.8320     0.0350 H     1 <1>   0.1500 
 36 H       -3.0840     1.8960    -1.8260 H     1 <1>   0.1500 
 37 H       -4.6860     2.0600    -3.7010 H     1 <1>   0.1500 
 38 H       -7.0810     1.7640    -3.2930 H     1 <1>   0.1500 
 39 H      -10.7810     0.9470    -0.2540 H     1 <1>   0.0800 
 40 H      -10.5470     1.7380     1.2630 H     1 <1>   0.0800 
 41 H       -7.8460     2.8110     1.5630 H     1 <1>   0.0800 
 42 H       -7.5890     3.6290     0.0430 H     1 <1>   0.0800 
 43 H       -9.8550     3.9510     1.9770 H     1 <1>   0.0800 
 44 H       -8.8720     5.1740     1.2380 H     1 <1>   0.0800 
 45 H      -13.0600     4.0910     0.1090 H     1 <1>   0.0800 
 46 H       -9.9240     4.7170    -0.9380 H     1 <1>   0.0800 
 47 H      -11.1130     5.1970     0.2300 H     1 <1>   0.0800 
 48 H      -11.7490     3.8740    -2.2450 H     1 <1>   0.0800 
 49 H      -10.6480     2.5200    -2.3500 H     1 <1>   0.0800 
 50 H      -13.3830     1.1230    -0.0690 H     1 <1>   0.0800 
 51 H      -14.4470     2.3890    -0.6720 H     1 <1>   0.0800 
 52 H      -12.3930     0.9840    -2.0910 H     1 <1>   0.0800 
 53 H      -13.3610     2.3020    -2.7170 H     1 <1>   0.0800 
 54 H      -13.7410     2.8640     3.3120 H     1 <1>   0.0800 
 55 H      -14.6530     2.5370     1.8450 H     1 <1>   0.0800 
 56 H      -14.0530     4.1700     2.1760 H     1 <1>   0.0800 
@<TRIPOS>BOND
  1   1   2  1   
  2   2   3  ar  
  3   2   4  ar  
  4   3   5  ar  
  5   3   6  1   
  6   4   7  ar  
  7   4  31  1   
  8   5   8  1   
  9   5   9  ar  
 10   6  10  1   
 11   6  32  1   
 12   6  33  1   
 13   7   9  ar  
 14   7  34  1   
 15   9  35  1   
 16  10  11  am  
 17  10  12  1   
 18  11  13  2   
 19  11  14  1   
 20  12  15  2   
 21  12  36  1   
 22  14  16  1   
 23  14  17  2   
 24  15  17  1   
 25  15  37  1   
 26  16  18  2   
 27  16  19  am  
 28  17  38  1   
 29  19  20  1   
 30  19  21  1   
 31  20  22  1   
 32  20  39  1   
 33  20  40  1   
 34  21  23  1   
 35  21  41  1   
 36  21  42  1   
 37  22  24  1   
 38  22  25  1   
 39  22  26  1   
 40  23  25  1   
 41  23  43  1   
 42  23  44  1   
 43  24  27  1   
 44  24  28  1   
 45  24  45  1   
 46  25  46  1   
 47  25  47  1   
 48  26  29  1   
 49  26  48  1   
 50  26  49  1   
 51  27  30  1   
 52  28  29  1   
 53  28  50  1   
 54  28  51  1   
 55  29  52  1   
 56  29  53  1   
 57  30  54  1   
 58  30  55  1   
 59  30  56  1   
@<TRIPOS>SUBSTRUCTURE
  1 ****  21 GROUP 4 **** **** 0

# MOE 2024.06 (io_trps.svl 2023.06)
