@<TRIPOS>MOLECULE
NONAME
56 59 1 0 0 
SMALL
USER_CHARGES


@<TRIPOS>ATOM
  1 O        0.8480    -0.1940     0.0280 O.2   1 <1>  -0.5700 
  2 C        1.9370    -0.7310    -0.0570 C.2   1 <1>   0.5440 
  3 N        1.9990    -2.1080    -0.1560 N.am  1 <1>  -0.6600 
  4 C        3.1200     0.0960    -0.0430 C.ar  1 <1>   0.0860 
  5 C        0.7860    -2.9220    -0.4540 C.3   1 <1>   0.1400 
  6 C        3.1960    -2.9130     0.2210 C.3   1 <1>   0.1400 
  7 C        3.2600     1.1050     0.9050 C.ar  1 <1>   0.1600 
  8 C        4.1550    -0.0490    -0.9610 C.ar  1 <1>  -0.1500 
  9 C        0.4390    -3.8000     0.7520 C.3   1 <1>  -0.1600 
 10 C        2.8670    -3.7990     1.4270 C.3   1 <1>  -0.1600 
 11 N        4.2950     1.9180     1.0300 N.ar  1 <1>  -0.6200 
 12 C        5.2350     0.7920    -0.8520 C.ar  1 <1>  -0.1500 
 13 C        1.6290    -4.6720     1.1750 C.3   1 <1>  -0.1600 
 14 C        5.2800     1.7580     0.1530 C.ar  1 <1>   0.4100 
 15 N        6.3670     2.5960     0.2670 N.pl3 1 <1>  -0.8380 
 16 C        6.2010     3.9380     0.8910 C.3   1 <1>   0.3900 
 17 C        7.7570     2.0620     0.2360 C.3   1 <1>   0.1290 
 18 C        7.1160     4.9400     0.2090 C.2   1 <1>  -0.1810 
 19 C        7.1250     5.2140    -1.1520 C.2   1 <1>   0.1390 
 20 C        8.0720     5.7430     0.7210 C.2   1 <1>  -0.3020 
 21 N        8.0070     6.1100    -1.4670 N.2   1 <1>  -0.7070 
 22 N        8.6090     6.4550    -0.3000 N.pl3 1 <1>   0.5930 
 23 C        9.6650     7.4020    -0.1890 C.ar  1 <1>  -0.0230 
 24 C        9.4550     8.7700    -0.3800 C.ar  1 <1>  -0.1440 
 25 C       10.9440     6.9550     0.1320 C.ar  1 <1>  -0.1500 
 26 C       10.5140     9.6540    -0.2440 C.ar  1 <1>  -0.1500 
 27 C        8.0780     9.3120    -0.7410 C.3   1 <1>  -0.0970 
 28 C       11.9950     7.8430     0.2670 C.ar  1 <1>  -0.1500 
 29 C       11.7790     9.1960     0.0790 C.ar  1 <1>  -0.1500 
 30 H        0.9840    -3.5410    -1.3120 H     1 <1>   0.0800 
 31 H       -0.0510    -2.2870    -0.6930 H     1 <1>   0.0800 
 32 H        4.0260    -2.2770     0.4730 H     1 <1>   0.0800 
 33 H        3.4820    -3.5270    -0.6160 H     1 <1>   0.0800 
 34 H        2.4510     1.2380     1.6050 H     1 <1>   0.1500 
 35 H        4.0950    -0.7940    -1.7340 H     1 <1>   0.1500 
 36 H       -0.4000    -4.4260     0.5060 H     1 <1>   0.0800 
 37 H        0.1450    -3.1620     1.5670 H     1 <1>   0.0800 
 38 H        2.6950    -3.1690     2.2830 H     1 <1>   0.0800 
 39 H        3.7120    -4.4270     1.6490 H     1 <1>   0.0800 
 40 H        6.0520     0.7260    -1.5450 H     1 <1>   0.1500 
 41 H        1.8450    -5.3840     0.3980 H     1 <1>   0.0800 
 42 H        1.3800    -5.2180     2.0690 H     1 <1>   0.0800 
 43 H        6.4310     3.8750     1.9400 H     1 <1>   0.0800 
 44 H        5.1830     4.2720     0.7860 H     1 <1>   0.0800 
 45 H        7.7490     0.9880     0.1640 H     1 <1>   0.0800 
 46 H        8.2780     2.3380     1.1360 H     1 <1>   0.0800 
 47 H        8.2820     2.4680    -0.6110 H     1 <1>   0.0800 
 48 H        6.4760     4.7320    -1.8660 H     1 <1>   0.1500 
 49 H        8.4080     5.8630     1.7330 H     1 <1>   0.1500 
 50 H       11.1190     5.9020     0.2730 H     1 <1>   0.1500 
 51 H       10.3630    10.7090    -0.3900 H     1 <1>   0.1500 
 52 H        7.3530     9.0010    -0.0100 H     1 <1>   0.0800 
 53 H        7.7800     8.9360    -1.7040 H     1 <1>   0.0800 
 54 H        8.0800    10.3860    -0.7820 H     1 <1>   0.0800 
 55 H       12.9780     7.4840     0.5140 H     1 <1>   0.1500 
 56 H       12.5940     9.8910     0.1820 H     1 <1>   0.1500 
@<TRIPOS>BOND
  1   1   2  2   
  2   2   3  am  
  3   2   4  1   
  4   3   5  1   
  5   3   6  1   
  6   4   7  ar  
  7   4   8  ar  
  8   5   9  1   
  9   5  30  1   
 10   5  31  1   
 11   6  10  1   
 12   6  32  1   
 13   6  33  1   
 14   7  11  ar  
 15   7  34  1   
 16   8  12  ar  
 17   8  35  1   
 18   9  13  1   
 19   9  36  1   
 20   9  37  1   
 21  10  13  1   
 22  10  38  1   
 23  10  39  1   
 24  11  14  ar  
 25  12  14  ar  
 26  12  40  1   
 27  13  41  1   
 28  13  42  1   
 29  14  15  1   
 30  15  16  1   
 31  15  17  1   
 32  16  18  1   
 33  16  43  1   
 34  16  44  1   
 35  17  45  1   
 36  17  46  1   
 37  17  47  1   
 38  18  19  1   
 39  18  20  2   
 40  19  21  2   
 41  19  48  1   
 42  20  22  1   
 43  20  49  1   
 44  21  22  1   
 45  22  23  1   
 46  23  24  ar  
 47  23  25  ar  
 48  24  26  ar  
 49  24  27  1   
 50  25  28  ar  
 51  25  50  1   
 52  26  29  ar  
 53  26  51  1   
 54  27  52  1   
 55  27  53  1   
 56  27  54  1   
 57  28  29  ar  
 58  28  55  1   
 59  29  56  1   
@<TRIPOS>SUBSTRUCTURE
  1 ****  15 GROUP 4 **** **** 0

# MOE 2024.06 (io_trps.svl 2023.06)
