@<TRIPOS>MOLECULE
NONAME
58 61 1 0 0 
SMALL
USER_CHARGES


@<TRIPOS>ATOM
  1 O       -0.7610    -1.4180    -1.5540 O.3   1 <1>  -0.5600 
  2 C        0.0020    -0.2650    -1.7950 C.3   1 <1>   0.2640 
  3 C       -0.8150    -1.8390    -0.2140 C.3   1 <1>   0.1200 
  4 C       -0.8180     0.9420    -1.3600 C.ar  1 <1>  -0.1440 
  5 C       -2.1920    -2.4710     0.0590 C.3   1 <1>   0.3430 
  6 C       -1.8780     1.3730    -2.1440 C.ar  1 <1>  -0.1500 
  7 C       -0.5450     1.5980    -0.1670 C.ar  1 <1>  -0.1500 
  8 N       -3.2550    -1.7050    -0.6550 N.4   1 <1>  -0.9590 
  9 C       -2.6840     2.4160    -1.7200 C.ar  1 <1>  -0.1500 
 10 C       -1.3500     2.6410     0.2570 C.ar  1 <1>  -0.1500 
 11 C       -3.5040    -0.3370    -0.0790 C.3   1 <1>   0.3430 
 12 C       -4.5040    -2.5020    -0.8890 C.3   1 <1>   0.3430 
 13 C       -2.4270     3.0420    -0.5140 C.ar  1 <1>  -0.1500 
 14 C       -4.3170    -0.3240     1.2300 C.3   1 <1>   0.1430 
 15 C       -5.7240    -1.9420    -0.1390 C.3   1 <1>  -0.1600 
 16 C       -4.9860     1.0320     1.2960 C.ar  1 <1>   0.1670 
 17 C       -5.3680    -1.4600     1.2760 C.3   1 <1>  -0.1600 
 18 C       -3.4220    -0.3060     2.5010 C.3   1 <1>  -0.1600 
 19 N       -5.6470     1.5830     0.3090 N.ar  1 <1>  -0.6200 
 20 C       -4.7930     1.6390     2.4980 C.ar  1 <1>  -0.1430 
 21 C       -3.9980     0.7720     3.4390 C.3   1 <1>  -0.0170 
 22 C       -6.1110     2.8110     0.5550 C.ar  1 <1>   0.7200 
 23 C       -5.3170     2.8960     2.6660 C.ar  1 <1>   0.1600 
 24 N       -5.9710     3.4920     1.6960 N.ar  1 <1>  -0.6200 
 25 N       -6.7810     3.4370    -0.4740 N.pl3 1 <1>  -0.8380 
 26 C       -7.0610     4.9000    -0.4480 C.3   1 <1>   0.1290 
 27 C       -7.4610     2.6790    -1.5600 C.3   1 <1>   0.1290 
 28 H        0.2020    -0.2160    -2.8510 H     1 <1>   0.0800 
 29 H        0.9380    -0.3340    -1.2660 H     1 <1>   0.0800 
 30 H       -0.6720    -1.0010     0.4450 H     1 <1>   0.0800 
 31 H       -0.0250    -2.5500    -0.0450 H     1 <1>   0.0800 
 32 H       -2.3890    -2.5070     1.1170 H     1 <1>   0.0800 
 33 H       -2.1710    -3.4830    -0.3100 H     1 <1>   0.0800 
 34 H       -2.0870     0.8930    -3.0850 H     1 <1>   0.1500 
 35 H        0.2920     1.3010     0.4420 H     1 <1>   0.1500 
 36 H       -2.8060    -1.5220    -1.5720 H     1 <1>   0.4500 
 37 H       -3.5160     2.7440    -2.3200 H     1 <1>   0.1500 
 38 H       -1.1420     3.1470     1.1850 H     1 <1>   0.1500 
 39 H       -4.0530     0.2320    -0.8110 H     1 <1>   0.0800 
 40 H       -2.5770     0.1810     0.0810 H     1 <1>   0.0800 
 41 H       -4.3390    -3.5190    -0.5740 H     1 <1>   0.0800 
 42 H       -4.7270    -2.5220    -1.9440 H     1 <1>   0.0800 
 43 H       -3.0640     3.8460    -0.1820 H     1 <1>   0.1500 
 44 H       -6.4800    -2.7060    -0.0840 H     1 <1>   0.0800 
 45 H       -6.1450    -1.1250    -0.7030 H     1 <1>   0.0800 
 46 H       -6.2560    -1.1170     1.7810 H     1 <1>   0.0800 
 47 H       -4.9870    -2.3000     1.8290 H     1 <1>   0.0800 
 48 H       -2.4250    -0.0030     2.2330 H     1 <1>   0.0800 
 49 H       -3.3640    -1.2590     2.9960 H     1 <1>   0.0800 
 50 H       -3.2220     1.3280     3.9350 H     1 <1>   0.0800 
 51 H       -4.6580     0.3340     4.1690 H     1 <1>   0.0800 
 52 H       -5.1970     3.4200     3.5980 H     1 <1>   0.1500 
 53 H       -6.2720     5.4240     0.0640 H     1 <1>   0.0800 
 54 H       -7.9900     5.0800     0.0660 H     1 <1>   0.0800 
 55 H       -7.1270     5.2830    -1.4510 H     1 <1>   0.0800 
 56 H       -7.5960     1.6480    -1.2800 H     1 <1>   0.0800 
 57 H       -6.8680     2.7250    -2.4560 H     1 <1>   0.0800 
 58 H       -8.4300     3.1030    -1.7540 H     1 <1>   0.0800 
@<TRIPOS>BOND
  1   1   2  1   
  2   1   3  1   
  3   2   4  1   
  4   2  28  1   
  5   2  29  1   
  6   3   5  1   
  7   3  30  1   
  8   3  31  1   
  9   4   6  ar  
 10   4   7  ar  
 11   5   8  1   
 12   5  32  1   
 13   5  33  1   
 14   6   9  ar  
 15   6  34  1   
 16   7  10  ar  
 17   7  35  1   
 18   8  11  1   
 19   8  12  1   
 20   8  36  1   
 21   9  13  ar  
 22   9  37  1   
 23  10  13  ar  
 24  10  38  1   
 25  11  14  1   
 26  11  39  1   
 27  11  40  1   
 28  12  15  1   
 29  12  41  1   
 30  12  42  1   
 31  13  43  1   
 32  14  16  1   
 33  14  17  1   
 34  14  18  1   
 35  15  17  1   
 36  15  44  1   
 37  15  45  1   
 38  16  19  ar  
 39  16  20  ar  
 40  17  46  1   
 41  17  47  1   
 42  18  21  1   
 43  18  48  1   
 44  18  49  1   
 45  19  22  ar  
 46  20  21  1   
 47  20  23  ar  
 48  21  50  1   
 49  21  51  1   
 50  22  24  ar  
 51  22  25  1   
 52  23  24  ar  
 53  23  52  1   
 54  25  26  1   
 55  25  27  1   
 56  26  53  1   
 57  26  54  1   
 58  26  55  1   
 59  27  56  1   
 60  27  57  1   
 61  27  58  1   
@<TRIPOS>SUBSTRUCTURE
  1 ****  11 GROUP 4 **** **** 0

# MOE 2024.06 (io_trps.svl 2023.06)
