@<TRIPOS>MOLECULE
NONAME
57 60 1 0 0 
SMALL
USER_CHARGES


@<TRIPOS>ATOM
  1 CL       0.0290    -1.7140    -0.8170 Cl    1 <1>  -0.1770 
  2 C        1.7750    -1.6940    -0.8260 C.ar  1 <1>   0.1770 
  3 C        2.4890    -2.2450     0.2350 C.ar  1 <1>   0.0860 
  4 C        2.4060    -1.1160    -1.9120 C.ar  1 <1>  -0.1500 
  5 C        1.8280    -2.8650     1.3600 C.2   1 <1>   0.5440 
  6 C        3.8810    -2.1770     0.1730 C.ar  1 <1>  -0.1500 
  7 C        3.7890    -1.0710    -1.9560 C.ar  1 <1>  -0.1500 
  8 O        1.8150    -2.2790     2.4250 O.2   1 <1>  -0.5700 
  9 N        1.2520    -4.1160     1.2680 N.am  1 <1>  -0.6600 
 10 C        4.5240    -1.6010    -0.9090 C.ar  1 <1>  -0.1500 
 11 C        0.4040    -4.6600     2.3650 C.3   1 <1>   0.1400 
 12 C        1.4440    -5.0320     0.1080 C.3   1 <1>   0.1400 
 13 C       -0.9550    -5.0920     1.8060 C.3   1 <1>  -0.1600 
 14 C        0.0870    -5.4680    -0.4470 C.3   1 <1>  -0.1600 
 15 C       -0.8000    -6.0950     0.6480 C.3   1 <1>  -0.0190 
 16 C       -2.1690    -6.5450     0.1160 C.2   1 <1>   0.5690 
 17 O       -2.6730    -5.8620    -0.7450 O.2   1 <1>  -0.5700 
 18 N       -2.7850    -7.6820     0.6060 N.am  1 <1>  -0.6600 
 19 C       -4.0230    -8.2750     0.0070 C.3   1 <1>   0.2200 
 20 C       -2.3120    -8.4360     1.8040 C.3   1 <1>   0.0600 
 21 C       -3.9130    -8.6100    -1.4790 C.3   1 <1>  -0.1600 
 22 C       -5.2560    -7.3840     0.1310 C.3   1 <1>  -0.1600 
 23 C       -5.3640    -8.6740    -1.9710 C.3   1 <1>  -0.0800 
 24 C       -6.2160    -7.8940    -0.9520 C.3   1 <1>  -0.0800 
 25 C       -5.9390   -10.0970    -2.0160 C.3   1 <1>  -0.1600 
 26 C       -7.2720    -8.8770    -0.4270 C.3   1 <1>  -0.1600 
 27 C       -7.3620    -9.9480    -1.5030 C.3   1 <1>   0.2000 
 28 O       -7.8000   -11.1350    -0.9590 O.3   1 <1>  -0.6800 
 29 H        1.8180    -0.7040    -2.7130 H     1 <1>   0.1500 
 30 H        4.4550    -2.5820     0.9890 H     1 <1>   0.1500 
 31 H        4.2900    -0.6220    -2.7970 H     1 <1>   0.1500 
 32 H        5.6010    -1.5610    -0.9360 H     1 <1>   0.1500 
 33 H        0.9060    -5.5010     2.8120 H     1 <1>   0.0800 
 34 H        0.2500    -3.9190     3.1310 H     1 <1>   0.0800 
 35 H        2.0120    -4.5570    -0.6720 H     1 <1>   0.0800 
 36 H        1.9950    -5.8960     0.4380 H     1 <1>   0.0800 
 37 H       -1.5400    -5.5250     2.5970 H     1 <1>   0.0800 
 38 H       -1.4800    -4.2180     1.4580 H     1 <1>   0.0800 
 39 H       -0.4060    -4.6110    -0.8720 H     1 <1>   0.0800 
 40 H        0.2360    -6.1800    -1.2400 H     1 <1>   0.0800 
 41 H       -0.2730    -6.9590     1.0050 H     1 <1>   0.0800 
 42 H       -4.2500    -9.1990     0.5130 H     1 <1>   0.0800 
 43 H       -3.1540    -8.7370     2.4030 H     1 <1>   0.0800 
 44 H       -1.6730    -7.8350     2.4240 H     1 <1>   0.0800 
 45 H       -1.7750    -9.3140     1.4880 H     1 <1>   0.0800 
 46 H       -3.4140    -7.8230    -2.0120 H     1 <1>   0.0800 
 47 H       -3.3800    -9.5300    -1.6410 H     1 <1>   0.0800 
 48 H       -5.6830    -7.4270     1.1160 H     1 <1>   0.0800 
 49 H       -5.0050    -6.3640    -0.0940 H     1 <1>   0.0800 
 50 H       -5.4500    -8.2190    -2.9440 H     1 <1>   0.0800 
 51 H       -6.7030    -7.0660    -1.4400 H     1 <1>   0.0800 
 52 H       -5.3820   -10.7440    -1.3610 H     1 <1>   0.0800 
 53 H       -5.9240   -10.4940    -3.0160 H     1 <1>   0.0800 
 54 H       -8.2200    -8.3920    -0.2790 H     1 <1>   0.0800 
 55 H       -6.9420    -9.3180     0.4980 H     1 <1>   0.0800 
 56 H       -8.0330    -9.6520    -2.2930 H     1 <1>   0.0800 
 57 H       -7.1990   -11.4140    -0.2440 H     1 <1>   0.4000 
@<TRIPOS>BOND
  1   1   2  1   
  2   2   3  ar  
  3   2   4  ar  
  4   3   5  1   
  5   3   6  ar  
  6   4   7  ar  
  7   4  29  1   
  8   5   8  2   
  9   5   9  am  
 10   6  10  ar  
 11   6  30  1   
 12   7  10  ar  
 13   7  31  1   
 14   9  11  1   
 15   9  12  1   
 16  10  32  1   
 17  11  13  1   
 18  11  33  1   
 19  11  34  1   
 20  12  14  1   
 21  12  35  1   
 22  12  36  1   
 23  13  15  1   
 24  13  37  1   
 25  13  38  1   
 26  14  15  1   
 27  14  39  1   
 28  14  40  1   
 29  15  16  1   
 30  15  41  1   
 31  16  17  2   
 32  16  18  am  
 33  18  19  1   
 34  18  20  1   
 35  19  21  1   
 36  19  22  1   
 37  19  42  1   
 38  20  43  1   
 39  20  44  1   
 40  20  45  1   
 41  21  23  1   
 42  21  46  1   
 43  21  47  1   
 44  22  24  1   
 45  22  48  1   
 46  22  49  1   
 47  23  24  1   
 48  23  25  1   
 49  23  50  1   
 50  24  26  1   
 51  24  51  1   
 52  25  27  1   
 53  25  52  1   
 54  25  53  1   
 55  26  27  1   
 56  26  54  1   
 57  26  55  1   
 58  27  28  1   
 59  27  56  1   
 60  28  57  1   
@<TRIPOS>SUBSTRUCTURE
  1 ****  15 GROUP 4 **** **** 0

# MOE 2024.06 (io_trps.svl 2023.06)
