@<TRIPOS>MOLECULE
NONAME
47 49 1 0 0 
SMALL
USER_CHARGES


@<TRIPOS>ATOM
  1 S        0.3110     0.5830    -1.4670 S.o2  1 <1>   1.3330 
  2 O        0.4040    -0.8030    -1.8700 O.2   1 <1>  -0.6500 
  3 O       -0.4970     1.5000    -2.2370 O.2   1 <1>  -0.6500 
  4 N       -0.2720     0.6220     0.1290 N.am  1 <1>  -0.8490 
  5 C        1.9780     1.2330    -1.3300 C.3   1 <1>  -0.0550 
  6 C       -0.7230     1.9530     0.5500 C.3   1 <1>   0.1160 
  7 C       -1.3430    -0.3540     0.3460 C.3   1 <1>   0.1160 
  8 C        2.9700     0.2990    -0.6030 C.3   1 <1>  -0.0800 
  9 C        4.4130     0.7800    -0.5950 C.3   1 <1>   0.2200 
 10 C        2.6830     0.0750     0.8870 C.3   1 <1>   0.1200 
 11 N        4.4790     2.2310    -0.3090 N.am  1 <1>  -0.7300 
 12 C        4.9600     0.0110     0.5990 C.3   1 <1>   0.1200 
 13 O        3.9210    -0.0140     1.5300 O.3   1 <1>  -0.5600 
 14 C        4.6700     3.2320    -1.2140 C.2   1 <1>   0.7160 
 15 O        4.8370     2.9250    -2.3800 O.2   1 <1>  -0.5700 
 16 C        4.6260     4.6110    -0.7660 C.2   1 <1>   0.1410 
 17 N        4.3080     4.9750     0.5110 N.2   1 <1>  -0.5650 
 18 C        4.8650     5.7470    -1.4760 C.2   1 <1>  -0.0150 
 19 C        4.3690     6.2890     0.5110 C.2   1 <1>   0.1420 
 20 F        5.2010     5.8560    -2.7370 F     1 <1>  -0.1370 
 21 N        4.7130     6.8280    -0.7090 N.pl3 1 <1>   0.3340 
 22 C        4.1280     7.1800     1.5900 C.2   1 <1>  -0.1050 
 23 C        4.8200     8.2010    -0.8980 C.2   1 <1>  -0.1810 
 24 C        4.2340     8.5260     1.4090 C.2   1 <1>  -0.1500 
 25 C        4.5870     9.0530     0.1350 C.2   1 <1>  -0.1380 
 26 C        4.6910    10.5590    -0.0190 C.3   1 <1>  -0.1020 
 27 H        2.3530     1.4040    -2.3210 H     1 <1>   0.0800 
 28 H        1.9420     2.1840    -0.8370 H     1 <1>   0.0800 
 29 H       -1.0030     1.9370     1.5900 H     1 <1>   0.0800 
 30 H       -1.5720     2.2680    -0.0350 H     1 <1>   0.0800 
 31 H        0.0670     2.6730     0.4250 H     1 <1>   0.0800 
 32 H       -1.6820    -0.3170     1.3670 H     1 <1>   0.0800 
 33 H       -0.9810    -1.3500     0.1490 H     1 <1>   0.0800 
 34 H       -2.1730    -0.1520    -0.3120 H     1 <1>   0.0800 
 35 H        2.9450    -0.6640    -1.0850 H     1 <1>   0.0800 
 36 H        4.9370     0.5460    -1.5070 H     1 <1>   0.0800 
 37 H        2.1300    -0.8340     1.0570 H     1 <1>   0.0800 
 38 H        2.1550     0.9070     1.3200 H     1 <1>   0.0800 
 39 H        4.3200     2.5020     0.6670 H     1 <1>   0.3700 
 40 H        5.8280     0.4740     1.0340 H     1 <1>   0.0800 
 41 H        5.1830    -1.0070     0.3280 H     1 <1>   0.0800 
 42 H        3.8640     6.7480     2.5390 H     1 <1>   0.1500 
 43 H        5.0910     8.5230    -1.8870 H     1 <1>   0.1500 
 44 H        4.0540     9.2130     2.2190 H     1 <1>   0.1500 
 45 H        5.4380    10.9460     0.6510 H     1 <1>   0.0800 
 46 H        3.7460    11.0180     0.2110 H     1 <1>   0.0800 
 47 H        4.9630    10.8220    -1.0250 H     1 <1>   0.0800 
@<TRIPOS>BOND
  1   1   2  2   
  2   1   3  2   
  3   1   4  am  
  4   1   5  1   
  5   4   6  1   
  6   4   7  1   
  7   5   8  1   
  8   5  27  1   
  9   5  28  1   
 10   6  29  1   
 11   6  30  1   
 12   6  31  1   
 13   7  32  1   
 14   7  33  1   
 15   7  34  1   
 16   8   9  1   
 17   8  10  1   
 18   8  35  1   
 19   9  11  1   
 20   9  12  1   
 21   9  36  1   
 22  10  13  1   
 23  10  37  1   
 24  10  38  1   
 25  11  14  am  
 26  11  39  1   
 27  12  13  1   
 28  12  40  1   
 29  12  41  1   
 30  14  15  2   
 31  14  16  1   
 32  16  17  1   
 33  16  18  2   
 34  17  19  2   
 35  18  20  1   
 36  18  21  1   
 37  19  21  1   
 38  19  22  1   
 39  21  23  1   
 40  22  24  2   
 41  22  42  1   
 42  23  25  2   
 43  23  43  1   
 44  24  25  1   
 45  24  44  1   
 46  25  26  1   
 47  26  45  1   
 48  26  46  1   
 49  26  47  1   
@<TRIPOS>SUBSTRUCTURE
  1 ****  14 GROUP 4 **** **** 0

# MOE 2024.06 (io_trps.svl 2023.06)
