@<TRIPOS>MOLECULE
NONAME
47 49 1 0 0 
SMALL
USER_CHARGES


@<TRIPOS>ATOM
  1 O       -2.6720     0.8620    -2.4120 O.2   1 <1>  -0.5700 
  2 C       -2.3160     1.1890    -1.2920 C.2   1 <1>   0.5440 
  3 N       -2.4210     0.2030    -0.3230 N.am  1 <1>  -0.6600 
  4 C       -1.8710     2.5650    -1.0200 C.ar  1 <1>   0.3960 
  5 C       -3.0840     0.4520     0.9930 C.3   1 <1>   0.1400 
  6 C       -2.4040    -1.2350    -0.7120 C.3   1 <1>   0.1400 
  7 N       -1.3520     2.8650     0.1830 N.ar  1 <1>  -0.6200 
  8 C       -2.0070     3.5360    -2.0150 C.ar  1 <1>  -0.1500 
  9 C       -4.5220    -0.1170     1.0030 C.3   1 <1>   0.4230 
 10 C       -3.8410    -1.7770    -0.7540 C.3   1 <1>   0.3430 
 11 C       -0.9980     4.1140     0.3860 C.ar  1 <1>   0.4100 
 12 C       -1.6290     4.8440    -1.7920 C.ar  1 <1>  -0.1500 
 13 N       -4.5700    -1.5720     0.5590 N.4   1 <1>  -0.9590 
 14 C       -5.4560     0.7570     0.1340 C.3   1 <1>   0.1200 
 15 N       -0.4860     4.3540     1.6170 N.pl3 1 <1>  -0.9000 
 16 C       -1.1150     5.1300    -0.5530 C.ar  1 <1>  -0.1500 
 17 C       -6.0040    -2.0260     0.5210 C.3   1 <1>   0.4230 
 18 O       -6.7580     0.2450     0.1560 O.3   1 <1>  -0.5600 
 19 C       -6.8820    -1.0660    -0.3190 C.3   1 <1>   0.1200 
 20 C       -6.0980    -3.4870     0.0510 C.3   1 <1>  -0.1600 
 21 C       -7.4680    -4.1150     0.3560 C.3   1 <1>  -0.1600 
 22 C       -7.4930    -5.5910    -0.0500 C.3   1 <1>  -0.2400 
 23 H       -2.5020    -0.0060     1.7730 H     1 <1>   0.0800 
 24 H       -3.1310     1.5050     1.2080 H     1 <1>   0.0800 
 25 H       -1.9460    -1.3520    -1.6800 H     1 <1>   0.0800 
 26 H       -1.8140    -1.7930    -0.0060 H     1 <1>   0.0800 
 27 H       -2.4150     3.2650    -2.9730 H     1 <1>   0.1500 
 28 H       -4.8880    -0.0480     2.0140 H     1 <1>   0.0800 
 29 H       -3.8080    -2.8260    -0.9990 H     1 <1>   0.0800 
 30 H       -4.3640    -1.2690    -1.5480 H     1 <1>   0.0800 
 31 H       -1.7340     5.5990    -2.5530 H     1 <1>   0.1500 
 32 H       -4.0860    -2.1260     1.2730 H     1 <1>   0.4500 
 33 H       -5.1200     0.8040    -0.8880 H     1 <1>   0.0800 
 34 H       -5.4970     1.7600     0.5230 H     1 <1>   0.0800 
 35 H       -0.2110     3.5070     2.1160 H     1 <1>   0.4000 
 36 H        0.1980     5.1060     1.7040 H     1 <1>   0.4000 
 37 H       -0.8050     6.1260    -0.3000 H     1 <1>   0.1500 
 38 H       -6.3900    -1.9930     1.5270 H     1 <1>   0.0800 
 39 H       -7.9200    -1.3350    -0.2350 H     1 <1>   0.0800 
 40 H       -6.6080    -1.0850    -1.3590 H     1 <1>   0.0800 
 41 H       -5.9230    -3.5510    -1.0090 H     1 <1>   0.0800 
 42 H       -5.3480    -4.0690     0.5580 H     1 <1>   0.0800 
 43 H       -7.6820    -4.0410     1.4100 H     1 <1>   0.0800 
 44 H       -8.2490    -3.6010    -0.1790 H     1 <1>   0.0800 
 45 H       -6.7500    -6.1510     0.4910 H     1 <1>   0.0800 
 46 H       -7.3110    -5.7010    -1.1050 H     1 <1>   0.0800 
 47 H       -8.4580    -6.0150     0.1690 H     1 <1>   0.0800 
@<TRIPOS>BOND
  1   1   2  2   
  2   2   3  am  
  3   2   4  1   
  4   3   5  1   
  5   3   6  1   
  6   4   7  ar  
  7   4   8  ar  
  8   5   9  1   
  9   5  23  1   
 10   5  24  1   
 11   6  10  1   
 12   6  25  1   
 13   6  26  1   
 14   7  11  ar  
 15   8  12  ar  
 16   8  27  1   
 17   9  13  1   
 18   9  14  1   
 19   9  28  1   
 20  10  13  1   
 21  10  29  1   
 22  10  30  1   
 23  11  15  1   
 24  11  16  ar  
 25  12  16  ar  
 26  12  31  1   
 27  13  17  1   
 28  13  32  1   
 29  14  18  1   
 30  14  33  1   
 31  14  34  1   
 32  15  35  1   
 33  15  36  1   
 34  16  37  1   
 35  17  19  1   
 36  17  20  1   
 37  17  38  1   
 38  18  19  1   
 39  19  39  1   
 40  19  40  1   
 41  20  21  1   
 42  20  41  1   
 43  20  42  1   
 44  21  22  1   
 45  21  43  1   
 46  21  44  1   
 47  22  45  1   
 48  22  46  1   
 49  22  47  1   
@<TRIPOS>SUBSTRUCTURE
  1 ****   3 GROUP 4 **** **** 0

# MOE 2024.06 (io_trps.svl 2023.06)
