@<TRIPOS>MOLECULE
NONAME
57 60 1 0 0 
SMALL
USER_CHARGES


@<TRIPOS>ATOM
  1 O       -1.1910     0.6190    -0.6920 O.2   1 <1>  -0.5700 
  2 C       -2.0860     1.3820    -1.0080 C.2   1 <1>   0.5440 
  3 N       -3.2990     0.8210    -1.3480 N.am  1 <1>  -0.6600 
  4 C       -1.8790     2.8200    -0.9790 C.ar  1 <1>   0.0860 
  5 C       -3.3530    -0.6210    -1.7030 C.3   1 <1>   0.1400 
  6 C       -4.5640     1.3360    -0.7580 C.3   1 <1>   0.1400 
  7 C       -1.0560     3.4070    -0.0200 C.ar  1 <1>  -0.1500 
  8 C       -2.4910     3.6660    -1.9070 C.ar  1 <1>  -0.1500 
  9 C       -3.5950    -1.4350    -0.4130 C.3   1 <1>   0.4230 
 10 C       -4.8490     0.5440     0.5260 C.3   1 <1>  -0.1600 
 11 C       -0.8600     4.7760     0.0240 C.ar  1 <1>   0.0820 
 12 C       -2.3070     5.0370    -1.8680 C.ar  1 <1>  -0.1500 
 13 N       -3.4500    -2.9390    -0.5930 N.4   1 <1>  -0.9590 
 14 C       -4.9040    -0.9990     0.3150 C.3   1 <1>   0.0000 
 15 O       -0.0550     5.2750     0.9960 O.3   1 <1>  -0.1650 
 16 C       -1.4950     5.5970    -0.8990 C.ar  1 <1>  -0.1500 
 17 C       -4.0670    -3.7480     0.5080 C.3   1 <1>   0.3430 
 18 C       -3.8750    -3.4760    -1.9270 C.3   1 <1>   0.2630 
 19 C       -4.9700    -1.6920     1.7090 C.3   1 <1>  -0.1600 
 20 C       -6.1450    -1.3830    -0.5410 C.3   1 <1>   0.1200 
 21 C        0.7410     6.3520     0.7780 C.ar  1 <1>   0.0820 
 22 C       -4.1000    -2.9600     1.8160 C.3   1 <1>  -0.1600 
 23 O       -7.3100    -0.8370    -0.0290 O.3   1 <1>  -0.6800 
 24 C        0.8590     7.2960     1.7860 C.ar  1 <1>  -0.1500 
 25 C        1.4440     6.5160    -0.4100 C.ar  1 <1>  -0.1500 
 26 C        1.6620     8.4090     1.6040 C.ar  1 <1>  -0.1500 
 27 C        2.2450     7.6300    -0.5910 C.ar  1 <1>  -0.1500 
 28 C        2.3530     8.5760     0.4150 C.ar  1 <1>  -0.1500 
 29 H       -4.1330    -0.7720    -2.4260 H     1 <1>   0.0800 
 30 H       -2.4160    -0.9100    -2.1480 H     1 <1>   0.0800 
 31 H       -4.4750     2.3830    -0.5220 H     1 <1>   0.0800 
 32 H       -5.3710     1.2240    -1.4640 H     1 <1>   0.0800 
 33 H       -0.5580     2.7840     0.7030 H     1 <1>   0.1500 
 34 H       -3.1180     3.2420    -2.6710 H     1 <1>   0.1500 
 35 H       -2.7960    -1.1370     0.2480 H     1 <1>   0.0800 
 36 H       -4.0700     0.7880     1.2280 H     1 <1>   0.0800 
 37 H       -5.7680     0.9030     0.9570 H     1 <1>   0.0800 
 38 H       -2.7940     5.6690    -2.5900 H     1 <1>   0.1500 
 39 H       -2.4330    -3.0950    -0.5210 H     1 <1>   0.4500 
 40 H       -1.3580     6.6640    -0.8610 H     1 <1>   0.1500 
 41 H       -5.0780    -4.0120     0.2440 H     1 <1>   0.0800 
 42 H       -3.5110    -4.6620     0.6460 H     1 <1>   0.0800 
 43 H       -4.9250    -3.3010    -2.0890 H     1 <1>   0.0800 
 44 H       -3.6930    -4.5380    -1.9760 H     1 <1>   0.0800 
 45 H       -3.3180    -3.0030    -2.7200 H     1 <1>   0.0800 
 46 H       -4.6470    -1.0170     2.4840 H     1 <1>   0.0800 
 47 H       -5.9880    -1.9490     1.9460 H     1 <1>   0.0800 
 48 H       -6.2810    -2.4480    -0.5830 H     1 <1>   0.0800 
 49 H       -6.0580    -1.0130    -1.5470 H     1 <1>   0.0800 
 50 H       -4.4880    -3.5880     2.6000 H     1 <1>   0.0800 
 51 H       -3.0930    -2.6960     2.0940 H     1 <1>   0.0800 
 52 H       -7.5120    -1.1680     0.8680 H     1 <1>   0.4000 
 53 H        0.3210     7.1570     2.7060 H     1 <1>   0.1500 
 54 H        1.3690     5.7760    -1.1870 H     1 <1>   0.1500 
 55 H        1.7500     9.1430     2.3860 H     1 <1>   0.1500 
 56 H        2.7870     7.7590    -1.5110 H     1 <1>   0.1500 
 57 H        2.9760     9.4420     0.2740 H     1 <1>   0.1500 
@<TRIPOS>BOND
  1   1   2  2   
  2   2   3  am  
  3   2   4  1   
  4   3   5  1   
  5   3   6  1   
  6   4   7  ar  
  7   4   8  ar  
  8   5   9  1   
  9   5  29  1   
 10   5  30  1   
 11   6  10  1   
 12   6  31  1   
 13   6  32  1   
 14   7  11  ar  
 15   7  33  1   
 16   8  12  ar  
 17   8  34  1   
 18   9  13  1   
 19   9  14  1   
 20   9  35  1   
 21  10  14  1   
 22  10  36  1   
 23  10  37  1   
 24  11  15  1   
 25  11  16  ar  
 26  12  16  ar  
 27  12  38  1   
 28  13  17  1   
 29  13  18  1   
 30  13  39  1   
 31  14  19  1   
 32  14  20  1   
 33  15  21  1   
 34  16  40  1   
 35  17  22  1   
 36  17  41  1   
 37  17  42  1   
 38  18  43  1   
 39  18  44  1   
 40  18  45  1   
 41  19  22  1   
 42  19  46  1   
 43  19  47  1   
 44  20  23  1   
 45  20  48  1   
 46  20  49  1   
 47  21  24  ar  
 48  21  25  ar  
 49  22  50  1   
 50  22  51  1   
 51  23  52  1   
 52  24  26  ar  
 53  24  53  1   
 54  25  27  ar  
 55  25  54  1   
 56  26  28  ar  
 57  26  55  1   
 58  27  28  ar  
 59  27  56  1   
 60  28  57  1   
@<TRIPOS>SUBSTRUCTURE
  1 ****   4 GROUP 4 **** **** 0

# MOE 2024.06 (io_trps.svl 2023.06)
