@<TRIPOS>MOLECULE
NONAME
38 40 1 0 0 
SMALL
USER_CHARGES


@<TRIPOS>ATOM
  1 S        0.7260    -0.7260     0.5370 S.3   1 <1>  -0.0800 
  2 C        0.2300    -2.4130     0.4140 C.ar  1 <1>   0.2970 
  3 C       -0.7710    -0.1790    -0.2230 C.2   1 <1>  -0.1100 
  4 N        0.9620    -3.4170     0.8410 N.ar  1 <1>  -0.5670 
  5 C       -1.0030    -2.5080    -0.1780 C.ar  1 <1>   0.0000 
  6 C       -1.5580    -1.2250    -0.5310 C.2   1 <1>  -0.1500 
  7 C        0.3930    -4.5880     0.6480 C.ar  1 <1>   0.4770 
  8 C       -1.4850    -3.8080    -0.3230 C.ar  1 <1>   0.4100 
  9 N       -0.7870    -4.8530     0.0930 N.ar  1 <1>  -0.6200 
 10 C        1.1840    -5.7860     1.1190 C.3   1 <1>  -0.0960 
 11 N       -2.7080    -4.0440    -0.9030 N.pl3 1 <1>  -0.8690 
 12 C       -3.2060    -5.3790    -1.3130 C.3   1 <1>   0.2090 
 13 C       -3.5920    -6.2080    -0.0690 C.3   1 <1>   0.3430 
 14 N       -3.1880    -7.6530    -0.1530 N.4   1 <1>  -0.9590 
 15 C       -3.7940    -8.4380     0.9780 C.3   1 <1>   0.3430 
 16 C       -1.6870    -7.7850    -0.1110 C.3   1 <1>   0.3430 
 17 C       -3.2660    -9.8860     1.0110 C.3   1 <1>   0.1200 
 18 C       -1.2460    -9.2580    -0.0320 C.3   1 <1>   0.1200 
 19 O       -1.8680    -9.8930     1.0470 O.3   1 <1>  -0.5600 
 20 H       -0.8920     0.8820    -0.3530 H     1 <1>   0.1500 
 21 H       -2.5220    -1.1510    -0.9990 H     1 <1>   0.1500 
 22 H        2.1280    -5.4760     1.5300 H     1 <1>   0.0800 
 23 H        1.3710    -6.4450     0.2930 H     1 <1>   0.0800 
 24 H        0.6340    -6.3070     1.8800 H     1 <1>   0.0800 
 25 H       -3.1500    -3.2460    -1.3730 H     1 <1>   0.4000 
 26 H       -2.4330    -5.8680    -1.8800 H     1 <1>   0.0800 
 27 H       -4.0670    -5.2570    -1.9470 H     1 <1>   0.0800 
 28 H       -4.6570    -6.1330     0.0730 H     1 <1>   0.0800 
 29 H       -3.1120    -5.7630     0.7880 H     1 <1>   0.0800 
 30 H       -3.5230    -8.0580    -1.0360 H     1 <1>   0.4500 
 31 H       -4.8670    -8.4520     0.8870 H     1 <1>   0.0800 
 32 H       -3.5480    -7.9700     1.9180 H     1 <1>   0.0800 
 33 H       -1.3050    -7.2700     0.7550 H     1 <1>   0.0800 
 34 H       -1.2460    -7.3250    -0.9790 H     1 <1>   0.0800 
 35 H       -3.5940   -10.4420     0.1490 H     1 <1>   0.0800 
 36 H       -3.6170   -10.3890     1.8960 H     1 <1>   0.0800 
 37 H       -0.1820    -9.3170     0.1240 H     1 <1>   0.0800 
 38 H       -1.4890    -9.7890    -0.9360 H     1 <1>   0.0800 
@<TRIPOS>BOND
  1   1   2  1   
  2   1   3  1   
  3   2   4  ar  
  4   2   5  ar  
  5   3   6  2   
  6   3  20  1   
  7   4   7  ar  
  8   5   6  1   
  9   5   8  ar  
 10   6  21  1   
 11   7   9  ar  
 12   7  10  1   
 13   8   9  ar  
 14   8  11  1   
 15  10  22  1   
 16  10  23  1   
 17  10  24  1   
 18  11  12  1   
 19  11  25  1   
 20  12  13  1   
 21  12  26  1   
 22  12  27  1   
 23  13  14  1   
 24  13  28  1   
 25  13  29  1   
 26  14  15  1   
 27  14  16  1   
 28  14  30  1   
 29  15  17  1   
 30  15  31  1   
 31  15  32  1   
 32  16  18  1   
 33  16  33  1   
 34  16  34  1   
 35  17  19  1   
 36  17  35  1   
 37  17  36  1   
 38  18  19  1   
 39  18  37  1   
 40  18  38  1   
@<TRIPOS>SUBSTRUCTURE
  1 ****   9 GROUP 4 **** **** 0

# MOE 2024.06 (io_trps.svl 2023.06)
