@<TRIPOS>MOLECULE
NONAME
43 43 1 0 0 
SMALL
USER_CHARGES


@<TRIPOS>ATOM
  1 O        1.5220    -0.4140    -3.1250 O.2   1 <1>  -0.5700 
  2 C        1.7920    -0.7000    -1.9850 C.2   1 <1>   0.5690 
  3 N        2.1070     0.2380    -1.0670 N.am  1 <1>  -0.7300 
  4 C        1.7850    -2.1540    -1.5580 C.3   1 <1>  -0.0990 
  5 C        2.2420     1.6780    -1.3200 C.3   1 <1>   0.3640 
  6 C        0.6290    -2.4730    -0.5950 C.3   1 <1>  -0.1600 
  7 C        3.4240     2.2230    -0.5090 C.ar  1 <1>   0.1660 
  8 C        0.9310     2.3530    -0.9190 C.3   1 <1>  -0.2400 
  9 C        0.6400    -3.9490    -0.1750 C.3   1 <1>  -0.1600 
 10 N        3.5250     1.8490     0.7660 N.ar  1 <1>  -0.6200 
 11 C        4.3310     3.0690    -1.1320 C.ar  1 <1>  -0.1500 
 12 C       -0.5050    -4.2520     0.8000 C.3   1 <1>  -0.1600 
 13 C        4.5530     2.3350     1.4390 C.ar  1 <1>   0.1670 
 14 C        5.4000     3.5690    -0.4220 C.ar  1 <1>  -0.1500 
 15 C       -0.5010    -5.7180     1.2270 C.3   1 <1>   0.1200 
 16 C        5.5030     3.1860     0.8970 C.ar  1 <1>  -0.1500 
 17 C        4.6540     1.9070     2.8870 C.3   1 <1>  -0.0970 
 18 O       -1.5520    -5.9060     2.1150 O.3   1 <1>  -0.5600 
 19 C       -1.6700    -7.2090     2.5850 C.3   1 <1>   0.0400 
 20 H        2.4020    -0.0060    -0.1180 H     1 <1>   0.3700 
 21 H        2.7270    -2.3760    -1.0900 H     1 <1>   0.0800 
 22 H        1.7000    -2.7660    -2.4380 H     1 <1>   0.0800 
 23 H        2.4160     1.8380    -2.3710 H     1 <1>   0.0800 
 24 H       -0.3050    -2.2420    -1.0790 H     1 <1>   0.0800 
 25 H        0.7100    -1.8510     0.2810 H     1 <1>   0.0800 
 26 H        0.7320     2.1880     0.1250 H     1 <1>   0.0800 
 27 H        0.1220     1.9600    -1.5070 H     1 <1>   0.0800 
 28 H        1.0010     3.4110    -1.0910 H     1 <1>   0.0800 
 29 H        1.5800    -4.1800     0.2960 H     1 <1>   0.0800 
 30 H        0.5400    -4.5700    -1.0490 H     1 <1>   0.0800 
 31 H        4.2040     3.3360    -2.1660 H     1 <1>   0.1500 
 32 H       -1.4470    -4.0300     0.3300 H     1 <1>   0.0800 
 33 H       -0.4050    -3.6350     1.6760 H     1 <1>   0.0800 
 34 H        6.1210     4.2270    -0.8750 H     1 <1>   0.1500 
 35 H        0.4210    -5.9660     1.7260 H     1 <1>   0.0800 
 36 H       -0.6460    -6.3620     0.3770 H     1 <1>   0.0800 
 37 H        6.3180     3.5480     1.4980 H     1 <1>   0.1500 
 38 H        3.7660     2.2090     3.4120 H     1 <1>   0.0800 
 39 H        5.5080     2.3490     3.3650 H     1 <1>   0.0800 
 40 H        4.7400     0.8380     2.9400 H     1 <1>   0.0800 
 41 H       -2.5070    -7.2450     3.2600 H     1 <1>   0.0800 
 42 H       -0.7700    -7.4820     3.1080 H     1 <1>   0.0800 
 43 H       -1.8450    -7.8720     1.7550 H     1 <1>   0.0800 
@<TRIPOS>BOND
  1   1   2  2   
  2   2   3  am  
  3   2   4  1   
  4   3   5  1   
  5   3  20  1   
  6   4   6  1   
  7   4  21  1   
  8   4  22  1   
  9   5   7  1   
 10   5   8  1   
 11   5  23  1   
 12   6   9  1   
 13   6  24  1   
 14   6  25  1   
 15   7  10  ar  
 16   7  11  ar  
 17   8  26  1   
 18   8  27  1   
 19   8  28  1   
 20   9  12  1   
 21   9  29  1   
 22   9  30  1   
 23  10  13  ar  
 24  11  14  ar  
 25  11  31  1   
 26  12  15  1   
 27  12  32  1   
 28  12  33  1   
 29  13  16  ar  
 30  13  17  1   
 31  14  16  ar  
 32  14  34  1   
 33  15  18  1   
 34  15  35  1   
 35  15  36  1   
 36  16  37  1   
 37  17  38  1   
 38  17  39  1   
 39  17  40  1   
 40  18  19  1   
 41  19  41  1   
 42  19  42  1   
 43  19  43  1   
@<TRIPOS>SUBSTRUCTURE
  1 ****   3 GROUP 4 **** **** 0

# MOE 2024.06 (io_trps.svl 2023.06)
