@<TRIPOS>MOLECULE
NONAME
36 38 1 0 0 
SMALL
USER_CHARGES


@<TRIPOS>ATOM
  1 CL      -0.1920    -0.1550     1.4350 Cl    1 <1>  -0.1770 
  2 C       -1.4240     0.8680     0.7430 C.ar  1 <1>   0.1770 
  3 C       -2.4080     0.3030    -0.0440 C.ar  1 <1>  -0.1500 
  4 C       -1.3920     2.2300     0.9940 C.ar  1 <1>  -0.1500 
  5 C       -3.3610     1.1490    -0.5740 C.ar  1 <1>   0.1900 
  6 C       -2.3620     3.0650     0.4520 C.ar  1 <1>  -0.1440 
  7 F       -4.3030     0.6410    -1.3220 F     1 <1>  -0.1900 
  8 C       -3.3590     2.5130    -0.3430 C.ar  1 <1>  -0.1500 
  9 C       -2.3280     4.5630     0.7290 C.3   1 <1>   0.2540 
 10 N       -0.9990     5.1220     0.4230 N.3   1 <1>  -0.8100 
 11 C       -0.8530     6.4720     1.0160 C.3   1 <1>   0.1100 
 12 C       -0.7270     5.0900    -1.0320 C.3   1 <1>   0.1100 
 13 C        0.5800     7.0480     0.9810 C.3   1 <1>   0.2200 
 14 C        0.7390     5.3700    -1.4020 C.3   1 <1>  -0.0190 
 15 N        0.8740     7.6130    -0.3610 N.am  1 <1>  -0.7300 
 16 C        1.6380     6.0100     1.4420 C.3   1 <1>   0.1200 
 17 C        0.9960     6.8630    -1.4740 C.2   1 <1>   0.5690 
 18 C        1.7480     4.6250    -0.5020 C.3   1 <1>   0.1200 
 19 O        2.4070     5.4670     0.4020 O.3   1 <1>  -0.5600 
 20 O        1.2770     7.3770    -2.5290 O.2   1 <1>  -0.5700 
 21 H       -2.4310    -0.7540    -0.2360 H     1 <1>   0.1500 
 22 H       -0.6090     2.6370     1.6090 H     1 <1>   0.1500 
 23 H       -4.1270     3.1240    -0.7830 H     1 <1>   0.1500 
 24 H       -2.5500     4.7100     1.7720 H     1 <1>   0.0800 
 25 H       -3.0800     5.0730     0.1510 H     1 <1>   0.0800 
 26 H       -1.5270     7.1620     0.5360 H     1 <1>   0.0800 
 27 H       -1.1380     6.4120     2.0520 H     1 <1>   0.0800 
 28 H       -0.9600     4.1080    -1.4060 H     1 <1>   0.0800 
 29 H       -1.3690     5.7890    -1.5420 H     1 <1>   0.0800 
 30 H        0.5990     7.8630     1.6830 H     1 <1>   0.0800 
 31 H        0.8680     4.9910    -2.3980 H     1 <1>   0.0800 
 32 H        1.1810     8.5840    -0.4250 H     1 <1>   0.3700 
 33 H        1.1790     5.2040     1.9880 H     1 <1>   0.0800 
 34 H        2.3300     6.4980     2.1060 H     1 <1>   0.0800 
 35 H        2.5150     4.1950    -1.1230 H     1 <1>   0.0800 
 36 H        1.2770     3.8270     0.0460 H     1 <1>   0.0800 
@<TRIPOS>BOND
  1   1   2  1   
  2   2   3  ar  
  3   2   4  ar  
  4   3   5  ar  
  5   3  21  1   
  6   4   6  ar  
  7   4  22  1   
  8   5   7  1   
  9   5   8  ar  
 10   6   8  ar  
 11   6   9  1   
 12   8  23  1   
 13   9  10  1   
 14   9  24  1   
 15   9  25  1   
 16  10  11  1   
 17  10  12  1   
 18  11  13  1   
 19  11  26  1   
 20  11  27  1   
 21  12  14  1   
 22  12  28  1   
 23  12  29  1   
 24  13  15  1   
 25  13  16  1   
 26  13  30  1   
 27  14  17  1   
 28  14  18  1   
 29  14  31  1   
 30  15  17  am  
 31  15  32  1   
 32  16  19  1   
 33  16  33  1   
 34  16  34  1   
 35  17  20  2   
 36  18  19  1   
 37  18  35  1   
 38  18  36  1   
@<TRIPOS>SUBSTRUCTURE
  1 ****  10 GROUP 4 **** **** 0

# MOE 2024.06 (io_trps.svl 2023.06)
