@<TRIPOS>MOLECULE
NONAME
47 50 1 0 0 
SMALL
USER_CHARGES


@<TRIPOS>ATOM
  1 O        0.0520    -0.1650    -1.3920 O.2   1 <1>  -0.5700 
  2 C        0.8970    -0.8100    -0.8140 C.2   1 <1>   0.5690 
  3 N        1.9160    -0.2550    -0.1040 N.am  1 <1>  -0.4930 
  4 C        0.7610    -2.3390    -0.8790 C.3   1 <1>   0.4040 
  5 C        2.1900     1.0810     0.1500 C.2   1 <1>   0.3520 
  6 N       -0.6690    -2.7930    -1.0760 N.4   1 <1>  -0.9590 
  7 N        3.1630     1.3510     0.9530 N.2   1 <1>  -0.7070 
  8 C        1.5640     2.2250    -0.3370 C.2   1 <1>  -0.1500 
  9 C       -1.5110    -2.4840     0.1230 C.3   1 <1>   0.3430 
 10 C       -0.7630    -4.2130    -1.5230 C.3   1 <1>   0.3430 
 11 N        3.1940     2.7000     1.0080 N.pl3 1 <1>   0.3140 
 12 C        2.2340     3.2460     0.2360 C.2   1 <1>  -0.3020 
 13 C       -2.9680    -2.8190    -0.1650 C.3   1 <1>  -0.1600 
 14 C       -2.2130    -4.5670    -1.8310 C.3   1 <1>  -0.1600 
 15 C        4.1800     3.4120     1.8290 C.3   1 <1>   0.0160 
 16 C       -3.1350    -4.2620    -0.6480 C.3   1 <1>   0.2820 
 17 C       -2.9910    -5.2860     0.4910 C.ar  1 <1>  -0.1440 
 18 C       -4.5810    -4.5090    -1.0450 C.2   1 <1>  -0.2880 
 19 C       -4.1910    -5.9620     0.6510 C.ar  1 <1>   0.0280 
 20 C       -1.9110    -5.5930     1.3060 C.ar  1 <1>  -0.1500 
 21 C       -5.1360    -5.4660    -0.2970 C.2   1 <1>  -0.1780 
 22 C       -4.3260    -6.9460     1.6180 C.ar  1 <1>  -0.1500 
 23 C       -2.0460    -6.5770     2.2740 C.ar  1 <1>  -0.1500 
 24 C       -3.2480    -7.2510     2.4290 C.ar  1 <1>  -0.1500 
 25 H        2.6120    -0.8290     0.3660 H     1 <1>   0.3700 
 26 H        1.1580    -2.7670     0.0250 H     1 <1>   0.0800 
 27 H        1.3610    -2.6810    -1.7050 H     1 <1>   0.0800 
 28 H       -1.0320    -2.1820    -1.8300 H     1 <1>   0.4500 
 29 H        0.7330     2.2600    -1.0180 H     1 <1>   0.1500 
 30 H       -1.4340    -1.4360     0.3680 H     1 <1>   0.0800 
 31 H       -1.1720    -3.0530     0.9720 H     1 <1>   0.0800 
 32 H       -0.3890    -4.8690    -0.7540 H     1 <1>   0.0800 
 33 H       -0.1670    -4.3630    -2.4090 H     1 <1>   0.0800 
 34 H        2.0850     4.3050     0.1370 H     1 <1>   0.1500 
 35 H       -3.3460    -2.1390    -0.9080 H     1 <1>   0.0800 
 36 H       -3.5500    -2.6740     0.7280 H     1 <1>   0.0800 
 37 H       -2.2820    -5.6130    -2.0720 H     1 <1>   0.0800 
 38 H       -2.5360    -4.0150    -2.6950 H     1 <1>   0.0800 
 39 H        4.0600     3.1150     2.8540 H     1 <1>   0.0800 
 40 H        4.0310     4.4710     1.7370 H     1 <1>   0.0800 
 41 H        5.1660     3.1520     1.4930 H     1 <1>   0.0800 
 42 H       -5.0260    -3.9400    -1.8420 H     1 <1>   0.1500 
 43 H       -0.9670    -5.0940     1.2170 H     1 <1>   0.1500 
 44 H       -6.1390    -5.8540    -0.3480 H     1 <1>   0.1500 
 45 H       -5.2620    -7.4620     1.7310 H     1 <1>   0.1500 
 46 H       -1.2160    -6.8260     2.9130 H     1 <1>   0.1500 
 47 H       -3.3430    -8.0140     3.1830 H     1 <1>   0.1500 
@<TRIPOS>BOND
  1   1   2  2   
  2   2   3  am  
  3   2   4  1   
  4   3   5  1   
  5   3  25  1   
  6   4   6  1   
  7   4  26  1   
  8   4  27  1   
  9   5   7  2   
 10   5   8  1   
 11   6   9  1   
 12   6  10  1   
 13   6  28  1   
 14   7  11  1   
 15   8  12  2   
 16   8  29  1   
 17   9  13  1   
 18   9  30  1   
 19   9  31  1   
 20  10  14  1   
 21  10  32  1   
 22  10  33  1   
 23  11  12  1   
 24  11  15  1   
 25  12  34  1   
 26  13  16  1   
 27  13  35  1   
 28  13  36  1   
 29  14  16  1   
 30  14  37  1   
 31  14  38  1   
 32  15  39  1   
 33  15  40  1   
 34  15  41  1   
 35  16  17  1   
 36  16  18  1   
 37  17  19  ar  
 38  17  20  ar  
 39  18  21  2   
 40  18  42  1   
 41  19  21  1   
 42  19  22  ar  
 43  20  23  ar  
 44  20  43  1   
 45  21  44  1   
 46  22  24  ar  
 47  22  45  1   
 48  23  24  ar  
 49  23  46  1   
 50  24  47  1   
@<TRIPOS>SUBSTRUCTURE
  1 ****   9 GROUP 4 **** **** 0

# MOE 2024.06 (io_trps.svl 2023.06)
