@<TRIPOS>MOLECULE
NONAME
35 36 1 0 0 
SMALL
USER_CHARGES


@<TRIPOS>ATOM
  1 S       -0.0640    -0.0230     1.4560 S.3   1 <1>  -0.0800 
  2 C        0.7980     1.0880     0.4160 C.2   1 <1>   0.1980 
  3 C       -1.5630     0.5070     0.7430 C.2   1 <1>  -0.1400 
  4 N        0.0450     1.7580    -0.3620 N.2   1 <1>  -0.5650 
  5 C        2.3110     1.1200     0.5620 C.3   1 <1>   0.0200 
  6 C       -1.2890     1.4380    -0.1850 C.2   1 <1>   0.0460 
  7 C       -2.8400    -0.1250     1.2510 C.3   1 <1>   0.3200 
  8 C        2.9830     2.1220    -0.3910 C.3   1 <1>  -0.1600 
  9 C       -2.2720     2.1780    -1.0670 C.3   1 <1>  -0.0590 
 10 N       -2.8660    -1.5260     0.8030 N.am  1 <1>  -0.7300 
 11 C        4.5070     2.1310    -0.2230 C.3   1 <1>  -0.2400 
 12 C       -4.0080    -2.2260     0.5720 C.2   1 <1>   0.7150 
 13 O       -5.0760    -1.6920     0.7980 O.2   1 <1>  -0.5700 
 14 C       -3.9360    -3.5630     0.0560 C.2   1 <1>  -0.2370 
 15 N       -2.8370    -4.3720     0.1760 N.pl3 1 <1>   0.0330 
 16 C       -4.8950    -4.2790    -0.6130 C.2   1 <1>  -0.1500 
 17 C       -3.1060    -5.5600    -0.4170 C.2   1 <1>  -0.3020 
 18 C       -4.3700    -5.5330    -0.9140 C.2   1 <1>  -0.1500 
 19 H        2.6920     0.1340     0.3690 H     1 <1>   0.0800 
 20 H        2.5480     1.3800     1.5770 H     1 <1>   0.0800 
 21 H       -3.6970     0.4000     0.8660 H     1 <1>   0.0800 
 22 H       -2.8710    -0.0880     2.3270 H     1 <1>   0.0800 
 23 H        2.5960     3.1080    -0.1980 H     1 <1>   0.0800 
 24 H        2.7360     1.8650    -1.4070 H     1 <1>   0.0800 
 25 H       -3.2790     1.8560    -0.8830 H     1 <1>   0.0800 
 26 H       -2.0330     1.9980    -2.0990 H     1 <1>   0.0800 
 27 H       -2.2010     3.2340    -0.8760 H     1 <1>   0.0800 
 28 H       -2.0080    -1.8200     0.3430 H     1 <1>   0.3700 
 29 H        4.7750     2.4080     0.7810 H     1 <1>   0.0800 
 30 H        4.9450     2.8420    -0.9010 H     1 <1>   0.0800 
 31 H        4.9160     1.1590    -0.4370 H     1 <1>   0.0800 
 32 H       -1.9680    -4.1270     0.6630 H     1 <1>   0.2700 
 33 H       -5.8860    -3.9390    -0.8650 H     1 <1>   0.1500 
 34 H       -2.3940    -6.3660    -0.4540 H     1 <1>   0.1500 
 35 H       -4.8890    -6.3170    -1.4400 H     1 <1>   0.1500 
@<TRIPOS>BOND
  1   1   2  1   
  2   1   3  1   
  3   2   4  2   
  4   2   5  1   
  5   3   6  2   
  6   3   7  1   
  7   4   6  1   
  8   5   8  1   
  9   5  19  1   
 10   5  20  1   
 11   6   9  1   
 12   7  10  1   
 13   7  21  1   
 14   7  22  1   
 15   8  11  1   
 16   8  23  1   
 17   8  24  1   
 18   9  25  1   
 19   9  26  1   
 20   9  27  1   
 21  10  12  am  
 22  10  28  1   
 23  11  29  1   
 24  11  30  1   
 25  11  31  1   
 26  12  13  2   
 27  12  14  1   
 28  14  15  1   
 29  14  16  2   
 30  15  17  1   
 31  15  32  1   
 32  16  18  1   
 33  16  33  1   
 34  17  18  2   
 35  17  34  1   
 36  18  35  1   
@<TRIPOS>SUBSTRUCTURE
  1 ****   3 GROUP 4 **** **** 0

# MOE 2024.06 (io_trps.svl 2023.06)
