@<TRIPOS>MOLECULE
NONAME
44 45 1 0 0 
SMALL
USER_CHARGES


@<TRIPOS>ATOM
  1 O       -0.1690     0.1290     1.3390 O.2   1 <1>  -0.5700 
  2 C       -0.9420     0.5940     0.5390 C.2   1 <1>   0.5690 
  3 N       -1.7920    -0.1870    -0.1690 N.am  1 <1>  -0.7300 
  4 C       -0.9810     2.1060     0.3330 C.3   1 <1>  -0.0190 
  5 C       -1.9770    -1.6310     0.0340 C.3   1 <1>   0.2840 
  6 C       -2.3840     2.6860     0.6050 C.3   1 <1>  -0.1600 
  7 C       -0.4650     2.5110    -1.0700 C.3   1 <1>  -0.1600 
  8 C       -3.4630    -1.9170    -0.0810 C.ar  1 <1>  -0.1440 
  9 C       -2.3980     4.2280     0.5490 C.3   1 <1>   0.2000 
 10 C       -0.9690     3.8900    -1.5420 C.3   1 <1>  -0.1600 
 11 C       -4.2940    -1.7050     1.0070 C.ar  1 <1>  -0.1500 
 12 C       -4.0050    -2.3750    -1.2710 C.ar  1 <1>  -0.1500 
 13 O       -3.6530     4.6310     0.0580 O.3   1 <1>  -0.5600 
 14 C       -1.2830     4.8110    -0.3600 C.3   1 <1>   0.2000 
 15 C       -5.6520    -1.9480     0.9070 C.ar  1 <1>  -0.1500 
 16 C       -5.3640    -2.6180    -1.3710 C.ar  1 <1>  -0.1500 
 17 C       -4.6800     4.6510     1.0010 C.3   1 <1>   0.0400 
 18 O       -1.6980     6.0260    -0.8640 O.3   1 <1>  -0.6800 
 19 C       -6.1970    -2.4040    -0.2830 C.ar  1 <1>  -0.1440 
 20 C       -7.6880    -2.6690    -0.3870 C.3   1 <1>   0.2640 
 21 O       -7.9720    -3.7690     0.3950 O.3   1 <1>  -0.6800 
 22 H       -2.4780     0.2380    -0.7930 H     1 <1>   0.3700 
 23 H       -0.3130     2.5320     1.0620 H     1 <1>   0.0800 
 24 H       -1.4270    -2.1740    -0.7140 H     1 <1>   0.0800 
 25 H       -1.6130    -1.9220     1.0060 H     1 <1>   0.0800 
 26 H       -2.7190     2.3650     1.5750 H     1 <1>   0.0800 
 27 H       -3.0650     2.3000    -0.1330 H     1 <1>   0.0800 
 28 H        0.6120     2.5150    -1.0420 H     1 <1>   0.0800 
 29 H       -0.7580     1.7790    -1.8030 H     1 <1>   0.0800 
 30 H       -2.2620     4.6370     1.5360 H     1 <1>   0.0800 
 31 H       -1.8690     3.7560    -2.1160 H     1 <1>   0.0800 
 32 H       -0.2290     4.3470    -2.1760 H     1 <1>   0.0800 
 33 H       -3.8850    -1.3470     1.9370 H     1 <1>   0.1500 
 34 H       -3.3730    -2.5440    -2.1260 H     1 <1>   0.1500 
 35 H       -0.3850     4.9790     0.2100 H     1 <1>   0.0800 
 36 H       -6.2890    -1.7840     1.7600 H     1 <1>   0.1500 
 37 H       -5.7690    -2.9740    -2.3030 H     1 <1>   0.1500 
 38 H       -5.5780     4.9820     0.5100 H     1 <1>   0.0800 
 39 H       -4.4250     5.3390     1.7890 H     1 <1>   0.0800 
 40 H       -4.8280     3.6610     1.3950 H     1 <1>   0.0800 
 41 H       -2.6780     5.9630    -0.9350 H     1 <1>   0.4000 
 42 H       -7.9780    -2.8900    -1.3990 H     1 <1>   0.0800 
 43 H       -8.2630    -1.8350    -0.0220 H     1 <1>   0.0800 
 44 H       -7.1940    -4.3600     0.3870 H     1 <1>   0.4000 
@<TRIPOS>BOND
  1   1   2  2   
  2   2   3  am  
  3   2   4  1   
  4   3   5  1   
  5   3  22  1   
  6   4   6  1   
  7   4   7  1   
  8   4  23  1   
  9   5   8  1   
 10   5  24  1   
 11   5  25  1   
 12   6   9  1   
 13   6  26  1   
 14   6  27  1   
 15   7  10  1   
 16   7  28  1   
 17   7  29  1   
 18   8  11  ar  
 19   8  12  ar  
 20   9  13  1   
 21   9  14  1   
 22   9  30  1   
 23  10  14  1   
 24  10  31  1   
 25  10  32  1   
 26  11  15  ar  
 27  11  33  1   
 28  12  16  ar  
 29  12  34  1   
 30  13  17  1   
 31  14  18  1   
 32  14  35  1   
 33  15  19  ar  
 34  15  36  1   
 35  16  19  ar  
 36  16  37  1   
 37  17  38  1   
 38  17  39  1   
 39  17  40  1   
 40  18  41  1   
 41  19  20  1   
 42  20  21  1   
 43  20  42  1   
 44  20  43  1   
 45  21  44  1   
@<TRIPOS>SUBSTRUCTURE
  1 ****   3 GROUP 4 **** **** 0

# MOE 2024.06 (io_trps.svl 2023.06)
