@<TRIPOS>MOLECULE
NONAME
52 54 1 0 0 
SMALL
USER_CHARGES


@<TRIPOS>ATOM
  1 O       -0.7690     1.2040     2.3230 O.co2 1 <1>  -0.9000 
  2 C       -1.2400     0.8720     1.2180 C.2   1 <1>   0.9790 
  3 O       -0.5220     0.2170     0.4400 O.co2 1 <1>  -0.9000 
  4 C       -2.5940     1.2100     0.8750 C.ar  1 <1>  -0.1790 
  5 C       -2.8970     2.3120     0.0620 C.ar  1 <1>   0.4100 
  6 C       -3.6450     0.4440     1.3480 C.ar  1 <1>  -0.1500 
  7 N       -4.1280     2.6410    -0.3090 N.ar  1 <1>  -0.6200 
  8 N       -1.9250     3.1540    -0.4360 N.pl3 1 <1>  -0.8380 
  9 C       -4.9180     0.7940     0.9730 C.ar  1 <1>  -0.1500 
 10 C       -5.1290     1.8870     0.1380 C.ar  1 <1>   0.3100 
 11 C       -1.0520     3.8660     0.5310 C.3   1 <1>   0.2090 
 12 C       -1.2030     2.6770    -1.6330 C.3   1 <1>   0.2090 
 13 C       -6.4780     2.2380    -0.2620 C.ar  1 <1>   0.0000 
 14 C       -0.4200     5.1020    -0.1310 C.3   1 <1>  -0.0800 
 15 C       -0.6000     3.8840    -2.3560 C.3   1 <1>  -0.1600 
 16 C       -7.3970     1.2720    -0.6740 C.ar  1 <1>  -0.1500 
 17 C       -6.9090     3.5650    -0.2470 C.ar  1 <1>  -0.1500 
 18 C        0.3160     4.7000    -1.4280 C.3   1 <1>  -0.1600 
 19 C        0.5180     5.7870     0.8830 C.3   1 <1>  -0.1600 
 20 C       -8.6880     1.6130    -1.0340 C.ar  1 <1>  -0.1500 
 21 C       -8.1980     3.9160    -0.6070 C.ar  1 <1>  -0.1500 
 22 C        1.1600     7.0870     0.3610 C.3   1 <1>  -0.0990 
 23 C       -9.1020     2.9340    -1.0010 C.ar  1 <1>   0.0830 
 24 C        1.9700     7.8060     1.4220 C.2   1 <1>   0.5690 
 25 O      -10.3820     3.1870    -1.3660 O.3   1 <1>  -0.3630 
 26 O        1.7260     8.9520     1.6910 O.2   1 <1>  -0.5700 
 27 N        2.9680     7.1600     2.0500 N.am  1 <1>  -0.8000 
 28 C      -10.8900     4.5020    -1.3980 C.3   1 <1>   0.0400 
 29 H       -3.4480    -0.3980     1.9890 H     1 <1>   0.1500 
 30 H       -5.7550     0.2260     1.3290 H     1 <1>   0.1500 
 31 H       -0.2660     3.2070     0.8590 H     1 <1>   0.0800 
 32 H       -1.6330     4.1520     1.3910 H     1 <1>   0.0800 
 33 H       -1.8870     2.1560    -2.2810 H     1 <1>   0.0800 
 34 H       -0.4250     1.9930    -1.3380 H     1 <1>   0.0800 
 35 H       -1.2210     5.7770    -0.3780 H     1 <1>   0.0800 
 36 H       -1.4060     4.5030    -2.7090 H     1 <1>   0.0800 
 37 H       -0.0440     3.5410    -3.2090 H     1 <1>   0.0800 
 38 H       -7.0920     0.2420    -0.7180 H     1 <1>   0.1500 
 39 H       -6.2080     4.3260     0.0520 H     1 <1>   0.1500 
 40 H        1.1760     4.1010    -1.1790 H     1 <1>   0.0800 
 41 H        0.6510     5.5730    -1.9580 H     1 <1>   0.0800 
 42 H        1.2890     5.0930     1.1690 H     1 <1>   0.0800 
 43 H       -0.0500     6.0210     1.7680 H     1 <1>   0.0800 
 44 H       -9.3860     0.8580    -1.3470 H     1 <1>   0.1500 
 45 H       -8.4760     4.9520    -0.5760 H     1 <1>   0.1500 
 46 H        0.3880     7.7510     0.0150 H     1 <1>   0.0800 
 47 H        1.8140     6.8790    -0.4650 H     1 <1>   0.0800 
 48 H        3.5020     7.6460     2.7700 H     1 <1>   0.3700 
 49 H        3.1790     6.1730     1.9040 H     1 <1>   0.3700 
 50 H      -11.9130     4.4570    -1.7260 H     1 <1>   0.0800 
 51 H      -10.3080     5.0830    -2.0910 H     1 <1>   0.0800 
 52 H      -10.8410     4.9190    -0.4070 H     1 <1>   0.0800 
@<TRIPOS>BOND
  1   1   2  ar  
  2   2   3  ar  
  3   2   4  1   
  4   4   5  ar  
  5   4   6  ar  
  6   5   7  ar  
  7   5   8  1   
  8   6   9  ar  
  9   6  29  1   
 10   7  10  ar  
 11   8  11  1   
 12   8  12  1   
 13   9  10  ar  
 14   9  30  1   
 15  10  13  1   
 16  11  14  1   
 17  11  31  1   
 18  11  32  1   
 19  12  15  1   
 20  12  33  1   
 21  12  34  1   
 22  13  16  ar  
 23  13  17  ar  
 24  14  18  1   
 25  14  19  1   
 26  14  35  1   
 27  15  18  1   
 28  15  36  1   
 29  15  37  1   
 30  16  20  ar  
 31  16  38  1   
 32  17  21  ar  
 33  17  39  1   
 34  18  40  1   
 35  18  41  1   
 36  19  22  1   
 37  19  42  1   
 38  19  43  1   
 39  20  23  ar  
 40  20  44  1   
 41  21  23  ar  
 42  21  45  1   
 43  22  24  1   
 44  22  46  1   
 45  22  47  1   
 46  23  25  1   
 47  24  26  2   
 48  24  27  am  
 49  25  28  1   
 50  27  48  1   
 51  27  49  1   
 52  28  50  1   
 53  28  51  1   
 54  28  52  1   
@<TRIPOS>SUBSTRUCTURE
  1 ****   5 GROUP 4 **** **** 0

# MOE 2024.06 (io_trps.svl 2023.06)
