@<TRIPOS>MOLECULE
NONAME
47 49 1 0 0 
SMALL
USER_CHARGES


@<TRIPOS>ATOM
  1 CL       3.8310     0.2050     1.0990 Cl    1 <1>  -0.1770 
  2 C        3.1690    -0.9970     0.0150 C.ar  1 <1>   0.1770 
  3 C        3.0510    -0.7370    -1.3410 C.ar  1 <1>   0.1770 
  4 C        2.7670    -2.2110     0.5400 C.ar  1 <1>  -0.1500 
  5 CL       3.5570     0.7990    -2.0070 Cl    1 <1>  -0.1770 
  6 C        2.5270    -1.6930    -2.1920 C.ar  1 <1>  -0.1500 
  7 C        2.2350    -3.1770    -0.3130 C.ar  1 <1>   0.0830 
  8 C        2.1220    -2.9120    -1.6720 C.ar  1 <1>  -0.1500 
  9 O        1.8080    -4.3920     0.1030 O.3   1 <1>  -0.3630 
 10 C        1.8130    -4.7480     1.4800 C.3   1 <1>   0.1810 
 11 C        1.2390    -6.1470     1.6990 C.2   1 <1>   0.5690 
 12 O        2.0110    -6.9840     2.1100 O.2   1 <1>  -0.5700 
 13 N       -0.0910    -6.4430     1.4820 N.am  1 <1>  -0.6600 
 14 C       -1.0700    -5.4540     0.9320 C.3   1 <1>   0.2200 
 15 C       -0.5790    -7.8330     1.7530 C.3   1 <1>   0.0600 
 16 C       -1.8910    -5.9720    -0.2470 C.3   1 <1>  -0.1600 
 17 C       -2.1080    -5.0200     1.9600 C.3   1 <1>  -0.1600 
 18 C       -3.1030    -5.0330    -0.3050 C.3   1 <1>  -0.0800 
 19 C       -3.2680    -4.4620     1.1240 C.3   1 <1>  -0.0800 
 20 C       -4.3580    -5.7140    -0.8880 C.3   1 <1>   0.1400 
 21 C       -4.6490    -4.7400     1.7430 C.3   1 <1>  -0.0990 
 22 N       -5.5740    -4.9390    -0.5350 N.am  1 <1>  -0.6600 
 23 C       -5.7460    -4.4630     0.7360 C.2   1 <1>   0.5690 
 24 C       -6.5930    -4.7620    -1.6030 C.3   1 <1>   0.0600 
 25 O       -6.7200    -3.8430     1.0880 O.2   1 <1>  -0.5700 
 26 H        2.8810    -2.3740     1.5940 H     1 <1>   0.1500 
 27 H        2.4410    -1.4850    -3.2440 H     1 <1>   0.1500 
 28 H        1.7150    -3.6690    -2.3200 H     1 <1>   0.1500 
 29 H        2.8300    -4.7260     1.8260 H     1 <1>   0.0800 
 30 H        1.2270    -4.0310     2.0240 H     1 <1>   0.0800 
 31 H       -0.5650    -4.5680     0.5940 H     1 <1>   0.0800 
 32 H       -1.6040    -7.8270     2.0740 H     1 <1>   0.0800 
 33 H        0.0110    -8.2950     2.5260 H     1 <1>   0.0800 
 34 H       -0.4910    -8.4240     0.8580 H     1 <1>   0.0800 
 35 H       -1.3220    -5.9440    -1.1590 H     1 <1>   0.0800 
 36 H       -2.2280    -6.9750    -0.0650 H     1 <1>   0.0800 
 37 H       -2.4410    -5.8640     2.5340 H     1 <1>   0.0800 
 38 H       -1.7120    -4.2740     2.6260 H     1 <1>   0.0800 
 39 H       -2.8520    -4.2110    -0.9540 H     1 <1>   0.0800 
 40 H       -3.1530    -3.3920     1.0530 H     1 <1>   0.0800 
 41 H       -4.4650    -6.7060    -0.4840 H     1 <1>   0.0800 
 42 H       -4.2630    -5.7920    -1.9570 H     1 <1>   0.0800 
 43 H       -4.7950    -4.1260     2.6130 H     1 <1>   0.0800 
 44 H       -4.7320    -5.7690     2.0390 H     1 <1>   0.0800 
 45 H       -6.1660    -4.2170    -2.4260 H     1 <1>   0.0800 
 46 H       -7.4400    -4.2130    -1.2290 H     1 <1>   0.0800 
 47 H       -6.9310    -5.7230    -1.9470 H     1 <1>   0.0800 
@<TRIPOS>BOND
  1   1   2  1   
  2   2   3  ar  
  3   2   4  ar  
  4   3   5  1   
  5   3   6  ar  
  6   4   7  ar  
  7   4  26  1   
  8   6   8  ar  
  9   6  27  1   
 10   7   8  ar  
 11   7   9  1   
 12   8  28  1   
 13   9  10  1   
 14  10  11  1   
 15  10  29  1   
 16  10  30  1   
 17  11  12  2   
 18  11  13  am  
 19  13  14  1   
 20  13  15  1   
 21  14  16  1   
 22  14  17  1   
 23  14  31  1   
 24  15  32  1   
 25  15  33  1   
 26  15  34  1   
 27  16  18  1   
 28  16  35  1   
 29  16  36  1   
 30  17  19  1   
 31  17  37  1   
 32  17  38  1   
 33  18  19  1   
 34  18  20  1   
 35  18  39  1   
 36  19  21  1   
 37  19  40  1   
 38  20  22  1   
 39  20  41  1   
 40  20  42  1   
 41  21  23  1   
 42  21  43  1   
 43  21  44  1   
 44  22  23  am  
 45  22  24  1   
 46  23  25  2   
 47  24  45  1   
 48  24  46  1   
 49  24  47  1   
@<TRIPOS>SUBSTRUCTURE
  1 ****  14 GROUP 4 **** **** 0

# MOE 2024.06 (io_trps.svl 2023.06)
