@<TRIPOS>MOLECULE
NONAME
40 41 1 0 0 
SMALL
USER_CHARGES


@<TRIPOS>ATOM
  1 CL      -1.1630     0.2050    -1.6850 Cl    1 <1>  -0.1770 
  2 C       -1.7230    -1.0320    -0.5890 C.ar  1 <1>   0.1770 
  3 C       -1.3560    -0.9930     0.7450 C.ar  1 <1>   0.1600 
  4 C       -2.5280    -2.0440    -1.0580 C.ar  1 <1>  -0.1500 
  5 N       -1.7410    -1.8910     1.6430 N.ar  1 <1>  -0.6200 
  6 C       -2.9420    -3.0070    -0.1460 C.ar  1 <1>   0.0860 
  7 C       -2.5180    -2.8580     1.1770 C.ar  1 <1>   0.1600 
  8 C       -3.7850    -4.1130    -0.5450 C.2   1 <1>   0.5440 
  9 O       -4.6030    -3.9730    -1.4310 O.2   1 <1>  -0.5700 
 10 N       -3.6910    -5.3300     0.0650 N.am  1 <1>  -0.7300 
 11 C       -4.5530    -6.4910    -0.2560 C.3   1 <1>   0.2200 
 12 C       -5.8520    -6.3830     0.5470 C.3   1 <1>  -0.0800 
 13 C       -3.9280    -7.7810     0.2690 C.3   1 <1>   0.1200 
 14 C       -5.7870    -7.5720     1.5130 C.3   1 <1>   0.1200 
 15 C       -7.1120    -6.2580    -0.3390 C.3   1 <1>  -0.0550 
 16 O       -4.4450    -7.9300     1.5510 O.3   1 <1>  -0.5600 
 17 S       -7.5750    -7.6800    -1.3400 S.o2  1 <1>   1.3330 
 18 O       -6.3780    -8.3560    -1.7900 O.2   1 <1>  -0.6500 
 19 O       -8.5660    -7.2680    -2.3070 O.2   1 <1>  -0.6500 
 20 N       -8.3640    -8.6990    -0.2310 N.am  1 <1>  -0.8490 
 21 C       -8.2460   -10.1140    -0.5950 C.3   1 <1>   0.1160 
 22 C       -9.7770    -8.3580    -0.0290 C.3   1 <1>   0.1160 
 23 H       -0.7240    -0.1890     1.0820 H     1 <1>   0.1500 
 24 H       -2.8260    -2.0890    -2.0910 H     1 <1>   0.1500 
 25 H       -2.8500    -3.5840     1.8990 H     1 <1>   0.1500 
 26 H       -3.0380    -5.4990     0.8330 H     1 <1>   0.3700 
 27 H       -4.7070    -6.5450    -1.3210 H     1 <1>   0.0800 
 28 H       -5.8170    -5.4940     1.1520 H     1 <1>   0.0800 
 29 H       -2.8540    -7.7470     0.3080 H     1 <1>   0.0800 
 30 H       -4.2480    -8.6260    -0.3180 H     1 <1>   0.0800 
 31 H       -6.3320    -8.4290     1.1640 H     1 <1>   0.0800 
 32 H       -6.1110    -7.3160     2.5070 H     1 <1>   0.0800 
 33 H       -6.9490    -5.4290    -1.0010 H     1 <1>   0.0800 
 34 H       -7.9430    -5.9930     0.2850 H     1 <1>   0.0800 
 35 H       -8.7490   -10.7310     0.1290 H     1 <1>   0.0800 
 36 H       -7.2080   -10.4040    -0.6190 H     1 <1>   0.0800 
 37 H       -8.6750   -10.2870    -1.5690 H     1 <1>   0.0800 
 38 H      -10.1970    -8.9710     0.7510 H     1 <1>   0.0800 
 39 H      -10.3370    -8.5160    -0.9370 H     1 <1>   0.0800 
 40 H       -9.8760    -7.3260     0.2610 H     1 <1>   0.0800 
@<TRIPOS>BOND
  1   1   2  1   
  2   2   3  ar  
  3   2   4  ar  
  4   3   5  ar  
  5   3  23  1   
  6   4   6  ar  
  7   4  24  1   
  8   5   7  ar  
  9   6   7  ar  
 10   6   8  1   
 11   7  25  1   
 12   8   9  2   
 13   8  10  am  
 14  10  11  1   
 15  10  26  1   
 16  11  12  1   
 17  11  13  1   
 18  11  27  1   
 19  12  14  1   
 20  12  15  1   
 21  12  28  1   
 22  13  16  1   
 23  13  29  1   
 24  13  30  1   
 25  14  16  1   
 26  14  31  1   
 27  14  32  1   
 28  15  17  1   
 29  15  33  1   
 30  15  34  1   
 31  17  18  2   
 32  17  19  2   
 33  17  20  am  
 34  20  21  1   
 35  20  22  1   
 36  21  35  1   
 37  21  36  1   
 38  21  37  1   
 39  22  38  1   
 40  22  39  1   
 41  22  40  1   
@<TRIPOS>SUBSTRUCTURE
  1 ****  11 GROUP 4 **** **** 0

# MOE 2024.06 (io_trps.svl 2023.06)
