@<TRIPOS>MOLECULE
NONAME
48 51 1 0 0 
SMALL
USER_CHARGES


@<TRIPOS>ATOM
  1 O       -1.7190    -2.1820    -0.4590 O.co2 1 <1>  -0.9000 
  2 C       -0.7740    -2.6260     0.2150 C.2   1 <1>   1.0330 
  3 O       -1.0350    -2.9630     1.3830 O.co2 1 <1>  -0.9000 
  4 C        0.5010    -2.9080    -0.3560 C.2   1 <1>  -0.2330 
  5 C        0.8410    -3.9940    -1.1720 C.2   1 <1>   0.3720 
  6 C        1.6790    -2.2610    -0.1740 C.2   1 <1>   0.0870 
  7 N        2.1030    -4.0080    -1.4140 N.2   1 <1>  -0.4100 
  8 N       -0.0050    -4.9870    -1.6960 N.pl3 1 <1>  -0.8210 
  9 O        2.5920    -2.9540    -0.8130 O.3   1 <1>  -0.0190 
 10 C        2.0420    -1.0630     0.5460 C.ar  1 <1>   0.0530 
 11 C       -1.2260    -4.5460    -2.4290 C.3   1 <1>   0.2090 
 12 C        0.0130    -6.3260    -1.0370 C.3   1 <1>   0.2090 
 13 C        3.3540    -0.8530     0.9730 C.ar  1 <1>  -0.1500 
 14 C        1.1090    -0.0670     0.8410 C.ar  1 <1>  -0.1500 
 15 C       -2.5080    -4.9170    -1.6760 C.3   1 <1>  -0.1600 
 16 C       -1.3260    -6.6610    -0.3520 C.3   1 <1>  -0.1600 
 17 C        3.7190     0.2900     1.6620 C.ar  1 <1>  -0.1500 
 18 C        1.4660     1.0760     1.5310 C.ar  1 <1>  -0.1500 
 19 C       -2.1620    -5.3940    -0.2620 C.3   1 <1>   0.4230 
 20 C        2.7730     1.2590     1.9440 C.ar  1 <1>  -0.1500 
 21 N       -3.3270    -5.5090     0.6450 N.4   1 <1>  -0.9590 
 22 C       -4.5500    -6.1580     0.1350 C.3   1 <1>   0.3430 
 23 C       -3.7070    -4.1390     1.1020 C.3   1 <1>   0.3430 
 24 C       -5.6350    -5.6450     1.0660 C.3   1 <1>  -0.1600 
 25 C       -5.1850    -4.2370     1.4670 C.3   1 <1>  -0.1600 
 26 H       -1.2270    -4.9960    -3.4060 H     1 <1>   0.0800 
 27 H       -1.1870    -3.4770    -2.5690 H     1 <1>   0.0800 
 28 H        0.8010    -6.3340    -0.3010 H     1 <1>   0.0800 
 29 H        0.2520    -7.0750    -1.7730 H     1 <1>   0.0800 
 30 H        4.0990    -1.6000     0.7630 H     1 <1>   0.1500 
 31 H        0.0870    -0.1840     0.5260 H     1 <1>   0.1500 
 32 H       -3.0180    -5.6860    -2.2240 H     1 <1>   0.0800 
 33 H       -3.1350    -4.0450    -1.6450 H     1 <1>   0.0800 
 34 H       -1.1200    -7.0440     0.6290 H     1 <1>   0.0800 
 35 H       -1.8400    -7.4150    -0.9200 H     1 <1>   0.0800 
 36 H        4.7380     0.4240     1.9800 H     1 <1>   0.1500 
 37 H        0.7210     1.8230     1.7460 H     1 <1>   0.1500 
 38 H       -1.5100    -4.6780     0.1800 H     1 <1>   0.0800 
 39 H        3.0510     2.1480     2.4820 H     1 <1>   0.1500 
 40 H       -3.0040    -5.9850     1.4920 H     1 <1>   0.4500 
 41 H       -4.4710    -7.2330     0.1520 H     1 <1>   0.0800 
 42 H       -4.7520    -5.8210    -0.8680 H     1 <1>   0.0800 
 43 H       -3.5680    -3.4200     0.3100 H     1 <1>   0.0800 
 44 H       -3.1030    -3.8280     1.9410 H     1 <1>   0.0800 
 45 H       -5.6850    -6.2790     1.9350 H     1 <1>   0.0800 
 46 H       -6.5970    -5.6410     0.5830 H     1 <1>   0.0800 
 47 H       -5.7270    -3.4850     0.9200 H     1 <1>   0.0800 
 48 H       -5.3260    -4.0610     2.5190 H     1 <1>   0.0800 
@<TRIPOS>BOND
  1   1   2  ar  
  2   2   3  ar  
  3   2   4  1   
  4   4   5  1   
  5   4   6  2   
  6   5   7  2   
  7   5   8  1   
  8   6   9  1   
  9   6  10  1   
 10   7   9  1   
 11   8  11  1   
 12   8  12  1   
 13  10  13  ar  
 14  10  14  ar  
 15  11  15  1   
 16  11  26  1   
 17  11  27  1   
 18  12  16  1   
 19  12  28  1   
 20  12  29  1   
 21  13  17  ar  
 22  13  30  1   
 23  14  18  ar  
 24  14  31  1   
 25  15  19  1   
 26  15  32  1   
 27  15  33  1   
 28  16  19  1   
 29  16  34  1   
 30  16  35  1   
 31  17  20  ar  
 32  17  36  1   
 33  18  20  ar  
 34  18  37  1   
 35  19  21  1   
 36  19  38  1   
 37  20  39  1   
 38  21  22  1   
 39  21  23  1   
 40  21  40  1   
 41  22  24  1   
 42  22  41  1   
 43  22  42  1   
 44  23  25  1   
 45  23  43  1   
 46  23  44  1   
 47  24  25  1   
 48  24  45  1   
 49  24  46  1   
 50  25  47  1   
 51  25  48  1   
@<TRIPOS>SUBSTRUCTURE
  1 ****   2 GROUP 4 **** **** 0

# MOE 2024.06 (io_trps.svl 2023.06)
