@<TRIPOS>MOLECULE
NONAME
47 49 1 0 0 
SMALL
USER_CHARGES


@<TRIPOS>ATOM
  1 N       -0.0230    -1.8020    -0.3320 N.ar  1 <1>  -0.6200 
  2 C       -0.0220    -1.9970     0.9740 C.ar  1 <1>   0.4100 
  3 C        0.9950    -1.0900    -0.7910 C.ar  1 <1>   0.4760 
  4 N       -1.0680    -2.7220     1.4900 N.pl3 1 <1>  -0.8380 
  5 C        0.9680    -1.4910     1.7880 C.ar  1 <1>  -0.1500 
  6 N        1.9920    -0.5670    -0.1060 N.ar  1 <1>  -0.6200 
  7 C        1.0350    -0.8360    -2.2790 C.3   1 <1>  -0.0970 
  8 C       -1.2920    -4.1030     0.9580 C.3   1 <1>   0.2090 
  9 C       -2.3240    -1.9690     1.8070 C.3   1 <1>   0.2090 
 10 C        1.9680    -0.7750     1.1950 C.ar  1 <1>   0.1600 
 11 C       -2.2850    -4.1580    -0.2670 C.3   1 <1>   0.5030 
 12 C       -3.3680    -2.0890     0.6690 C.3   1 <1>   0.3430 
 13 N       -2.7860    -2.7600    -0.5520 N.4   1 <1>  -0.9590 
 14 C       -3.4770    -5.1000     0.0360 C.3   1 <1>  -0.1600 
 15 C       -1.5370    -4.6770    -1.5100 C.3   1 <1>  -0.1600 
 16 C       -3.6110    -2.4970    -1.7750 C.3   1 <1>   0.2630 
 17 C       -3.3050    -6.5330    -0.4910 C.3   1 <1>   0.3430 
 18 C       -0.9810    -6.0950    -1.3230 C.3   1 <1>   0.3430 
 19 N       -1.8720    -6.9470    -0.4660 N.4   1 <1>  -0.9590 
 20 C       -1.7490    -8.3830    -0.8880 C.3   1 <1>   0.2630 
 21 H        0.9440    -1.6630     2.8460 H     1 <1>   0.1500 
 22 H        0.2380    -1.3480    -2.7830 H     1 <1>   0.0800 
 23 H        1.9750    -1.1750    -2.6750 H     1 <1>   0.0800 
 24 H        0.9460     0.2190    -2.4620 H     1 <1>   0.0800 
 25 H       -1.6470    -4.7170     1.7660 H     1 <1>   0.0800 
 26 H       -0.3320    -4.5040     0.6800 H     1 <1>   0.0800 
 27 H       -2.0890    -0.9280     1.9570 H     1 <1>   0.0800 
 28 H       -2.7430    -2.3350     2.7280 H     1 <1>   0.0800 
 29 H        2.7690    -0.3600     1.7850 H     1 <1>   0.1500 
 30 H       -3.7070    -1.0980     0.4170 H     1 <1>   0.0800 
 31 H       -4.2210    -2.6420     1.0250 H     1 <1>   0.0800 
 32 H       -1.8800    -2.2440    -0.6520 H     1 <1>   0.4500 
 33 H       -4.3800    -4.7230    -0.4080 H     1 <1>   0.0800 
 34 H       -3.6620    -5.1440     1.0940 H     1 <1>   0.0800 
 35 H       -0.7190    -4.0240    -1.7560 H     1 <1>   0.0800 
 36 H       -2.1940    -4.7040    -2.3600 H     1 <1>   0.0800 
 37 H       -4.5550    -3.0130    -1.7180 H     1 <1>   0.0800 
 38 H       -3.0890    -2.8180    -2.6620 H     1 <1>   0.0800 
 39 H       -3.8050    -1.4400    -1.8690 H     1 <1>   0.0800 
 40 H       -3.6640    -6.5810    -1.5070 H     1 <1>   0.0800 
 41 H       -3.9030    -7.2100     0.1000 H     1 <1>   0.0800 
 42 H        0.0000    -6.0450    -0.8750 H     1 <1>   0.0800 
 43 H       -0.8650    -6.5470    -2.2970 H     1 <1>   0.0800 
 44 H       -1.5370    -6.9170     0.5100 H     1 <1>   0.4500 
 45 H       -2.0870    -8.5100    -1.9040 H     1 <1>   0.0800 
 46 H       -2.3420    -9.0170    -0.2480 H     1 <1>   0.0800 
 47 H       -0.7220    -8.7070    -0.8270 H     1 <1>   0.0800 
@<TRIPOS>BOND
  1   1   2  ar  
  2   1   3  ar  
  3   2   4  1   
  4   2   5  ar  
  5   3   6  ar  
  6   3   7  1   
  7   4   8  1   
  8   4   9  1   
  9   5  10  ar  
 10   5  21  1   
 11   6  10  ar  
 12   7  22  1   
 13   7  23  1   
 14   7  24  1   
 15   8  11  1   
 16   8  25  1   
 17   8  26  1   
 18   9  12  1   
 19   9  27  1   
 20   9  28  1   
 21  10  29  1   
 22  11  13  1   
 23  11  14  1   
 24  11  15  1   
 25  12  13  1   
 26  12  30  1   
 27  12  31  1   
 28  13  16  1   
 29  13  32  1   
 30  14  17  1   
 31  14  33  1   
 32  14  34  1   
 33  15  18  1   
 34  15  35  1   
 35  15  36  1   
 36  16  37  1   
 37  16  38  1   
 38  16  39  1   
 39  17  19  1   
 40  17  40  1   
 41  17  41  1   
 42  18  19  1   
 43  18  42  1   
 44  18  43  1   
 45  19  20  1   
 46  19  44  1   
 47  20  45  1   
 48  20  46  1   
 49  20  47  1   
@<TRIPOS>SUBSTRUCTURE
  1 ****   8 GROUP 4 **** **** 0

# MOE 2024.06 (io_trps.svl 2023.06)
