@<TRIPOS>MOLECULE
NONAME
45 46 1 0 0 
SMALL
USER_CHARGES


@<TRIPOS>ATOM
  1 S       -0.2770     0.2200     1.8750 S.o2  1 <1>   1.4470 
  2 O       -0.8470     1.4490     2.3910 O.2   1 <1>  -0.6500 
  3 O        0.0300    -0.7850     2.8720 O.2   1 <1>  -0.6500 
  4 N       -1.4630    -0.4760     0.8800 N.am  1 <1>  -0.8490 
  5 C        1.1080     0.6170     0.7150 C.ar  1 <1>  -0.0090 
  6 C       -1.0250    -1.7570     0.2790 C.3   1 <1>   0.1960 
  7 C       -2.7580    -0.5990     1.5430 C.3   1 <1>   0.1960 
  8 C        2.3130    -0.1140     0.7000 C.ar  1 <1>  -0.1440 
  9 C        0.9740     1.6810    -0.1980 C.ar  1 <1>  -0.1440 
 10 C       -2.1870    -2.6150    -0.2470 C.3   1 <1>  -0.1860 
 11 C       -3.8480    -0.8540     0.4940 C.3   1 <1>  -0.1600 
 12 C        3.3530     0.2450    -0.1570 C.ar  1 <1>  -0.1440 
 13 C        2.5100    -1.3230     1.6220 C.3   1 <1>  -0.0970 
 14 C        2.0250     2.0410    -1.0390 C.ar  1 <1>  -0.1440 
 15 C       -0.3340     2.4800    -0.2910 C.3   1 <1>  -0.0970 
 16 C       -1.6920    -3.5320    -1.3470 C.2   1 <1>   0.9060 
 17 C       -3.3490    -1.7180    -0.6720 C.3   1 <1>   0.2000 
 18 C        3.1960     1.3180    -1.0070 C.ar  1 <1>  -0.1500 
 19 C        4.6890    -0.4910    -0.2210 C.3   1 <1>  -0.0960 
 20 C        1.9600     3.2130    -2.0130 C.3   1 <1>  -0.0970 
 21 O       -0.5160    -3.9090    -1.3180 O.co2 1 <1>  -0.9000 
 22 O       -2.4810    -3.9060    -2.2250 O.co2 1 <1>  -0.9000 
 23 O       -4.3880    -2.5060    -1.1120 O.3   1 <1>  -0.6800 
 24 H       -0.3500    -1.5310    -0.5320 H     1 <1>   0.0800 
 25 H       -0.4830    -2.3510     0.9950 H     1 <1>   0.0800 
 26 H       -2.7200    -1.4110     2.2510 H     1 <1>   0.0800 
 27 H       -2.9990     0.3030     2.0810 H     1 <1>   0.0800 
 28 H       -2.5180    -3.2520     0.5490 H     1 <1>   0.0800 
 29 H       -4.1840     0.0880     0.1010 H     1 <1>   0.0800 
 30 H       -4.6800    -1.3290     0.9820 H     1 <1>   0.0800 
 31 H        3.4160    -1.8650     1.4450 H     1 <1>   0.0800 
 32 H        1.7140    -2.0300     1.4810 H     1 <1>   0.0800 
 33 H        2.5280    -1.0030     2.6480 H     1 <1>   0.0800 
 34 H       -0.4400     3.0010    -1.2220 H     1 <1>   0.0800 
 35 H       -0.3780     3.2020     0.5040 H     1 <1>   0.0800 
 36 H       -1.1920     1.8390    -0.2270 H     1 <1>   0.0800 
 37 H       -3.0340    -1.0960    -1.4930 H     1 <1>   0.0800 
 38 H        4.0020     1.5930    -1.6630 H     1 <1>   0.1500 
 39 H        5.3660    -0.0190    -0.9090 H     1 <1>   0.0800 
 40 H        4.5340    -1.5030    -0.5510 H     1 <1>   0.0800 
 41 H        5.1550    -0.4980     0.7480 H     1 <1>   0.0800 
 42 H        2.9250     3.4200    -2.4400 H     1 <1>   0.0800 
 43 H        1.6320     4.1020    -1.5040 H     1 <1>   0.0800 
 44 H        1.2800     2.9870    -2.8140 H     1 <1>   0.0800 
 45 H       -3.9570    -3.1860    -1.7110 H     1 <1>   0.4000 
@<TRIPOS>BOND
  1   1   2  2   
  2   1   3  2   
  3   1   4  am  
  4   1   5  1   
  5   4   6  1   
  6   4   7  1   
  7   5   8  ar  
  8   5   9  ar  
  9   6  10  1   
 10   6  24  1   
 11   6  25  1   
 12   7  11  1   
 13   7  26  1   
 14   7  27  1   
 15   8  12  ar  
 16   8  13  1   
 17   9  14  ar  
 18   9  15  1   
 19  10  16  1   
 20  10  17  1   
 21  10  28  1   
 22  11  17  1   
 23  11  29  1   
 24  11  30  1   
 25  12  18  ar  
 26  12  19  1   
 27  13  31  1   
 28  13  32  1   
 29  13  33  1   
 30  14  18  ar  
 31  14  20  1   
 32  15  34  1   
 33  15  35  1   
 34  15  36  1   
 35  16  21  ar  
 36  16  22  ar  
 37  17  23  1   
 38  17  37  1   
 39  18  38  1   
 40  19  39  1   
 41  19  40  1   
 42  19  41  1   
 43  20  42  1   
 44  20  43  1   
 45  20  44  1   
 46  23  45  1   
@<TRIPOS>SUBSTRUCTURE
  1 ****   4 GROUP 4 **** **** 0

# MOE 2024.06 (io_trps.svl 2023.06)
