@<TRIPOS>MOLECULE
NONAME
60 63 1 0 0 
SMALL
USER_CHARGES


@<TRIPOS>ATOM
  1 S       -0.2790    -0.2420    -1.0520 S.3   1 <1>  -0.0800 
  2 C        0.3220     1.2680    -0.3870 C.2   1 <1>  -0.1400 
  3 C       -1.9490     0.2180    -0.7660 C.2   1 <1>  -0.1400 
  4 C       -0.7100     2.0370     0.0090 C.2   1 <1>  -0.1500 
  5 C        1.8340     1.4640    -0.3710 C.3   1 <1>   0.1000 
  6 C       -1.9950     1.4450    -0.2030 C.2   1 <1>  -0.1500 
  7 C       -2.9550    -0.8380    -1.2020 C.3   1 <1>   0.5230 
  8 C        2.4860     0.5350     0.6670 C.3   1 <1>  -0.1600 
  9 C        2.2080     2.9290    -0.0860 C.3   1 <1>  -0.1600 
 10 N       -4.3790    -0.4500    -0.9680 N.4   1 <1>  -0.9590 
 11 C        4.0090     0.7270     0.7240 C.3   1 <1>  -0.1600 
 12 C        3.7310     3.1250    -0.0420 C.3   1 <1>  -0.1600 
 13 C       -4.7470     0.7570    -1.7670 C.3   1 <1>   0.3430 
 14 C       -4.6570    -0.2700     0.4880 C.3   1 <1>   0.3430 
 15 C        4.3760     2.1930     0.9910 C.3   1 <1>  -0.1600 
 16 C       -6.2230     1.0860    -1.5700 C.3   1 <1>  -0.1600 
 17 C       -6.1310     0.0490     0.7000 C.3   1 <1>  -0.1600 
 18 C       -6.5520     1.3000    -0.0840 C.3   1 <1>   0.2800 
 19 O       -5.6950     2.3330     0.3510 O.3   1 <1>  -0.5600 
 20 C       -8.0570     1.6120     0.1750 C.3   1 <1>   0.2000 
 21 C       -6.2530     3.5040     0.8850 C.3   1 <1>   0.1200 
 22 O       -8.8770     0.6440    -0.4150 O.3   1 <1>  -0.6800 
 23 C       -8.4850     3.0600    -0.2150 C.3   1 <1>   0.2800 
 24 C       -7.3100     4.0430    -0.0800 C.3   1 <1>  -0.1600 
 25 O       -9.4420     3.4400     0.7050 O.3   1 <1>  -0.6800 
 26 C       -9.1640     3.2130    -1.5840 C.3   1 <1>  -0.2400 
 27 H       -0.6260     3.0150     0.4510 H     1 <1>   0.1500 
 28 H        2.2110     1.2080    -1.3460 H     1 <1>   0.0800 
 29 H       -2.8710     1.9980     0.0890 H     1 <1>   0.1500 
 30 H       -2.7410    -1.7500    -0.6690 H     1 <1>   0.0800 
 31 H       -2.8060    -1.0330    -2.2520 H     1 <1>   0.0800 
 32 H        2.0650     0.7380     1.6360 H     1 <1>   0.0800 
 33 H        2.2700    -0.4900     0.4240 H     1 <1>   0.0800 
 34 H        1.7890     3.5610    -0.8500 H     1 <1>   0.0800 
 35 H        1.7920     3.2270     0.8600 H     1 <1>   0.0800 
 36 H       -4.9710    -1.2220    -1.2960 H     1 <1>   0.4500 
 37 H        4.4220     0.1060     1.5010 H     1 <1>   0.0800 
 38 H        4.4430     0.4170    -0.2110 H     1 <1>   0.0800 
 39 H        4.1470     2.9220    -1.0150 H     1 <1>   0.0800 
 40 H        3.9560     4.1480     0.2060 H     1 <1>   0.0800 
 41 H       -4.1600     1.6030    -1.4520 H     1 <1>   0.0800 
 42 H       -4.5530     0.5840    -2.8130 H     1 <1>   0.0800 
 43 H       -4.4000    -1.1660     1.0290 H     1 <1>   0.0800 
 44 H       -4.0670     0.5410     0.8810 H     1 <1>   0.0800 
 45 H        5.4460     2.3080     0.9620 H     1 <1>   0.0800 
 46 H        4.0420     2.4690     1.9770 H     1 <1>   0.0800 
 47 H       -6.8240     0.2930    -1.9780 H     1 <1>   0.0800 
 48 H       -6.4490     1.9760    -2.1240 H     1 <1>   0.0800 
 49 H       -6.3070     0.2110     1.7490 H     1 <1>   0.0800 
 50 H       -6.7300    -0.7930     0.4030 H     1 <1>   0.0800 
 51 H       -8.2080     1.5120     1.2360 H     1 <1>   0.0800 
 52 H       -6.6770     3.2830     1.8510 H     1 <1>   0.0800 
 53 H       -5.4570     4.2180     1.0110 H     1 <1>   0.0800 
 54 H       -9.8100     0.8550    -0.1980 H     1 <1>   0.4000 
 55 H       -6.8340     4.1890    -1.0330 H     1 <1>   0.0800 
 56 H       -7.6550     5.0050     0.2540 H     1 <1>   0.0800 
 57 H       -9.8240     4.3010     0.4500 H     1 <1>   0.4000 
 58 H       -8.5200     2.8620    -2.3670 H     1 <1>   0.0800 
 59 H       -9.3920     4.2460    -1.7820 H     1 <1>   0.0800 
 60 H      -10.0760     2.6440    -1.6270 H     1 <1>   0.0800 
@<TRIPOS>BOND
  1   1   2  1   
  2   1   3  1   
  3   2   4  2   
  4   2   5  1   
  5   3   6  2   
  6   3   7  1   
  7   4   6  1   
  8   4  27  1   
  9   5   8  1   
 10   5   9  1   
 11   5  28  1   
 12   6  29  1   
 13   7  10  1   
 14   7  30  1   
 15   7  31  1   
 16   8  11  1   
 17   8  32  1   
 18   8  33  1   
 19   9  12  1   
 20   9  34  1   
 21   9  35  1   
 22  10  13  1   
 23  10  14  1   
 24  10  36  1   
 25  11  15  1   
 26  11  37  1   
 27  11  38  1   
 28  12  15  1   
 29  12  39  1   
 30  12  40  1   
 31  13  16  1   
 32  13  41  1   
 33  13  42  1   
 34  14  17  1   
 35  14  43  1   
 36  14  44  1   
 37  15  45  1   
 38  15  46  1   
 39  16  18  1   
 40  16  47  1   
 41  16  48  1   
 42  17  18  1   
 43  17  49  1   
 44  17  50  1   
 45  18  19  1   
 46  18  20  1   
 47  19  21  1   
 48  20  22  1   
 49  20  23  1   
 50  20  51  1   
 51  21  24  1   
 52  21  52  1   
 53  21  53  1   
 54  22  54  1   
 55  23  24  1   
 56  23  25  1   
 57  23  26  1   
 58  24  55  1   
 59  24  56  1   
 60  25  57  1   
 61  26  58  1   
 62  26  59  1   
 63  26  60  1   
@<TRIPOS>SUBSTRUCTURE
  1 ****   6 GROUP 4 **** **** 0

# MOE 2024.06 (io_trps.svl 2023.06)
