@<TRIPOS>MOLECULE
NONAME
55 58 1 0 0 
SMALL
USER_CHARGES


@<TRIPOS>ATOM
  1 O        0.8950    -0.7390    -0.0670 O.2   1 <1>  -0.5700 
  2 C       -0.1240    -0.1060     0.0990 C.2   1 <1>   0.5690 
  3 N       -1.3140    -0.5020    -0.4670 N.am  1 <1>  -0.6600 
  4 C       -0.0280     1.1360     0.9750 C.3   1 <1>   0.0440 
  5 C       -1.4000    -1.7060    -1.3380 C.3   1 <1>   0.1400 
  6 C       -2.6070     0.2280    -0.3470 C.3   1 <1>   0.1400 
  7 C       -0.1780     2.4410     0.1870 C.ar  1 <1>  -0.1440 
  8 C       -2.4420    -2.6700    -0.7660 C.3   1 <1>  -0.1600 
  9 C       -3.6590    -0.7120     0.2440 C.3   1 <1>  -0.1600 
 10 C       -1.0930     3.4280     0.5530 C.ar  1 <1>   0.0830 
 11 C        0.6330     2.6410    -0.9200 C.ar  1 <1>  -0.1500 
 12 C       -3.8120    -1.9980    -0.5870 C.3   1 <1>   0.4240 
 13 O       -1.8720     3.2060     1.6460 O.3   1 <1>  -0.3630 
 14 C       -1.1830     4.5960    -0.2020 C.ar  1 <1>  -0.1500 
 15 C        0.5380     3.8020    -1.6650 C.ar  1 <1>  -0.1500 
 16 O       -4.2170    -1.6330    -1.8860 O.3   1 <1>  -0.5600 
 17 C       -4.8110    -2.9730     0.0720 C.ar  1 <1>  -0.1430 
 18 C       -2.7390     4.1950     2.1550 C.3   1 <1>   0.0400 
 19 C       -0.3700     4.7800    -1.3060 C.ar  1 <1>  -0.1500 
 20 C       -5.5760    -1.4180    -2.1020 C.3   1 <1>   0.1200 
 21 C       -5.9990    -3.3260    -0.5620 C.ar  1 <1>  -0.1430 
 22 C       -4.5440    -3.5150     1.3250 C.ar  1 <1>  -0.1500 
 23 C       -6.3180    -2.7380    -1.9220 C.3   1 <1>  -0.0170 
 24 C       -6.8880    -4.2050     0.0360 C.ar  1 <1>  -0.1500 
 25 C       -5.4320    -4.3900     1.9240 C.ar  1 <1>  -0.1500 
 26 C       -6.6070    -4.7430     1.2870 C.ar  1 <1>   0.0830 
 27 O       -7.4220    -5.6080     1.9420 O.3   1 <1>  -0.3620 
 28 C       -8.6330    -6.0490     1.3700 C.3   1 <1>   0.0400 
 29 H        0.9350     1.1420     1.4510 H     1 <1>   0.0800 
 30 H       -0.7570     1.0500     1.7570 H     1 <1>   0.0800 
 31 H       -0.4470    -2.2030    -1.4020 H     1 <1>   0.0800 
 32 H       -1.6840    -1.4030    -2.3320 H     1 <1>   0.0800 
 33 H       -2.9140     0.5590    -1.3250 H     1 <1>   0.0800 
 34 H       -2.5150     1.0940     0.2800 H     1 <1>   0.0800 
 35 H       -2.0770    -3.0310     0.1760 H     1 <1>   0.0800 
 36 H       -2.5500    -3.5190    -1.4160 H     1 <1>   0.0800 
 37 H       -4.6030    -0.2060     0.3190 H     1 <1>   0.0800 
 38 H       -3.3570    -0.9630     1.2430 H     1 <1>   0.0800 
 39 H        1.3460     1.8860    -1.2110 H     1 <1>   0.1500 
 40 H       -1.8770     5.3730     0.0500 H     1 <1>   0.1500 
 41 H        1.1730     3.9430    -2.5230 H     1 <1>   0.1500 
 42 H       -3.2050     3.8070     3.0420 H     1 <1>   0.0800 
 43 H       -3.4890     4.4170     1.4160 H     1 <1>   0.0800 
 44 H       -2.1640     5.0720     2.3970 H     1 <1>   0.0800 
 45 H       -0.4430     5.6830    -1.8860 H     1 <1>   0.1500 
 46 H       -5.6970    -1.0520    -3.1060 H     1 <1>   0.0800 
 47 H       -5.9330    -0.6750    -1.4100 H     1 <1>   0.0800 
 48 H       -3.6400    -3.2620     1.8490 H     1 <1>   0.1500 
 49 H       -6.0170    -3.4250    -2.6930 H     1 <1>   0.0800 
 50 H       -7.3750    -2.5660    -2.0150 H     1 <1>   0.0800 
 51 H       -7.7920    -4.4610    -0.4810 H     1 <1>   0.1500 
 52 H       -5.2170    -4.8050     2.8920 H     1 <1>   0.1500 
 53 H       -9.0990    -6.7290     2.0600 H     1 <1>   0.0800 
 54 H       -8.4190    -6.5550     0.4460 H     1 <1>   0.0800 
 55 H       -9.2720    -5.1990     1.2070 H     1 <1>   0.0800 
@<TRIPOS>BOND
  1   1   2  2   
  2   2   3  am  
  3   2   4  1   
  4   3   5  1   
  5   3   6  1   
  6   4   7  1   
  7   4  29  1   
  8   4  30  1   
  9   5   8  1   
 10   5  31  1   
 11   5  32  1   
 12   6   9  1   
 13   6  33  1   
 14   6  34  1   
 15   7  10  ar  
 16   7  11  ar  
 17   8  12  1   
 18   8  35  1   
 19   8  36  1   
 20   9  12  1   
 21   9  37  1   
 22   9  38  1   
 23  10  13  1   
 24  10  14  ar  
 25  11  15  ar  
 26  11  39  1   
 27  12  16  1   
 28  12  17  1   
 29  13  18  1   
 30  14  19  ar  
 31  14  40  1   
 32  15  19  ar  
 33  15  41  1   
 34  16  20  1   
 35  17  21  ar  
 36  17  22  ar  
 37  18  42  1   
 38  18  43  1   
 39  18  44  1   
 40  19  45  1   
 41  20  23  1   
 42  20  46  1   
 43  20  47  1   
 44  21  23  1   
 45  21  24  ar  
 46  22  25  ar  
 47  22  48  1   
 48  23  49  1   
 49  23  50  1   
 50  24  26  ar  
 51  24  51  1   
 52  25  26  ar  
 53  25  52  1   
 54  26  27  1   
 55  27  28  1   
 56  28  53  1   
 57  28  54  1   
 58  28  55  1   
@<TRIPOS>SUBSTRUCTURE
  1 ****   9 GROUP 4 **** **** 0

# MOE 2024.06 (io_trps.svl 2023.06)
