@<TRIPOS>MOLECULE
NONAME
54 58 1 0 0 
SMALL
USER_CHARGES


@<TRIPOS>ATOM
  1 O       -0.6280     0.4670     1.6790 O.2   1 <1>  -0.5700 
  2 C       -1.6240     1.0170     1.2320 C.2   1 <1>   0.7160 
  3 N       -2.8250     0.3290     1.3400 N.am  1 <1>  -0.6600 
  4 C       -1.5070     2.3360     0.6010 C.2   1 <1>   0.2030 
  5 C       -4.0390     0.6460     0.5390 C.3   1 <1>   0.1400 
  6 C       -3.0160    -0.7870     2.3060 C.3   1 <1>   0.1400 
  7 N       -2.4170     3.2980     0.6470 N.2   1 <1>  -0.7070 
  8 C       -0.3930     2.7780    -0.1430 C.2   1 <1>  -0.1810 
  9 C       -4.4710    -0.6030    -0.2320 C.3   1 <1>  -0.1600 
 10 C       -3.4300    -2.0480     1.5480 C.3   1 <1>  -0.1600 
 11 N       -1.8950     4.3220    -0.0360 N.pl3 1 <1>   0.3000 
 12 C       -0.6760     4.0390    -0.5320 C.2   1 <1>  -0.3320 
 13 C        0.8630     1.9690    -0.4250 C.3   1 <1>  -0.0590 
 14 C       -4.6800    -1.8060     0.6980 C.3   1 <1>   0.4600 
 15 C        0.1230     5.0400    -1.3500 C.3   1 <1>   0.0200 
 16 O       -5.7260    -1.5190     1.6020 O.3   1 <1>  -0.5600 
 17 C       -5.0320    -3.0590    -0.0950 C.2   1 <1>  -0.3320 
 18 C        0.6150     6.1830    -0.4620 C.3   1 <1>  -0.2400 
 19 C       -7.0520    -1.6830     1.1580 C.3   1 <1>   0.1200 
 20 N       -4.2110    -3.7330    -0.9560 N.pl3 1 <1>   0.0330 
 21 C       -6.2290    -3.6780    -0.0450 C.2   1 <1>  -0.1810 
 22 C       -7.3470    -3.1550     0.8210 C.3   1 <1>   0.0210 
 23 C       -4.9090    -4.8060    -1.4550 C.ar  1 <1>  -0.1520 
 24 C       -6.1850    -4.8010    -0.8980 C.ar  1 <1>   0.0000 
 25 C       -4.5280    -5.8000    -2.3610 C.ar  1 <1>  -0.1500 
 26 C       -7.0980    -5.8010    -1.2460 C.ar  1 <1>  -0.1500 
 27 C       -5.4360    -6.7780    -2.6960 C.ar  1 <1>  -0.1500 
 28 C       -6.7210    -6.7790    -2.1380 C.ar  1 <1>  -0.1500 
 29 H       -3.8460     1.4350    -0.1650 H     1 <1>   0.0800 
 30 H       -4.8250     0.9670     1.2020 H     1 <1>   0.0800 
 31 H       -3.7850    -0.5140     3.0090 H     1 <1>   0.0800 
 32 H       -2.1130    -0.9760     2.8620 H     1 <1>   0.0800 
 33 H       -3.7050    -0.8400    -0.9460 H     1 <1>   0.0800 
 34 H       -5.3680    -0.4030    -0.7860 H     1 <1>   0.0800 
 35 H       -3.6250    -2.8460     2.2410 H     1 <1>   0.0800 
 36 H       -2.6120    -2.3500     0.9220 H     1 <1>   0.0800 
 37 H       -2.3880     5.2150    -0.1490 H     1 <1>   0.2700 
 38 H        0.6000     1.0190    -0.8540 H     1 <1>   0.0800 
 39 H        1.3960     1.7960     0.4930 H     1 <1>   0.0800 
 40 H        1.5150     2.4820    -1.1050 H     1 <1>   0.0800 
 41 H       -0.4890     5.4300    -2.1450 H     1 <1>   0.0800 
 42 H        0.9710     4.5570    -1.8020 H     1 <1>   0.0800 
 43 H       -0.2150     6.7180    -0.0360 H     1 <1>   0.0800 
 44 H        1.2090     6.8690    -1.0380 H     1 <1>   0.0800 
 45 H        1.2190     5.7900     0.3380 H     1 <1>   0.0800 
 46 H       -7.2020    -1.0640     0.2910 H     1 <1>   0.0800 
 47 H       -7.7050    -1.3440     1.9420 H     1 <1>   0.0800 
 48 H       -3.2410    -3.5000    -1.1870 H     1 <1>   0.2700 
 49 H       -8.2840    -3.2260     0.3000 H     1 <1>   0.0800 
 50 H       -7.4070    -3.7330     1.7240 H     1 <1>   0.0800 
 51 H       -3.5400    -5.7930    -2.7840 H     1 <1>   0.1500 
 52 H       -8.0790    -5.7890    -0.8100 H     1 <1>   0.1500 
 53 H       -5.1680    -7.5540    -3.3910 H     1 <1>   0.1500 
 54 H       -7.4120    -7.5550    -2.4160 H     1 <1>   0.1500 
@<TRIPOS>BOND
  1   1   2  2   
  2   2   3  am  
  3   2   4  1   
  4   3   5  1   
  5   3   6  1   
  6   4   7  2   
  7   4   8  1   
  8   5   9  1   
  9   5  29  1   
 10   5  30  1   
 11   6  10  1   
 12   6  31  1   
 13   6  32  1   
 14   7  11  1   
 15   8  12  2   
 16   8  13  1   
 17   9  14  1   
 18   9  33  1   
 19   9  34  1   
 20  10  14  1   
 21  10  35  1   
 22  10  36  1   
 23  11  12  1   
 24  11  37  1   
 25  12  15  1   
 26  13  38  1   
 27  13  39  1   
 28  13  40  1   
 29  14  16  1   
 30  14  17  1   
 31  15  18  1   
 32  15  41  1   
 33  15  42  1   
 34  16  19  1   
 35  17  20  1   
 36  17  21  2   
 37  18  43  1   
 38  18  44  1   
 39  18  45  1   
 40  19  22  1   
 41  19  46  1   
 42  19  47  1   
 43  20  23  1   
 44  20  48  1   
 45  21  22  1   
 46  21  24  1   
 47  22  49  1   
 48  22  50  1   
 49  23  24  ar  
 50  23  25  ar  
 51  24  26  ar  
 52  25  27  ar  
 53  25  51  1   
 54  26  28  ar  
 55  26  52  1   
 56  27  28  ar  
 57  27  53  1   
 58  28  54  1   
@<TRIPOS>SUBSTRUCTURE
  1 ****   9 GROUP 4 **** **** 0

# MOE 2024.06 (io_trps.svl 2023.06)
