@<TRIPOS>MOLECULE
NONAME
47 50 1 0 0 
SMALL
USER_CHARGES


@<TRIPOS>ATOM
  1 O       -1.5050    -0.4700    -2.6500 O.2   1 <1>  -0.5700 
  2 C       -1.8300    -0.8770    -1.5580 C.2   1 <1>   0.5690 
  3 N       -1.9080    -0.0550    -0.4730 N.am  1 <1>  -0.6600 
  4 C       -2.1620    -2.3450    -1.4200 C.3   1 <1>  -0.0190 
  5 C       -2.2940    -0.5780     0.8660 C.3   1 <1>   0.2200 
  6 C       -1.5980     1.4010    -0.5550 C.3   1 <1>   0.0600 
  7 C       -1.1500    -3.0690    -0.5080 C.3   1 <1>   0.1200 
  8 C       -3.6590    -2.5470    -1.1230 C.3   1 <1>   0.1100 
  9 C       -1.2540    -1.6000     1.3890 C.3   1 <1>   0.1200 
 10 C       -3.7730    -1.0460     0.8820 C.3   1 <1>   0.1100 
 11 O       -1.3630    -2.8930     0.8620 O.3   1 <1>  -0.5600 
 12 N       -4.0480    -2.3750     0.2930 N.3   1 <1>  -0.8100 
 13 C       -5.4100    -2.8470     0.5700 C.3   1 <1>   0.2530 
 14 C       -5.4860    -4.3580     0.4290 C.ar  1 <1>  -0.1440 
 15 C       -4.4670    -5.1770     0.8550 C.ar  1 <1>   0.1600 
 16 C       -6.5780    -4.9740    -0.1300 C.ar  1 <1>   0.1600 
 17 N       -4.5230    -6.4840     0.7380 N.ar  1 <1>  -0.6200 
 18 N       -6.6610    -6.2760    -0.2610 N.ar  1 <1>  -0.6200 
 19 C       -5.6230    -6.9970     0.1790 C.ar  1 <1>   0.6200 
 20 C       -5.6960    -8.4460     0.0360 C.ar  1 <1>   0.0000 
 21 C       -6.9210    -9.1190    -0.0280 C.ar  1 <1>  -0.1500 
 22 C       -4.5440    -9.2350    -0.0440 C.ar  1 <1>  -0.1500 
 23 C       -6.9930   -10.4940    -0.1650 C.ar  1 <1>  -0.1500 
 24 C       -4.6070   -10.6100    -0.1810 C.ar  1 <1>  -0.1500 
 25 C       -5.8340   -11.2430    -0.2420 C.ar  1 <1>  -0.1500 
 26 H       -2.0070    -2.7580    -2.4000 H     1 <1>   0.0800 
 27 H       -2.2450     0.2570     1.5430 H     1 <1>   0.0800 
 28 H       -0.7700     1.6340     0.0900 H     1 <1>   0.0800 
 29 H       -2.4580     1.9730    -0.2550 H     1 <1>   0.0800 
 30 H       -1.3360     1.6800    -1.5620 H     1 <1>   0.0800 
 31 H       -0.1460    -2.7550    -0.7360 H     1 <1>   0.0800 
 32 H       -1.2190    -4.1280    -0.6880 H     1 <1>   0.0800 
 33 H       -3.9040    -3.5490    -1.4290 H     1 <1>   0.0800 
 34 H       -4.2350    -1.8740    -1.7360 H     1 <1>   0.0800 
 35 H       -1.3840    -1.7030     2.4510 H     1 <1>   0.0800 
 36 H       -0.2560    -1.2410     1.2100 H     1 <1>   0.0800 
 37 H       -4.3790    -0.3020     0.3940 H     1 <1>   0.0800 
 38 H       -4.0720    -1.0790     1.9150 H     1 <1>   0.0800 
 39 H       -5.6810    -2.5950     1.5810 H     1 <1>   0.0800 
 40 H       -6.1040    -2.3650    -0.0970 H     1 <1>   0.0800 
 41 H       -3.5820    -4.7430     1.2960 H     1 <1>   0.1500 
 42 H       -7.4080    -4.3860    -0.4830 H     1 <1>   0.1500 
 43 H       -7.8350    -8.5540     0.0310 H     1 <1>   0.1500 
 44 H       -3.5780    -8.7610     0.0020 H     1 <1>   0.1500 
 45 H       -7.9520   -10.9800    -0.2120 H     1 <1>   0.1500 
 46 H       -3.7000   -11.1860    -0.2390 H     1 <1>   0.1500 
 47 H       -5.8870   -12.3130    -0.3490 H     1 <1>   0.1500 
@<TRIPOS>BOND
  1   1   2  2   
  2   2   3  am  
  3   2   4  1   
  4   3   5  1   
  5   3   6  1   
  6   4   7  1   
  7   4   8  1   
  8   4  26  1   
  9   5   9  1   
 10   5  10  1   
 11   5  27  1   
 12   6  28  1   
 13   6  29  1   
 14   6  30  1   
 15   7  11  1   
 16   7  31  1   
 17   7  32  1   
 18   8  12  1   
 19   8  33  1   
 20   8  34  1   
 21   9  11  1   
 22   9  35  1   
 23   9  36  1   
 24  10  12  1   
 25  10  37  1   
 26  10  38  1   
 27  12  13  1   
 28  13  14  1   
 29  13  39  1   
 30  13  40  1   
 31  14  15  ar  
 32  14  16  ar  
 33  15  17  ar  
 34  15  41  1   
 35  16  18  ar  
 36  16  42  1   
 37  17  19  ar  
 38  18  19  ar  
 39  19  20  1   
 40  20  21  ar  
 41  20  22  ar  
 42  21  23  ar  
 43  21  43  1   
 44  22  24  ar  
 45  22  44  1   
 46  23  25  ar  
 47  23  45  1   
 48  24  25  ar  
 49  24  46  1   
 50  25  47  1   
@<TRIPOS>SUBSTRUCTURE
  1 ****  15 GROUP 4 **** **** 0

# MOE 2024.06 (io_trps.svl 2023.06)
