@<TRIPOS>MOLECULE
NONAME
55 57 1 0 0 
SMALL
USER_CHARGES


@<TRIPOS>ATOM
  1 O       -0.6510     0.4660     0.4350 O.2   1 <1>  -0.5700 
  2 C        0.3770    -0.1120     0.6820 C.2   1 <1>   0.5690 
  3 N        1.5940     0.4930     0.8030 N.am  1 <1>  -0.4940 
  4 C        0.3570    -1.6140     0.8380 C.3   1 <1>  -0.0990 
  5 C        2.0400     1.8130     0.5770 C.2   1 <1>  -0.0880 
  6 C        0.7620    -2.2980    -0.4720 C.3   1 <1>   0.0210 
  7 N        1.3660     2.9870     0.7040 N.pl3 1 <1>   0.3140 
  8 C        3.3100     2.1260     0.2020 C.2   1 <1>  -0.0540 
  9 C        1.1210    -3.7460    -0.2030 C.2   1 <1>  -0.1810 
 10 N        2.1670     4.0410     0.4290 N.2   1 <1>  -0.7070 
 11 C       -0.0170     3.2190     1.1420 C.3   1 <1>   0.0160 
 12 C        4.3840     1.2040    -0.0610 C.ar  1 <1>   0.0540 
 13 C        3.3110     3.5210     0.1290 C.2   1 <1>   0.1080 
 14 C        2.3980    -4.2560     0.0240 C.2   1 <1>   0.1080 
 15 C        0.3030    -4.8180    -0.1180 C.2   1 <1>  -0.3320 
 16 C        5.4880     1.1190     0.7820 C.ar  1 <1>  -0.1500 
 17 C        4.3250     0.3490    -1.1560 C.ar  1 <1>  -0.1500 
 18 C        4.5010     4.3710    -0.2580 C.3   1 <1>  -0.0590 
 19 N        2.3830    -5.5320     0.2340 N.2   1 <1>  -0.7070 
 20 C        3.6910    -3.4690     0.0310 C.3   1 <1>  -0.0590 
 21 N        1.0910    -5.8840     0.1450 N.pl3 1 <1>   0.3140 
 22 C       -1.2090    -4.8960    -0.2710 C.3   1 <1>  -0.0600 
 23 C        6.4960     0.2010     0.5500 C.ar  1 <1>  -0.1500 
 24 C        5.3300    -0.5700    -1.3960 C.ar  1 <1>  -0.1500 
 25 C        0.6740    -7.2800     0.3250 C.3   1 <1>   0.0160 
 26 C        6.4180    -0.6560    -0.5440 C.ar  1 <1>   0.0820 
 27 O        7.3520    -1.5940    -0.8410 O.3   1 <1>  -0.3630 
 28 C        8.4890    -1.7790    -0.0270 C.3   1 <1>   0.0400 
 29 H        2.3650    -0.1580     0.9590 H     1 <1>   0.3700 
 30 H       -0.6280    -1.9340     1.1240 H     1 <1>   0.0800 
 31 H        1.0350    -1.8960     1.6230 H     1 <1>   0.0800 
 32 H        1.6070    -1.8030    -0.9140 H     1 <1>   0.0800 
 33 H       -0.0490    -2.2430    -1.1760 H     1 <1>   0.0800 
 34 H       -0.2520     2.5500     1.9480 H     1 <1>   0.0800 
 35 H       -0.6790     3.0430     0.3150 H     1 <1>   0.0800 
 36 H       -0.1170     4.2350     1.4740 H     1 <1>   0.0800 
 37 H        5.5460     1.7790     1.6300 H     1 <1>   0.1500 
 38 H        3.4830     0.4120    -1.8230 H     1 <1>   0.1500 
 39 H        5.1560     3.8260    -0.9110 H     1 <1>   0.0800 
 40 H        5.0380     4.6610     0.6260 H     1 <1>   0.0800 
 41 H        4.1620     5.2560    -0.7650 H     1 <1>   0.0800 
 42 H        3.5610    -2.5320     0.5370 H     1 <1>   0.0800 
 43 H        4.0080    -3.2900    -0.9800 H     1 <1>   0.0800 
 44 H        4.4550    -4.0310     0.5360 H     1 <1>   0.0800 
 45 H       -1.6230    -3.9220    -0.4570 H     1 <1>   0.0800 
 46 H       -1.6520    -5.2870     0.6270 H     1 <1>   0.0800 
 47 H       -1.4640    -5.5360    -1.0970 H     1 <1>   0.0800 
 48 H        7.3290     0.1660     1.2270 H     1 <1>   0.1500 
 49 H        5.2790    -1.2260    -2.2470 H     1 <1>   0.1500 
 50 H        0.1780    -7.6160    -0.5650 H     1 <1>   0.0800 
 51 H        0.0110    -7.3430     1.1660 H     1 <1>   0.0800 
 52 H        1.5440    -7.8850     0.5040 H     1 <1>   0.0800 
 53 H        9.0760    -2.5750    -0.4510 H     1 <1>   0.0800 
 54 H        8.1700    -2.0490     0.9640 H     1 <1>   0.0800 
 55 H        9.0630    -0.8690    -0.0150 H     1 <1>   0.0800 
@<TRIPOS>BOND
  1   1   2  2   
  2   2   3  am  
  3   2   4  1   
  4   3   5  1   
  5   3  29  1   
  6   4   6  1   
  7   4  30  1   
  8   4  31  1   
  9   5   7  1   
 10   5   8  2   
 11   6   9  1   
 12   6  32  1   
 13   6  33  1   
 14   7  10  1   
 15   7  11  1   
 16   8  12  1   
 17   8  13  1   
 18   9  14  1   
 19   9  15  2   
 20  10  13  2   
 21  11  34  1   
 22  11  35  1   
 23  11  36  1   
 24  12  16  ar  
 25  12  17  ar  
 26  13  18  1   
 27  14  19  2   
 28  14  20  1   
 29  15  21  1   
 30  15  22  1   
 31  16  23  ar  
 32  16  37  1   
 33  17  24  ar  
 34  17  38  1   
 35  18  39  1   
 36  18  40  1   
 37  18  41  1   
 38  19  21  1   
 39  20  42  1   
 40  20  43  1   
 41  20  44  1   
 42  21  25  1   
 43  22  45  1   
 44  22  46  1   
 45  22  47  1   
 46  23  26  ar  
 47  23  48  1   
 48  24  26  ar  
 49  24  49  1   
 50  25  50  1   
 51  25  51  1   
 52  25  52  1   
 53  26  27  1   
 54  27  28  1   
 55  28  53  1   
 56  28  54  1   
 57  28  55  1   
@<TRIPOS>SUBSTRUCTURE
  1 ****   3 GROUP 4 **** **** 0

# MOE 2024.06 (io_trps.svl 2023.06)
