@<TRIPOS>MOLECULE
NONAME
52 54 1 0 0 
SMALL
USER_CHARGES


@<TRIPOS>ATOM
  1 O       -0.3790     1.1630     1.5450 O.2   1 <1>  -0.5700 
  2 C        0.4820     0.3660     1.2440 C.2   1 <1>   0.5690 
  3 N        1.5550     0.7420     0.4710 N.am  1 <1>  -0.6600 
  4 C        0.3180    -1.0700     1.7740 C.3   1 <1>   0.1710 
  5 C        1.7210     2.1730     0.0540 C.3   1 <1>   0.3200 
  6 C        2.6160    -0.1970     0.0040 C.3   1 <1>   0.1400 
  7 N        0.1510    -2.1250     0.7360 N.3   1 <1>  -0.8100 
  8 C        3.0250     2.7730     0.5590 C.2   1 <1>   0.2980 
  9 C        2.3990    -0.5380    -1.4680 C.3   1 <1>  -0.2400 
 10 C       -1.0800    -1.8910    -0.0600 C.3   1 <1>   0.1100 
 11 C        0.1020    -3.4700     1.3500 C.3   1 <1>   0.1100 
 12 O        3.2000     2.8970     1.8510 O.3   1 <1>  -0.0190 
 13 N        3.9940     3.1710    -0.1670 N.2   1 <1>  -0.5650 
 14 C       -1.2810    -2.9670    -1.1430 C.3   1 <1>   0.2090 
 15 C       -0.0740    -4.5860     0.3020 C.3   1 <1>   0.2090 
 16 N        4.3860     3.4130     1.9600 N.2   1 <1>  -0.4100 
 17 C        4.8450     3.5590     0.7790 C.2   1 <1>   0.3350 
 18 N       -1.2880    -4.3330    -0.5330 N.pl3 1 <1>  -0.8380 
 19 C        6.2150     4.1460     0.4460 C.3   1 <1>   0.3010 
 20 C       -2.4060    -5.1400    -0.4920 C.ar  1 <1>   0.7200 
 21 O        7.1230     3.1420     0.0750 O.3   1 <1>  -0.5600 
 22 N       -2.2480    -6.3740    -0.0130 N.ar  1 <1>  -0.6200 
 23 N       -3.5520    -4.6190    -0.9320 N.ar  1 <1>  -0.6200 
 24 C        8.3910     3.6120    -0.2480 C.3   1 <1>   0.0400 
 25 C       -3.3170    -7.1320     0.0150 C.ar  1 <1>   0.1600 
 26 C       -4.6040    -5.3980    -0.8900 C.ar  1 <1>   0.1600 
 27 C       -4.5400    -6.6860    -0.4190 C.ar  1 <1>  -0.1500 
 28 H       -0.5340    -1.0860     2.4320 H     1 <1>   0.0800 
 29 H        1.1850    -1.2960     2.3680 H     1 <1>   0.0800 
 30 H        0.9120     2.7770     0.4210 H     1 <1>   0.0800 
 31 H        1.7040     2.2310    -1.0190 H     1 <1>   0.0800 
 32 H        2.6000    -1.1040     0.5800 H     1 <1>   0.0800 
 33 H        3.5890     0.2480     0.1360 H     1 <1>   0.0800 
 34 H        1.4230    -0.9660    -1.6090 H     1 <1>   0.0800 
 35 H        3.1320    -1.2600    -1.7790 H     1 <1>   0.0800 
 36 H        2.5060     0.3350    -2.0850 H     1 <1>   0.0800 
 37 H       -1.0220    -0.9310    -0.5420 H     1 <1>   0.0800 
 38 H       -1.9420    -1.8890     0.5850 H     1 <1>   0.0800 
 39 H       -0.7160    -3.5250     2.0480 H     1 <1>   0.0800 
 40 H        1.0160    -3.6480     1.8910 H     1 <1>   0.0800 
 41 H       -0.4720    -2.9060    -1.8500 H     1 <1>   0.0800 
 42 H       -2.1910    -2.7670    -1.6790 H     1 <1>   0.0800 
 43 H       -0.1340    -5.5330     0.8070 H     1 <1>   0.0800 
 44 H        0.7910    -4.6110    -0.3370 H     1 <1>   0.0800 
 45 H        6.6050     4.6530     1.3100 H     1 <1>   0.0800 
 46 H        6.1160     4.8390    -0.3690 H     1 <1>   0.0800 
 47 H        9.0020     2.7670    -0.5150 H     1 <1>   0.0800 
 48 H        8.8160     4.1090     0.6070 H     1 <1>   0.0800 
 49 H        8.3210     4.2850    -1.0850 H     1 <1>   0.0800 
 50 H       -3.2130    -8.1350     0.3930 H     1 <1>   0.1500 
 51 H       -5.5400    -5.0000    -1.2410 H     1 <1>   0.1500 
 52 H       -5.4080    -7.3160    -0.3910 H     1 <1>   0.1500 
@<TRIPOS>BOND
  1   1   2  2   
  2   2   3  am  
  3   2   4  1   
  4   3   5  1   
  5   3   6  1   
  6   4   7  1   
  7   4  28  1   
  8   4  29  1   
  9   5   8  1   
 10   5  30  1   
 11   5  31  1   
 12   6   9  1   
 13   6  32  1   
 14   6  33  1   
 15   7  10  1   
 16   7  11  1   
 17   8  12  1   
 18   8  13  2   
 19   9  34  1   
 20   9  35  1   
 21   9  36  1   
 22  10  14  1   
 23  10  37  1   
 24  10  38  1   
 25  11  15  1   
 26  11  39  1   
 27  11  40  1   
 28  12  16  1   
 29  13  17  1   
 30  14  18  1   
 31  14  41  1   
 32  14  42  1   
 33  15  18  1   
 34  15  43  1   
 35  15  44  1   
 36  16  17  2   
 37  17  19  1   
 38  18  20  1   
 39  19  21  1   
 40  19  45  1   
 41  19  46  1   
 42  20  22  ar  
 43  20  23  ar  
 44  21  24  1   
 45  22  25  ar  
 46  23  26  ar  
 47  24  47  1   
 48  24  48  1   
 49  24  49  1   
 50  25  27  ar  
 51  25  50  1   
 52  26  27  ar  
 53  26  51  1   
 54  27  52  1   
@<TRIPOS>SUBSTRUCTURE
  1 ****   7 GROUP 4 **** **** 0

# MOE 2024.06 (io_trps.svl 2023.06)
