@<TRIPOS>MOLECULE
NONAME
47 50 1 0 0 
SMALL
USER_CHARGES


@<TRIPOS>ATOM
  1 O        0.3660     1.0030     0.2940 O.2   1 <1>  -0.5700 
  2 C        0.0080     2.0730    -0.1420 C.2   1 <1>   0.5690 
  3 N       -1.1120     2.7330     0.2900 N.am  1 <1>  -0.5090 
  4 C        0.8530     2.7340    -1.2230 C.3   1 <1>   0.1810 
  5 C       -1.4880     4.0660    -0.2860 C.3   1 <1>   0.3640 
  6 C       -1.8530     2.3060     1.5040 C.3   1 <1>   0.0490 
  7 O        0.9070     4.1220    -1.0230 O.3   1 <1>  -0.5600 
  8 C       -2.7100     3.9260    -1.1940 C.ar  1 <1>  -0.1440 
  9 C       -0.3530     4.7790    -1.0810 C.3   1 <1>   0.2610 
 10 C       -2.4530     0.9350     1.5280 C.3   1 <1>  -0.2000 
 11 C       -3.3420     2.1340     1.4780 C.3   1 <1>  -0.2000 
 12 C       -2.9010     2.8110    -2.0030 C.ar  1 <1>   0.1600 
 13 C       -3.6530     4.9350    -1.2370 C.ar  1 <1>  -0.1500 
 14 C       -0.2210     6.2260    -0.5910 C.2   1 <1>   0.5690 
 15 N       -3.9190     2.6360    -2.8300 N.ar  1 <1>  -0.6200 
 16 C       -4.7240     4.7660    -2.0880 C.ar  1 <1>  -0.1500 
 17 O       -1.2000     6.9340    -0.5750 O.2   1 <1>  -0.5700 
 18 N        0.9930     6.6820    -0.1800 N.am  1 <1>  -0.7300 
 19 C       -4.8070     3.6160    -2.8520 C.ar  1 <1>   0.1600 
 20 C        1.2910     8.0500     0.3070 C.3   1 <1>   0.1400 
 21 C        2.1700     8.7880    -0.7030 C.3   1 <1>   0.0200 
 22 C        2.5240    10.1890    -0.2370 C.2   1 <1>  -0.0400 
 23 O        3.3430    10.8940    -0.9910 O.3   1 <1>  -0.2800 
 24 C        2.1530    10.9050     0.8490 C.2   1 <1>  -0.1500 
 25 C        3.5150    12.0650    -0.4120 C.2   1 <1>  -0.0100 
 26 C        2.8050    12.1380     0.7330 C.2   1 <1>  -0.1500 
 27 H        0.4440     2.5320    -2.1960 H     1 <1>   0.0800 
 28 H        1.8570     2.3540    -1.1750 H     1 <1>   0.0800 
 29 H       -1.7670     4.6970     0.5410 H     1 <1>   0.0800 
 30 H       -1.3920     2.6630     2.4100 H     1 <1>   0.1000 
 31 H       -0.6280     4.8260    -2.1190 H     1 <1>   0.0800 
 32 H       -2.3560     0.3170     0.6520 H     1 <1>   0.1000 
 33 H       -2.4010     0.3680     2.4410 H     1 <1>   0.1000 
 34 H       -3.9070     2.3770     2.3600 H     1 <1>   0.1000 
 35 H       -3.9100     2.2820     0.5770 H     1 <1>   0.1000 
 36 H       -2.1840     2.0090    -1.9720 H     1 <1>   0.1500 
 37 H       -3.5660     5.8270    -0.6370 H     1 <1>   0.1500 
 38 H       -5.4870     5.5190    -2.1610 H     1 <1>   0.1500 
 39 H        1.7770     6.0220    -0.2310 H     1 <1>   0.3700 
 40 H       -5.6470     3.4950    -3.5150 H     1 <1>   0.1500 
 41 H        0.3730     8.5950     0.4490 H     1 <1>   0.0800 
 42 H        1.7970     7.9850     1.2550 H     1 <1>   0.0800 
 43 H        1.6520     8.8610    -1.6420 H     1 <1>   0.0800 
 44 H        3.0820     8.2400    -0.8530 H     1 <1>   0.0800 
 45 H        1.4970    10.6310     1.6560 H     1 <1>   0.1500 
 46 H        4.1580    12.7870    -0.8840 H     1 <1>   0.1500 
 47 H        2.7330    12.9540     1.4310 H     1 <1>   0.1500 
@<TRIPOS>BOND
  1   1   2  2   
  2   2   3  am  
  3   2   4  1   
  4   3   5  1   
  5   3   6  1   
  6   4   7  1   
  7   4  27  1   
  8   4  28  1   
  9   5   8  1   
 10   5   9  1   
 11   5  29  1   
 12   6  10  1   
 13   6  11  1   
 14   6  30  1   
 15   7   9  1   
 16   8  12  ar  
 17   8  13  ar  
 18   9  14  1   
 19   9  31  1   
 20  10  11  1   
 21  10  32  1   
 22  10  33  1   
 23  11  34  1   
 24  11  35  1   
 25  12  15  ar  
 26  12  36  1   
 27  13  16  ar  
 28  13  37  1   
 29  14  17  2   
 30  14  18  am  
 31  15  19  ar  
 32  16  19  ar  
 33  16  38  1   
 34  18  20  1   
 35  18  39  1   
 36  19  40  1   
 37  20  21  1   
 38  20  41  1   
 39  20  42  1   
 40  21  22  1   
 41  21  43  1   
 42  21  44  1   
 43  22  23  1   
 44  22  24  2   
 45  23  25  1   
 46  24  26  1   
 47  24  45  1   
 48  25  26  2   
 49  25  46  1   
 50  26  47  1   
@<TRIPOS>SUBSTRUCTURE
  1 ****  14 GROUP 4 **** **** 0

# MOE 2024.06 (io_trps.svl 2023.06)
