@<TRIPOS>MOLECULE
NONAME
41 42 1 0 0 
SMALL
USER_CHARGES


@<TRIPOS>ATOM
  1 CL      -1.8500     0.8960     2.5820 Cl    1 <1>  -0.1230 
  2 C       -2.5870     0.8280     0.9890 C.2   1 <1>   0.1230 
  3 C       -3.1480    -0.2880     0.3580 C.2   1 <1>   0.2030 
  4 C       -2.7230     1.8750     0.1600 C.2   1 <1>  -0.3020 
  5 N       -3.6210     0.0910    -0.8260 N.2   1 <1>  -0.7070 
  6 C       -3.1850    -1.6290     0.9320 C.2   1 <1>   0.7160 
  7 N       -3.3490     1.4010    -0.9310 N.pl3 1 <1>   0.3140 
  8 O       -2.3550    -1.9750     1.7560 O.2   1 <1>  -0.5700 
  9 N       -4.1420    -2.5670     0.5840 N.am  1 <1>  -0.6600 
 10 C       -3.7160     2.1790    -2.1210 C.3   1 <1>   0.0160 
 11 C       -5.2770    -2.3470    -0.3460 C.3   1 <1>   0.1400 
 12 C       -4.1060    -3.9810     1.0350 C.3   1 <1>   0.1400 
 13 C       -6.1960    -3.5410    -0.1060 C.3   1 <1>   0.2000 
 14 C       -5.2340    -4.6750     0.2600 C.3   1 <1>  -0.0800 
 15 O       -7.0010    -3.2580     0.9880 O.3   1 <1>  -0.6800 
 16 C       -5.8990    -5.8490     1.0110 C.3   1 <1>  -0.0550 
 17 S       -4.8300    -7.2660     1.2650 S.o2  1 <1>   1.3330 
 18 O       -3.6720    -6.8290     2.0110 O.2   1 <1>  -0.6500 
 19 O       -5.6200    -8.3720     1.7550 O.2   1 <1>  -0.6500 
 20 N       -4.3210    -7.6570    -0.3090 N.am  1 <1>  -0.8490 
 21 C       -3.0060    -8.3050    -0.3220 C.3   1 <1>   0.1160 
 22 C       -5.2890    -8.4790    -1.0440 C.3   1 <1>   0.1160 
 23 H       -2.4210     2.8970     0.2860 H     1 <1>   0.1500 
 24 H       -2.8330     2.6300    -2.5340 H     1 <1>   0.0800 
 25 H       -4.4210     2.9390    -1.8430 H     1 <1>   0.0800 
 26 H       -4.1590     1.5240    -2.8480 H     1 <1>   0.0800 
 27 H       -5.7770    -1.4120    -0.1600 H     1 <1>   0.0800 
 28 H       -4.9060    -2.3610    -1.3560 H     1 <1>   0.0800 
 29 H       -3.1470    -4.4250     0.8220 H     1 <1>   0.0800 
 30 H       -4.2810    -4.0160     2.0970 H     1 <1>   0.0800 
 31 H       -6.8280    -3.7660    -0.9480 H     1 <1>   0.0800 
 32 H       -4.8120    -5.0450    -0.6580 H     1 <1>   0.0800 
 33 H       -6.4460    -2.8530     1.6870 H     1 <1>   0.4000 
 34 H       -6.7590    -6.1640     0.4530 H     1 <1>   0.0800 
 35 H       -6.2500    -5.5080     1.9660 H     1 <1>   0.0800 
 36 H       -2.7080    -8.5270    -1.3320 H     1 <1>   0.0800 
 37 H       -3.0330    -9.2180     0.2500 H     1 <1>   0.0800 
 38 H       -2.2670    -7.6490     0.1090 H     1 <1>   0.0800 
 39 H       -4.9580    -8.6200    -2.0590 H     1 <1>   0.0800 
 40 H       -6.2490    -7.9940    -1.0640 H     1 <1>   0.0800 
 41 H       -5.3980    -9.4430    -0.5740 H     1 <1>   0.0800 
@<TRIPOS>BOND
  1   1   2  1   
  2   2   3  1   
  3   2   4  2   
  4   3   5  2   
  5   3   6  1   
  6   4   7  1   
  7   4  23  1   
  8   5   7  1   
  9   6   8  2   
 10   6   9  am  
 11   7  10  1   
 12   9  11  1   
 13   9  12  1   
 14  10  24  1   
 15  10  25  1   
 16  10  26  1   
 17  11  13  1   
 18  11  27  1   
 19  11  28  1   
 20  12  14  1   
 21  12  29  1   
 22  12  30  1   
 23  13  14  1   
 24  13  15  1   
 25  13  31  1   
 26  14  16  1   
 27  14  32  1   
 28  15  33  1   
 29  16  17  1   
 30  16  34  1   
 31  16  35  1   
 32  17  18  2   
 33  17  19  2   
 34  17  20  am  
 35  20  21  1   
 36  20  22  1   
 37  21  36  1   
 38  21  37  1   
 39  21  38  1   
 40  22  39  1   
 41  22  40  1   
 42  22  41  1   
@<TRIPOS>SUBSTRUCTURE
  1 ****   9 GROUP 4 **** **** 0

# MOE 2024.06 (io_trps.svl 2023.06)
