@<TRIPOS>MOLECULE
NONAME
42 43 1 0 0 
SMALL
USER_CHARGES


@<TRIPOS>ATOM
  1 O       -2.2340     0.9410    -1.9700 O.2   1 <1>  -0.5700 
  2 C       -2.0940     0.9350    -0.7710 C.2   1 <1>   0.5690 
  3 N       -2.1590    -0.2150    -0.0570 N.am  1 <1>  -0.7300 
  4 C       -1.8540     2.2470    -0.0250 C.3   1 <1>  -0.0190 
  5 C       -2.4770    -1.5360    -0.6290 C.3   1 <1>   0.3210 
  6 C       -2.7950     3.3720    -0.5010 C.3   1 <1>  -0.1600 
  7 C       -0.3750     2.6870    -0.1340 C.3   1 <1>  -0.1600 
  8 C       -3.7530    -2.0300     0.0160 C.2   1 <1>  -0.1810 
  9 C       -2.6530     4.6520     0.3510 C.3   1 <1>   0.2000 
 10 C       -0.1500     4.1870     0.1520 C.3   1 <1>  -0.1600 
 11 C       -3.9570    -3.0040     0.9170 C.2   1 <1>  -0.0400 
 12 C       -5.0360    -1.5340    -0.2170 C.2   1 <1>   0.1080 
 13 O       -2.8570     5.7670    -0.4820 O.3   1 <1>  -0.5600 
 14 C       -1.2620     4.7710     1.0280 C.3   1 <1>   0.2000 
 15 O       -5.2360    -3.0520     1.1730 O.3   1 <1>  -0.0190 
 16 C       -3.0280    -3.9710     1.6230 C.3   1 <1>  -0.0600 
 17 N       -5.9020    -2.1640     0.4930 N.2   1 <1>  -0.4100 
 18 C       -5.3930    -0.4110    -1.1680 C.3   1 <1>  -0.0590 
 19 C       -4.1880     6.0440    -0.7910 C.3   1 <1>   0.0400 
 20 O       -0.9770     6.1010     1.2520 O.3   1 <1>  -0.6800 
 21 H       -2.1290    -0.1930     0.9620 H     1 <1>   0.3700 
 22 H       -2.0730     2.0690     1.0130 H     1 <1>   0.0800 
 23 H       -2.6040    -1.4700    -1.6960 H     1 <1>   0.0800 
 24 H       -1.6670    -2.2140    -0.4270 H     1 <1>   0.0800 
 25 H       -3.8140     3.0290    -0.4620 H     1 <1>   0.0800 
 26 H       -2.5560     3.5970    -1.5280 H     1 <1>   0.0800 
 27 H        0.2100     2.0990     0.5530 H     1 <1>   0.0800 
 28 H       -0.0100     2.4770    -1.1250 H     1 <1>   0.0800 
 29 H       -3.3970     4.6630     1.1300 H     1 <1>   0.0800 
 30 H       -0.1430     4.7190    -0.7840 H     1 <1>   0.0800 
 31 H        0.8050     4.3270     0.6270 H     1 <1>   0.0800 
 32 H       -1.2650     4.2710     1.9810 H     1 <1>   0.0800 
 33 H       -2.0100    -3.8120     1.3210 H     1 <1>   0.0800 
 34 H       -3.3100    -4.9810     1.3830 H     1 <1>   0.0800 
 35 H       -3.1030    -3.8340     2.6860 H     1 <1>   0.0800 
 36 H       -4.8760    -0.5340    -2.1020 H     1 <1>   0.0800 
 37 H       -5.1160     0.5320    -0.7360 H     1 <1>   0.0800 
 38 H       -6.4520    -0.4110    -1.3550 H     1 <1>   0.0800 
 39 H       -4.2100     6.9280    -1.4040 H     1 <1>   0.0800 
 40 H       -4.7360     6.2210     0.1180 H     1 <1>   0.0800 
 41 H       -4.6110     5.2190    -1.3370 H     1 <1>   0.0800 
 42 H       -1.4100     6.5940     0.5180 H     1 <1>   0.4000 
@<TRIPOS>BOND
  1   1   2  2   
  2   2   3  am  
  3   2   4  1   
  4   3   5  1   
  5   3  21  1   
  6   4   6  1   
  7   4   7  1   
  8   4  22  1   
  9   5   8  1   
 10   5  23  1   
 11   5  24  1   
 12   6   9  1   
 13   6  25  1   
 14   6  26  1   
 15   7  10  1   
 16   7  27  1   
 17   7  28  1   
 18   8  11  2   
 19   8  12  1   
 20   9  13  1   
 21   9  14  1   
 22   9  29  1   
 23  10  14  1   
 24  10  30  1   
 25  10  31  1   
 26  11  15  1   
 27  11  16  1   
 28  12  17  2   
 29  12  18  1   
 30  13  19  1   
 31  14  20  1   
 32  14  32  1   
 33  15  17  1   
 34  16  33  1   
 35  16  34  1   
 36  16  35  1   
 37  18  36  1   
 38  18  37  1   
 39  18  38  1   
 40  19  39  1   
 41  19  40  1   
 42  19  41  1   
 43  20  42  1   
@<TRIPOS>SUBSTRUCTURE
  1 ****   2 GROUP 4 **** **** 0

# MOE 2024.06 (io_trps.svl 2023.06)
