@<TRIPOS>MOLECULE
NONAME
46 48 1 0 0 
SMALL
USER_CHARGES


@<TRIPOS>ATOM
  1 O        2.0590     5.0190     0.4640 O.co2 1 <1>  -0.9000 
  2 C        1.1430     5.2520    -0.3250 C.2   1 <1>   0.9060 
  3 O        1.3170     6.1210    -1.1870 O.co2 1 <1>  -0.9000 
  4 C       -0.2610     4.7050    -0.0280 C.3   1 <1>   0.0380 
  5 C       -0.4240     3.1800    -0.1820 C.ar  1 <1>  -0.1440 
  6 C       -0.5060     5.1580     1.4020 C.3   1 <1>   0.3430 
  7 C       -1.3610     5.4750    -0.7730 C.3   1 <1>  -0.1600 
  8 C        0.5760     2.4060    -0.7600 C.ar  1 <1>  -0.1500 
  9 C       -1.5810     2.5420     0.2550 C.ar  1 <1>  -0.1500 
 10 N       -0.8660     6.6190     1.3260 N.4   1 <1>  -0.9590 
 11 C       -1.4830     6.8050    -0.0360 C.3   1 <1>   0.3430 
 12 C        0.4250     1.0370    -0.8960 C.ar  1 <1>  -0.1500 
 13 C       -1.7330     1.1730     0.1190 C.ar  1 <1>  -0.1500 
 14 C        0.3940     7.4050     1.6470 C.3   1 <1>   0.3430 
 15 C       -0.7290     0.4180    -0.4560 C.ar  1 <1>  -0.1500 
 16 C        0.7890     8.5470     0.7080 C.3   1 <1>  -0.0990 
 17 C        2.2710     8.7340     0.8790 C.2   1 <1>   0.5690 
 18 O        2.6410     9.6130     1.6170 O.2   1 <1>  -0.5700 
 19 N        3.0940     7.8610     0.2270 N.am  1 <1>  -0.5470 
 20 C        4.4910     7.7240     0.2520 C.ar  1 <1>   0.1170 
 21 C        5.0770     6.4890    -0.0320 C.ar  1 <1>   0.1600 
 22 C        5.3370     8.7830     0.5380 C.ar  1 <1>  -0.1500 
 23 N        6.3810     6.2380    -0.0550 N.ar  1 <1>  -0.6200 
 24 C        6.6940     8.5430     0.5250 C.ar  1 <1>  -0.1500 
 25 C        7.1560     7.2720     0.2270 C.ar  1 <1>   0.1600 
 26 H        0.3660     4.9840     2.0150 H     1 <1>   0.0800 
 27 H       -1.3310     4.6020     1.8120 H     1 <1>   0.0800 
 28 H       -2.3030     4.9630    -0.7260 H     1 <1>   0.0800 
 29 H       -1.1120     5.6220    -1.8100 H     1 <1>   0.0800 
 30 H        1.4920     2.8510    -1.1110 H     1 <1>   0.1500 
 31 H       -2.3860     3.0960     0.7030 H     1 <1>   0.1500 
 32 H       -1.5640     6.8260     2.0490 H     1 <1>   0.4500 
 33 H       -2.5210     7.0790     0.0520 H     1 <1>   0.0800 
 34 H       -0.9870     7.5640    -0.6090 H     1 <1>   0.0800 
 35 H        1.2120     0.4560    -1.3440 H     1 <1>   0.1500 
 36 H       -2.6330     0.6920     0.4610 H     1 <1>   0.1500 
 37 H        1.2270     6.7200     1.6660 H     1 <1>   0.0800 
 38 H        0.3220     7.8020     2.6470 H     1 <1>   0.0800 
 39 H       -0.8440    -0.6470    -0.5630 H     1 <1>   0.1500 
 40 H        0.2720     9.4510     0.9710 H     1 <1>   0.0800 
 41 H        0.6440     8.3420    -0.3310 H     1 <1>   0.0800 
 42 H        2.6070     7.0870    -0.2790 H     1 <1>   0.3700 
 43 H        4.4160     5.6650    -0.2490 H     1 <1>   0.1500 
 44 H        4.9510     9.7610     0.7610 H     1 <1>   0.1500 
 45 H        7.3880     9.3320     0.7440 H     1 <1>   0.1500 
 46 H        8.2180     7.0970     0.2190 H     1 <1>   0.1500 
@<TRIPOS>BOND
  1   1   2  ar  
  2   2   3  ar  
  3   2   4  1   
  4   4   5  1   
  5   4   6  1   
  6   4   7  1   
  7   5   8  ar  
  8   5   9  ar  
  9   6  10  1   
 10   6  26  1   
 11   6  27  1   
 12   7  11  1   
 13   7  28  1   
 14   7  29  1   
 15   8  12  ar  
 16   8  30  1   
 17   9  13  ar  
 18   9  31  1   
 19  10  11  1   
 20  10  14  1   
 21  10  32  1   
 22  11  33  1   
 23  11  34  1   
 24  12  15  ar  
 25  12  35  1   
 26  13  15  ar  
 27  13  36  1   
 28  14  16  1   
 29  14  37  1   
 30  14  38  1   
 31  15  39  1   
 32  16  17  1   
 33  16  40  1   
 34  16  41  1   
 35  17  18  2   
 36  17  19  am  
 37  19  20  1   
 38  19  42  1   
 39  20  21  ar  
 40  20  22  ar  
 41  21  23  ar  
 42  21  43  1   
 43  22  24  ar  
 44  22  44  1   
 45  23  25  ar  
 46  24  25  ar  
 47  24  45  1   
 48  25  46  1   
@<TRIPOS>SUBSTRUCTURE
  1 ****   1 GROUP 4 **** **** 0

# MOE 2024.06 (io_trps.svl 2023.06)
