@<TRIPOS>MOLECULE
NONAME
51 54 1 0 0 
SMALL
USER_CHARGES


@<TRIPOS>ATOM
  1 O       -3.3720     1.1360    -1.4690 O.2   1 <1>  -0.5700 
  2 C       -2.6570     1.0510    -0.5010 C.2   1 <1>   0.5690 
  3 N       -2.2290    -0.1430    -0.0300 N.am  1 <1>  -0.7300 
  4 C       -2.2370     2.3140     0.2070 C.3   1 <1>  -0.0990 
  5 C       -2.6150    -1.4470    -0.6110 C.3   1 <1>   0.2200 
  6 C       -1.4740     3.2270    -0.7570 C.3   1 <1>   0.0960 
  7 C       -3.8700    -1.9430     0.0840 C.3   1 <1>  -0.0800 
  8 C       -1.6000    -2.5190    -0.2300 C.3   1 <1>   0.1200 
  9 N       -1.0320     4.4460    -0.0610 N.pl3 1 <1>   0.3140 
 10 C       -3.3050    -2.6560     1.3160 C.3   1 <1>   0.1200 
 11 C       -4.6810    -2.8900    -0.8230 C.3   1 <1>  -0.0170 
 12 O       -1.9720    -2.9740     1.0360 O.3   1 <1>  -0.5600 
 13 N       -0.0560     4.4170     0.8650 N.2   1 <1>  -0.7070 
 14 C       -1.5180     5.6920    -0.2230 C.2   1 <1>  -0.3020 
 15 C       -6.0140    -3.2630    -0.1830 C.ar  1 <1>  -0.1440 
 16 C        0.0560     5.6470     1.2660 C.2   1 <1>   0.1390 
 17 C       -0.8360     6.4950     0.6190 C.2   1 <1>  -0.1810 
 18 C       -7.1040    -2.3610    -0.1290 C.ar  1 <1>   0.0000 
 19 C       -6.1910    -4.5000     0.3630 C.ar  1 <1>  -0.1500 
 20 C       -0.9870     7.9870     0.8330 C.3   1 <1>  -0.0590 
 21 C       -8.2910    -2.8030     0.5050 C.ar  1 <1>   0.3100 
 22 C       -7.0880    -1.0520    -0.6660 C.ar  1 <1>  -0.1500 
 23 C       -7.4110    -4.8390     0.9610 C.ar  1 <1>   0.1600 
 24 N       -8.4270    -4.0410     1.0440 N.ar  1 <1>  -0.6200 
 25 C       -9.3850    -1.9270     0.5850 C.ar  1 <1>  -0.1500 
 26 C       -8.1730    -0.2240    -0.5720 C.ar  1 <1>  -0.1500 
 27 C       -9.3370    -0.6630     0.0620 C.ar  1 <1>  -0.1500 
 28 H       -1.6860    -0.2050     0.8350 H     1 <1>   0.3700 
 29 H       -3.1180     2.8150     0.5630 H     1 <1>   0.0800 
 30 H       -1.6110     2.0700     1.0470 H     1 <1>   0.0800 
 31 H       -2.7290    -1.3540    -1.6790 H     1 <1>   0.0800 
 32 H       -2.1010     3.5040    -1.5850 H     1 <1>   0.0800 
 33 H       -0.6040     2.7220    -1.1350 H     1 <1>   0.0800 
 34 H       -4.4960    -1.1210     0.3810 H     1 <1>   0.0800 
 35 H       -0.5920    -2.1460    -0.2000 H     1 <1>   0.0800 
 36 H       -1.6600    -3.3540    -0.9050 H     1 <1>   0.0800 
 37 H       -3.8360    -3.5590     1.5610 H     1 <1>   0.0800 
 38 H       -3.3090    -1.9990     2.1690 H     1 <1>   0.0800 
 39 H       -4.1110    -3.7810    -1.0210 H     1 <1>   0.0800 
 40 H       -4.8690    -2.4210    -1.7730 H     1 <1>   0.0800 
 41 H       -2.3050     5.9320    -0.9140 H     1 <1>   0.1500 
 42 H        0.7630     5.9620     2.0140 H     1 <1>   0.1500 
 43 H       -5.4110    -5.2390     0.3530 H     1 <1>   0.1500 
 44 H       -0.0630     8.4850     0.6050 H     1 <1>   0.0800 
 45 H       -1.2510     8.1850     1.8560 H     1 <1>   0.0800 
 46 H       -1.7590     8.3760     0.1940 H     1 <1>   0.0800 
 47 H       -6.2070    -0.6890    -1.1630 H     1 <1>   0.1500 
 48 H       -7.5080    -5.8260     1.3810 H     1 <1>   0.1500 
 49 H      -10.2700    -2.2880     1.0750 H     1 <1>   0.1500 
 50 H       -8.1450     0.7710    -0.9840 H     1 <1>   0.1500 
 51 H      -10.1840    -0.0030     0.1310 H     1 <1>   0.1500 
@<TRIPOS>BOND
  1   1   2  2   
  2   2   3  am  
  3   2   4  1   
  4   3   5  1   
  5   3  28  1   
  6   4   6  1   
  7   4  29  1   
  8   4  30  1   
  9   5   7  1   
 10   5   8  1   
 11   5  31  1   
 12   6   9  1   
 13   6  32  1   
 14   6  33  1   
 15   7  10  1   
 16   7  11  1   
 17   7  34  1   
 18   8  12  1   
 19   8  35  1   
 20   8  36  1   
 21   9  13  1   
 22   9  14  1   
 23  10  12  1   
 24  10  37  1   
 25  10  38  1   
 26  11  15  1   
 27  11  39  1   
 28  11  40  1   
 29  13  16  2   
 30  14  17  2   
 31  14  41  1   
 32  15  18  ar  
 33  15  19  ar  
 34  16  17  1   
 35  16  42  1   
 36  17  20  1   
 37  18  21  ar  
 38  18  22  ar  
 39  19  23  ar  
 40  19  43  1   
 41  20  44  1   
 42  20  45  1   
 43  20  46  1   
 44  21  24  ar  
 45  21  25  ar  
 46  22  26  ar  
 47  22  47  1   
 48  23  24  ar  
 49  23  48  1   
 50  25  27  ar  
 51  25  49  1   
 52  26  27  ar  
 53  26  50  1   
 54  27  51  1   
@<TRIPOS>SUBSTRUCTURE
  1 ****   2 GROUP 4 **** **** 0

# MOE 2024.06 (io_trps.svl 2023.06)
