@<TRIPOS>MOLECULE
NONAME
51 53 1 0 0 
SMALL
USER_CHARGES


@<TRIPOS>ATOM
  1 S       -0.3690     0.3240     0.4780 S.3   1 <1>  -0.3320 
  2 C       -0.3020     2.1000     0.6260 C.ar  1 <1>   0.7220 
  3 C       -0.7570     0.0050    -1.2990 C.3   1 <1>   0.0700 
  4 N       -0.5000     2.7930    -0.4850 N.ar  1 <1>  -0.6200 
  5 N       -0.0550     2.5480     1.8450 N.ar  1 <1>  -0.6200 
  6 C       -0.8350    -1.5070    -1.4980 C.3   1 <1>  -0.2400 
  7 C       -0.4410     4.0950    -0.3390 C.ar  1 <1>   0.1600 
  8 C       -0.0010     3.8510     1.9570 C.ar  1 <1>   0.1600 
  9 C       -0.1740     4.6880     0.8760 C.ar  1 <1>  -0.1440 
 10 C       -0.0740     6.1900     1.0200 C.3   1 <1>   0.4870 
 11 N        1.2610     6.6520     0.5330 N.4   1 <1>  -0.9590 
 12 C        2.3780     6.1010     1.3870 C.3   1 <1>   0.3430 
 13 C        1.3180     8.1410     0.4490 C.3   1 <1>   0.3430 
 14 C        3.7680     6.5610     0.9270 C.3   1 <1>   0.2000 
 15 C        2.6550     8.5750    -0.1510 C.3   1 <1>  -0.1600 
 16 O        4.6510     6.1960     1.9260 O.3   1 <1>  -0.6800 
 17 C        3.8290     8.0880     0.7020 C.3   1 <1>   0.2200 
 18 N        5.0910     8.4910     0.0350 N.am  1 <1>  -0.7300 
 19 C        6.3060     8.6060     0.6530 C.2   1 <1>   0.5440 
 20 O        6.3840     8.2290     1.8050 O.2   1 <1>  -0.5700 
 21 C        7.4650     9.1210    -0.0550 C.ar  1 <1>   0.0860 
 22 C        7.3480    10.0600    -1.0820 C.ar  1 <1>  -0.1500 
 23 C        8.7500     8.6870     0.2720 C.ar  1 <1>  -0.1500 
 24 C        8.4580    10.5290    -1.7610 C.ar  1 <1>  -0.1500 
 25 C        9.8640     9.1520    -0.4030 C.ar  1 <1>  -0.1500 
 26 C        9.7190    10.0730    -1.4230 C.ar  1 <1>  -0.1500 
 27 H       -1.6960     0.4850    -1.5150 H     1 <1>   0.0800 
 28 H        0.0310     0.4450    -1.8850 H     1 <1>   0.0800 
 29 H       -1.6070    -1.9230    -0.8760 H     1 <1>   0.0800 
 30 H        0.1050    -1.9630    -1.2430 H     1 <1>   0.0800 
 31 H       -1.0610    -1.7310    -2.5250 H     1 <1>   0.0800 
 32 H       -0.6090     4.6900    -1.2220 H     1 <1>   0.1500 
 33 H        0.1910     4.2460     2.9430 H     1 <1>   0.1500 
 34 H       -0.2100     6.4690     2.0530 H     1 <1>   0.0800 
 35 H       -0.8590     6.6520     0.4420 H     1 <1>   0.0800 
 36 H        1.3890     6.2690    -0.4150 H     1 <1>   0.4500 
 37 H        2.2420     6.4280     2.4050 H     1 <1>   0.0800 
 38 H        2.3590     5.0230     1.3730 H     1 <1>   0.0800 
 39 H        0.5140     8.5090    -0.1700 H     1 <1>   0.0800 
 40 H        1.2100     8.5700     1.4330 H     1 <1>   0.0800 
 41 H        4.0520     6.0390     0.0300 H     1 <1>   0.0800 
 42 H        2.6770     9.6510    -0.1920 H     1 <1>   0.0800 
 43 H        2.7350     8.1990    -1.1550 H     1 <1>   0.0800 
 44 H        5.4330     6.8180     1.9300 H     1 <1>   0.4000 
 45 H        3.7770     8.5750     1.6640 H     1 <1>   0.0800 
 46 H        5.0480     8.6860    -0.9670 H     1 <1>   0.3700 
 47 H        6.3800    10.4400    -1.3520 H     1 <1>   0.1500 
 48 H        8.8740     7.9720     1.0680 H     1 <1>   0.1500 
 49 H        8.3460    11.2520    -2.5510 H     1 <1>   0.1500 
 50 H       10.8450     8.7990    -0.1320 H     1 <1>   0.1500 
 51 H       10.5850    10.4370    -1.9500 H     1 <1>   0.1500 
@<TRIPOS>BOND
  1   1   2  1   
  2   1   3  1   
  3   2   4  ar  
  4   2   5  ar  
  5   3   6  1   
  6   3  27  1   
  7   3  28  1   
  8   4   7  ar  
  9   5   8  ar  
 10   6  29  1   
 11   6  30  1   
 12   6  31  1   
 13   7   9  ar  
 14   7  32  1   
 15   8   9  ar  
 16   8  33  1   
 17   9  10  1   
 18  10  11  1   
 19  10  34  1   
 20  10  35  1   
 21  11  12  1   
 22  11  13  1   
 23  11  36  1   
 24  12  14  1   
 25  12  37  1   
 26  12  38  1   
 27  13  15  1   
 28  13  39  1   
 29  13  40  1   
 30  14  16  1   
 31  14  17  1   
 32  14  41  1   
 33  15  17  1   
 34  15  42  1   
 35  15  43  1   
 36  16  44  1   
 37  17  18  1   
 38  17  45  1   
 39  18  19  am  
 40  18  46  1   
 41  19  20  2   
 42  19  21  1   
 43  21  22  ar  
 44  21  23  ar  
 45  22  24  ar  
 46  22  47  1   
 47  23  25  ar  
 48  23  48  1   
 49  24  26  ar  
 50  24  49  1   
 51  25  26  ar  
 52  25  50  1   
 53  26  51  1   
@<TRIPOS>SUBSTRUCTURE
  1 ****  14 GROUP 4 **** **** 0

# MOE 2024.06 (io_trps.svl 2023.06)
