@<TRIPOS>MOLECULE
NONAME
45 47 1 0 0 
SMALL
USER_CHARGES


@<TRIPOS>ATOM
  1 O        0.4540     0.8380    -1.4040 O.3   1 <1>  -0.0190 
  2 N       -0.2260     0.4840    -0.3580 N.2   1 <1>  -0.4100 
  3 C        1.5150     0.0710    -1.3650 C.2   1 <1>   0.2980 
  4 C        0.4310    -0.4360     0.2270 C.2   1 <1>   0.3350 
  5 N        1.5730    -0.7360    -0.3790 N.2   1 <1>  -0.5650 
  6 C        2.5590     0.2190    -2.4670 C.3   1 <1>   0.3890 
  7 C       -0.0100    -1.1460     1.4940 C.3   1 <1>   0.0210 
  8 N        3.2910     1.5190    -2.3870 N.pl3 1 <1>  -0.8690 
  9 C       -0.3960    -2.6070     1.2300 C.3   1 <1>  -0.2400 
 10 C        3.9340     2.0440    -1.3340 C.ar  1 <1>   0.4100 
 11 N        4.1970     3.3250    -1.4350 N.ar  1 <1>  -0.6200 
 12 C        4.2920     1.2920    -0.2000 C.ar  1 <1>  -0.1500 
 13 C        4.7950     3.9250    -0.4130 C.ar  1 <1>   0.7710 
 14 C        4.8940     1.9200     0.8370 C.ar  1 <1>   0.2180 
 15 N        5.1270     3.2470     0.7020 N.ar  1 <1>  -0.1790 
 16 N        5.0770     5.2550    -0.4810 N.pl3 1 <1>  -0.8380 
 17 C        5.3090     1.2200     2.1190 C.3   1 <1>  -0.0970 
 18 C        4.5470     6.1160    -1.5900 C.3   1 <1>   0.2090 
 19 C        5.8980     6.0570     0.4790 C.3   1 <1>   0.2090 
 20 C        3.6420     7.2000    -0.9930 C.3   1 <1>  -0.1600 
 21 C        5.0130     7.1240     1.1290 C.3   1 <1>  -0.1600 
 22 C        4.3700     8.0330     0.0720 C.3   1 <1>  -0.1600 
 23 H        2.0680     0.1450    -3.4210 H     1 <1>   0.0800 
 24 H        3.2640    -0.5900    -2.3930 H     1 <1>   0.0800 
 25 H       -0.8540    -0.6250     1.9100 H     1 <1>   0.0800 
 26 H        0.7910    -1.1070     2.2100 H     1 <1>   0.0800 
 27 H        3.0820     2.1720    -3.1490 H     1 <1>   0.4000 
 28 H       -1.2010    -2.6530     0.5180 H     1 <1>   0.0800 
 29 H       -0.7140    -3.0780     2.1430 H     1 <1>   0.0800 
 30 H        0.4450    -3.1500     0.8350 H     1 <1>   0.0800 
 31 H        4.0800     0.2400    -0.1770 H     1 <1>   0.1500 
 32 H        5.5400     3.8010     1.4380 H     1 <1>   0.4570 
 33 H        5.0510     0.1760     2.0760 H     1 <1>   0.0800 
 34 H        4.8040     1.6540     2.9650 H     1 <1>   0.0800 
 35 H        6.3720     1.2980     2.2640 H     1 <1>   0.0800 
 36 H        3.9830     5.5520    -2.3140 H     1 <1>   0.0800 
 37 H        5.3710     6.5760    -2.1100 H     1 <1>   0.0800 
 38 H        6.6960     6.5410    -0.0630 H     1 <1>   0.0800 
 39 H        6.3510     5.4460     1.2370 H     1 <1>   0.0800 
 40 H        2.7760     6.7290    -0.5610 H     1 <1>   0.0800 
 41 H        3.2990     7.8470    -1.7820 H     1 <1>   0.0800 
 42 H        5.6060     7.7230     1.7970 H     1 <1>   0.0800 
 43 H        4.2440     6.6460     1.7110 H     1 <1>   0.0800 
 44 H        3.6760     8.7090     0.5420 H     1 <1>   0.0800 
 45 H        5.1340     8.6250    -0.4030 H     1 <1>   0.0800 
@<TRIPOS>BOND
  1   1   2  1   
  2   1   3  1   
  3   2   4  2   
  4   3   5  2   
  5   3   6  1   
  6   4   5  1   
  7   4   7  1   
  8   6   8  1   
  9   6  23  1   
 10   6  24  1   
 11   7   9  1   
 12   7  25  1   
 13   7  26  1   
 14   8  10  1   
 15   8  27  1   
 16   9  28  1   
 17   9  29  1   
 18   9  30  1   
 19  10  11  ar  
 20  10  12  ar  
 21  11  13  ar  
 22  12  14  ar  
 23  12  31  1   
 24  13  15  ar  
 25  13  16  1   
 26  14  15  ar  
 27  14  17  1   
 28  15  32  1   
 29  16  18  1   
 30  16  19  1   
 31  17  33  1   
 32  17  34  1   
 33  17  35  1   
 34  18  20  1   
 35  18  36  1   
 36  18  37  1   
 37  19  21  1   
 38  19  38  1   
 39  19  39  1   
 40  20  22  1   
 41  20  40  1   
 42  20  41  1   
 43  21  22  1   
 44  21  42  1   
 45  21  43  1   
 46  22  44  1   
 47  22  45  1   
@<TRIPOS>SUBSTRUCTURE
  1 ****  10 GROUP 4 **** **** 0

# MOE 2024.06 (io_trps.svl 2023.06)
