@<TRIPOS>MOLECULE
NONAME
50 52 1 0 0 
SMALL
USER_CHARGES


@<TRIPOS>ATOM
  1 F       -0.4450     0.2520     0.3100 F     1 <1>  -0.1900 
  2 C       -1.7070     0.5890     0.2230 C.ar  1 <1>   0.1900 
  3 C       -2.1080     1.8690    -0.1730 C.ar  1 <1>   0.0830 
  4 C       -2.6280    -0.3880     0.5480 C.ar  1 <1>  -0.1500 
  5 O       -1.3000     2.9130    -0.5180 O.3   1 <1>  -0.3630 
  6 C       -3.4680     2.1270    -0.2300 C.ar  1 <1>  -0.1500 
  7 C       -3.9770    -0.0960     0.4810 C.ar  1 <1>  -0.1500 
  8 C        0.1060     2.8160    -0.5630 C.3   1 <1>   0.0400 
  9 C       -4.4320     1.1660     0.0890 C.ar  1 <1>   0.0530 
 10 C       -5.8390     1.4850     0.0170 C.2   1 <1>   0.0870 
 11 O       -6.2340     2.7320     0.0870 O.3   1 <1>  -0.0190 
 12 C       -6.9630     0.7290    -0.1090 C.2   1 <1>  -0.0860 
 13 N       -7.5320     2.8640     0.0120 N.2   1 <1>  -0.4100 
 14 C       -7.9970     1.6710    -0.1190 C.2   1 <1>   0.3720 
 15 C       -7.1170    -0.6870    -0.2230 C.2   1 <1>   0.7160 
 16 N       -9.3640     1.3800    -0.2630 N.pl3 1 <1>  -0.8210 
 17 O       -6.5870    -1.2650    -1.1560 O.2   1 <1>  -0.5700 
 18 N       -7.8220    -1.4290     0.7050 N.am  1 <1>  -0.6600 
 19 C       -9.7390     0.8400    -1.5990 C.3   1 <1>   0.1290 
 20 C      -10.3030     2.4410     0.1940 C.3   1 <1>   0.1290 
 21 C       -8.1840    -2.8500     0.4360 C.3   1 <1>   0.1400 
 22 C       -8.4050    -0.8300     1.9400 C.3   1 <1>   0.0600 
 23 C       -9.4470    -2.9320    -0.4320 C.3   1 <1>   0.0000 
 24 C      -10.7790    -2.5450     0.2640 C.3   1 <1>   0.0000 
 25 C      -10.0290    -4.3630    -0.5760 C.3   1 <1>   0.0000 
 26 C      -11.4340    -3.7090    -0.5220 C.3   1 <1>   0.0000 
 27 H       -2.2890    -1.3640     0.8480 H     1 <1>   0.1500 
 28 H       -3.7830     3.1080    -0.5370 H     1 <1>   0.1500 
 29 H       -4.6810    -0.8660     0.7410 H     1 <1>   0.1500 
 30 H        0.4960     3.7640    -0.8870 H     1 <1>   0.0800 
 31 H        0.3820     2.0500    -1.2660 H     1 <1>   0.0800 
 32 H        0.4740     2.5880     0.4210 H     1 <1>   0.0800 
 33 H       -9.0550     0.0670    -1.9020 H     1 <1>   0.0800 
 34 H       -9.7170     1.6280    -2.3320 H     1 <1>   0.0800 
 35 H      -10.7290     0.4210    -1.5580 H     1 <1>   0.0800 
 36 H      -10.0160     2.7870     1.1720 H     1 <1>   0.0800 
 37 H      -11.3040     2.0490     0.2470 H     1 <1>   0.0800 
 38 H      -10.2810     3.2740    -0.4890 H     1 <1>   0.0800 
 39 H       -8.3370    -3.3680     1.3660 H     1 <1>   0.0800 
 40 H       -7.3720    -3.3360    -0.0790 H     1 <1>   0.0800 
 41 H       -7.8390     0.0310     2.2490 H     1 <1>   0.0800 
 42 H       -8.3940    -1.5470     2.7420 H     1 <1>   0.0800 
 43 H       -9.4200    -0.5260     1.7500 H     1 <1>   0.0800 
 44 H       -9.3330    -2.4610    -1.3940 H     1 <1>   0.0000 
 45 H      -11.1480    -1.5720    -0.0090 H     1 <1>   0.0000 
 46 H      -10.7720    -2.7210     1.3270 H     1 <1>   0.0000 
 47 H       -9.8340    -4.9910     0.2780 H     1 <1>   0.0000 
 48 H       -9.8030    -4.8320    -1.5170 H     1 <1>   0.0000 
 49 H      -11.7900    -3.4070    -1.4920 H     1 <1>   0.0000 
 50 H      -12.1540    -4.2690     0.0480 H     1 <1>   0.0000 
@<TRIPOS>BOND
  1   1   2  1   
  2   2   3  ar  
  3   2   4  ar  
  4   3   5  1   
  5   3   6  ar  
  6   4   7  ar  
  7   4  27  1   
  8   5   8  1   
  9   6   9  ar  
 10   6  28  1   
 11   7   9  ar  
 12   7  29  1   
 13   8  30  1   
 14   8  31  1   
 15   8  32  1   
 16   9  10  1   
 17  10  11  1   
 18  10  12  2   
 19  11  13  1   
 20  12  14  1   
 21  12  15  1   
 22  13  14  2   
 23  14  16  1   
 24  15  17  2   
 25  15  18  am  
 26  16  19  1   
 27  16  20  1   
 28  18  21  1   
 29  18  22  1   
 30  19  33  1   
 31  19  34  1   
 32  19  35  1   
 33  20  36  1   
 34  20  37  1   
 35  20  38  1   
 36  21  23  1   
 37  21  39  1   
 38  21  40  1   
 39  22  41  1   
 40  22  42  1   
 41  22  43  1   
 42  23  24  1   
 43  23  25  1   
 44  23  44  1   
 45  24  26  1   
 46  24  45  1   
 47  24  46  1   
 48  25  26  1   
 49  25  47  1   
 50  25  48  1   
 51  26  49  1   
 52  26  50  1   
@<TRIPOS>SUBSTRUCTURE
  1 ****  12 GROUP 4 **** **** 0

# MOE 2024.06 (io_trps.svl 2023.06)
