@<TRIPOS>MOLECULE
NONAME
51 52 1 0 0 
SMALL
USER_CHARGES


@<TRIPOS>ATOM
  1 O       -1.7260     0.4830     2.3690 O.2   1 <1>  -0.5700 
  2 C       -1.9660     1.0760     1.3400 C.2   1 <1>   0.5690 
  3 N       -2.5390     0.4060     0.2790 N.am  1 <1>  -0.6600 
  4 C       -1.6080     2.5820     1.3170 C.3   1 <1>   0.4050 
  5 C       -2.5440    -1.0950     0.2670 C.3   1 <1>   0.3210 
  6 C       -3.0430     1.0500    -0.9770 C.3   1 <1>   0.1400 
  7 O       -2.7660     3.3850     1.1340 O.3   1 <1>  -0.5600 
  8 C       -0.5300     2.9110     0.2730 C.ar  1 <1>  -0.1440 
  9 C       -3.9120    -1.6840     0.6070 C.2   1 <1>   0.0460 
 10 C       -4.5630     1.3270    -0.9890 C.3   1 <1>   0.3430 
 11 C       -2.6960     4.6280     1.7730 C.3   1 <1>   0.0400 
 12 C       -0.7200     3.8190    -0.7650 C.ar  1 <1>  -0.1500 
 13 C        0.6970     2.2680     0.3740 C.ar  1 <1>  -0.1500 
 14 N       -4.9120    -1.7140    -0.3020 N.2   1 <1>  -0.5650 
 15 C       -4.3070    -2.2600     1.7680 C.2   1 <1>  -0.3320 
 16 N       -5.0590     2.0420     0.2350 N.4   1 <1>  -0.9590 
 17 C        0.2890     4.0710    -1.6780 C.ar  1 <1>  -0.1500 
 18 C        1.7060     2.5180    -0.5390 C.ar  1 <1>  -0.1500 
 19 C       -5.8710    -2.3330     0.3080 C.2   1 <1>   0.0360 
 20 N       -5.5680    -2.6880     1.5730 N.pl3 1 <1>   0.0330 
 21 C       -3.5680    -2.4650     3.0810 C.3   1 <1>  -0.0600 
 22 C       -5.4040     1.0700     1.3180 C.3   1 <1>   0.2630 
 23 C       -6.2190     2.9200    -0.0770 C.3   1 <1>   0.2630 
 24 C        1.5030     3.4200    -1.5660 C.ar  1 <1>  -0.1500 
 25 H       -1.2040     2.8100     2.2890 H     1 <1>   0.0800 
 26 H       -2.2460    -1.4510    -0.7030 H     1 <1>   0.0800 
 27 H       -1.8190    -1.4700     0.9670 H     1 <1>   0.0800 
 28 H       -2.5320     1.9770    -1.1460 H     1 <1>   0.0800 
 29 H       -2.8070     0.4190    -1.8160 H     1 <1>   0.0800 
 30 H       -5.0990     0.4030    -1.1130 H     1 <1>   0.0800 
 31 H       -4.7730     1.9280    -1.8570 H     1 <1>   0.0800 
 32 H       -3.5730     5.1960     1.5160 H     1 <1>   0.0800 
 33 H       -1.8160     5.1570     1.4460 H     1 <1>   0.0800 
 34 H       -2.6630     4.4800     2.8400 H     1 <1>   0.0800 
 35 H       -1.6520     4.3420    -0.8780 H     1 <1>   0.1500 
 36 H        0.8800     1.5620     1.1680 H     1 <1>   0.1500 
 37 H       -4.2690     2.6260     0.5830 H     1 <1>   0.4500 
 38 H        0.1330     4.7760    -2.4760 H     1 <1>   0.1500 
 39 H        2.6520     2.0110    -0.4480 H     1 <1>   0.1500 
 40 H       -6.8270    -2.5600    -0.1330 H     1 <1>   0.1500 
 41 H       -6.1620    -3.2010     2.2320 H     1 <1>   0.2700 
 42 H       -2.5890    -2.0210     3.0460 H     1 <1>   0.0800 
 43 H       -3.4560    -3.5150     3.2840 H     1 <1>   0.0800 
 44 H       -4.1110    -2.0110     3.8900 H     1 <1>   0.0800 
 45 H       -6.1360     0.3630     0.9660 H     1 <1>   0.0800 
 46 H       -5.7970     1.5880     2.1760 H     1 <1>   0.0800 
 47 H       -4.5290     0.5220     1.6260 H     1 <1>   0.0800 
 48 H       -7.0450     2.3310    -0.4440 H     1 <1>   0.0800 
 49 H       -5.9480     3.6440    -0.8280 H     1 <1>   0.0800 
 50 H       -6.5350     3.4460     0.8090 H     1 <1>   0.0800 
 51 H        2.2890     3.6160    -2.2750 H     1 <1>   0.1500 
@<TRIPOS>BOND
  1   1   2  2   
  2   2   3  am  
  3   2   4  1   
  4   3   5  1   
  5   3   6  1   
  6   4   7  1   
  7   4   8  1   
  8   4  25  1   
  9   5   9  1   
 10   5  26  1   
 11   5  27  1   
 12   6  10  1   
 13   6  28  1   
 14   6  29  1   
 15   7  11  1   
 16   8  12  ar  
 17   8  13  ar  
 18   9  14  1   
 19   9  15  2   
 20  10  16  1   
 21  10  30  1   
 22  10  31  1   
 23  11  32  1   
 24  11  33  1   
 25  11  34  1   
 26  12  17  ar  
 27  12  35  1   
 28  13  18  ar  
 29  13  36  1   
 30  14  19  2   
 31  15  20  1   
 32  15  21  1   
 33  16  22  1   
 34  16  23  1   
 35  16  37  1   
 36  17  24  ar  
 37  17  38  1   
 38  18  24  ar  
 39  18  39  1   
 40  19  20  1   
 41  19  40  1   
 42  20  41  1   
 43  21  42  1   
 44  21  43  1   
 45  21  44  1   
 46  22  45  1   
 47  22  46  1   
 48  22  47  1   
 49  23  48  1   
 50  23  49  1   
 51  23  50  1   
 52  24  51  1   
@<TRIPOS>SUBSTRUCTURE
  1 ****   3 GROUP 4 **** **** 0

# MOE 2024.06 (io_trps.svl 2023.06)
