@<TRIPOS>MOLECULE
NONAME
34 36 1 0 0 
SMALL
USER_CHARGES


@<TRIPOS>ATOM
  1 F       -0.5360    -0.1730     0.0620 F     1 <1>  -0.1900 
  2 C       -1.6580    -0.8520     0.0900 C.ar  1 <1>   0.1900 
  3 C       -2.8630    -0.2040     0.1930 C.ar  1 <1>   0.1600 
  4 C       -1.6470    -2.2230     0.0160 C.ar  1 <1>   0.1600 
  5 N       -3.9950    -0.8750     0.2220 N.ar  1 <1>  -0.6200 
  6 N       -2.7670    -2.9130     0.0430 N.ar  1 <1>  -0.6200 
  7 C       -3.8960    -2.2060     0.1470 C.ar  1 <1>   0.7200 
  8 N       -5.0710    -2.9150     0.1860 N.pl3 1 <1>  -0.8380 
  9 C       -6.4030    -2.2820     0.0220 C.3   1 <1>   0.2090 
 10 C       -5.1460    -4.3730    -0.0710 C.3   1 <1>   0.2090 
 11 C       -7.3440    -3.4260    -0.3620 C.3   1 <1>   0.2000 
 12 C       -6.6320    -4.7120     0.0540 C.3   1 <1>  -0.0800 
 13 O       -8.5660    -3.3370     0.2910 O.3   1 <1>  -0.6800 
 14 C       -7.0770    -5.9280    -0.7770 C.3   1 <1>  -0.0170 
 15 C       -6.4110    -7.2110    -0.3080 C.ar  1 <1>   0.1670 
 16 N       -5.1870    -7.4410    -0.7560 N.ar  1 <1>  -0.6200 
 17 C       -7.0900    -8.0750     0.5500 C.ar  1 <1>   0.1600 
 18 C       -4.6930    -8.5780    -0.2940 C.ar  1 <1>   0.1600 
 19 N       -6.5980    -9.2120     1.0140 N.ar  1 <1>  -0.6200 
 20 C       -5.3760    -9.4340     0.5620 C.ar  1 <1>   0.1600 
 21 H       -2.8930     0.8690     0.2520 H     1 <1>   0.1500 
 22 H       -0.7130    -2.7500    -0.0660 H     1 <1>   0.1500 
 23 H       -6.6940    -1.8290     0.9530 H     1 <1>   0.0800 
 24 H       -6.3730    -1.5380    -0.7560 H     1 <1>   0.0800 
 25 H       -4.7850    -4.5770    -1.0660 H     1 <1>   0.0800 
 26 H       -4.5530    -4.9220     0.6410 H     1 <1>   0.0800 
 27 H       -7.5230    -3.4040    -1.4240 H     1 <1>   0.0800 
 28 H       -6.8200    -4.9020     1.0970 H     1 <1>   0.0800 
 29 H       -8.4260    -3.2960     1.2570 H     1 <1>   0.4000 
 30 H       -6.8410    -5.7700    -1.8150 H     1 <1>   0.0800 
 31 H       -8.1450    -6.0320    -0.7020 H     1 <1>   0.0800 
 32 H       -8.0840    -7.8130     0.8680 H     1 <1>   0.1500 
 33 H       -3.7000    -8.8460    -0.6070 H     1 <1>   0.1500 
 34 H       -4.8900   -10.3380     0.8840 H     1 <1>   0.1500 
@<TRIPOS>BOND
  1   1   2  1   
  2   2   3  ar  
  3   2   4  ar  
  4   3   5  ar  
  5   3  21  1   
  6   4   6  ar  
  7   4  22  1   
  8   5   7  ar  
  9   6   7  ar  
 10   7   8  1   
 11   8   9  1   
 12   8  10  1   
 13   9  11  1   
 14   9  23  1   
 15   9  24  1   
 16  10  12  1   
 17  10  25  1   
 18  10  26  1   
 19  11  12  1   
 20  11  13  1   
 21  11  27  1   
 22  12  14  1   
 23  12  28  1   
 24  13  29  1   
 25  14  15  1   
 26  14  30  1   
 27  14  31  1   
 28  15  16  ar  
 29  15  17  ar  
 30  16  18  ar  
 31  17  19  ar  
 32  17  32  1   
 33  18  20  ar  
 34  18  33  1   
 35  19  20  ar  
 36  20  34  1   
@<TRIPOS>SUBSTRUCTURE
  1 ****  10 GROUP 4 **** **** 0

# MOE 2024.06 (io_trps.svl 2023.06)
