@<TRIPOS>MOLECULE
LLY-283.cdx
43 46 1 0 0 
SMALL
USER_CHARGES


@<TRIPOS>ATOM
  1 O        1.0570    -0.3000     1.9390 O.3   1 <1>  -0.5600 
  2 C        2.3050     0.3450     1.8420 C.3   1 <1>   0.4560 
  3 C        1.0580    -1.5350     1.2530 C.3   1 <1>   0.2000 
  4 N        2.2360     1.4520     0.8490 N.pl3 1 <1>   0.0480 
  5 C        3.3110    -0.7390     1.4410 C.3   1 <1>   0.2000 
  6 C        2.4500    -1.6900     0.6190 C.3   1 <1>   0.2000 
  7 C       -0.1470    -1.6320     0.2870 C.3   1 <1>   0.3440 
  8 C        3.2820     2.2910     0.5780 C.ar  1 <1>   0.1050 
  9 C        1.1640     1.9020     0.1160 C.2   1 <1>  -0.3020 
 10 O        3.8050    -1.3970     2.5860 O.3   1 <1>  -0.6800 
 11 O        2.9230    -2.9960     0.7310 O.3   1 <1>  -0.6800 
 12 O        0.0750    -0.9390    -0.8930 O.3   1 <1>  -0.6800 
 13 C       -0.5220    -3.0630    -0.0830 C.ar  1 <1>  -0.1430 
 14 N        4.5190     2.2480     1.0890 N.ar  1 <1>  -0.5670 
 15 C        2.8850     3.2450    -0.3330 C.ar  1 <1>   0.0000 
 16 C        1.5280     2.9810    -0.6180 C.2   1 <1>  -0.1500 
 17 C       -1.6820    -3.6220     0.4360 C.ar  1 <1>  -0.1500 
 18 C        0.2680    -3.8260    -0.9330 C.ar  1 <1>  -0.1500 
 19 C        5.3210     3.1840     0.6420 C.ar  1 <1>   0.4700 
 20 C        3.8500     4.1820    -0.7210 C.ar  1 <1>   0.4100 
 21 C       -2.0470    -4.9170     0.1110 C.ar  1 <1>  -0.1500 
 22 C       -0.0940    -5.1220    -1.2570 C.ar  1 <1>  -0.1500 
 23 N        5.0630     4.1590    -0.2410 N.ar  1 <1>  -0.6200 
 24 N        3.5850     5.1750    -1.6060 N.pl3 1 <1>  -0.9000 
 25 C       -1.2530    -5.6680    -0.7360 C.ar  1 <1>  -0.1500 
 26 H        2.5580     0.7660     2.7990 H     1 <1>   0.0800 
 27 H        0.9370    -2.2880     2.0120 H     1 <1>   0.0800 
 28 H        4.1460    -0.3500     0.8860 H     1 <1>   0.0800 
 29 H        2.4480    -1.4070    -0.4200 H     1 <1>   0.0800 
 30 H       -0.9930    -1.1720     0.7660 H     1 <1>   0.0800 
 31 H        0.2030     1.4190     0.1630 H     1 <1>   0.1500 
 32 H        3.0640    -1.6740     3.1640 H     1 <1>   0.4000 
 33 H        3.6530    -2.9920     1.3900 H     1 <1>   0.4000 
 34 H       -0.5660    -1.2580    -1.5580 H     1 <1>   0.4000 
 35 H        0.9260     3.5560    -1.2990 H     1 <1>   0.1500 
 36 H       -2.3130    -3.0530     1.0970 H     1 <1>   0.1500 
 37 H        1.1750    -3.4180    -1.3440 H     1 <1>   0.1500 
 38 H        6.3260     3.1780     1.0310 H     1 <1>   0.1500 
 39 H       -2.9480    -5.3420     0.5180 H     1 <1>   0.1500 
 40 H        0.5290    -5.7040    -1.9140 H     1 <1>   0.1500 
 41 H        4.2990     5.8950    -1.7130 H     1 <1>   0.4000 
 42 H        2.6250     5.4560    -1.8040 H     1 <1>   0.4000 
 43 H       -1.5340    -6.6760    -0.9880 H     1 <1>   0.1500 
@<TRIPOS>BOND
  1   1   2  1   
  2   1   3  1   
  3   2   4  1   
  4   2   5  1   
  5   2  26  1   
  6   3   6  1   
  7   3   7  1   
  8   3  27  1   
  9   4   8  1   
 10   4   9  1   
 11   5   6  1   
 12   5  10  1   
 13   5  28  1   
 14   6  11  1   
 15   6  29  1   
 16   7  12  1   
 17   7  13  1   
 18   7  30  1   
 19   8  14  ar  
 20   8  15  ar  
 21   9  16  2   
 22   9  31  1   
 23  10  32  1   
 24  11  33  1   
 25  12  34  1   
 26  13  17  ar  
 27  13  18  ar  
 28  14  19  ar  
 29  15  16  1   
 30  15  20  ar  
 31  16  35  1   
 32  17  21  ar  
 33  17  36  1   
 34  18  22  ar  
 35  18  37  1   
 36  19  23  ar  
 37  19  38  1   
 38  20  23  ar  
 39  20  24  1   
 40  21  25  ar  
 41  21  39  1   
 42  22  25  ar  
 43  22  40  1   
 44  24  41  1   
 45  24  42  1   
 46  25  43  1   
@<TRIPOS>SUBSTRUCTURE
  1 ****   6 GROUP 4 **** **** 0

# MOE 2024.06 (io_trps.svl 2023.06)
