@<TRIPOS>MOLECULE
NONAME
61 64 1 0 0 
SMALL
USER_CHARGES


@<TRIPOS>ATOM
  1 O       -0.2790     1.1880    -2.0830 O.2   1 <1>  -0.5700 
  2 C       -0.7920     1.3090    -0.9980 C.2   1 <1>   0.5690 
  3 N       -1.3900     0.2610    -0.3810 N.am  1 <1>  -0.7300 
  4 C       -0.7610     2.6720    -0.2970 C.3   1 <1>   0.2510 
  5 C       -2.1960     0.3840     0.8690 C.3   1 <1>   0.1400 
  6 N       -1.8720     2.8590     0.6880 N.3   1 <1>  -0.8100 
  7 C       -0.8060     3.7850    -1.3610 C.3   1 <1>   0.3430 
  8 C       -1.9230     1.7110     1.6180 C.3   1 <1>   0.1100 
  9 C       -1.7730     4.1650     1.3620 C.3   1 <1>   0.1100 
 10 N       -0.7860     5.1700    -0.7530 N.4   1 <1>  -0.9590 
 11 C       -1.8290     5.3140     0.3300 C.3   1 <1>   0.3430 
 12 C       -0.9300     6.2150    -1.8000 C.3   1 <1>   0.4860 
 13 C       -0.6820     7.5720    -1.1690 C.ar  1 <1>  -0.1440 
 14 C        0.6120     7.9920    -0.8950 C.ar  1 <1>  -0.1500 
 15 C       -1.7470     8.4070    -0.8620 C.ar  1 <1>  -0.1500 
 16 C        0.8460     9.2270    -0.3110 C.ar  1 <1>   0.0820 
 17 C       -1.5190     9.6390    -0.2730 C.ar  1 <1>  -0.1500 
 18 O        2.1420     9.5590    -0.0890 O.3   1 <1>  -0.3620 
 19 C       -0.2290    10.0510     0.0060 C.ar  1 <1>  -0.1500 
 20 C        2.5040    10.8640     0.3040 C.3   1 <1>   0.1200 
 21 C        4.0350    10.9350     0.3240 C.3   1 <1>   0.3430 
 22 N        4.5560    12.2740     0.7550 N.4   1 <1>  -0.9590 
 23 C        4.2550    13.3520    -0.2380 C.3   1 <1>   0.3430 
 24 C        6.0230    12.1860     1.0210 C.3   1 <1>   0.3430 
 25 C        4.7150    14.7040     0.3110 C.3   1 <1>  -0.1600 
 26 C        6.5240    13.5110     1.6000 C.3   1 <1>  -0.1600 
 27 C        6.2060    14.6920     0.6740 C.3   1 <1>  -0.1600 
 28 H       -1.4220    -0.6300    -0.8840 H     1 <1>   0.3700 
 29 H        0.1820     2.7280     0.2170 H     1 <1>   0.0800 
 30 H       -1.9780    -0.4450     1.5190 H     1 <1>   0.0800 
 31 H       -3.2400     0.3380     0.6120 H     1 <1>   0.0800 
 32 H       -1.7060     3.6500    -1.9380 H     1 <1>   0.0800 
 33 H        0.0310     3.6590    -2.0290 H     1 <1>   0.0800 
 34 H       -0.9910     1.6300     2.1530 H     1 <1>   0.0800 
 35 H       -2.7060     1.8630     2.3430 H     1 <1>   0.0800 
 36 H       -0.8600     4.2240     1.9310 H     1 <1>   0.0800 
 37 H       -2.5980     4.2750     2.0460 H     1 <1>   0.0800 
 38 H        0.1280     5.3180    -0.3110 H     1 <1>   0.4500 
 39 H       -1.6970     6.2550     0.8410 H     1 <1>   0.0800 
 40 H       -2.8100     5.3150    -0.1140 H     1 <1>   0.0800 
 41 H       -1.9190     6.1810    -2.2290 H     1 <1>   0.0800 
 42 H       -0.2120     6.0530    -2.5880 H     1 <1>   0.0800 
 43 H        1.4600     7.3750    -1.1350 H     1 <1>   0.1500 
 44 H       -2.7610     8.1150    -1.0770 H     1 <1>   0.1500 
 45 H       -2.3510    10.2820    -0.0340 H     1 <1>   0.1500 
 46 H       -0.0920    11.0110     0.4670 H     1 <1>   0.1500 
 47 H        2.0990    11.0410     1.2840 H     1 <1>   0.0800 
 48 H        2.0920    11.5500    -0.4140 H     1 <1>   0.0800 
 49 H        4.4080    10.7050    -0.6610 H     1 <1>   0.0800 
 50 H        4.3940    10.1800     1.0050 H     1 <1>   0.0800 
 51 H        4.1130    12.5390     1.6450 H     1 <1>   0.4500 
 52 H        3.1970    13.3940    -0.4380 H     1 <1>   0.0800 
 53 H        4.7670    13.1480    -1.1650 H     1 <1>   0.0800 
 54 H        6.5490    11.9730     0.1040 H     1 <1>   0.0800 
 55 H        6.2270    11.3920     1.7210 H     1 <1>   0.0800 
 56 H        4.1280    14.9580     1.1770 H     1 <1>   0.0800 
 57 H        4.5370    15.4630    -0.4310 H     1 <1>   0.0800 
 58 H        7.5890    13.4510     1.7440 H     1 <1>   0.0800 
 59 H        6.0790    13.6710     2.5670 H     1 <1>   0.0800 
 60 H        6.4740    15.6180     1.1550 H     1 <1>   0.0800 
 61 H        6.7940    14.6110    -0.2260 H     1 <1>   0.0800 
@<TRIPOS>BOND
  1   1   2  2   
  2   2   3  am  
  3   2   4  1   
  4   3   5  1   
  5   3  28  1   
  6   4   6  1   
  7   4   7  1   
  8   4  29  1   
  9   5   8  1   
 10   5  30  1   
 11   5  31  1   
 12   6   8  1   
 13   6   9  1   
 14   7  10  1   
 15   7  32  1   
 16   7  33  1   
 17   8  34  1   
 18   8  35  1   
 19   9  11  1   
 20   9  36  1   
 21   9  37  1   
 22  10  11  1   
 23  10  12  1   
 24  10  38  1   
 25  11  39  1   
 26  11  40  1   
 27  12  13  1   
 28  12  41  1   
 29  12  42  1   
 30  13  14  ar  
 31  13  15  ar  
 32  14  16  ar  
 33  14  43  1   
 34  15  17  ar  
 35  15  44  1   
 36  16  18  1   
 37  16  19  ar  
 38  17  19  ar  
 39  17  45  1   
 40  18  20  1   
 41  19  46  1   
 42  20  21  1   
 43  20  47  1   
 44  20  48  1   
 45  21  22  1   
 46  21  49  1   
 47  21  50  1   
 48  22  23  1   
 49  22  24  1   
 50  22  51  1   
 51  23  25  1   
 52  23  52  1   
 53  23  53  1   
 54  24  26  1   
 55  24  54  1   
 56  24  55  1   
 57  25  27  1   
 58  25  56  1   
 59  25  57  1   
 60  26  27  1   
 61  26  58  1   
 62  26  59  1   
 63  27  60  1   
 64  27  61  1   
@<TRIPOS>SUBSTRUCTURE
  1 ****  14 GROUP 4 **** **** 0

# MOE 2024.06 (io_trps.svl 2023.06)
