@<TRIPOS>MOLECULE
NONAME
43 45 1 0 0 
SMALL
USER_CHARGES


@<TRIPOS>ATOM
  1 O        0.0740     0.3990     1.3850 O.3   1 <1>  -0.5600 
  2 C        0.8600     0.8070     0.3040 C.3   1 <1>   0.1200 
  3 C       -1.2820     0.6150     1.1120 C.3   1 <1>   0.1200 
  4 C        0.0400     1.8570    -0.4360 C.3   1 <1>   0.2890 
  5 C       -1.3600     1.2900    -0.2610 C.3   1 <1>  -0.0800 
  6 N        0.1740     3.1630     0.2610 N.pl3 1 <1>  -0.8690 
  7 C       -2.5130     2.2990    -0.4080 C.3   1 <1>  -0.0170 
  8 C        0.3680     4.3650    -0.3700 C.ar  1 <1>   0.4100 
  9 C       -3.8610     1.6030    -0.2940 C.ar  1 <1>  -0.1430 
 10 N        0.1190     4.4290    -1.6630 N.ar  1 <1>  -0.6200 
 11 C        0.7960     5.4650     0.3300 C.ar  1 <1>  -0.1500 
 12 C       -4.4260     0.9370    -1.3620 C.ar  1 <1>  -0.1500 
 13 C       -4.5870     1.5980     0.8800 C.ar  1 <1>  -0.1500 
 14 C        0.3200     5.6100    -2.2140 C.ar  1 <1>   0.4700 
 15 C        0.9650     6.6500    -0.3470 C.ar  1 <1>   0.4100 
 16 C       -5.6530     0.3120    -1.2080 C.ar  1 <1>   0.1600 
 17 C       -5.8050     0.9420     0.9290 C.ar  1 <1>   0.1600 
 18 N        0.7280     6.7260    -1.6450 N.ar  1 <1>  -0.6200 
 19 N        1.3840     7.7980     0.3030 N.pl3 1 <1>  -0.8380 
 20 N       -6.3550     0.2970    -0.0870 N.ar  1 <1>  -0.6200 
 21 C        2.0670     8.8780    -0.4620 C.3   1 <1>   0.1290 
 22 C        0.6910     8.2520     1.5370 C.3   1 <1>   0.1290 
 23 H        1.8000     1.1900     0.6600 H     1 <1>   0.0800 
 24 H        1.0270    -0.0520    -0.3230 H     1 <1>   0.0800 
 25 H       -1.8010    -0.3280     1.1270 H     1 <1>   0.0800 
 26 H       -1.6680     1.2570     1.8850 H     1 <1>   0.0800 
 27 H        0.3310     1.9340    -1.4690 H     1 <1>   0.0800 
 28 H       -1.4940     0.5150    -0.9950 H     1 <1>   0.0800 
 29 H        0.4190     3.0730     1.2500 H     1 <1>   0.4000 
 30 H       -2.4400     2.7870    -1.3640 H     1 <1>   0.0800 
 31 H       -2.4400     3.0640     0.3450 H     1 <1>   0.0800 
 32 H        1.0030     5.4050     1.3760 H     1 <1>   0.1500 
 33 H       -3.9250     0.9000    -2.3120 H     1 <1>   0.1500 
 34 H       -4.2170     2.0990     1.7560 H     1 <1>   0.1500 
 35 H        0.1240     5.6720    -3.2700 H     1 <1>   0.1500 
 36 H       -6.0790    -0.2020    -2.0530 H     1 <1>   0.1500 
 37 H       -6.3570     0.9490     1.8530 H     1 <1>   0.1500 
 38 H        2.6910     9.4580     0.1940 H     1 <1>   0.0800 
 39 H        1.3340     9.5190    -0.9210 H     1 <1>   0.0800 
 40 H        2.6840     8.4490    -1.2330 H     1 <1>   0.0800 
 41 H        1.4100     8.3900     2.3250 H     1 <1>   0.0800 
 42 H       -0.0400     7.5280     1.8520 H     1 <1>   0.0800 
 43 H        0.1860     9.1840     1.3510 H     1 <1>   0.0800 
@<TRIPOS>BOND
  1   1   2  1   
  2   1   3  1   
  3   2   4  1   
  4   2  23  1   
  5   2  24  1   
  6   3   5  1   
  7   3  25  1   
  8   3  26  1   
  9   4   5  1   
 10   4   6  1   
 11   4  27  1   
 12   5   7  1   
 13   5  28  1   
 14   6   8  1   
 15   6  29  1   
 16   7   9  1   
 17   7  30  1   
 18   7  31  1   
 19   8  10  ar  
 20   8  11  ar  
 21   9  12  ar  
 22   9  13  ar  
 23  10  14  ar  
 24  11  15  ar  
 25  11  32  1   
 26  12  16  ar  
 27  12  33  1   
 28  13  17  ar  
 29  13  34  1   
 30  14  18  ar  
 31  14  35  1   
 32  15  18  ar  
 33  15  19  1   
 34  16  20  ar  
 35  16  36  1   
 36  17  20  ar  
 37  17  37  1   
 38  19  21  1   
 39  19  22  1   
 40  21  38  1   
 41  21  39  1   
 42  21  40  1   
 43  22  41  1   
 44  22  42  1   
 45  22  43  1   
@<TRIPOS>SUBSTRUCTURE
  1 ****   6 GROUP 4 **** **** 0

# MOE 2024.06 (io_trps.svl 2023.06)
