@<TRIPOS>MOLECULE
NONAME
55 57 1 0 0 
SMALL
USER_CHARGES


@<TRIPOS>ATOM
  1 O        1.9810    -0.2220    -2.6280 O.2   1 <1>  -0.5700 
  2 C        1.6870    -0.7300    -1.5720 C.2   1 <1>   0.5690 
  3 N        1.6860    -0.0350    -0.4050 N.am  1 <1>  -0.7300 
  4 C        1.2990    -2.2130    -1.5380 C.3   1 <1>   0.1710 
  5 C        2.0390     1.3930    -0.2340 C.3   1 <1>   0.1400 
  6 N        0.3760    -2.5950    -0.4270 N.3   1 <1>  -0.8100 
  7 C        3.1060     1.5440     0.8510 C.3   1 <1>  -0.0170 
  8 C       -0.9620    -1.9950    -0.5800 C.3   1 <1>   0.1100 
  9 C        0.1590    -4.0550    -0.3610 C.3   1 <1>   0.1100 
 10 C        3.3990     3.0190     1.1090 C.ar  1 <1>  -0.1430 
 11 C       -1.8610    -2.8760     0.2760 C.3   1 <1>   0.2000 
 12 C       -1.3320    -4.2700    -0.0540 C.3   1 <1>  -0.0800 
 13 C        4.2020     3.7530     0.2390 C.ar  1 <1>   0.0820 
 14 C        2.8530     3.6390     2.2220 C.ar  1 <1>  -0.1500 
 15 O       -1.5820    -2.5760     1.5980 O.3   1 <1>  -0.6800 
 16 C       -1.6040    -5.3560     1.0030 C.3   1 <1>   0.0210 
 17 O        4.7130     3.1100    -0.8440 O.3   1 <1>  -0.3630 
 18 C        4.4480     5.1000     0.4980 C.ar  1 <1>  -0.1500 
 19 C        3.1000     4.9770     2.4740 C.ar  1 <1>  -0.1500 
 20 C       -1.0580    -6.7010     0.5630 C.2   1 <1>   0.1080 
 21 C        5.3930     3.7990    -1.8680 C.3   1 <1>   0.0400 
 22 C        3.8980     5.7070     1.6120 C.ar  1 <1>  -0.1500 
 23 N       -1.4450    -7.3040    -0.5190 N.2   1 <1>  -0.7070 
 24 C       -0.0960    -7.4300     1.2540 C.2   1 <1>  -0.1500 
 25 N       -0.7370    -8.4490    -0.5430 N.pl3 1 <1>   0.3000 
 26 C        0.0900    -8.5470     0.5190 C.2   1 <1>  -0.3320 
 27 C        1.0180    -9.7210     0.7720 C.3   1 <1>  -0.0600 
 28 H        1.3550    -0.5450     0.4190 H     1 <1>   0.3700 
 29 H        2.2100    -2.7750    -1.4410 H     1 <1>   0.0800 
 30 H        0.8550    -2.4680    -2.4840 H     1 <1>   0.0800 
 31 H        2.4100     1.7940    -1.1630 H     1 <1>   0.0800 
 32 H        1.1580     1.9460     0.0420 H     1 <1>   0.0800 
 33 H        2.7650     1.0800     1.7580 H     1 <1>   0.0800 
 34 H        4.0070     1.0470     0.5380 H     1 <1>   0.0800 
 35 H       -0.9830    -0.9680    -0.2590 H     1 <1>   0.0800 
 36 H       -1.2810    -2.0540    -1.6080 H     1 <1>   0.0800 
 37 H        0.4060    -4.5360    -1.2930 H     1 <1>   0.0800 
 38 H        0.7800    -4.4680     0.4160 H     1 <1>   0.0800 
 39 H       -2.9140    -2.7480     0.0930 H     1 <1>   0.0800 
 40 H       -1.8010    -4.5840    -0.9700 H     1 <1>   0.0800 
 41 H        2.2300     3.0840     2.9010 H     1 <1>   0.1500 
 42 H       -0.6050    -2.5270     1.6610 H     1 <1>   0.4000 
 43 H       -2.6640    -5.4490     1.1540 H     1 <1>   0.0800 
 44 H       -1.1580    -5.0880     1.9430 H     1 <1>   0.0800 
 45 H        5.0660     5.6880    -0.1520 H     1 <1>   0.1500 
 46 H        2.6720     5.4500     3.3410 H     1 <1>   0.1500 
 47 H        5.6360     3.0910    -2.6400 H     1 <1>   0.0800 
 48 H        6.2950     4.2230    -1.4640 H     1 <1>   0.0800 
 49 H        4.7470     4.5620    -2.2630 H     1 <1>   0.0800 
 50 H        4.0910     6.7470     1.8100 H     1 <1>   0.1500 
 51 H        0.3780    -7.1410     2.1750 H     1 <1>   0.1500 
 52 H       -0.8450    -9.1430    -1.2930 H     1 <1>   0.2700 
 53 H        1.5720    -9.5650     1.6810 H     1 <1>   0.0800 
 54 H        1.7150    -9.8270    -0.0400 H     1 <1>   0.0800 
 55 H        0.4500   -10.6290     0.8690 H     1 <1>   0.0800 
@<TRIPOS>BOND
  1   1   2  2   
  2   2   3  am  
  3   2   4  1   
  4   3   5  1   
  5   3  28  1   
  6   4   6  1   
  7   4  29  1   
  8   4  30  1   
  9   5   7  1   
 10   5  31  1   
 11   5  32  1   
 12   6   8  1   
 13   6   9  1   
 14   7  10  1   
 15   7  33  1   
 16   7  34  1   
 17   8  11  1   
 18   8  35  1   
 19   8  36  1   
 20   9  12  1   
 21   9  37  1   
 22   9  38  1   
 23  10  13  ar  
 24  10  14  ar  
 25  11  12  1   
 26  11  15  1   
 27  11  39  1   
 28  12  16  1   
 29  12  40  1   
 30  13  17  1   
 31  13  18  ar  
 32  14  19  ar  
 33  14  41  1   
 34  15  42  1   
 35  16  20  1   
 36  16  43  1   
 37  16  44  1   
 38  17  21  1   
 39  18  22  ar  
 40  18  45  1   
 41  19  22  ar  
 42  19  46  1   
 43  20  23  2   
 44  20  24  1   
 45  21  47  1   
 46  21  48  1   
 47  21  49  1   
 48  22  50  1   
 49  23  25  1   
 50  24  26  2   
 51  24  51  1   
 52  25  26  1   
 53  25  52  1   
 54  26  27  1   
 55  27  53  1   
 56  27  54  1   
 57  27  55  1   
@<TRIPOS>SUBSTRUCTURE
  1 ****   3 GROUP 4 **** **** 0

# MOE 2024.06 (io_trps.svl 2023.06)
