@<TRIPOS>MOLECULE
NONAME
58 60 1 0 0 
SMALL
USER_CHARGES


@<TRIPOS>ATOM
  1 O        5.6750     4.6880     0.7260 O.co2 1 <1>  -0.9000 
  2 C        6.0640     3.6980     1.3610 C.2   1 <1>   0.9790 
  3 O        7.1860     3.7670     1.9000 O.co2 1 <1>  -0.9000 
  4 C        5.4320     2.4030     1.1950 C.ar  1 <1>  -0.1790 
  5 C        6.2250     1.2710     1.3050 C.ar  1 <1>  -0.1500 
  6 C        4.1110     2.2110     0.7990 C.ar  1 <1>  -0.1500 
  7 C        5.8270     0.0390     0.8300 C.ar  1 <1>  -0.1440 
  8 C        3.6520     0.9520     0.4490 C.ar  1 <1>  -0.1500 
  9 C        4.5080    -0.1420     0.4310 C.ar  1 <1>  -0.1430 
 10 C        6.9530    -0.9620     0.6380 C.3   1 <1>   0.2840 
 11 C        3.9930    -1.4910    -0.0460 C.3   1 <1>  -0.0960 
 12 N        7.7070    -0.3830    -0.5030 N.am  1 <1>  -0.7300 
 13 C        8.6620     0.5690    -0.2860 C.2   1 <1>   0.5690 
 14 O        9.6050     0.3450     0.4340 O.2   1 <1>  -0.5700 
 15 C        8.4830     1.9790    -0.9190 C.3   1 <1>   0.4040 
 16 N        8.9170     3.2090    -0.1350 N.4   1 <1>  -0.9590 
 17 C        8.4610     4.4590    -0.8110 C.3   1 <1>   0.3430 
 18 C       10.3570     3.1790     0.2430 C.3   1 <1>   0.3430 
 19 C        8.8960     5.7100    -0.0450 C.3   1 <1>  -0.1600 
 20 C       10.7520     4.4390     1.0070 C.3   1 <1>  -0.1600 
 21 C       10.4090     5.7240     0.2290 C.3   1 <1>  -0.0190 
 22 C       10.8490     7.0010     0.9630 C.2   1 <1>   0.5690 
 23 O       11.1560     6.9100     2.1290 O.2   1 <1>  -0.5700 
 24 N       10.9150     8.2110     0.3140 N.am  1 <1>  -0.6600 
 25 C       11.2130     9.4700     1.0660 C.3   1 <1>   0.1400 
 26 C       10.6430     8.4790    -1.1310 C.3   1 <1>   0.1400 
 27 C       10.1300    10.5270     0.7970 C.3   1 <1>   0.1200 
 28 C        9.5800     9.5820    -1.2790 C.3   1 <1>   0.1200 
 29 O        9.9670    10.7290    -0.5800 O.3   1 <1>  -0.5600 
 30 H        7.2150     1.3830     1.7140 H     1 <1>   0.1500 
 31 H        3.4580     3.0660     0.7490 H     1 <1>   0.1500 
 32 H        2.6220     0.8390     0.1600 H     1 <1>   0.1500 
 33 H        6.5940    -1.9450     0.3900 H     1 <1>   0.0800 
 34 H        7.5760    -1.0190     1.5160 H     1 <1>   0.0800 
 35 H        4.1750    -2.2400     0.7030 H     1 <1>   0.0800 
 36 H        4.4850    -1.7750    -0.9580 H     1 <1>   0.0800 
 37 H        2.9340    -1.4530    -0.2300 H     1 <1>   0.0800 
 38 H        7.0550    -0.2380    -1.2750 H     1 <1>   0.3700 
 39 H        7.4340     2.0840    -1.1360 H     1 <1>   0.0800 
 40 H        9.0050     1.9720    -1.8590 H     1 <1>   0.0800 
 41 H        8.3750     3.2450     0.7730 H     1 <1>   0.4500 
 42 H        7.3830     4.4590    -0.8750 H     1 <1>   0.0800 
 43 H        8.8620     4.4980    -1.8090 H     1 <1>   0.0800 
 44 H       10.9620     3.0940    -0.6440 H     1 <1>   0.0800 
 45 H       10.5520     2.3230     0.8680 H     1 <1>   0.0800 
 46 H        8.3590     5.7560     0.8870 H     1 <1>   0.0800 
 47 H        8.5980     6.5740    -0.6070 H     1 <1>   0.0800 
 48 H       11.8080     4.4080     1.2100 H     1 <1>   0.0800 
 49 H       10.2420     4.4390     1.9570 H     1 <1>   0.0800 
 50 H       10.9420     5.6890    -0.7040 H     1 <1>   0.0800 
 51 H       12.1700     9.8520     0.7550 H     1 <1>   0.0800 
 52 H       11.2620     9.2830     2.1250 H     1 <1>   0.0800 
 53 H       10.3120     7.5960    -1.6420 H     1 <1>   0.0800 
 54 H       11.5520     8.8100    -1.6030 H     1 <1>   0.0800 
 55 H       10.4110    11.4670     1.2360 H     1 <1>   0.0800 
 56 H        9.1880    10.2170     1.2160 H     1 <1>   0.0800 
 57 H        8.6290     9.2500    -0.8980 H     1 <1>   0.0800 
 58 H        9.4640     9.8530    -2.3130 H     1 <1>   0.0800 
@<TRIPOS>BOND
  1   1   2  ar  
  2   2   3  ar  
  3   2   4  1   
  4   4   5  ar  
  5   4   6  ar  
  6   5   7  ar  
  7   5  30  1   
  8   6   8  ar  
  9   6  31  1   
 10   7   9  ar  
 11   7  10  1   
 12   8   9  ar  
 13   8  32  1   
 14   9  11  1   
 15  10  12  1   
 16  10  33  1   
 17  10  34  1   
 18  11  35  1   
 19  11  36  1   
 20  11  37  1   
 21  12  13  am  
 22  12  38  1   
 23  13  14  2   
 24  13  15  1   
 25  15  16  1   
 26  15  39  1   
 27  15  40  1   
 28  16  17  1   
 29  16  18  1   
 30  16  41  1   
 31  17  19  1   
 32  17  42  1   
 33  17  43  1   
 34  18  20  1   
 35  18  44  1   
 36  18  45  1   
 37  19  21  1   
 38  19  46  1   
 39  19  47  1   
 40  20  21  1   
 41  20  48  1   
 42  20  49  1   
 43  21  22  1   
 44  21  50  1   
 45  22  23  2   
 46  22  24  am  
 47  24  25  1   
 48  24  26  1   
 49  25  27  1   
 50  25  51  1   
 51  25  52  1   
 52  26  28  1   
 53  26  53  1   
 54  26  54  1   
 55  27  29  1   
 56  27  55  1   
 57  27  56  1   
 58  28  29  1   
 59  28  57  1   
 60  28  58  1   
@<TRIPOS>SUBSTRUCTURE
  1 ****  16 GROUP 4 **** **** 0

# MOE 2024.06 (io_trps.svl 2023.06)
