@<TRIPOS>MOLECULE
NONAME
44 46 1 0 0 
SMALL
USER_CHARGES


@<TRIPOS>ATOM
  1 S        2.2870    -0.9450     1.5860 S.3   1 <1>  -0.0800 
  2 C        1.5550    -0.6270     0.0320 C.2   1 <1>   0.1980 
  3 C        1.9690    -2.6340     1.3630 C.2   1 <1>  -0.1100 
  4 N        1.1310    -1.6710    -0.5590 N.2   1 <1>  -0.5650 
  5 C        1.5080     0.8300    -0.4250 C.3   1 <1>   0.1000 
  6 C        1.3540    -2.8460     0.1770 C.2   1 <1>   0.1410 
  7 C        0.3690     1.5780     0.2800 C.3   1 <1>  -0.2400 
  8 C        1.3440     0.9430    -1.9470 C.3   1 <1>  -0.2400 
  9 C        0.9330    -4.1490    -0.3270 C.2   1 <1>   0.7160 
 10 O        0.8150    -4.3900    -1.5150 O.2   1 <1>  -0.5700 
 11 N        0.6450    -5.1550     0.5530 N.am  1 <1>  -0.7300 
 12 C        0.1180    -6.4820     0.1670 C.3   1 <1>   0.2200 
 13 C       -1.4010    -6.4210     0.1370 C.3   1 <1>  -0.0800 
 14 C        0.3630    -7.4740     1.2950 C.3   1 <1>   0.1200 
 15 C       -1.7800    -6.7040     1.5980 C.3   1 <1>   0.1200 
 16 C       -1.9880    -7.4620    -0.8340 C.3   1 <1>  -0.0170 
 17 O       -0.6470    -7.2330     2.2250 O.3   1 <1>  -0.5600 
 18 C       -3.5050    -7.3670    -0.8950 C.ar  1 <1>  -0.1430 
 19 C       -4.3280    -8.3110    -0.3140 C.ar  1 <1>  -0.1500 
 20 C       -4.1350    -6.3220    -1.5400 C.ar  1 <1>  -0.1500 
 21 C       -5.7030    -8.1650    -0.4000 C.ar  1 <1>   0.1600 
 22 C       -5.5190    -6.2700    -1.5680 C.ar  1 <1>   0.1600 
 23 N       -6.3180    -7.1650    -1.0110 N.ar  1 <1>  -0.6200 
 24 H        2.2780    -3.3070     2.1410 H     1 <1>   0.1500 
 25 H        2.4420     1.2910    -0.1570 H     1 <1>   0.0800 
 26 H       -0.5760     1.1230     0.0400 H     1 <1>   0.0800 
 27 H        0.3480     2.6080    -0.0300 H     1 <1>   0.0800 
 28 H        0.5040     1.5450     1.3460 H     1 <1>   0.0800 
 29 H        0.4130     0.5000    -2.2570 H     1 <1>   0.0800 
 30 H        2.1450     0.4230    -2.4410 H     1 <1>   0.0800 
 31 H        1.3590     1.9730    -2.2550 H     1 <1>   0.0800 
 32 H        0.5460    -4.9400     1.5460 H     1 <1>   0.3700 
 33 H        0.5540    -6.8010    -0.7650 H     1 <1>   0.0800 
 34 H       -1.7430    -5.4460    -0.1640 H     1 <1>   0.0800 
 35 H        1.3250    -7.3490     1.7610 H     1 <1>   0.0800 
 36 H        0.2550    -8.4860     0.9460 H     1 <1>   0.0800 
 37 H       -2.5870    -7.4090     1.6910 H     1 <1>   0.0800 
 38 H       -2.0420    -5.7940     2.1100 H     1 <1>   0.0800 
 39 H       -1.6970    -8.4560    -0.5400 H     1 <1>   0.0800 
 40 H       -1.5950    -7.2870    -1.8210 H     1 <1>   0.0800 
 41 H       -3.9170    -9.1570     0.2040 H     1 <1>   0.1500 
 42 H       -3.5640    -5.5490    -2.0220 H     1 <1>   0.1500 
 43 H       -6.3290    -8.9100     0.0590 H     1 <1>   0.1500 
 44 H       -5.9930    -5.4470    -2.0750 H     1 <1>   0.1500 
@<TRIPOS>BOND
  1   1   2  1   
  2   1   3  1   
  3   2   4  2   
  4   2   5  1   
  5   3   6  2   
  6   3  24  1   
  7   4   6  1   
  8   5   7  1   
  9   5   8  1   
 10   5  25  1   
 11   6   9  1   
 12   7  26  1   
 13   7  27  1   
 14   7  28  1   
 15   8  29  1   
 16   8  30  1   
 17   8  31  1   
 18   9  10  2   
 19   9  11  am  
 20  11  12  1   
 21  11  32  1   
 22  12  13  1   
 23  12  14  1   
 24  12  33  1   
 25  13  15  1   
 26  13  16  1   
 27  13  34  1   
 28  14  17  1   
 29  14  35  1   
 30  14  36  1   
 31  15  17  1   
 32  15  37  1   
 33  15  38  1   
 34  16  18  1   
 35  16  39  1   
 36  16  40  1   
 37  18  19  ar  
 38  18  20  ar  
 39  19  21  ar  
 40  19  41  1   
 41  20  22  ar  
 42  20  42  1   
 43  21  23  ar  
 44  21  43  1   
 45  22  23  ar  
 46  22  44  1   
@<TRIPOS>SUBSTRUCTURE
  1 ****  11 GROUP 4 **** **** 0

# MOE 2024.06 (io_trps.svl 2023.06)
