@<TRIPOS>MOLECULE
NONAME
53 57 1 0 0 
SMALL
USER_CHARGES


@<TRIPOS>ATOM
  1 O        2.2460     0.7940    -1.5620 O.2   1 <1>  -0.5700 
  2 C        2.0210    -0.3360    -1.2020 C.2   1 <1>   0.5690 
  3 N        0.8000    -0.8150    -0.8550 N.am  1 <1>  -0.6600 
  4 C        3.0930    -1.4030    -1.1840 C.3   1 <1>  -0.0190 
  5 C       -0.4300    -0.0030    -0.7440 C.3   1 <1>   0.2200 
  6 C        0.8480    -2.2630    -0.5330 C.3   1 <1>   0.1400 
  7 C        2.3510    -2.5370    -0.4750 C.3   1 <1>   0.4180 
  8 C        4.4170    -1.3400    -0.3510 C.3   1 <1>  -0.0190 
  9 C       -0.8160     0.1330     0.7270 C.3   1 <1>  -0.2400 
 10 C       -1.5510    -0.6390    -1.5640 C.3   1 <1>  -0.2400 
 11 O        2.8320    -2.3760     0.8150 O.3   1 <1>  -0.5600 
 12 C        3.0060    -3.8520    -0.8170 C.2   1 <1>  -0.2880 
 13 C        4.8110    -0.1190     0.4800 C.2   1 <1>   0.5690 
 14 C        4.1890    -2.5200     0.6070 C.3   1 <1>   0.3380 
 15 C        4.1610    -3.8310    -0.1610 C.2   1 <1>  -0.2880 
 16 O        5.7050    -0.2840     1.2790 O.2   1 <1>  -0.5700 
 17 N        4.2400     1.1030     0.3010 N.am  1 <1>  -0.4930 
 18 C        4.4790     2.3150     0.9950 C.2   1 <1>   0.0630 
 19 C        5.3510     2.5900     2.0500 C.2   1 <1>   0.1390 
 20 C        3.8680     3.4900     0.7490 C.2   1 <1>  -0.3020 
 21 N        5.2880     3.8330     2.4330 N.2   1 <1>  -0.7070 
 22 N        4.3690     4.3940     1.6220 N.pl3 1 <1>   0.3140 
 23 C        3.9750     5.8120     1.7650 C.3   1 <1>   0.2390 
 24 C        3.7960     6.4920     0.4120 C.ar  1 <1>  -0.1440 
 25 C        4.9000     6.7370    -0.3920 C.ar  1 <1>  -0.1500 
 26 C        2.5360     6.8710    -0.0280 C.ar  1 <1>  -0.1500 
 27 C        4.7470     7.3560    -1.6200 C.ar  1 <1>  -0.1500 
 28 C        2.3830     7.4900    -1.2560 C.ar  1 <1>  -0.1500 
 29 C        3.4880     7.7330    -2.0530 C.ar  1 <1>  -0.1500 
 30 H        3.2940    -1.6810    -2.2020 H     1 <1>   0.0800 
 31 H       -0.2310     0.9800    -1.1390 H     1 <1>   0.0800 
 32 H        0.3800    -2.4860     0.4100 H     1 <1>   0.0800 
 33 H        0.3900    -2.8250    -1.3270 H     1 <1>   0.0800 
 34 H        5.2550    -1.5700    -0.9810 H     1 <1>   0.0800 
 35 H       -1.0750    -0.8190     1.1510 H     1 <1>   0.0800 
 36 H       -1.6630     0.7880     0.8210 H     1 <1>   0.0800 
 37 H        0.0020     0.5590     1.2800 H     1 <1>   0.0800 
 38 H       -1.8260    -1.5990    -1.1670 H     1 <1>   0.0800 
 39 H       -1.2400    -0.7480    -2.5880 H     1 <1>   0.0800 
 40 H       -2.4180    -0.0040    -1.5420 H     1 <1>   0.0800 
 41 H        2.5510    -4.5640    -1.4820 H     1 <1>   0.1500 
 42 H        4.7210    -2.5340     1.5440 H     1 <1>   0.0800 
 43 H        4.9810    -4.5250    -0.1060 H     1 <1>   0.1500 
 44 H        3.5260     1.1880    -0.4330 H     1 <1>   0.3700 
 45 H        6.0010     1.8600     2.5000 H     1 <1>   0.1500 
 46 H        3.1220     3.7310     0.0150 H     1 <1>   0.1500 
 47 H        3.0630     5.8490     2.3300 H     1 <1>   0.0800 
 48 H        4.7400     6.3180     2.3240 H     1 <1>   0.0800 
 49 H        5.8830     6.4420    -0.0650 H     1 <1>   0.1500 
 50 H        1.6670     6.6860     0.5790 H     1 <1>   0.1500 
 51 H        5.6070     7.5420    -2.2390 H     1 <1>   0.1500 
 52 H        1.4030     7.7810    -1.5940 H     1 <1>   0.1500 
 53 H        3.3690     8.2140    -3.0080 H     1 <1>   0.1500 
@<TRIPOS>BOND
  1   1   2  2   
  2   2   3  am  
  3   2   4  1   
  4   3   5  1   
  5   3   6  1   
  6   4   7  1   
  7   4   8  1   
  8   4  30  1   
  9   5   9  1   
 10   5  10  1   
 11   5  31  1   
 12   6   7  1   
 13   6  32  1   
 14   6  33  1   
 15   7  11  1   
 16   7  12  1   
 17   8  13  1   
 18   8  14  1   
 19   8  34  1   
 20   9  35  1   
 21   9  36  1   
 22   9  37  1   
 23  10  38  1   
 24  10  39  1   
 25  10  40  1   
 26  11  14  1   
 27  12  15  2   
 28  12  41  1   
 29  13  16  2   
 30  13  17  am  
 31  14  15  1   
 32  14  42  1   
 33  15  43  1   
 34  17  18  1   
 35  17  44  1   
 36  18  19  1   
 37  18  20  2   
 38  19  21  2   
 39  19  45  1   
 40  20  22  1   
 41  20  46  1   
 42  21  22  1   
 43  22  23  1   
 44  23  24  1   
 45  23  47  1   
 46  23  48  1   
 47  24  25  ar  
 48  24  26  ar  
 49  25  27  ar  
 50  25  49  1   
 51  26  28  ar  
 52  26  50  1   
 53  27  29  ar  
 54  27  51  1   
 55  28  29  ar  
 56  28  52  1   
 57  29  53  1   
@<TRIPOS>SUBSTRUCTURE
  1 ****  17 GROUP 4 **** **** 0

# MOE 2024.06 (io_trps.svl 2023.06)
