@<TRIPOS>MOLECULE
NONAME
52 55 1 0 0 
SMALL
USER_CHARGES


@<TRIPOS>ATOM
  1 O        1.6650    -1.5280    -1.9800 O.3   1 <1>  -0.0190 
  2 N        1.1610    -2.7040    -2.2040 N.2   1 <1>  -0.4100 
  3 C        1.6220    -1.4010    -0.6750 C.2   1 <1>   0.2980 
  4 C        0.8660    -3.2020    -1.0730 C.2   1 <1>   0.3350 
  5 N        1.1300    -2.3980    -0.0490 N.2   1 <1>  -0.5650 
  6 C        2.1420    -0.1180    -0.0350 C.3   1 <1>   0.1000 
  7 C        0.2230    -4.5680    -0.8470 C.3   1 <1>   0.5240 
  8 C        1.4090     1.1430    -0.4930 C.3   1 <1>  -0.1600 
  9 C        3.6070     0.1840    -0.3510 C.3   1 <1>  -0.1600 
 10 N       -1.0090    -4.4360     0.0080 N.4   1 <1>  -0.9590 
 11 C        2.3650     2.2950    -0.1760 C.3   1 <1>  -0.1600 
 12 C        3.7690     1.6830    -0.0860 C.3   1 <1>  -0.1600 
 13 C       -1.5020    -5.7180     0.6120 C.3   1 <1>   0.4230 
 14 C       -2.0440    -3.7560    -0.8290 C.3   1 <1>   0.3430 
 15 C       -2.7760    -5.4280     1.4270 C.3   1 <1>  -0.1600 
 16 C       -0.4740    -6.3880     1.5590 C.3   1 <1>  -0.1600 
 17 C       -3.2850    -3.4390    -0.0010 C.3   1 <1>  -0.1600 
 18 C       -3.8610    -4.7110     0.6190 C.3   1 <1>  -0.1600 
 19 C        0.6280    -7.2670     0.9290 C.3   1 <1>   0.0960 
 20 N        0.1420    -8.0190    -0.2440 N.pl3 1 <1>   0.3140 
 21 N       -0.0020    -7.4270    -1.4470 N.2   1 <1>  -0.7070 
 22 C       -0.2280    -9.3120    -0.2870 C.2   1 <1>  -0.3020 
 23 C       -0.4420    -8.3700    -2.2280 C.2   1 <1>   0.1390 
 24 C       -0.6080    -9.5730    -1.5550 C.2   1 <1>  -0.1500 
 25 H        2.0380    -0.1990     1.0330 H     1 <1>   0.0800 
 26 H        0.9530    -5.1860    -0.3650 H     1 <1>   0.0800 
 27 H       -0.0210    -5.0150    -1.7960 H     1 <1>   0.0800 
 28 H        0.4610     1.2590     0.0010 H     1 <1>   0.0800 
 29 H        1.2480     1.1050    -1.5580 H     1 <1>   0.0800 
 30 H        3.8040    -0.0110    -1.3920 H     1 <1>   0.0800 
 31 H        4.2760    -0.4070     0.2490 H     1 <1>   0.0800 
 32 H       -0.7530    -3.7880     0.7650 H     1 <1>   0.4500 
 33 H        2.1050     2.7390     0.7710 H     1 <1>   0.0800 
 34 H        2.3170     3.0550    -0.9370 H     1 <1>   0.0800 
 35 H        4.4380     2.1280    -0.8030 H     1 <1>   0.0800 
 36 H        4.1690     1.8400     0.9020 H     1 <1>   0.0800 
 37 H       -1.7660    -6.4050    -0.1780 H     1 <1>   0.0800 
 38 H       -2.3200    -4.3960    -1.6520 H     1 <1>   0.0800 
 39 H       -1.6490    -2.8380    -1.2350 H     1 <1>   0.0800 
 40 H       -2.5250    -4.8350     2.2900 H     1 <1>   0.0800 
 41 H       -3.1860    -6.3560     1.7860 H     1 <1>   0.0800 
 42 H       -1.0180    -7.0530     2.2080 H     1 <1>   0.0800 
 43 H       -0.0270    -5.6500     2.2010 H     1 <1>   0.0800 
 44 H       -4.0250    -2.9840    -0.6370 H     1 <1>   0.0800 
 45 H       -3.0350    -2.7260     0.7660 H     1 <1>   0.0800 
 46 H       -4.6920    -4.4630     1.2590 H     1 <1>   0.0800 
 47 H       -4.2250    -5.3620    -0.1580 H     1 <1>   0.0800 
 48 H        0.9870    -7.9730     1.6580 H     1 <1>   0.0800 
 49 H        1.4710    -6.6780     0.6230 H     1 <1>   0.0800 
 50 H       -0.1980    -9.9690     0.5640 H     1 <1>   0.1500 
 51 H       -0.6520    -8.2310    -3.2770 H     1 <1>   0.1500 
 52 H       -0.9610   -10.4960    -1.9810 H     1 <1>   0.1500 
@<TRIPOS>BOND
  1   1   2  1   
  2   1   3  1   
  3   2   4  2   
  4   3   5  2   
  5   3   6  1   
  6   4   5  1   
  7   4   7  1   
  8   6   8  1   
  9   6   9  1   
 10   6  25  1   
 11   7  10  1   
 12   7  26  1   
 13   7  27  1   
 14   8  11  1   
 15   8  28  1   
 16   8  29  1   
 17   9  12  1   
 18   9  30  1   
 19   9  31  1   
 20  10  13  1   
 21  10  14  1   
 22  10  32  1   
 23  11  12  1   
 24  11  33  1   
 25  11  34  1   
 26  12  35  1   
 27  12  36  1   
 28  13  15  1   
 29  13  16  1   
 30  13  37  1   
 31  14  17  1   
 32  14  38  1   
 33  14  39  1   
 34  15  18  1   
 35  15  40  1   
 36  15  41  1   
 37  16  19  1   
 38  16  42  1   
 39  16  43  1   
 40  17  18  1   
 41  17  44  1   
 42  17  45  1   
 43  18  46  1   
 44  18  47  1   
 45  19  20  1   
 46  19  48  1   
 47  19  49  1   
 48  20  21  1   
 49  20  22  1   
 50  21  23  2   
 51  22  24  2   
 52  22  50  1   
 53  23  24  1   
 54  23  51  1   
 55  24  52  1   
@<TRIPOS>SUBSTRUCTURE
  1 ****   7 GROUP 4 **** **** 0

# MOE 2024.06 (io_trps.svl 2023.06)
