@<TRIPOS>MOLECULE
NONAME
51 53 1 0 0 
SMALL
USER_CHARGES


@<TRIPOS>ATOM
  1 O       -0.2170    -0.1840    -0.5770 O.2   1 <1>  -0.5700 
  2 C        0.2030    -1.2740    -0.2610 C.2   1 <1>   0.5690 
  3 N       -0.6700    -2.2810    -0.0250 N.am  1 <1>  -0.7300 
  4 C        1.7330    -1.5010    -0.1100 C.3   1 <1>   0.2510 
  5 C       -0.2450    -3.6420     0.3740 C.3   1 <1>   0.1400 
  6 N        2.1390    -2.8850     0.3140 N.3   1 <1>  -0.8100 
  7 C        2.2930    -0.4800     0.8990 C.3   1 <1>  -0.0990 
  8 C        1.1790    -3.9260    -0.1280 C.3   1 <1>   0.1100 
  9 C        3.5570    -3.1850     0.0200 C.3   1 <1>   0.1900 
 10 C        2.8120     0.7510     0.1900 C.2   1 <1>   0.5690 
 11 C        3.7900    -3.6320    -1.4270 C.3   1 <1>  -0.2400 
 12 C        4.0630    -4.2330     1.0080 C.3   1 <1>  -0.2400 
 13 O        4.0080     0.9140     0.1480 O.2   1 <1>  -0.5700 
 14 N        1.9140     1.6030    -0.3760 N.am  1 <1>  -0.4930 
 15 C        2.1450     2.8370    -1.0340 C.2   1 <1>   0.0630 
 16 C        1.2330     3.5520    -1.8100 C.2   1 <1>   0.1390 
 17 C        3.2630     3.5890    -1.0560 C.2   1 <1>  -0.3020 
 18 N        1.7360     4.6540    -2.2810 N.2   1 <1>  -0.7070 
 19 N        3.0010     4.6800    -1.8090 N.pl3 1 <1>   0.3140 
 20 C        3.9470     5.7640    -2.1490 C.3   1 <1>   0.2390 
 21 C        4.4710     6.4570    -0.8970 C.ar  1 <1>  -0.1440 
 22 C        3.6260     7.2630    -0.1480 C.ar  1 <1>  -0.1500 
 23 C        5.7880     6.2930    -0.4960 C.ar  1 <1>  -0.1500 
 24 C        4.0940     7.9010     0.9870 C.ar  1 <1>  -0.1500 
 25 C        6.2570     6.9310     0.6400 C.ar  1 <1>  -0.1500 
 26 C        5.4100     7.7360     1.3810 C.ar  1 <1>  -0.1500 
 27 H       -1.6690    -2.0750    -0.0790 H     1 <1>   0.3700 
 28 H        2.1640    -1.3100    -1.0770 H     1 <1>   0.0800 
 29 H       -0.9230    -4.3670    -0.0430 H     1 <1>   0.0800 
 30 H       -0.2720    -3.7270     1.4470 H     1 <1>   0.0800 
 31 H        3.0990    -0.9000     1.4710 H     1 <1>   0.0800 
 32 H        1.5320    -0.1890     1.5980 H     1 <1>   0.0800 
 33 H        1.1580    -3.9760    -1.2030 H     1 <1>   0.0800 
 34 H        1.4840    -4.8870     0.2450 H     1 <1>   0.0800 
 35 H        4.1440    -2.2960     0.1790 H     1 <1>   0.0800 
 36 H        3.3580    -4.5980    -1.6150 H     1 <1>   0.0800 
 37 H        4.8470    -3.7080    -1.6070 H     1 <1>   0.0800 
 38 H        3.3900    -2.9160    -2.1200 H     1 <1>   0.0800 
 39 H        3.5980    -5.1860     0.8440 H     1 <1>   0.0800 
 40 H        3.8680    -3.9090     2.0140 H     1 <1>   0.0800 
 41 H        5.1250    -4.3540     0.8930 H     1 <1>   0.0800 
 42 H        0.9390     1.2700    -0.3990 H     1 <1>   0.3700 
 43 H        0.2240     3.2300    -2.0020 H     1 <1>   0.1500 
 44 H        4.2100     3.4070    -0.5830 H     1 <1>   0.1500 
 45 H        3.4360     6.4760    -2.7700 H     1 <1>   0.0800 
 46 H        4.7550     5.3400    -2.7130 H     1 <1>   0.0800 
 47 H        2.5980     7.3910    -0.4450 H     1 <1>   0.1500 
 48 H        6.4580     5.6680    -1.0610 H     1 <1>   0.1500 
 49 H        3.4330     8.5240     1.5650 H     1 <1>   0.1500 
 50 H        7.2790     6.8000     0.9480 H     1 <1>   0.1500 
 51 H        5.7740     8.2310     2.2650 H     1 <1>   0.1500 
@<TRIPOS>BOND
  1   1   2  2   
  2   2   3  am  
  3   2   4  1   
  4   3   5  1   
  5   3  27  1   
  6   4   6  1   
  7   4   7  1   
  8   4  28  1   
  9   5   8  1   
 10   5  29  1   
 11   5  30  1   
 12   6   8  1   
 13   6   9  1   
 14   7  10  1   
 15   7  31  1   
 16   7  32  1   
 17   8  33  1   
 18   8  34  1   
 19   9  11  1   
 20   9  12  1   
 21   9  35  1   
 22  10  13  2   
 23  10  14  am  
 24  11  36  1   
 25  11  37  1   
 26  11  38  1   
 27  12  39  1   
 28  12  40  1   
 29  12  41  1   
 30  14  15  1   
 31  14  42  1   
 32  15  16  1   
 33  15  17  2   
 34  16  18  2   
 35  16  43  1   
 36  17  19  1   
 37  17  44  1   
 38  18  19  1   
 39  19  20  1   
 40  20  21  1   
 41  20  45  1   
 42  20  46  1   
 43  21  22  ar  
 44  21  23  ar  
 45  22  24  ar  
 46  22  47  1   
 47  23  25  ar  
 48  23  48  1   
 49  24  26  ar  
 50  24  49  1   
 51  25  26  ar  
 52  25  50  1   
 53  26  51  1   
@<TRIPOS>SUBSTRUCTURE
  1 ****  14 GROUP 4 **** **** 0

# MOE 2024.06 (io_trps.svl 2023.06)
