@<TRIPOS>MOLECULE
NONAME
46 48 1 0 0 
SMALL
USER_CHARGES


@<TRIPOS>ATOM
  1 O        0.8370    -0.0800    -0.1450 O.2   1 <1>  -0.5700 
  2 C        1.8320    -0.7810    -0.1430 C.2   1 <1>   0.7160 
  3 N        3.0710    -0.1730    -0.1640 N.am  1 <1>  -0.6600 
  4 C        1.6760    -2.2160    -0.1080 C.2   1 <1>  -0.0860 
  5 C        4.2910    -0.7980     0.4400 C.3   1 <1>   0.1400 
  6 C        3.2160     1.2170    -0.6850 C.3   1 <1>   0.1400 
  7 C        0.6840    -2.9330     0.4830 C.2   1 <1>  -0.0100 
  8 C        2.4970    -3.2010    -0.7020 C.2   1 <1>  -0.1500 
  9 C        4.8800     0.0370     1.5860 C.3   1 <1>   0.1400 
 10 C        3.2280     2.2230     0.4730 C.3   1 <1>  -0.1600 
 11 O        0.8510    -4.2230     0.3110 O.3   1 <1>  -0.2800 
 12 C        1.9410    -4.3930    -0.4060 C.2   1 <1>  -0.0100 
 13 N        5.5000     1.2950     1.0740 N.am  1 <1>  -0.6600 
 14 C        4.6170     2.4980     1.0670 C.3   1 <1>   0.1400 
 15 C        6.7930     1.2640     0.6100 C.2   1 <1>   0.5690 
 16 O        7.3930     0.2180     0.5140 O.2   1 <1>  -0.5700 
 17 C        7.5000     2.5510     0.1940 C.3   1 <1>  -0.0990 
 18 C        9.0140     2.3900    -0.0510 C.3   1 <1>  -0.1600 
 19 C        9.6820     3.7160    -0.4390 C.3   1 <1>   0.0210 
 20 C       11.1740     3.5580    -0.6820 C.2   1 <1>  -0.1810 
 21 C       12.0490     4.5850    -1.0250 C.2   1 <1>   0.1390 
 22 C       11.9540     2.4560    -0.6280 C.2   1 <1>  -0.3020 
 23 N       13.2700     4.1690    -1.1740 N.2   1 <1>  -0.7070 
 24 N       13.2070     2.8470    -0.9270 N.pl3 1 <1>   0.3000 
 25 H        5.0400    -0.9410    -0.3200 H     1 <1>   0.0800 
 26 H        4.0460    -1.7620     0.8440 H     1 <1>   0.0800 
 27 H        2.3820     1.4370    -1.3310 H     1 <1>   0.0800 
 28 H        4.1130     1.2970    -1.2740 H     1 <1>   0.0800 
 29 H       -0.1700    -2.5820     1.0370 H     1 <1>   0.1500 
 30 H        3.3820    -3.0010    -1.2800 H     1 <1>   0.1500 
 31 H        5.6360    -0.5470     2.0820 H     1 <1>   0.0800 
 32 H        4.1180     0.2590     2.3120 H     1 <1>   0.0800 
 33 H        2.5530     1.8930     1.2430 H     1 <1>   0.0800 
 34 H        2.8400     3.1590     0.1120 H     1 <1>   0.0800 
 35 H        2.2430    -5.3940    -0.6610 H     1 <1>   0.1500 
 36 H        4.5090     2.8610     2.0750 H     1 <1>   0.0800 
 37 H        5.0720     3.2800     0.4880 H     1 <1>   0.0800 
 38 H        7.3550     3.2800     0.9700 H     1 <1>   0.0800 
 39 H        7.0370     2.9100    -0.7060 H     1 <1>   0.0800 
 40 H        9.1700     1.6720    -0.8380 H     1 <1>   0.0800 
 41 H        9.4770     2.0070     0.8420 H     1 <1>   0.0800 
 42 H        9.5370     4.4350     0.3480 H     1 <1>   0.0800 
 43 H        9.2270     4.1010    -1.3340 H     1 <1>   0.0800 
 44 H       11.7590     5.6140    -1.1550 H     1 <1>   0.1500 
 45 H       11.6960     1.4380    -0.4000 H     1 <1>   0.1500 
 46 H       14.0360     2.2420    -0.9710 H     1 <1>   0.2700 
@<TRIPOS>BOND
  1   1   2  2   
  2   2   3  am  
  3   2   4  1   
  4   3   5  1   
  5   3   6  1   
  6   4   7  2   
  7   4   8  1   
  8   5   9  1   
  9   5  25  1   
 10   5  26  1   
 11   6  10  1   
 12   6  27  1   
 13   6  28  1   
 14   7  11  1   
 15   7  29  1   
 16   8  12  2   
 17   8  30  1   
 18   9  13  1   
 19   9  31  1   
 20   9  32  1   
 21  10  14  1   
 22  10  33  1   
 23  10  34  1   
 24  11  12  1   
 25  12  35  1   
 26  13  14  1   
 27  13  15  am  
 28  14  36  1   
 29  14  37  1   
 30  15  16  2   
 31  15  17  1   
 32  17  18  1   
 33  17  38  1   
 34  17  39  1   
 35  18  19  1   
 36  18  40  1   
 37  18  41  1   
 38  19  20  1   
 39  19  42  1   
 40  19  43  1   
 41  20  21  1   
 42  20  22  2   
 43  21  23  2   
 44  21  44  1   
 45  22  24  1   
 46  22  45  1   
 47  23  24  1   
 48  24  46  1   
@<TRIPOS>SUBSTRUCTURE
  1 ****  15 GROUP 4 **** **** 0

# MOE 2024.06 (io_trps.svl 2023.06)
