@<TRIPOS>MOLECULE
NONAME
47 49 1 0 0 
SMALL
USER_CHARGES


@<TRIPOS>ATOM
  1 O        1.0950     3.2590    -1.4870 O.3   1 <1>  -0.0190 
  2 N        2.3250     3.0400    -1.8340 N.2   1 <1>  -0.4100 
  3 C        0.7120     2.4650    -0.5260 C.2   1 <1>  -0.0400 
  4 C        2.7300     2.0500    -1.1220 C.2   1 <1>   0.1080 
  5 C        1.7290     1.6350    -0.2470 C.2   1 <1>  -0.1500 
  6 C       -0.6720     2.6130     0.0780 C.3   1 <1>   0.0200 
  7 C        4.1060     1.4300    -1.2270 C.3   1 <1>  -0.0590 
  8 C       -0.9100     3.9850     0.7540 C.3   1 <1>  -0.0800 
  9 C       -1.1910     5.1140    -0.2440 C.3   1 <1>   0.2000 
 10 C        0.3090     4.4850     1.5370 C.3   1 <1>   0.3430 
 11 O       -2.1400     5.9650     0.3100 O.3   1 <1>  -0.6800 
 12 C        0.1280     5.8790    -0.4260 C.3   1 <1>   0.3430 
 13 N        1.0830     5.3390     0.5950 N.4   1 <1>  -0.9590 
 14 C        1.9410     6.3680     1.2520 C.3   1 <1>   0.4860 
 15 C        2.4980     7.3260     0.2110 C.ar  1 <1>  -0.1430 
 16 C        3.5190     6.9280    -0.6540 C.ar  1 <1>  -0.1430 
 17 C        1.9750     8.6180     0.1180 C.ar  1 <1>  -0.1430 
 18 C        3.9750     7.8100    -1.6190 C.ar  1 <1>  -0.1500 
 19 C        4.2070     5.5670    -0.6170 C.3   1 <1>  -0.0970 
 20 C        2.4500     9.4800    -0.8560 C.ar  1 <1>  -0.1500 
 21 C        0.8980     9.1450     1.0630 C.3   1 <1>  -0.0970 
 22 C        3.4430     9.0780    -1.7260 C.ar  1 <1>  -0.1500 
 23 H        1.8010     0.8350     0.4670 H     1 <1>   0.1500 
 24 H       -1.4140     2.4410    -0.6830 H     1 <1>   0.0800 
 25 H       -0.7940     1.8390     0.8160 H     1 <1>   0.0800 
 26 H        4.6090     1.4790    -0.2790 H     1 <1>   0.0800 
 27 H        4.6930     1.9540    -1.9600 H     1 <1>   0.0800 
 28 H        4.0200     0.4020    -1.5280 H     1 <1>   0.0800 
 29 H       -1.7480     3.8620     1.4190 H     1 <1>   0.0800 
 30 H       -1.5800     4.7650    -1.1870 H     1 <1>   0.0800 
 31 H        0.9050     3.6670     1.9090 H     1 <1>   0.0800 
 32 H       -0.0290     5.0820     2.3680 H     1 <1>   0.0800 
 33 H       -1.9210     6.2530     1.2170 H     1 <1>   0.4000 
 34 H       -0.0380     6.9350    -0.3030 H     1 <1>   0.0800 
 35 H        0.5240     5.7050    -1.4140 H     1 <1>   0.0800 
 36 H        1.7140     4.7290     0.0450 H     1 <1>   0.4500 
 37 H        1.3630     6.9170     1.9750 H     1 <1>   0.0800 
 38 H        2.7560     5.8940     1.7720 H     1 <1>   0.0800 
 39 H        4.7580     7.5140    -2.2980 H     1 <1>   0.1500 
 40 H        5.2500     5.7040    -0.3900 H     1 <1>   0.0800 
 41 H        4.1380     5.1040    -1.5860 H     1 <1>   0.0800 
 42 H        3.7970     4.8950     0.1090 H     1 <1>   0.0800 
 43 H        2.0570    10.4780    -0.9480 H     1 <1>   0.1500 
 44 H        0.6230    10.1530     0.8050 H     1 <1>   0.0800 
 45 H        1.2680     9.1590     2.0730 H     1 <1>   0.0800 
 46 H        0.0100     8.5440     1.0170 H     1 <1>   0.0800 
 47 H        3.8060     9.7530    -2.4810 H     1 <1>   0.1500 
@<TRIPOS>BOND
  1   1   2  1   
  2   1   3  1   
  3   2   4  2   
  4   3   5  2   
  5   3   6  1   
  6   4   5  1   
  7   4   7  1   
  8   5  23  1   
  9   6   8  1   
 10   6  24  1   
 11   6  25  1   
 12   7  26  1   
 13   7  27  1   
 14   7  28  1   
 15   8   9  1   
 16   8  10  1   
 17   8  29  1   
 18   9  11  1   
 19   9  12  1   
 20   9  30  1   
 21  10  13  1   
 22  10  31  1   
 23  10  32  1   
 24  11  33  1   
 25  12  13  1   
 26  12  34  1   
 27  12  35  1   
 28  13  14  1   
 29  13  36  1   
 30  14  15  1   
 31  14  37  1   
 32  14  38  1   
 33  15  16  ar  
 34  15  17  ar  
 35  16  18  ar  
 36  16  19  1   
 37  17  20  ar  
 38  17  21  1   
 39  18  22  ar  
 40  18  39  1   
 41  19  40  1   
 42  19  41  1   
 43  19  42  1   
 44  20  22  ar  
 45  20  43  1   
 46  21  44  1   
 47  21  45  1   
 48  21  46  1   
 49  22  47  1   
@<TRIPOS>SUBSTRUCTURE
  1 ****  13 GROUP 4 **** **** 0

# MOE 2024.06 (io_trps.svl 2023.06)
