@<TRIPOS>MOLECULE
NONAME
49 51 1 0 0 
SMALL
USER_CHARGES


@<TRIPOS>ATOM
  1 O       -2.5940     1.4950    -2.7000 O.2   1 <1>  -0.5700 
  2 C       -2.2070     1.6140    -1.5510 C.2   1 <1>   0.7160 
  3 N       -2.6100     0.6810    -0.6180 N.am  1 <1>  -0.6600 
  4 C       -1.3720     2.7360    -1.2000 C.2   1 <1>  -0.0860 
  5 C       -3.3430    -0.5520    -1.0470 C.3   1 <1>   0.1400 
  6 C       -2.7400     0.9890     0.8340 C.3   1 <1>   0.1400 
  7 C       -0.2410     2.7120    -0.3800 C.2   1 <1>   0.1390 
  8 C       -1.4500     4.0430    -1.5770 C.2   1 <1>  -0.3020 
  9 C       -4.8630    -0.3320    -1.1320 C.3   1 <1>   0.1400 
 10 C       -3.8990     1.9580     1.1050 C.3   1 <1>  -0.1600 
 11 N        0.3130     3.8750    -0.2400 N.2   1 <1>  -0.7070 
 12 N       -0.4380     4.6990    -0.9920 N.pl3 1 <1>   0.3000 
 13 N       -5.4270     0.2430     0.1330 N.am  1 <1>  -0.6600 
 14 C       -5.1710     1.7020     0.2850 C.3   1 <1>   0.1400 
 15 C       -6.1610    -0.4440     1.0740 C.2   1 <1>   0.5690 
 16 O       -6.6170     0.1360     2.0360 O.2   1 <1>  -0.5700 
 17 C       -6.3990    -1.9620     0.9510 C.3   1 <1>   0.1240 
 18 C       -7.4060    -2.2840    -0.1580 C.ar  1 <1>  -0.1430 
 19 C       -6.8340    -2.6120     2.2860 C.3   1 <1>  -0.1600 
 20 C       -7.1440    -3.2940    -1.0740 C.ar  1 <1>  -0.1500 
 21 C       -8.5910    -1.5690    -0.2630 C.ar  1 <1>  -0.1500 
 22 C       -6.9140    -4.1450     2.2270 C.3   1 <1>  -0.2400 
 23 C       -8.0460    -3.5770    -2.0840 C.ar  1 <1>  -0.1500 
 24 C       -9.4940    -1.8510    -1.2730 C.ar  1 <1>  -0.1500 
 25 C       -9.2210    -2.8550    -2.1860 C.ar  1 <1>  -0.1500 
 26 H       -3.1350    -1.3510    -0.3580 H     1 <1>   0.0800 
 27 H       -2.9840    -0.8630    -2.0140 H     1 <1>   0.0800 
 28 H       -1.8250     1.4010     1.2200 H     1 <1>   0.0800 
 29 H       -2.9240     0.0740     1.3710 H     1 <1>   0.0800 
 30 H        0.1410     1.8190     0.0870 H     1 <1>   0.1500 
 31 H       -2.1680     4.5080    -2.2280 H     1 <1>   0.1500 
 32 H       -5.3380    -1.2630    -1.3740 H     1 <1>   0.0800 
 33 H       -5.0710     0.3370    -1.9490 H     1 <1>   0.0800 
 34 H       -3.5710     2.9650     0.9220 H     1 <1>   0.0800 
 35 H       -4.1510     1.8990     2.1490 H     1 <1>   0.0800 
 36 H       -0.2220     5.7000    -1.0850 H     1 <1>   0.2700 
 37 H       -5.0650     2.1490    -0.6890 H     1 <1>   0.0800 
 38 H       -6.0120     2.1750     0.7640 H     1 <1>   0.0800 
 39 H       -5.4520    -2.3950     0.6920 H     1 <1>   0.0800 
 40 H       -7.7960    -2.2210     2.5720 H     1 <1>   0.0800 
 41 H       -6.1320    -2.3330     3.0520 H     1 <1>   0.0800 
 42 H       -6.2380    -3.8700    -1.0050 H     1 <1>   0.1500 
 43 H       -8.8170    -0.7870     0.4420 H     1 <1>   0.1500 
 44 H       -7.6730    -4.4590     1.5310 H     1 <1>   0.0800 
 45 H       -7.1680    -4.5340     3.1970 H     1 <1>   0.0800 
 46 H       -5.9700    -4.5640     1.9270 H     1 <1>   0.0800 
 47 H       -7.8360    -4.3610    -2.7910 H     1 <1>   0.1500 
 48 H      -10.4080    -1.2890    -1.3470 H     1 <1>   0.1500 
 49 H       -9.9230    -3.0730    -2.9710 H     1 <1>   0.1500 
@<TRIPOS>BOND
  1   1   2  2   
  2   2   3  am  
  3   2   4  1   
  4   3   5  1   
  5   3   6  1   
  6   4   7  1   
  7   4   8  2   
  8   5   9  1   
  9   5  26  1   
 10   5  27  1   
 11   6  10  1   
 12   6  28  1   
 13   6  29  1   
 14   7  11  2   
 15   7  30  1   
 16   8  12  1   
 17   8  31  1   
 18   9  13  1   
 19   9  32  1   
 20   9  33  1   
 21  10  14  1   
 22  10  34  1   
 23  10  35  1   
 24  11  12  1   
 25  12  36  1   
 26  13  14  1   
 27  13  15  am  
 28  14  37  1   
 29  14  38  1   
 30  15  16  2   
 31  15  17  1   
 32  17  18  1   
 33  17  19  1   
 34  17  39  1   
 35  18  20  ar  
 36  18  21  ar  
 37  19  22  1   
 38  19  40  1   
 39  19  41  1   
 40  20  23  ar  
 41  20  42  1   
 42  21  24  ar  
 43  21  43  1   
 44  22  44  1   
 45  22  45  1   
 46  22  46  1   
 47  23  25  ar  
 48  23  47  1   
 49  24  25  ar  
 50  24  48  1   
 51  25  49  1   
@<TRIPOS>SUBSTRUCTURE
  1 ****  13 GROUP 4 **** **** 0

# MOE 2024.06 (io_trps.svl 2023.06)
