@<TRIPOS>MOLECULE
NONAME
51 53 1 0 0 
SMALL
USER_CHARGES


@<TRIPOS>ATOM
  1 F       -3.4910     0.2040     2.2980 F     1 <1>  -0.1900 
  2 C       -3.5150     0.7380     1.1020 C.ar  1 <1>   0.1900 
  3 C       -3.7500     2.1060     0.9770 C.ar  1 <1>   0.0820 
  4 C       -3.2980    -0.0920     0.0160 C.ar  1 <1>  -0.1440 
  5 O       -3.9830     2.8270     2.1070 O.3   1 <1>  -0.3630 
  6 C       -3.7400     2.6690    -0.3000 C.ar  1 <1>  -0.1500 
  7 C       -3.3020     0.5100    -1.2290 C.ar  1 <1>   0.1900 
  8 C       -3.0410    -1.5800     0.1800 C.3   1 <1>   0.4870 
  9 C       -4.1440     4.2290     2.0720 C.3   1 <1>   0.0400 
 10 C       -3.5140     1.8660    -1.4080 C.ar  1 <1>  -0.1500 
 11 F       -3.0930    -0.2280    -2.2880 F     1 <1>  -0.1900 
 12 N       -4.3060    -2.3620     0.2210 N.4   1 <1>  -0.9590 
 13 C       -5.1350    -2.2150    -1.0090 C.3   1 <1>   0.3430 
 14 C       -5.1430    -2.0970     1.4190 C.3   1 <1>   0.3430 
 15 C       -6.1610    -3.3560    -1.0270 C.3   1 <1>   0.2000 
 16 C       -6.2730    -3.1240     1.5060 C.3   1 <1>  -0.1600 
 17 O       -5.4130    -4.5290    -1.0010 O.3   1 <1>  -0.6800 
 18 C       -7.1090    -3.3310     0.2060 C.3   1 <1>  -0.1060 
 19 C       -7.8570    -4.6670     0.3390 C.2   1 <1>   0.9060 
 20 C       -8.2340    -2.2660     0.0520 C.3   1 <1>  -0.0160 
 21 O       -8.5490    -4.8480     1.3420 O.co2 1 <1>  -0.9000 
 22 O       -7.7300    -5.5310    -0.5390 O.co2 1 <1>  -0.9000 
 23 C       -7.8040    -0.8310    -0.2350 C.ar  1 <1>  -0.1440 
 24 C       -7.5190     0.0400     0.8040 C.ar  1 <1>  -0.1500 
 25 C       -7.7220    -0.3770    -1.5440 C.ar  1 <1>  -0.1500 
 26 C       -7.1120     1.3360     0.5400 C.ar  1 <1>  -0.1500 
 27 C       -7.3190     0.9200    -1.8100 C.ar  1 <1>  -0.1500 
 28 C       -7.0100     1.7760    -0.7670 C.ar  1 <1>  -0.1500 
 29 H       -3.9060     3.7200    -0.4500 H     1 <1>   0.1500 
 30 H       -2.4860    -1.7470     1.0890 H     1 <1>   0.0800 
 31 H       -2.4370    -1.9250    -0.6430 H     1 <1>   0.0800 
 32 H       -4.2820     4.5750     3.0810 H     1 <1>   0.0800 
 33 H       -5.0120     4.4700     1.4840 H     1 <1>   0.0800 
 34 H       -3.2580     4.6740     1.6540 H     1 <1>   0.0800 
 35 H       -3.5020     2.2870    -2.3990 H     1 <1>   0.1500 
 36 H       -4.1030    -3.3790     0.2200 H     1 <1>   0.4500 
 37 H       -5.6110    -1.2530    -1.0190 H     1 <1>   0.0800 
 38 H       -4.5190    -2.2970    -1.8880 H     1 <1>   0.0800 
 39 H       -4.5420    -2.1590     2.3120 H     1 <1>   0.0800 
 40 H       -5.5490    -1.1030     1.3600 H     1 <1>   0.0800 
 41 H       -6.7320    -3.3520    -1.9410 H     1 <1>   0.0800 
 42 H       -5.8300    -4.0680     1.7760 H     1 <1>   0.0800 
 43 H       -6.9300    -2.8640     2.3180 H     1 <1>   0.0800 
 44 H       -6.1010    -5.2640    -0.9320 H     1 <1>   0.4000 
 45 H       -8.8910    -2.5830    -0.7400 H     1 <1>   0.0800 
 46 H       -8.8390    -2.2680     0.9440 H     1 <1>   0.0800 
 47 H       -7.6170    -0.2860     1.8250 H     1 <1>   0.1500 
 48 H       -7.9750    -1.0300    -2.3620 H     1 <1>   0.1500 
 49 H       -6.8840     2.0050     1.3530 H     1 <1>   0.1500 
 50 H       -7.2540     1.2660    -2.8270 H     1 <1>   0.1500 
 51 H       -6.7010     2.7850    -0.9730 H     1 <1>   0.1500 
@<TRIPOS>BOND
  1   1   2  1   
  2   2   3  ar  
  3   2   4  ar  
  4   3   5  1   
  5   3   6  ar  
  6   4   7  ar  
  7   4   8  1   
  8   5   9  1   
  9   6  10  ar  
 10   6  29  1   
 11   7  10  ar  
 12   7  11  1   
 13   8  12  1   
 14   8  30  1   
 15   8  31  1   
 16   9  32  1   
 17   9  33  1   
 18   9  34  1   
 19  10  35  1   
 20  12  13  1   
 21  12  14  1   
 22  12  36  1   
 23  13  15  1   
 24  13  37  1   
 25  13  38  1   
 26  14  16  1   
 27  14  39  1   
 28  14  40  1   
 29  15  17  1   
 30  15  18  1   
 31  15  41  1   
 32  16  18  1   
 33  16  42  1   
 34  16  43  1   
 35  17  44  1   
 36  18  19  1   
 37  18  20  1   
 38  19  21  ar  
 39  19  22  ar  
 40  20  23  1   
 41  20  45  1   
 42  20  46  1   
 43  23  24  ar  
 44  23  25  ar  
 45  24  26  ar  
 46  24  47  1   
 47  25  27  ar  
 48  25  48  1   
 49  26  28  ar  
 50  26  49  1   
 51  27  28  ar  
 52  27  50  1   
 53  28  51  1   
@<TRIPOS>SUBSTRUCTURE
  1 ****  13 GROUP 4 **** **** 0

# MOE 2024.06 (io_trps.svl 2023.06)
