@<TRIPOS>MOLECULE
NONAME
57 61 1 0 0 
SMALL
USER_CHARGES


@<TRIPOS>ATOM
  1 S        0.1600    -0.4310     0.7650 S.o2  1 <1>   1.4470 
  2 O        0.8830    -0.4100     2.0170 O.2   1 <1>  -0.6500 
  3 O       -1.0360    -1.2310     0.6400 O.2   1 <1>  -0.6500 
  4 N        1.1840    -1.1410    -0.3620 N.am  1 <1>  -0.9140 
  5 C       -0.0880     1.2480     0.1260 C.ar  1 <1>  -0.0090 
  6 C        2.1370    -2.1090     0.1690 C.3   1 <1>   0.1960 
  7 C       -1.3520     1.7020    -0.2370 C.ar  1 <1>  -0.1500 
  8 C        0.9830     2.1220    -0.0170 C.ar  1 <1>  -0.1500 
  9 C        1.4580    -3.3760     0.7290 C.3   1 <1>  -0.0800 
 10 C       -1.5400     2.9830    -0.7280 C.ar  1 <1>  -0.1500 
 11 C        0.8040     3.4040    -0.5070 C.ar  1 <1>  -0.1500 
 12 C        0.8390    -4.2330    -0.3860 C.3   1 <1>   0.2000 
 13 C        2.4200    -4.4050     1.3720 C.3   1 <1>  -0.0800 
 14 C       -0.4600     3.8360    -0.8630 C.ar  1 <1>  -0.1500 
 15 O        1.9220    -5.0170    -0.7230 O.3   1 <1>  -0.5600 
 16 C       -0.1250    -5.2830     0.1840 C.3   1 <1>  -0.1600 
 17 C        2.1800    -5.6240     0.4920 C.3   1 <1>   0.2800 
 18 C        3.9430    -4.1790     1.3030 C.3   1 <1>   0.3430 
 19 C        0.8440    -6.3040     0.7900 C.3   1 <1>  -0.1600 
 20 C        3.4960    -6.3970     0.4770 C.3   1 <1>   0.3430 
 21 N        4.5520    -5.3420     0.5670 N.4   1 <1>  -0.9590 
 22 C        5.0090    -4.9370    -0.7960 C.3   1 <1>   0.4860 
 23 C        6.0470    -3.8470    -0.6410 C.ar  1 <1>  -0.1430 
 24 C        5.7760    -2.5640    -1.0900 C.ar  1 <1>  -0.1500 
 25 C        7.2630    -4.1060    -0.0250 C.ar  1 <1>  -0.1500 
 26 C        6.6890    -1.5490    -0.8810 C.ar  1 <1>  -0.1500 
 27 C        8.1700    -3.0830     0.1750 C.ar  1 <1>  -0.1500 
 28 C        7.9020    -1.7760    -0.2320 C.ar  1 <1>  -0.1790 
 29 C        8.8460    -0.6930     0.0130 C.2   1 <1>   0.9790 
 30 O        8.5180     0.4850    -0.2180 O.co2 1 <1>  -0.9000 
 31 O        9.9760    -0.9300     0.4740 O.co2 1 <1>  -0.9000 
 32 H        0.5480    -1.5960    -1.0140 H     1 <1>   0.4200 
 33 H        2.8020    -2.3900    -0.6290 H     1 <1>   0.0800 
 34 H        2.7280    -1.6330     0.9350 H     1 <1>   0.0800 
 35 H       -2.2010     1.0470    -0.1360 H     1 <1>   0.1500 
 36 H        1.9730     1.7950     0.2590 H     1 <1>   0.1500 
 37 H        0.7090    -3.0990     1.4500 H     1 <1>   0.0800 
 38 H       -2.5260     3.3160    -1.0040 H     1 <1>   0.1500 
 39 H        1.6480     4.0660    -0.6090 H     1 <1>   0.1500 
 40 H        0.4580    -3.6930    -1.2370 H     1 <1>   0.0800 
 41 H        2.1430    -4.6030     2.3930 H     1 <1>   0.0800 
 42 H       -0.6030     4.8330    -1.2440 H     1 <1>   0.1500 
 43 H       -0.7960    -4.8570     0.9100 H     1 <1>   0.0800 
 44 H       -0.7020    -5.7230    -0.6110 H     1 <1>   0.0800 
 45 H        4.3400    -4.1320     2.3040 H     1 <1>   0.0800 
 46 H        4.1830    -3.2510     0.8130 H     1 <1>   0.0800 
 47 H        0.7750    -7.2480     0.2770 H     1 <1>   0.0800 
 48 H        0.6830    -6.4520     1.8440 H     1 <1>   0.0800 
 49 H        3.5850    -6.9990    -0.4120 H     1 <1>   0.0800 
 50 H        3.5400    -7.0300     1.3470 H     1 <1>   0.0800 
 51 H        5.3840    -5.6660     1.0740 H     1 <1>   0.4500 
 52 H        5.4440    -5.7770    -1.3120 H     1 <1>   0.0800 
 53 H        4.1760    -4.5710    -1.3760 H     1 <1>   0.0800 
 54 H        4.8600    -2.3310    -1.6020 H     1 <1>   0.1500 
 55 H        7.5270    -5.0930     0.3090 H     1 <1>   0.1500 
 56 H        6.4750    -0.5470    -1.2210 H     1 <1>   0.1500 
 57 H        9.1140    -3.2790     0.6580 H     1 <1>   0.1500 
@<TRIPOS>BOND
  1   1   2  2   
  2   1   3  2   
  3   1   4  am  
  4   1   5  1   
  5   4   6  1   
  6   4  32  1   
  7   5   7  ar  
  8   5   8  ar  
  9   6   9  1   
 10   6  33  1   
 11   6  34  1   
 12   7  10  ar  
 13   7  35  1   
 14   8  11  ar  
 15   8  36  1   
 16   9  12  1   
 17   9  13  1   
 18   9  37  1   
 19  10  14  ar  
 20  10  38  1   
 21  11  14  ar  
 22  11  39  1   
 23  12  15  1   
 24  12  16  1   
 25  12  40  1   
 26  13  17  1   
 27  13  18  1   
 28  13  41  1   
 29  14  42  1   
 30  15  17  1   
 31  16  19  1   
 32  16  43  1   
 33  16  44  1   
 34  17  19  1   
 35  17  20  1   
 36  18  21  1   
 37  18  45  1   
 38  18  46  1   
 39  19  47  1   
 40  19  48  1   
 41  20  21  1   
 42  20  49  1   
 43  20  50  1   
 44  21  22  1   
 45  21  51  1   
 46  22  23  1   
 47  22  52  1   
 48  22  53  1   
 49  23  24  ar  
 50  23  25  ar  
 51  24  26  ar  
 52  24  54  1   
 53  25  27  ar  
 54  25  55  1   
 55  26  28  ar  
 56  26  56  1   
 57  27  28  ar  
 58  27  57  1   
 59  28  29  1   
 60  29  30  ar  
 61  29  31  ar  
@<TRIPOS>SUBSTRUCTURE
  1 ****   6 GROUP 4 **** **** 0

# MOE 2024.06 (io_trps.svl 2023.06)
