@<TRIPOS>MOLECULE
NONAME
47 48 1 0 0 
SMALL
USER_CHARGES


@<TRIPOS>ATOM
  1 F        0.9850    -3.0800    -1.7200 F     1 <1>  -0.1900 
  2 C       -0.0380    -3.5320    -1.0390 C.ar  1 <1>   0.1900 
  3 C       -0.1780    -3.2980     0.3340 C.ar  1 <1>   0.0830 
  4 C       -0.9780    -4.2520    -1.7490 C.ar  1 <1>  -0.1500 
  5 O        0.6780    -2.6040     1.1400 O.3   1 <1>  -0.3630 
  6 C       -1.2980    -3.8170     0.9620 C.ar  1 <1>  -0.1500 
  7 C       -2.0860    -4.7540    -1.0910 C.ar  1 <1>  -0.1500 
  8 C        1.8980    -2.0650     0.6820 C.3   1 <1>   0.0400 
  9 C       -2.2700    -4.5520     0.2790 C.ar  1 <1>   0.0530 
 10 C       -3.4230    -5.0740     0.9740 C.2   1 <1>   0.0870 
 11 O       -3.8970    -4.4490     2.0220 O.3   1 <1>  -0.0190 
 12 C       -4.2100    -6.1620     0.7800 C.2   1 <1>  -0.2330 
 13 N       -4.9460    -5.0400     2.5300 N.2   1 <1>  -0.4100 
 14 C       -5.1680    -6.0810     1.8010 C.2   1 <1>   0.3720 
 15 C       -4.0900    -7.1550    -0.2300 C.2   1 <1>   1.0330 
 16 N       -6.2450    -6.9620     2.0850 N.pl3 1 <1>  -0.8210 
 17 O       -4.6620    -7.0140    -1.3240 O.co2 1 <1>  -0.9000 
 18 O       -3.5320    -8.2460    -0.0200 O.co2 1 <1>  -0.9000 
 19 C       -6.8090    -7.8070     0.9920 C.3   1 <1>   0.2090 
 20 C       -7.2560    -6.4730     3.0690 C.3   1 <1>   0.1290 
 21 C       -6.1510    -9.2000     1.0560 C.3   1 <1>   0.3430 
 22 N       -6.4390   -10.1240    -0.1010 N.4   1 <1>  -0.9590 
 23 C       -5.6730   -11.3710     0.1300 C.3   1 <1>   0.3430 
 24 C       -5.9900    -9.5090    -1.3980 C.3   1 <1>   0.2630 
 25 C       -6.2080   -12.4820    -0.7660 C.3   1 <1>  -0.2400 
 26 H       -0.8480    -4.4190    -2.8030 H     1 <1>   0.1500 
 27 H       -1.4180    -3.6490     2.0170 H     1 <1>   0.1500 
 28 H       -2.8190    -5.3050    -1.6540 H     1 <1>   0.1500 
 29 H        2.3930    -1.6030     1.5170 H     1 <1>   0.0800 
 30 H        1.6930    -1.3280    -0.0740 H     1 <1>   0.0800 
 31 H        2.5070    -2.8610     0.2920 H     1 <1>   0.0800 
 32 H       -6.6410    -7.3250     0.0480 H     1 <1>   0.0800 
 33 H       -7.8720    -7.9100     1.1200 H     1 <1>   0.0800 
 34 H       -6.7650    -6.1650     3.9770 H     1 <1>   0.0800 
 35 H       -7.9560    -7.2520     3.3130 H     1 <1>   0.0800 
 36 H       -7.7850    -5.6290     2.6590 H     1 <1>   0.0800 
 37 H       -6.4760    -9.6690     1.9680 H     1 <1>   0.0800 
 38 H       -5.0890    -9.0660     1.1430 H     1 <1>   0.0800 
 39 H       -7.4420   -10.3280    -0.1420 H     1 <1>   0.4500 
 40 H       -5.7720   -11.6720     1.1600 H     1 <1>   0.0800 
 41 H       -4.6250   -11.1950    -0.0680 H     1 <1>   0.0800 
 42 H       -4.9210    -9.3630    -1.3930 H     1 <1>   0.0800 
 43 H       -6.4500    -8.5470    -1.5520 H     1 <1>   0.0800 
 44 H       -6.2400   -10.1440    -2.2300 H     1 <1>   0.0800 
 45 H       -7.2550   -12.6480    -0.5850 H     1 <1>   0.0800 
 46 H       -5.6820   -13.3930    -0.5440 H     1 <1>   0.0800 
 47 H       -6.0480   -12.2570    -1.8040 H     1 <1>   0.0800 
@<TRIPOS>BOND
  1   1   2  1   
  2   2   3  ar  
  3   2   4  ar  
  4   3   5  1   
  5   3   6  ar  
  6   4   7  ar  
  7   4  26  1   
  8   5   8  1   
  9   6   9  ar  
 10   6  27  1   
 11   7   9  ar  
 12   7  28  1   
 13   8  29  1   
 14   8  30  1   
 15   8  31  1   
 16   9  10  1   
 17  10  11  1   
 18  10  12  2   
 19  11  13  1   
 20  12  14  1   
 21  12  15  1   
 22  13  14  2   
 23  14  16  1   
 24  15  17  ar  
 25  15  18  ar  
 26  16  19  1   
 27  16  20  1   
 28  19  21  1   
 29  19  32  1   
 30  19  33  1   
 31  20  34  1   
 32  20  35  1   
 33  20  36  1   
 34  21  22  1   
 35  21  37  1   
 36  21  38  1   
 37  22  23  1   
 38  22  24  1   
 39  22  39  1   
 40  23  25  1   
 41  23  40  1   
 42  23  41  1   
 43  24  42  1   
 44  24  43  1   
 45  24  44  1   
 46  25  45  1   
 47  25  46  1   
 48  25  47  1   
@<TRIPOS>SUBSTRUCTURE
  1 ****  12 GROUP 4 **** **** 0

# MOE 2024.06 (io_trps.svl 2023.06)
