@<TRIPOS>MOLECULE
NONAME
50 52 1 0 0 
SMALL
USER_CHARGES


@<TRIPOS>ATOM
  1 F       -1.4350    -0.3950     0.8470 F     1 <1>  -0.1900 
  2 C       -1.6120    -1.6920     0.7990 C.ar  1 <1>   0.1900 
  3 C       -0.5570    -2.5750     0.5420 C.ar  1 <1>   0.0820 
  4 C       -2.8970    -2.1450     1.0200 C.ar  1 <1>  -0.1500 
  5 O        0.7480    -2.2510     0.3100 O.3   1 <1>  -0.3630 
  6 C       -0.8470    -3.9300     0.5160 C.ar  1 <1>  -0.1500 
  7 C       -3.1510    -3.5040     0.9880 C.ar  1 <1>  -0.1500 
  8 C        1.2070    -0.9200     0.2320 C.3   1 <1>   0.0400 
  9 C       -2.1350    -4.4280     0.7320 C.ar  1 <1>   0.0530 
 10 C       -2.3940    -5.8480     0.6980 C.2   1 <1>   0.0870 
 11 O       -1.4370    -6.7030     0.9720 O.3   1 <1>  -0.0190 
 12 C       -3.5010    -6.5800     0.4210 C.2   1 <1>  -0.2330 
 13 N       -1.8360    -7.9480     0.9120 N.2   1 <1>  -0.4100 
 14 C       -3.0790    -7.9020     0.5930 C.2   1 <1>   0.3720 
 15 C       -4.7930    -6.1460     0.0140 C.2   1 <1>   1.0330 
 16 N       -3.7950    -9.0940     0.4840 N.pl3 1 <1>  -0.8520 
 17 O       -5.1140    -6.1310    -1.1880 O.co2 1 <1>  -0.9000 
 18 O       -5.6910    -5.9010     0.8370 O.co2 1 <1>  -0.9000 
 19 C       -4.8880    -9.2030    -0.5240 C.3   1 <1>   0.2090 
 20 C       -6.2670    -8.9350     0.1300 C.3   1 <1>   0.1900 
 21 N       -7.0100   -10.1760     0.5410 N.3   1 <1>  -0.8100 
 22 C       -7.1280    -8.0460    -0.8090 C.3   1 <1>   0.3430 
 23 C       -8.2650    -9.7800     1.2320 C.3   1 <1>   0.1100 
 24 C       -6.2050   -11.0170     1.4440 C.3   1 <1>   0.0300 
 25 N       -8.5560    -8.5020    -0.9060 N.4   1 <1>  -0.9590 
 26 C       -9.0740    -8.6920     0.4810 C.3   1 <1>   0.3430 
 27 C       -9.3470    -7.5410    -1.7180 C.3   1 <1>   0.2630 
 28 H       -3.6900    -1.4460     1.2150 H     1 <1>   0.1500 
 29 H       -0.0470    -4.6190     0.3180 H     1 <1>   0.1500 
 30 H       -4.1540    -3.8510     1.1710 H     1 <1>   0.1500 
 31 H        2.2580    -0.9410     0.0060 H     1 <1>   0.0800 
 32 H        1.0480    -0.4390     1.1810 H     1 <1>   0.0800 
 33 H        0.6750    -0.4120    -0.5530 H     1 <1>   0.0800 
 34 H       -3.1230    -9.8620     0.4180 H     1 <1>   0.4000 
 35 H       -4.8840   -10.1840    -0.9650 H     1 <1>   0.0800 
 36 H       -4.6940    -8.5020    -1.3170 H     1 <1>   0.0800 
 37 H       -6.0840    -8.3490     1.0150 H     1 <1>   0.0800 
 38 H       -6.6800    -8.0230    -1.7880 H     1 <1>   0.0800 
 39 H       -7.1020    -7.0350    -0.4380 H     1 <1>   0.0800 
 40 H       -8.0360    -9.4070     2.2170 H     1 <1>   0.0800 
 41 H       -8.8830   -10.6520     1.3540 H     1 <1>   0.0800 
 42 H       -5.3550   -11.4210     0.9230 H     1 <1>   0.0800 
 43 H       -6.7940   -11.8430     1.8070 H     1 <1>   0.0800 
 44 H       -5.8510   -10.4410     2.2830 H     1 <1>   0.0800 
 45 H       -8.5040    -9.4410    -1.3230 H     1 <1>   0.4500 
 46 H       -8.9910    -7.7630     1.0230 H     1 <1>   0.0800 
 47 H      -10.1140    -8.9730     0.4600 H     1 <1>   0.0800 
 48 H       -9.3330    -6.5670    -1.2550 H     1 <1>   0.0800 
 49 H      -10.3680    -7.8730    -1.8060 H     1 <1>   0.0800 
 50 H       -8.9220    -7.4530    -2.7050 H     1 <1>   0.0800 
@<TRIPOS>BOND
  1   1   2  1   
  2   2   3  ar  
  3   2   4  ar  
  4   3   5  1   
  5   3   6  ar  
  6   4   7  ar  
  7   4  28  1   
  8   5   8  1   
  9   6   9  ar  
 10   6  29  1   
 11   7   9  ar  
 12   7  30  1   
 13   8  31  1   
 14   8  32  1   
 15   8  33  1   
 16   9  10  1   
 17  10  11  1   
 18  10  12  2   
 19  11  13  1   
 20  12  14  1   
 21  12  15  1   
 22  13  14  2   
 23  14  16  1   
 24  15  17  ar  
 25  15  18  ar  
 26  16  19  1   
 27  16  34  1   
 28  19  20  1   
 29  19  35  1   
 30  19  36  1   
 31  20  21  1   
 32  20  22  1   
 33  20  37  1   
 34  21  23  1   
 35  21  24  1   
 36  22  25  1   
 37  22  38  1   
 38  22  39  1   
 39  23  26  1   
 40  23  40  1   
 41  23  41  1   
 42  24  42  1   
 43  24  43  1   
 44  24  44  1   
 45  25  26  1   
 46  25  27  1   
 47  25  45  1   
 48  26  46  1   
 49  26  47  1   
 50  27  48  1   
 51  27  49  1   
 52  27  50  1   
@<TRIPOS>SUBSTRUCTURE
  1 ****  12 GROUP 4 **** **** 0

# MOE 2024.06 (io_trps.svl 2023.06)
