@<TRIPOS>MOLECULE
NONAME
27 28 1 0 0 
SMALL
USER_CHARGES


@<TRIPOS>ATOM
  1 O        0.1390     0.0950     0.1950 O.3   1 <1>  -0.5600 
  2 C        1.1050     0.5800    -0.6780 C.3   1 <1>   0.1200 
  3 C        0.0510    -1.3000     0.3050 C.3   1 <1>   0.1200 
  4 C        2.4800     0.3370    -0.0260 C.3   1 <1>   0.0000 
  5 C        1.4210    -1.9860     0.1260 C.3   1 <1>  -0.1600 
  6 C        2.5740    -1.0790     0.5970 C.3   1 <1>  -0.0800 
  7 C        3.5920     0.3480    -1.0730 C.3   1 <1>   0.3430 
  8 C        2.7300     1.4270     1.0440 C.3   1 <1>   0.1200 
  9 C        3.9440    -1.6320     0.1880 C.3   1 <1>   0.3430 
 10 N        4.6410    -0.5050    -0.4730 N.4   1 <1>  -0.9060 
 11 O        4.0270     1.3360     1.5540 O.3   1 <1>  -0.6800 
 12 H        0.9970     0.0700    -1.6200 H     1 <1>   0.0800 
 13 H        0.9180     1.6300    -0.8300 H     1 <1>   0.0800 
 14 H       -0.3480    -1.5100     1.2830 H     1 <1>   0.0800 
 15 H       -0.6520    -1.6530    -0.4310 H     1 <1>   0.0800 
 16 H        1.4220    -2.9150     0.6700 H     1 <1>   0.0800 
 17 H        1.5400    -2.2310    -0.9160 H     1 <1>   0.0800 
 18 H        2.5250    -1.0160     1.6710 H     1 <1>   0.0800 
 19 H        3.9510     1.3480    -1.2610 H     1 <1>   0.0800 
 20 H        3.2410    -0.0940    -1.9910 H     1 <1>   0.0800 
 21 H        2.0340     1.3150     1.8600 H     1 <1>   0.0800 
 22 H        2.6090     2.4120     0.6250 H     1 <1>   0.0800 
 23 H        3.8180    -2.4460    -0.5070 H     1 <1>   0.0800 
 24 H        4.4960    -1.9790     1.0480 H     1 <1>   0.0800 
 25 H        5.3910    -0.7810    -1.1160 H     1 <1>   0.4500 
 26 H        5.0360     0.0770     0.2900 H     1 <1>   0.4500 
 27 H        4.1350     1.9640     2.3040 H     1 <1>   0.4000 
@<TRIPOS>BOND
  1   1   2  1   
  2   1   3  1   
  3   2   4  1   
  4   2  12  1   
  5   2  13  1   
  6   3   5  1   
  7   3  14  1   
  8   3  15  1   
  9   4   6  1   
 10   4   7  1   
 11   4   8  1   
 12   5   6  1   
 13   5  16  1   
 14   5  17  1   
 15   6   9  1   
 16   6  18  1   
 17   7  10  1   
 18   7  19  1   
 19   7  20  1   
 20   8  11  1   
 21   8  21  1   
 22   8  22  1   
 23   9  10  1   
 24   9  23  1   
 25   9  24  1   
 26  10  25  1   
 27  10  26  1   
 28  11  27  1   
@<TRIPOS>SUBSTRUCTURE
  1 ****   4 GROUP 4 **** **** 0

# MOE 2024.06 (io_trps.svl 2023.06)
