@<TRIPOS>MOLECULE
NONAME
37 38 1 0 0 
SMALL
USER_CHARGES


@<TRIPOS>ATOM
  1 S        0.7590    -0.3280    -1.6750 S.3   1 <1>  -0.0800 
  2 C        0.5710    -1.2990    -0.2090 C.2   1 <1>   0.4420 
  3 C        0.8000     1.1240    -0.7030 C.ar  1 <1>   0.0400 
  4 N        0.5460    -0.6160     0.8700 N.2   1 <1>  -0.5650 
  5 N        0.4700    -2.6660    -0.2620 N.am  1 <1>  -0.4940 
  6 C        0.6720     0.7520     0.6230 C.ar  1 <1>   0.2270 
  7 C        0.9350     2.4320    -1.1340 C.ar  1 <1>  -0.1500 
  8 C        0.4420    -3.5550    -1.3010 C.2   1 <1>   0.5690 
  9 C        0.6850     1.7920     1.5520 C.ar  1 <1>   0.1900 
 10 C        0.9440     3.4370    -0.1780 C.ar  1 <1>  -0.1500 
 11 O        0.4580    -3.2270    -2.4610 O.2   1 <1>  -0.5700 
 12 C        0.3720    -5.0560    -0.9660 C.3   1 <1>   0.2810 
 13 F        0.5700     1.5220     2.8260 F     1 <1>  -0.1900 
 14 C        0.8180     3.1170     1.1710 C.ar  1 <1>  -0.1500 
 15 N       -0.1980    -5.3200     0.3900 N.am  1 <1>  -0.7300 
 16 C        1.7650    -5.7020    -1.0500 C.3   1 <1>  -0.1600 
 17 C       -1.4920    -5.2780     0.7720 C.2   1 <1>   0.5690 
 18 C        1.7460    -7.2280    -0.8540 C.3   1 <1>  -0.1600 
 19 O       -1.7910    -5.6020     1.8890 O.2   1 <1>  -0.5700 
 20 C       -2.5710    -4.8210    -0.1810 C.3   1 <1>  -0.1790 
 21 C        3.1500    -7.8170    -1.0180 C.3   1 <1>  -0.2400 
 22 H        0.3650    -3.0880     0.6600 H     1 <1>   0.3700 
 23 H        1.0310     2.6540    -2.1830 H     1 <1>   0.1500 
 24 H        1.0470     4.4670    -0.4790 H     1 <1>   0.1500 
 25 H       -0.2610    -5.5200    -1.7020 H     1 <1>   0.0800 
 26 H        0.8240     3.8890     1.9200 H     1 <1>   0.1500 
 27 H        0.4460    -5.7280     1.0720 H     1 <1>   0.3700 
 28 H        2.4170    -5.2440    -0.3270 H     1 <1>   0.0800 
 29 H        2.1710    -5.4890    -2.0250 H     1 <1>   0.0800 
 30 H        1.0890    -7.6790    -1.5790 H     1 <1>   0.0800 
 31 H        1.3780    -7.4790     0.1260 H     1 <1>   0.0800 
 32 H       -2.3850    -3.8120    -0.4960 H     1 <1>   0.0800 
 33 H       -3.5240    -4.8560     0.3140 H     1 <1>   0.0800 
 34 H       -2.6050    -5.4690    -1.0360 H     1 <1>   0.0800 
 35 H        3.5340    -7.6130    -2.0020 H     1 <1>   0.0800 
 36 H        3.1190    -8.8840    -0.8800 H     1 <1>   0.0800 
 37 H        3.8230    -7.4000    -0.2890 H     1 <1>   0.0800 
@<TRIPOS>BOND
  1   1   2  1   
  2   1   3  1   
  3   2   4  2   
  4   2   5  1   
  5   3   6  ar  
  6   3   7  ar  
  7   4   6  1   
  8   5   8  am  
  9   5  22  1   
 10   6   9  ar  
 11   7  10  ar  
 12   7  23  1   
 13   8  11  2   
 14   8  12  1   
 15   9  13  1   
 16   9  14  ar  
 17  10  14  ar  
 18  10  24  1   
 19  12  15  1   
 20  12  16  1   
 21  12  25  1   
 22  14  26  1   
 23  15  17  am  
 24  15  27  1   
 25  16  18  1   
 26  16  28  1   
 27  16  29  1   
 28  17  19  2   
 29  17  20  1   
 30  18  21  1   
 31  18  30  1   
 32  18  31  1   
 33  20  32  1   
 34  20  33  1   
 35  20  34  1   
 36  21  35  1   
 37  21  36  1   
 38  21  37  1   
@<TRIPOS>SUBSTRUCTURE
  1 ****   5 GROUP 4 **** **** 0

# MOE 2024.06 (io_trps.svl 2023.06)
