@<TRIPOS>MOLECULE
NONAME
59 63 1 0 0 
SMALL
USER_CHARGES


@<TRIPOS>ATOM
  1 O       -2.5940     1.0590    -2.5220 O.2   1 <1>  -0.5700 
  2 C       -2.2330     1.0990    -1.3680 C.2   1 <1>   0.5690 
  3 N       -2.0140    -0.0510    -0.6790 N.am  1 <1>  -0.7300 
  4 C       -2.0440     2.4460    -0.6410 C.3   1 <1>   0.0610 
  5 C       -2.1880    -1.4190    -1.2150 C.3   1 <1>   0.2200 
  6 C       -2.2880     3.6490    -1.5890 C.3   1 <1>  -0.1600 
  7 C       -0.6040     2.5630    -0.0810 C.3   1 <1>  -0.1600 
  8 C       -3.0420     2.5570     0.5390 C.3   1 <1>  -0.1600 
  9 C       -3.4850    -2.0410    -0.7150 C.3   1 <1>  -0.0800 
 10 C       -1.1680    -2.3340    -0.5540 C.3   1 <1>   0.1200 
 11 C       -2.1050     4.9930    -0.8550 C.3   1 <1>   0.0000 
 12 C       -0.4020     3.8930     0.6730 C.3   1 <1>   0.0000 
 13 C       -2.8570     3.8860     1.2910 C.3   1 <1>  -0.0800 
 14 C       -3.0940    -2.6000     0.6580 C.3   1 <1>   0.1200 
 15 C       -4.7140    -1.1120    -0.6960 C.3   1 <1>  -0.0160 
 16 O       -1.6960    -2.6110     0.7080 O.3   1 <1>  -0.5600 
 17 C       -0.6690     5.0610    -0.2980 C.3   1 <1>  -0.1600 
 18 C       -3.1000     5.0560     0.3210 C.3   1 <1>  -0.1600 
 19 C       -2.3530     6.1590    -1.8190 C.3   1 <1>  -0.2400 
 20 C       -1.4180     3.9670     1.8320 C.3   1 <1>  -0.1600 
 21 C        1.0280     3.9770     1.2190 C.3   1 <1>  -0.2400 
 22 C       -5.9580    -1.8650    -0.2530 C.ar  1 <1>  -0.1440 
 23 C       -6.4360    -1.7950     1.0410 C.ar  1 <1>  -0.1500 
 24 C       -6.6750    -2.6580    -1.1250 C.ar  1 <1>  -0.1500 
 25 C       -7.5710    -2.5070     1.3900 C.ar  1 <1>   0.1600 
 26 C       -7.8000    -3.3290    -0.6730 C.ar  1 <1>   0.1600 
 27 N       -8.2630    -3.2740     0.5650 N.ar  1 <1>  -0.6200 
 28 H       -1.7320    -0.0200     0.3030 H     1 <1>   0.3700 
 29 H       -2.1090    -1.4200    -2.2890 H     1 <1>   0.0800 
 30 H       -1.6060     3.5930    -2.4190 H     1 <1>   0.0800 
 31 H       -3.2850     3.5910    -1.9910 H     1 <1>   0.0800 
 32 H       -0.4010     1.7450     0.5870 H     1 <1>   0.0800 
 33 H        0.0970     2.4970    -0.8950 H     1 <1>   0.0800 
 34 H       -4.0490     2.4910     0.1650 H     1 <1>   0.0800 
 35 H       -2.8970     1.7420     1.2260 H     1 <1>   0.0800 
 36 H       -3.7100    -2.8800    -1.3500 H     1 <1>   0.0800 
 37 H       -0.1990    -1.8770    -0.4530 H     1 <1>   0.0800 
 38 H       -1.0830    -3.2640    -1.0900 H     1 <1>   0.0800 
 39 H       -3.5550     3.9430     2.1080 H     1 <1>   0.0800 
 40 H       -3.4580    -3.6030     0.7980 H     1 <1>   0.0800 
 41 H       -3.4420    -1.9710     1.4590 H     1 <1>   0.0800 
 42 H       -4.8720    -0.7100    -1.6820 H     1 <1>   0.0800 
 43 H       -4.5490    -0.2820    -0.0330 H     1 <1>   0.0800 
 44 H       -0.5240     5.9960     0.2140 H     1 <1>   0.0800 
 45 H        0.0360     5.0230    -1.1110 H     1 <1>   0.0800 
 46 H       -2.9870     5.9880     0.8460 H     1 <1>   0.0800 
 47 H       -4.1090     5.0120    -0.0510 H     1 <1>   0.0800 
 48 H       -2.2260     7.0990    -1.3140 H     1 <1>   0.0800 
 49 H       -3.3530     6.1150    -2.2130 H     1 <1>   0.0800 
 50 H       -1.6630     6.1190    -2.6430 H     1 <1>   0.0800 
 51 H       -1.2460     3.1610     2.5230 H     1 <1>   0.0800 
 52 H       -1.2900     4.8900     2.3700 H     1 <1>   0.0800 
 53 H        1.1750     4.9040     1.7450 H     1 <1>   0.0800 
 54 H        1.7410     3.9250     0.4160 H     1 <1>   0.0800 
 55 H        1.2210     3.1660     1.8990 H     1 <1>   0.0800 
 56 H       -5.9380    -1.1940     1.7790 H     1 <1>   0.1500 
 57 H       -6.3710    -2.7600    -2.1510 H     1 <1>   0.1500 
 58 H       -7.9290    -2.4410     2.4040 H     1 <1>   0.1500 
 59 H       -8.3460    -3.9440    -1.3680 H     1 <1>   0.1500 
@<TRIPOS>BOND
  1   1   2  2   
  2   2   3  am  
  3   2   4  1   
  4   3   5  1   
  5   3  28  1   
  6   4   6  1   
  7   4   7  1   
  8   4   8  1   
  9   5   9  1   
 10   5  10  1   
 11   5  29  1   
 12   6  11  1   
 13   6  30  1   
 14   6  31  1   
 15   7  12  1   
 16   7  32  1   
 17   7  33  1   
 18   8  13  1   
 19   8  34  1   
 20   8  35  1   
 21   9  14  1   
 22   9  15  1   
 23   9  36  1   
 24  10  16  1   
 25  10  37  1   
 26  10  38  1   
 27  11  17  1   
 28  11  18  1   
 29  11  19  1   
 30  12  17  1   
 31  12  20  1   
 32  12  21  1   
 33  13  18  1   
 34  13  20  1   
 35  13  39  1   
 36  14  16  1   
 37  14  40  1   
 38  14  41  1   
 39  15  22  1   
 40  15  42  1   
 41  15  43  1   
 42  17  44  1   
 43  17  45  1   
 44  18  46  1   
 45  18  47  1   
 46  19  48  1   
 47  19  49  1   
 48  19  50  1   
 49  20  51  1   
 50  20  52  1   
 51  21  53  1   
 52  21  54  1   
 53  21  55  1   
 54  22  23  ar  
 55  22  24  ar  
 56  23  25  ar  
 57  23  56  1   
 58  24  26  ar  
 59  24  57  1   
 60  25  27  ar  
 61  25  58  1   
 62  26  27  ar  
 63  26  59  1   
@<TRIPOS>SUBSTRUCTURE
  1 ****   2 GROUP 4 **** **** 0

# MOE 2024.06 (io_trps.svl 2023.06)
