@<TRIPOS>MOLECULE
NONAME
38 39 1 0 0 
SMALL
USER_CHARGES


@<TRIPOS>ATOM
  1 S       -1.0350    -0.1190    -0.4420 S.3   1 <1>  -0.0800 
  2 C       -0.8690    -1.1650     0.9270 C.2   1 <1>   0.4420 
  3 C       -0.2640     1.1160     0.4970 C.2   1 <1>   0.1980 
  4 N       -0.2880    -0.5840     1.9150 N.2   1 <1>  -0.3380 
  5 N       -1.3620    -2.4420     0.7730 N.am  1 <1>  -0.4940 
  6 N        0.0520     0.7170     1.6630 N.2   1 <1>  -0.3380 
  7 C       -0.0380     2.4880    -0.1290 C.3   1 <1>   0.3800 
  8 C       -1.4270    -3.5020     1.6450 C.2   1 <1>   0.5440 
  9 O       -1.2060     2.9020    -0.7810 O.3   1 <1>  -0.5600 
 10 C        1.0990     2.4590    -1.1540 C.3   1 <1>  -0.2400 
 11 O       -1.0270    -3.3450     2.7800 O.2   1 <1>  -0.5700 
 12 C       -1.9460    -4.7970     1.2390 C.ar  1 <1>   0.0860 
 13 C       -1.4220     4.2790    -0.8080 C.3   1 <1>   0.0400 
 14 C       -2.6710    -5.0350     0.0540 C.ar  1 <1>   0.3930 
 15 C       -1.7270    -5.9040     2.0570 C.ar  1 <1>  -0.1500 
 16 O       -2.9240    -3.9950    -0.7760 O.3   1 <1>  -0.3620 
 17 N       -3.1440    -6.2150    -0.3360 N.ar  1 <1>  -0.6200 
 18 C       -2.2140    -7.1270     1.6660 C.ar  1 <1>  -0.1500 
 19 C       -3.6800    -4.1370    -1.9670 C.3   1 <1>   0.0400 
 20 C       -2.9080    -7.2360     0.4750 C.ar  1 <1>   0.3930 
 21 O       -3.3610    -8.4570     0.1390 O.3   1 <1>  -0.3630 
 22 C       -4.0850    -8.6740    -1.0560 C.3   1 <1>   0.0400 
 23 H       -1.7950    -2.6230    -0.1320 H     1 <1>   0.3700 
 24 H        0.1890     3.1820     0.6620 H     1 <1>   0.0800 
 25 H        0.8460     1.8070    -1.9700 H     1 <1>   0.0800 
 26 H        1.9940     2.0910    -0.6850 H     1 <1>   0.0800 
 27 H        1.2950     3.4450    -1.5300 H     1 <1>   0.0800 
 28 H       -2.3410     4.4610    -1.3380 H     1 <1>   0.0800 
 29 H       -0.6100     4.7640    -1.3190 H     1 <1>   0.0800 
 30 H       -1.5110     4.6450     0.2010 H     1 <1>   0.0800 
 31 H       -1.1840    -5.8040     2.9830 H     1 <1>   0.1500 
 32 H       -2.0660    -8.0040     2.2690 H     1 <1>   0.1500 
 33 H       -3.7530    -3.1750    -2.4410 H     1 <1>   0.0800 
 34 H       -4.6620    -4.4990    -1.7150 H     1 <1>   0.0800 
 35 H       -3.1800    -4.8330    -2.6170 H     1 <1>   0.0800 
 36 H       -4.3420    -9.7170    -1.1120 H     1 <1>   0.0800 
 37 H       -3.4670    -8.4000    -1.8920 H     1 <1>   0.0800 
 38 H       -4.9780    -8.0740    -1.0350 H     1 <1>   0.0800 
@<TRIPOS>BOND
  1   1   2  1   
  2   1   3  1   
  3   2   4  2   
  4   2   5  1   
  5   3   6  2   
  6   3   7  1   
  7   4   6  1   
  8   5   8  am  
  9   5  23  1   
 10   7   9  1   
 11   7  10  1   
 12   7  24  1   
 13   8  11  2   
 14   8  12  1   
 15   9  13  1   
 16  10  25  1   
 17  10  26  1   
 18  10  27  1   
 19  12  14  ar  
 20  12  15  ar  
 21  13  28  1   
 22  13  29  1   
 23  13  30  1   
 24  14  16  1   
 25  14  17  ar  
 26  15  18  ar  
 27  15  31  1   
 28  16  19  1   
 29  17  20  ar  
 30  18  20  ar  
 31  18  32  1   
 32  19  33  1   
 33  19  34  1   
 34  19  35  1   
 35  20  21  1   
 36  21  22  1   
 37  22  36  1   
 38  22  37  1   
 39  22  38  1   
@<TRIPOS>SUBSTRUCTURE
  1 ****   5 GROUP 4 **** **** 0

# MOE 2024.06 (io_trps.svl 2023.06)
