@<TRIPOS>MOLECULE
NONAME
57 59 1 0 0 
SMALL
USER_CHARGES


@<TRIPOS>ATOM
  1 S       -0.2660    -0.4660    -1.0290 S.o2  1 <1>   1.4470 
  2 O        0.2230     0.3520    -2.1210 O.2   1 <1>  -0.6500 
  3 O       -1.2830    -1.4600    -1.3110 O.2   1 <1>  -0.6500 
  4 N       -0.8760     0.5790     0.1680 N.am  1 <1>  -0.8490 
  5 C        1.1670    -1.2830    -0.2400 C.ar  1 <1>  -0.0090 
  6 C       -1.9690     0.0480     1.0010 C.3   1 <1>   0.1960 
  7 C       -1.1190     1.9640    -0.2280 C.3   1 <1>   0.1960 
  8 C        1.7760    -2.4260    -0.7780 C.ar  1 <1>  -0.1440 
  9 C        1.6900    -0.7610     0.9400 C.ar  1 <1>  -0.1500 
 10 C       -3.4070     0.3750     0.4790 C.3   1 <1>   0.0000 
 11 C       -2.3710     2.1110    -1.1080 C.3   1 <1>  -0.1600 
 12 C        2.8400    -3.0430    -0.1180 C.ar  1 <1>  -0.1440 
 13 C        1.2530    -2.9930    -2.1030 C.3   1 <1>  -0.0970 
 14 C        2.7600    -1.3380     1.5940 C.ar  1 <1>  -0.1430 
 15 C       -4.1900     1.2630     1.4710 C.3   1 <1>   0.2000 
 16 C       -3.3980     0.9770    -0.9450 C.3   1 <1>  -0.1600 
 17 C       -4.2570    -0.9050     0.5010 C.3   1 <1>  -0.1600 
 18 C        3.3420    -2.4740     1.0520 C.ar  1 <1>   0.0830 
 19 C        3.4560    -4.3410    -0.6470 C.3   1 <1>  -0.0970 
 20 C        3.2690    -0.7230     2.8900 C.3   1 <1>  -0.0970 
 21 O       -3.4050     2.2880     2.0080 O.3   1 <1>  -0.5600 
 22 C       -4.6870     0.3200     2.5730 C.3   1 <1>  -0.1600 
 23 C       -4.6890    -1.0860     1.9590 C.3   1 <1>  -0.1600 
 24 O        4.4030    -3.0230     1.6860 O.3   1 <1>  -0.3630 
 25 C       -4.1190     3.3140     2.6210 C.3   1 <1>   0.0400 
 26 C        5.6730    -2.6020     1.2400 C.3   1 <1>   0.0400 
 27 H       -1.8420    -1.0160     1.1020 H     1 <1>   0.0800 
 28 H       -1.8490     0.4490     1.9920 H     1 <1>   0.0800 
 29 H       -1.2570     2.5470     0.6670 H     1 <1>   0.0800 
 30 H       -0.2580     2.3650    -0.7360 H     1 <1>   0.0800 
 31 H        1.2520     0.1240     1.3640 H     1 <1>   0.1500 
 32 H       -2.8340     3.0510    -0.8650 H     1 <1>   0.0800 
 33 H       -2.0680     2.1640    -2.1390 H     1 <1>   0.0800 
 34 H        1.9960    -3.5680    -2.6220 H     1 <1>   0.0800 
 35 H        0.9660    -2.2080    -2.7780 H     1 <1>   0.0800 
 36 H        0.3980    -3.6190    -1.9200 H     1 <1>   0.0800 
 37 H       -5.0320     1.7000     0.9610 H     1 <1>   0.0800 
 38 H       -3.1500     0.1990    -1.6450 H     1 <1>   0.0800 
 39 H       -4.3750     1.3330    -1.2180 H     1 <1>   0.0800 
 40 H       -5.1370    -0.7640    -0.1040 H     1 <1>   0.0800 
 41 H       -3.7250    -1.7620     0.1220 H     1 <1>   0.0800 
 42 H        2.6840    -5.0230    -0.9550 H     1 <1>   0.0800 
 43 H        4.0320    -4.8470     0.1060 H     1 <1>   0.0800 
 44 H        4.0970    -4.1290    -1.4830 H     1 <1>   0.0800 
 45 H        2.5510    -0.0370     3.3000 H     1 <1>   0.0800 
 46 H        4.1870    -0.1940     2.7080 H     1 <1>   0.0800 
 47 H        3.4500    -1.4940     3.6170 H     1 <1>   0.0800 
 48 H       -4.0210     0.3440     3.4180 H     1 <1>   0.0800 
 49 H       -5.6770     0.6010     2.8850 H     1 <1>   0.0800 
 50 H       -3.9770    -1.7070     2.4760 H     1 <1>   0.0800 
 51 H       -5.6600    -1.5470     2.0210 H     1 <1>   0.0800 
 52 H       -3.4130     4.0420     2.9820 H     1 <1>   0.0800 
 53 H       -4.6820     2.9180     3.4470 H     1 <1>   0.0800 
 54 H       -4.7730     3.7720     1.8990 H     1 <1>   0.0800 
 55 H        6.4190    -3.1020     1.8300 H     1 <1>   0.0800 
 56 H        5.7510    -1.5370     1.3670 H     1 <1>   0.0800 
 57 H        5.7830    -2.8620     0.2030 H     1 <1>   0.0800 
@<TRIPOS>BOND
  1   1   2  2   
  2   1   3  2   
  3   1   4  am  
  4   1   5  1   
  5   4   6  1   
  6   4   7  1   
  7   5   8  ar  
  8   5   9  ar  
  9   6  10  1   
 10   6  27  1   
 11   6  28  1   
 12   7  11  1   
 13   7  29  1   
 14   7  30  1   
 15   8  12  ar  
 16   8  13  1   
 17   9  14  ar  
 18   9  31  1   
 19  10  15  1   
 20  10  16  1   
 21  10  17  1   
 22  11  16  1   
 23  11  32  1   
 24  11  33  1   
 25  12  18  ar  
 26  12  19  1   
 27  13  34  1   
 28  13  35  1   
 29  13  36  1   
 30  14  18  ar  
 31  14  20  1   
 32  15  21  1   
 33  15  22  1   
 34  15  37  1   
 35  16  38  1   
 36  16  39  1   
 37  17  23  1   
 38  17  40  1   
 39  17  41  1   
 40  18  24  1   
 41  19  42  1   
 42  19  43  1   
 43  19  44  1   
 44  20  45  1   
 45  20  46  1   
 46  20  47  1   
 47  21  25  1   
 48  22  23  1   
 49  22  48  1   
 50  22  49  1   
 51  23  50  1   
 52  23  51  1   
 53  24  26  1   
 54  25  52  1   
 55  25  53  1   
 56  25  54  1   
 57  26  55  1   
 58  26  56  1   
 59  26  57  1   
@<TRIPOS>SUBSTRUCTURE
  1 ****   4 GROUP 4 **** **** 0

# MOE 2024.06 (io_trps.svl 2023.06)
