@<TRIPOS>MOLECULE
NONAME
44 45 1 0 0 
SMALL
USER_CHARGES


@<TRIPOS>ATOM
  1 O        0.3980    -1.5020    -1.0270 O.2   1 <1>  -0.5700 
  2 C        1.4270    -1.3530    -0.4150 C.2   1 <1>   0.5690 
  3 N        1.6020    -1.6890     0.8680 N.am  1 <1>  -0.7300 
  4 C        2.6720    -0.7140    -0.9810 C.3   1 <1>  -0.0190 
  5 C        2.9270    -1.3400     1.3870 C.3   1 <1>   0.1400 
  6 C        3.7500    -1.0360     0.1060 C.3   1 <1>   0.0000 
  7 C        2.3980     0.7780    -1.2270 C.3   1 <1>   0.1200 
  8 C        4.5210    -2.3080    -0.3310 C.3   1 <1>  -0.1600 
  9 C        4.7710     0.1010     0.3490 C.3   1 <1>  -0.1600 
 10 O        1.4250     0.9090    -2.2030 O.3   1 <1>  -0.6800 
 11 C        5.6670    -2.6950     0.6120 C.3   1 <1>   0.1400 
 12 C        5.8850    -0.3010     1.3220 C.3   1 <1>   0.1400 
 13 N        6.5570    -1.5240     0.8190 N.am  1 <1>  -0.6600 
 14 C        7.9030    -1.5440     0.5500 C.2   1 <1>   0.7800 
 15 O        8.6060    -0.5660     0.7140 O.2   1 <1>  -0.5700 
 16 O        8.4200    -2.6890     0.0950 O.3   1 <1>  -0.4300 
 17 C        9.7610    -2.9440    -0.2600 C.3   1 <1>   0.2800 
 18 C       10.1810    -2.0460    -1.4290 C.3   1 <1>  -0.2400 
 19 C        9.7810    -4.4040    -0.7150 C.3   1 <1>  -0.2400 
 20 C       10.6740    -2.7840     0.9610 C.3   1 <1>  -0.2400 
 21 H        0.8480    -2.0770     1.4420 H     1 <1>   0.3700 
 22 H        2.9230    -1.1730    -1.9200 H     1 <1>   0.0800 
 23 H        3.3330    -2.1510     1.9640 H     1 <1>   0.0800 
 24 H        2.8380    -0.4660     2.0100 H     1 <1>   0.0800 
 25 H        3.2760     1.2890    -1.5810 H     1 <1>   0.0800 
 26 H        2.0380     1.2580    -0.3320 H     1 <1>   0.0800 
 27 H        4.9500    -2.1480    -1.3060 H     1 <1>   0.0800 
 28 H        3.8450    -3.1410    -0.4150 H     1 <1>   0.0800 
 29 H        4.2810     0.9740     0.7420 H     1 <1>   0.0800 
 30 H        5.2340     0.3780    -0.5830 H     1 <1>   0.0800 
 31 H        0.6910     0.2730    -2.0300 H     1 <1>   0.4000 
 32 H        6.2090    -3.5220     0.1860 H     1 <1>   0.0800 
 33 H        5.2850    -3.0160     1.5650 H     1 <1>   0.0800 
 34 H        5.4810    -0.4980     2.3000 H     1 <1>   0.0800 
 35 H        6.5890     0.5100     1.4130 H     1 <1>   0.0800 
 36 H        9.4760    -2.1290    -2.2360 H     1 <1>   0.0800 
 37 H       11.1500    -2.3410    -1.7890 H     1 <1>   0.0800 
 38 H       10.2490    -1.0180    -1.1240 H     1 <1>   0.0800 
 39 H        9.1260    -4.5420    -1.5570 H     1 <1>   0.0800 
 40 H        9.4640    -5.0480     0.0850 H     1 <1>   0.0800 
 41 H       10.7740    -4.6910    -1.0080 H     1 <1>   0.0800 
 42 H       10.7410    -1.7560     1.2640 H     1 <1>   0.0800 
 43 H       11.6680    -3.1160     0.7220 H     1 <1>   0.0800 
 44 H       10.3060    -3.3720     1.7830 H     1 <1>   0.0800 
@<TRIPOS>BOND
  1   1   2  2   
  2   2   3  am  
  3   2   4  1   
  4   3   5  1   
  5   3  21  1   
  6   4   6  1   
  7   4   7  1   
  8   4  22  1   
  9   5   6  1   
 10   5  23  1   
 11   5  24  1   
 12   6   8  1   
 13   6   9  1   
 14   7  10  1   
 15   7  25  1   
 16   7  26  1   
 17   8  11  1   
 18   8  27  1   
 19   8  28  1   
 20   9  12  1   
 21   9  29  1   
 22   9  30  1   
 23  10  31  1   
 24  11  13  1   
 25  11  32  1   
 26  11  33  1   
 27  12  13  1   
 28  12  34  1   
 29  12  35  1   
 30  13  14  am  
 31  14  15  2   
 32  14  16  1   
 33  16  17  1   
 34  17  18  1   
 35  17  19  1   
 36  17  20  1   
 37  18  36  1   
 38  18  37  1   
 39  18  38  1   
 40  19  39  1   
 41  19  40  1   
 42  19  41  1   
 43  20  42  1   
 44  20  43  1   
 45  20  44  1   
@<TRIPOS>SUBSTRUCTURE
  1 ****   8 GROUP 4 **** **** 0

# MOE 2024.06 (io_trps.svl 2023.06)
