@<TRIPOS>MOLECULE
NONAME
53 56 1 0 0 
SMALL
USER_CHARGES


@<TRIPOS>ATOM
  1 S       -0.3770    -0.7820    -0.6040 S.o2  1 <1>   1.4470 
  2 O       -1.2690    -1.9060    -0.4100 O.2   1 <1>  -0.6500 
  3 O       -0.1460    -0.2720    -1.9380 O.2   1 <1>  -0.6500 
  4 N       -0.9020     0.4990     0.3790 N.am  1 <1>  -0.8490 
  5 C        1.2200    -1.1980     0.1540 C.ar  1 <1>  -0.0090 
  6 C       -2.3020     0.4790     0.8500 C.3   1 <1>   0.1960 
  7 C       -0.4160     1.8360     0.0350 C.3   1 <1>   0.1960 
  8 C        2.3980    -0.5990    -0.2680 C.ar  1 <1>  -0.1500 
  9 C        1.2990    -2.1090     1.2060 C.ar  1 <1>  -0.1500 
 10 C       -3.3120     1.1940    -0.0940 C.3   1 <1>   0.0000 
 11 C       -1.3460     2.5450    -0.9590 C.3   1 <1>  -0.1600 
 12 C        3.6340    -0.8800     0.3180 C.ar  1 <1>   0.0860 
 13 C        2.5060    -2.4140     1.8010 C.ar  1 <1>  -0.1500 
 14 C       -4.7080     1.2610     0.5540 C.3   1 <1>   0.2000 
 15 C       -2.7880     2.6030    -0.4360 C.3   1 <1>  -0.1600 
 16 C       -3.6240     0.3700    -1.3570 C.3   1 <1>  -0.1600 
 17 C        4.8720    -0.2560    -0.0970 C.2   1 <1>   0.5440 
 18 C        3.6750    -1.8070     1.3620 C.ar  1 <1>   0.1170 
 19 O       -4.6340     1.5480     1.9190 O.3   1 <1>  -0.5600 
 20 C       -5.3500    -0.1080     0.3060 C.3   1 <1>  -0.1600 
 21 C       -4.6260    -0.6970    -0.9120 C.3   1 <1>  -0.1600 
 22 O        4.8750     0.5960    -0.9660 O.2   1 <1>  -0.5700 
 23 N        6.0650    -0.6200     0.5070 N.am  1 <1>  -0.4200 
 24 N        4.9050    -2.0960     1.9380 N.am  1 <1>  -0.5470 
 25 C       -5.8380     1.9320     2.5050 C.3   1 <1>   0.0400 
 26 C        6.0780    -1.5340     1.5410 C.2   1 <1>   0.6900 
 27 C        7.3420     0.0130     0.0660 C.3   1 <1>   0.0600 
 28 O        7.0960    -1.8550     2.1160 O.2   1 <1>  -0.5700 
 29 H       -2.6210    -0.5300     1.0470 H     1 <1>   0.0800 
 30 H       -2.3130     0.9880     1.7980 H     1 <1>   0.0800 
 31 H       -0.3670     2.4220     0.9370 H     1 <1>   0.0800 
 32 H        0.5800     1.7780    -0.3710 H     1 <1>   0.0800 
 33 H        2.3640     0.1090    -1.0810 H     1 <1>   0.1500 
 34 H        0.3940    -2.5810     1.5550 H     1 <1>   0.1500 
 35 H       -0.9850     3.5450    -1.1200 H     1 <1>   0.0800 
 36 H       -1.3150     2.0390    -1.9080 H     1 <1>   0.0800 
 37 H        2.5410    -3.1240     2.6080 H     1 <1>   0.1500 
 38 H       -5.2860     2.0290     0.0650 H     1 <1>   0.0800 
 39 H       -3.4210     3.0750    -1.1670 H     1 <1>   0.0800 
 40 H       -2.8100     3.2060     0.4550 H     1 <1>   0.0800 
 41 H       -4.1020     1.0010    -2.0860 H     1 <1>   0.0800 
 42 H       -2.7600    -0.0640    -1.8210 H     1 <1>   0.0800 
 43 H       -5.2030    -0.7510     1.1570 H     1 <1>   0.0800 
 44 H       -6.4010    -0.0010     0.1100 H     1 <1>   0.0800 
 45 H       -4.0980    -1.5920    -0.6230 H     1 <1>   0.0800 
 46 H       -5.3110    -0.9410    -1.7060 H     1 <1>   0.0800 
 47 H        4.9920    -2.7630     2.7040 H     1 <1>   0.3700 
 48 H       -5.6510     2.1430     3.5430 H     1 <1>   0.0800 
 49 H       -6.5500     1.1300     2.4230 H     1 <1>   0.0800 
 50 H       -6.2060     2.8180     2.0160 H     1 <1>   0.0800 
 51 H        7.3280     0.1720    -0.9990 H     1 <1>   0.0800 
 52 H        8.1820    -0.6170     0.3040 H     1 <1>   0.0800 
 53 H        7.4600     0.9600     0.5600 H     1 <1>   0.0800 
@<TRIPOS>BOND
  1   1   2  2   
  2   1   3  2   
  3   1   4  am  
  4   1   5  1   
  5   4   6  1   
  6   4   7  1   
  7   5   8  ar  
  8   5   9  ar  
  9   6  10  1   
 10   6  29  1   
 11   6  30  1   
 12   7  11  1   
 13   7  31  1   
 14   7  32  1   
 15   8  12  ar  
 16   8  33  1   
 17   9  13  ar  
 18   9  34  1   
 19  10  14  1   
 20  10  15  1   
 21  10  16  1   
 22  11  15  1   
 23  11  35  1   
 24  11  36  1   
 25  12  17  1   
 26  12  18  ar  
 27  13  18  ar  
 28  13  37  1   
 29  14  19  1   
 30  14  20  1   
 31  14  38  1   
 32  15  39  1   
 33  15  40  1   
 34  16  21  1   
 35  16  41  1   
 36  16  42  1   
 37  17  22  2   
 38  17  23  am  
 39  18  24  1   
 40  19  25  1   
 41  20  21  1   
 42  20  43  1   
 43  20  44  1   
 44  21  45  1   
 45  21  46  1   
 46  23  26  am  
 47  23  27  1   
 48  24  26  am  
 49  24  47  1   
 50  25  48  1   
 51  25  49  1   
 52  25  50  1   
 53  26  28  2   
 54  27  51  1   
 55  27  52  1   
 56  27  53  1   
@<TRIPOS>SUBSTRUCTURE
  1 ****   5 GROUP 4 **** **** 0

# MOE 2024.06 (io_trps.svl 2023.06)
