@<TRIPOS>MOLECULE
NONAME
48 51 1 0 0 
SMALL
USER_CHARGES


@<TRIPOS>ATOM
  1 O        0.1680     0.9270     0.4070 O.co2 1 <1>  -0.9000 
  2 C        1.1580     0.2130     0.5530 C.2   1 <1>   0.9060 
  3 O        1.2300    -0.6140     1.4780 O.co2 1 <1>  -0.9000 
  4 C        2.3200     0.3090    -0.4570 C.3   1 <1>  -0.1060 
  5 C        3.6340    -0.1100     0.2310 C.3   1 <1>   0.4230 
  6 C        2.4900     1.7690    -0.9570 C.3   1 <1>  -0.1600 
  7 C        2.0610    -0.6160    -1.6680 C.3   1 <1>  -0.1600 
  8 N        3.5510    -1.5440     0.6700 N.4   1 <1>  -0.9590 
  9 C        3.9920     0.8880     1.3640 C.3   1 <1>   0.1100 
 10 C        2.8880     2.7210     0.1830 C.3   1 <1>   0.1100 
 11 C        2.0820    -2.0960    -1.2520 C.3   1 <1>  -0.1600 
 12 C        3.3460    -2.4710    -0.4740 C.3   1 <1>   0.3430 
 13 C        4.6080    -2.0070     1.6070 C.3   1 <1>   0.2630 
 14 N        4.1220     2.2750     0.8670 N.3   1 <1>  -0.8100 
 15 C        5.3580     2.5230     0.0930 C.3   1 <1>   0.2900 
 16 C        5.6960     4.0030     0.0110 C.2   1 <1>  -0.0400 
 17 O        6.6370     4.3710    -0.8560 O.3   1 <1>  -0.2800 
 18 C        5.2120     5.0670     0.6800 C.2   1 <1>  -0.1500 
 19 C        6.7680     5.6950    -0.7590 C.ar  1 <1>   0.1400 
 20 C        5.8980     6.1970     0.1920 C.ar  1 <1>   0.0000 
 21 C        7.6290     6.5170    -1.4730 C.ar  1 <1>  -0.1500 
 22 C        5.8780     7.5680     0.4480 C.ar  1 <1>  -0.1500 
 23 C        7.6030     7.8740    -1.2150 C.ar  1 <1>  -0.1500 
 24 C        6.7290     8.3950    -0.2570 C.ar  1 <1>  -0.1500 
 25 H        4.4200    -0.0390    -0.4990 H     1 <1>   0.0800 
 26 H        1.5580     2.1130    -1.3710 H     1 <1>   0.0800 
 27 H        3.2190     1.8250    -1.7440 H     1 <1>   0.0800 
 28 H        1.1010    -0.3790    -2.0980 H     1 <1>   0.0800 
 29 H        2.8090    -0.4510    -2.4240 H     1 <1>   0.0800 
 30 H        2.6320    -1.5250     1.1930 H     1 <1>   0.4500 
 31 H        4.9170     0.6100     1.8330 H     1 <1>   0.0800 
 32 H        3.2220     0.8700     2.1170 H     1 <1>   0.0800 
 33 H        2.0870     2.7630     0.9040 H     1 <1>   0.0800 
 34 H        3.0150     3.7170    -0.2060 H     1 <1>   0.0800 
 35 H        2.0090    -2.7150    -2.1290 H     1 <1>   0.0800 
 36 H        1.2210    -2.3120    -0.6410 H     1 <1>   0.0800 
 37 H        4.1990    -2.4250    -1.1310 H     1 <1>   0.0800 
 38 H        3.2480    -3.4810    -0.1110 H     1 <1>   0.0800 
 39 H        5.5760    -1.9450     1.1400 H     1 <1>   0.0800 
 40 H        4.4220    -3.0280     1.8960 H     1 <1>   0.0800 
 41 H        4.6040    -1.4000     2.4970 H     1 <1>   0.0800 
 42 H        6.1870     2.0300     0.5680 H     1 <1>   0.0800 
 43 H        5.2620     2.1300    -0.9030 H     1 <1>   0.0800 
 44 H        4.4550     5.0880     1.4430 H     1 <1>   0.1500 
 45 H        8.2900     6.0890    -2.2040 H     1 <1>   0.1500 
 46 H        5.2020     7.9600     1.1880 H     1 <1>   0.1500 
 47 H        8.2570     8.5380    -1.7520 H     1 <1>   0.1500 
 48 H        6.7250     9.4560    -0.0710 H     1 <1>   0.1500 
@<TRIPOS>BOND
  1   1   2  ar  
  2   2   3  ar  
  3   2   4  1   
  4   4   5  1   
  5   4   6  1   
  6   4   7  1   
  7   5   8  1   
  8   5   9  1   
  9   5  25  1   
 10   6  10  1   
 11   6  26  1   
 12   6  27  1   
 13   7  11  1   
 14   7  28  1   
 15   7  29  1   
 16   8  12  1   
 17   8  13  1   
 18   8  30  1   
 19   9  14  1   
 20   9  31  1   
 21   9  32  1   
 22  10  14  1   
 23  10  33  1   
 24  10  34  1   
 25  11  12  1   
 26  11  35  1   
 27  11  36  1   
 28  12  37  1   
 29  12  38  1   
 30  13  39  1   
 31  13  40  1   
 32  13  41  1   
 33  14  15  1   
 34  15  16  1   
 35  15  42  1   
 36  15  43  1   
 37  16  17  1   
 38  16  18  2   
 39  17  19  1   
 40  18  20  1   
 41  18  44  1   
 42  19  20  ar  
 43  19  21  ar  
 44  20  22  ar  
 45  21  23  ar  
 46  21  45  1   
 47  22  24  ar  
 48  22  46  1   
 49  23  24  ar  
 50  23  47  1   
 51  24  48  1   
@<TRIPOS>SUBSTRUCTURE
  1 ****  14 GROUP 4 **** **** 0

# MOE 2024.06 (io_trps.svl 2023.06)
