@<TRIPOS>MOLECULE
NONAME
50 51 1 0 0 
SMALL
USER_CHARGES


@<TRIPOS>ATOM
  1 S        1.1030    -0.2170    -0.9940 S.o2  1 <1>   1.3330 
  2 O        2.4810    -0.5290    -1.3060 O.2   1 <1>  -0.6500 
  3 O        0.1260    -0.1690    -2.0570 O.2   1 <1>  -0.6500 
  4 N        0.5490    -1.3700     0.1270 N.am  1 <1>  -0.8490 
  5 C        1.0390     1.3270    -0.0700 C.3   1 <1>  -0.0550 
  6 C        1.1040    -2.7040    -0.1290 C.3   1 <1>   0.1160 
  7 C       -0.9140    -1.4510     0.2070 C.3   1 <1>   0.1160 
  8 C        2.1970     1.6270     0.9100 C.3   1 <1>  -0.0800 
  9 C        3.5360     1.8750     0.2100 C.3   1 <1>   0.2200 
 10 C        2.5230     0.5560     1.9580 C.3   1 <1>   0.1200 
 11 N        3.9860     3.2550     0.4950 N.am  1 <1>  -0.7300 
 12 C        4.4670     0.8600     0.8700 C.3   1 <1>   0.1200 
 13 O        3.9020     0.6150     2.1170 O.3   1 <1>  -0.5600 
 14 C        3.6030     4.3400    -0.2180 C.2   1 <1>   0.5690 
 15 O        2.8250     4.2570    -1.1360 O.2   1 <1>  -0.5700 
 16 C        4.1610     5.6960     0.1620 C.3   1 <1>  -0.0990 
 17 C        5.6080     5.8730    -0.3230 C.3   1 <1>  -0.1600 
 18 C        6.1570     7.2640     0.0160 C.3   1 <1>  -0.0170 
 19 C        7.5930     7.3950    -0.4660 C.ar  1 <1>  -0.1440 
 20 C        7.8500     7.7710    -1.7790 C.ar  1 <1>  -0.1500 
 21 C        8.6470     7.1350     0.4010 C.ar  1 <1>  -0.1500 
 22 C        9.1550     7.8880    -2.2290 C.ar  1 <1>  -0.1500 
 23 C        9.9560     7.2490    -0.0370 C.ar  1 <1>  -0.1500 
 24 C       10.1840     7.6250    -1.3470 C.ar  1 <1>   0.1900 
 25 F       11.4160     7.7330    -1.7660 F     1 <1>  -0.1900 
 26 H        1.0110     2.1340    -0.7780 H     1 <1>   0.0800 
 27 H        0.1160     1.3640     0.4720 H     1 <1>   0.0800 
 28 H        0.7400    -3.4060     0.6010 H     1 <1>   0.0800 
 29 H        2.1790    -2.6760    -0.0610 H     1 <1>   0.0800 
 30 H        0.8280    -3.0400    -1.1150 H     1 <1>   0.0800 
 31 H       -1.2040    -2.1220     0.9970 H     1 <1>   0.0800 
 32 H       -1.3240    -1.8070    -0.7240 H     1 <1>   0.0800 
 33 H       -1.3300    -0.4810     0.4170 H     1 <1>   0.0800 
 34 H        1.9170     2.5140     1.4520 H     1 <1>   0.0800 
 35 H        3.4980     1.7240    -0.8560 H     1 <1>   0.0800 
 36 H        2.2860    -0.4390     1.6320 H     1 <1>   0.0800 
 37 H        2.0520     0.7500     2.9060 H     1 <1>   0.0800 
 38 H        4.5680     3.3530     1.3290 H     1 <1>   0.3700 
 39 H        5.4720     1.2220     0.9870 H     1 <1>   0.0800 
 40 H        4.4700    -0.0650     0.3200 H     1 <1>   0.0800 
 41 H        3.5370     6.4530    -0.2790 H     1 <1>   0.0800 
 42 H        4.1100     5.8060     1.2300 H     1 <1>   0.0800 
 43 H        6.2360     5.1240     0.1280 H     1 <1>   0.0800 
 44 H        5.6420     5.7290    -1.3900 H     1 <1>   0.0800 
 45 H        6.1160     7.4250     1.0790 H     1 <1>   0.0800 
 46 H        5.5520     8.0200    -0.4530 H     1 <1>   0.0800 
 47 H        7.0360     7.9710    -2.4540 H     1 <1>   0.1500 
 48 H        8.4540     6.8420     1.4180 H     1 <1>   0.1500 
 49 H        9.3720     8.1770    -3.2410 H     1 <1>   0.1500 
 50 H       10.7840     7.0530     0.6190 H     1 <1>   0.1500 
@<TRIPOS>BOND
  1   1   2  2   
  2   1   3  2   
  3   1   4  am  
  4   1   5  1   
  5   4   6  1   
  6   4   7  1   
  7   5   8  1   
  8   5  26  1   
  9   5  27  1   
 10   6  28  1   
 11   6  29  1   
 12   6  30  1   
 13   7  31  1   
 14   7  32  1   
 15   7  33  1   
 16   8   9  1   
 17   8  10  1   
 18   8  34  1   
 19   9  11  1   
 20   9  12  1   
 21   9  35  1   
 22  10  13  1   
 23  10  36  1   
 24  10  37  1   
 25  11  14  am  
 26  11  38  1   
 27  12  13  1   
 28  12  39  1   
 29  12  40  1   
 30  14  15  2   
 31  14  16  1   
 32  16  17  1   
 33  16  41  1   
 34  16  42  1   
 35  17  18  1   
 36  17  43  1   
 37  17  44  1   
 38  18  19  1   
 39  18  45  1   
 40  18  46  1   
 41  19  20  ar  
 42  19  21  ar  
 43  20  22  ar  
 44  20  47  1   
 45  21  23  ar  
 46  21  48  1   
 47  22  24  ar  
 48  22  49  1   
 49  23  24  ar  
 50  23  50  1   
 51  24  25  1   
@<TRIPOS>SUBSTRUCTURE
  1 ****  11 GROUP 4 **** **** 0

# MOE 2024.06 (io_trps.svl 2023.06)
