@<TRIPOS>MOLECULE
NONAME
50 52 1 0 0 
SMALL
USER_CHARGES


@<TRIPOS>ATOM
  1 O       -2.6700     0.3620    -2.2860 O.2   1 <1>  -0.5700 
  2 C       -2.4020     0.4980    -1.1170 C.2   1 <1>   0.5690 
  3 N       -2.1410    -0.5720    -0.3250 N.am  1 <1>  -0.7300 
  4 C       -2.3740     1.9010    -0.5100 C.3   1 <1>  -0.0190 
  5 C       -2.1040    -1.9830    -0.7750 C.3   1 <1>   0.2200 
  6 C       -0.9310     2.2390    -0.0620 C.3   1 <1>  -0.1600 
  7 C       -3.4240     2.0260     0.6220 C.3   1 <1>  -0.1600 
  8 C       -3.3700    -2.7310    -0.3740 C.3   1 <1>  -0.0800 
  9 C       -1.0690    -2.7290     0.0550 C.3   1 <1>   0.1200 
 10 C       -0.7310     3.6770     0.4320 C.3   1 <1>  -0.2400 
 11 C       -4.1120     3.3980     0.6740 C.3   1 <1>  -0.2400 
 12 C       -3.0830    -3.1120     1.0840 C.3   1 <1>   0.1200 
 13 C       -4.6850    -1.9520    -0.5880 C.3   1 <1>  -0.0170 
 14 O       -1.7010    -2.9940     1.2700 O.3   1 <1>  -0.5600 
 15 C       -5.9890    -2.7030    -0.2970 C.ar  1 <1>  -0.1440 
 16 C       -7.2150    -1.9910    -0.2840 C.ar  1 <1>   0.0000 
 17 C       -6.0520    -4.0460    -0.0500 C.ar  1 <1>  -0.1500 
 18 C       -8.3980    -2.7080     0.0180 C.ar  1 <1>   0.3100 
 19 C       -7.3370    -0.6070    -0.5600 C.ar  1 <1>  -0.1500 
 20 C       -7.2790    -4.6610     0.2270 C.ar  1 <1>   0.1600 
 21 N       -8.4130    -4.0400     0.2720 N.ar  1 <1>  -0.6200 
 22 C       -9.6220    -2.0210     0.0560 C.ar  1 <1>  -0.1500 
 23 C       -8.5460     0.0320    -0.5190 C.ar  1 <1>  -0.1500 
 24 C       -9.7050    -0.6800    -0.2030 C.ar  1 <1>  -0.1500 
 25 H       -1.9560    -0.4450     0.6730 H     1 <1>   0.3700 
 26 H       -2.6450     2.5770    -1.3030 H     1 <1>   0.0800 
 27 H       -1.9030    -2.0390    -1.8320 H     1 <1>   0.0800 
 28 H       -0.6200     1.5600     0.7130 H     1 <1>   0.0800 
 29 H       -0.2770     2.0830    -0.9040 H     1 <1>   0.0800 
 30 H       -4.1990     1.2960     0.4620 H     1 <1>   0.0800 
 31 H       -2.9710     1.8060     1.5740 H     1 <1>   0.0800 
 32 H       -3.4040    -3.6320    -0.9600 H     1 <1>   0.0800 
 33 H       -0.1760    -2.1540     0.2250 H     1 <1>   0.0800 
 34 H       -0.8190    -3.6710    -0.4010 H     1 <1>   0.0800 
 35 H       -1.2260     3.8290     1.3740 H     1 <1>   0.0800 
 36 H       -1.1100     4.3810    -0.2880 H     1 <1>   0.0800 
 37 H        0.3180     3.8700     0.5750 H     1 <1>   0.0800 
 38 H       -4.6140     3.5990    -0.2560 H     1 <1>   0.0800 
 39 H       -3.4110     4.1890     0.8600 H     1 <1>   0.0800 
 40 H       -4.8450     3.4080     1.4610 H     1 <1>   0.0800 
 41 H       -3.3760    -4.1230     1.3060 H     1 <1>   0.0800 
 42 H       -3.5630    -2.4370     1.7720 H     1 <1>   0.0800 
 43 H       -4.7140    -1.6080    -1.6080 H     1 <1>   0.0800 
 44 H       -4.6630    -1.0850     0.0460 H     1 <1>   0.0800 
 45 H       -5.1880    -4.6800    -0.0580 H     1 <1>   0.1500 
 46 H       -6.4630    -0.0370    -0.8160 H     1 <1>   0.1500 
 47 H       -7.2770    -5.7210     0.4180 H     1 <1>   0.1500 
 48 H      -10.5000    -2.5910     0.2970 H     1 <1>   0.1500 
 49 H       -8.6200     1.0850    -0.7290 H     1 <1>   0.1500 
 50 H      -10.6500    -0.1660    -0.1710 H     1 <1>   0.1500 
@<TRIPOS>BOND
  1   1   2  2   
  2   2   3  am  
  3   2   4  1   
  4   3   5  1   
  5   3  25  1   
  6   4   6  1   
  7   4   7  1   
  8   4  26  1   
  9   5   8  1   
 10   5   9  1   
 11   5  27  1   
 12   6  10  1   
 13   6  28  1   
 14   6  29  1   
 15   7  11  1   
 16   7  30  1   
 17   7  31  1   
 18   8  12  1   
 19   8  13  1   
 20   8  32  1   
 21   9  14  1   
 22   9  33  1   
 23   9  34  1   
 24  10  35  1   
 25  10  36  1   
 26  10  37  1   
 27  11  38  1   
 28  11  39  1   
 29  11  40  1   
 30  12  14  1   
 31  12  41  1   
 32  12  42  1   
 33  13  15  1   
 34  13  43  1   
 35  13  44  1   
 36  15  16  ar  
 37  15  17  ar  
 38  16  18  ar  
 39  16  19  ar  
 40  17  20  ar  
 41  17  45  1   
 42  18  21  ar  
 43  18  22  ar  
 44  19  23  ar  
 45  19  46  1   
 46  20  21  ar  
 47  20  47  1   
 48  22  24  ar  
 49  22  48  1   
 50  23  24  ar  
 51  23  49  1   
 52  24  50  1   
@<TRIPOS>SUBSTRUCTURE
  1 ****  13 GROUP 4 **** **** 0

# MOE 2024.06 (io_trps.svl 2023.06)
