@<TRIPOS>MOLECULE
NONAME
35 37 1 0 0 
SMALL
USER_CHARGES


@<TRIPOS>ATOM
  1 O       -0.3810     0.2770    -0.4400 O.2   1 <1>  -0.5700 
  2 C       -1.3880     0.8840    -0.1210 C.2   1 <1>   0.7150 
  3 N       -2.5460     0.1590     0.0780 N.am  1 <1>  -0.6600 
  4 C       -1.3620     2.3230     0.0500 C.2   1 <1>   0.0550 
  5 C       -3.9130     0.7340     0.0340 C.3   1 <1>   0.1400 
  6 C       -2.5940    -1.3130    -0.1110 C.3   1 <1>   0.1400 
  7 O       -0.6360     3.0940    -0.7560 O.3   1 <1>  -0.2800 
  8 C       -1.9890     3.1300     0.9540 C.2   1 <1>  -0.1500 
  9 C       -4.8220    -0.4370    -0.3390 C.3   1 <1>   0.2000 
 10 C       -4.0630    -1.6940     0.0790 C.3   1 <1>  -0.0800 
 11 C       -0.7830     4.3490    -0.3980 C.2   1 <1>  -0.0100 
 12 C       -1.6140     4.4420     0.6600 C.2   1 <1>  -0.1500 
 13 O       -6.0370    -0.3740     0.3250 O.3   1 <1>  -0.6800 
 14 C       -4.5010    -2.9400    -0.7120 C.3   1 <1>  -0.0170 
 15 C       -3.7840    -4.1920    -0.2330 C.ar  1 <1>   0.1670 
 16 N       -2.5680    -4.3960    -0.7110 N.ar  1 <1>  -0.6200 
 17 C       -4.4110    -5.0540     0.6660 C.ar  1 <1>   0.1600 
 18 C       -2.0240    -5.5040    -0.2350 C.ar  1 <1>   0.1600 
 19 N       -3.8690    -6.1610     1.1450 N.ar  1 <1>  -0.6200 
 20 C       -2.6540    -6.3570     0.6630 C.ar  1 <1>   0.1600 
 21 H       -4.1670     1.1170     1.0060 H     1 <1>   0.0800 
 22 H       -3.9750     1.5150    -0.7050 H     1 <1>   0.0800 
 23 H       -2.2590    -1.5520    -1.1070 H     1 <1>   0.0800 
 24 H       -1.9580    -1.8120     0.6010 H     1 <1>   0.0800 
 25 H       -2.6410     2.8390     1.7570 H     1 <1>   0.1500 
 26 H       -5.0120    -0.4270    -1.3990 H     1 <1>   0.0800 
 27 H       -4.2110    -1.8690     1.1300 H     1 <1>   0.0800 
 28 H       -0.2600     5.1130    -0.9480 H     1 <1>   0.1500 
 29 H       -1.9330     5.3240     1.1860 H     1 <1>   0.1500 
 30 H       -5.9020    -0.4020     1.2920 H     1 <1>   0.4000 
 31 H       -4.3010    -2.8000    -1.7600 H     1 <1>   0.0800 
 32 H       -5.5630    -3.0720    -0.6020 H     1 <1>   0.0800 
 33 H       -5.4040    -4.8170     1.0050 H     1 <1>   0.1500 
 34 H       -1.0320    -5.7480    -0.5710 H     1 <1>   0.1500 
 35 H       -2.1300    -7.2360     0.9950 H     1 <1>   0.1500 
@<TRIPOS>BOND
  1   1   2  2   
  2   2   3  am  
  3   2   4  1   
  4   3   5  1   
  5   3   6  1   
  6   4   7  1   
  7   4   8  2   
  8   5   9  1   
  9   5  21  1   
 10   5  22  1   
 11   6  10  1   
 12   6  23  1   
 13   6  24  1   
 14   7  11  1   
 15   8  12  1   
 16   8  25  1   
 17   9  10  1   
 18   9  13  1   
 19   9  26  1   
 20  10  14  1   
 21  10  27  1   
 22  11  12  2   
 23  11  28  1   
 24  12  29  1   
 25  13  30  1   
 26  14  15  1   
 27  14  31  1   
 28  14  32  1   
 29  15  16  ar  
 30  15  17  ar  
 31  16  18  ar  
 32  17  19  ar  
 33  17  33  1   
 34  18  20  ar  
 35  18  34  1   
 36  19  20  ar  
 37  20  35  1   
@<TRIPOS>SUBSTRUCTURE
  1 ****   6 GROUP 4 **** **** 0

# MOE 2024.06 (io_trps.svl 2023.06)
