@<TRIPOS>MOLECULE
NONAME
37 39 1 0 0 
SMALL
USER_CHARGES


@<TRIPOS>ATOM
  1 CL      -0.6010    -2.3170     2.4050 Cl    1 <1>  -0.1770 
  2 C       -0.9050    -1.8630     0.7440 C.ar  1 <1>   0.1770 
  3 C        0.0130    -2.1970    -0.2490 C.ar  1 <1>   0.0540 
  4 C       -2.0710    -1.1690     0.4720 C.ar  1 <1>  -0.1500 
  5 C       -0.3030    -1.7910    -1.5440 C.ar  1 <1>   0.1770 
  6 C        1.2340    -2.9010     0.0540 C.2   1 <1>   0.2350 
  7 C       -2.3540    -0.7810    -0.8270 C.ar  1 <1>  -0.1500 
  8 CL       0.7860    -2.1390    -2.8660 Cl    1 <1>  -0.1770 
  9 C       -1.4620    -1.0960    -1.8380 C.ar  1 <1>  -0.1500 
 10 N        1.4610    -4.1470    -0.2230 N.2   1 <1>  -0.4100 
 11 C        2.3550    -2.3460     0.6850 C.2   1 <1>  -0.1810 
 12 O        2.6650    -4.4020     0.1940 O.3   1 <1>  -0.0190 
 13 C        3.2300    -3.3600     0.7380 C.2   1 <1>  -0.0400 
 14 C        2.4720    -0.9140     1.1670 C.3   1 <1>   0.2910 
 15 C        4.6400    -3.4820     1.2770 C.3   1 <1>  -0.0600 
 16 N        2.2150     0.0000     0.0490 N.3   1 <1>  -0.8100 
 17 C        3.2490    -0.0640    -1.0140 C.3   1 <1>   0.1100 
 18 C        2.1330     1.4120     0.4540 C.3   1 <1>   0.1100 
 19 C        3.5070     1.3790    -1.4760 C.3   1 <1>   0.2600 
 20 C        2.3820     2.1880    -0.8370 C.3   1 <1>   0.2000 
 21 F        4.6500     1.7780    -0.9200 F     1 <1>  -0.3400 
 22 O        1.2370     2.0730    -1.6180 O.3   1 <1>  -0.6800 
 23 H       -2.7500    -0.9350     1.2720 H     1 <1>   0.1500 
 24 H       -3.2590    -0.2390    -1.0490 H     1 <1>   0.1500 
 25 H       -1.6630    -0.8030    -2.8540 H     1 <1>   0.1500 
 26 H        3.4510    -0.7310     1.5770 H     1 <1>   0.0800 
 27 H        1.7440    -0.7440     1.9420 H     1 <1>   0.0800 
 28 H        4.9730    -2.5470     1.6880 H     1 <1>   0.0800 
 29 H        5.3060    -3.7720     0.4850 H     1 <1>   0.0800 
 30 H        4.6690    -4.2320     2.0470 H     1 <1>   0.0800 
 31 H        4.1620    -0.5150    -0.6630 H     1 <1>   0.0800 
 32 H        2.8660    -0.6470    -1.8320 H     1 <1>   0.0800 
 33 H        1.1750     1.6480     0.8860 H     1 <1>   0.0800 
 34 H        2.9120     1.6420     1.1620 H     1 <1>   0.0800 
 35 H        3.6090     1.5080    -2.5380 H     1 <1>   0.0800 
 36 H        2.6170     3.2290    -0.7040 H     1 <1>   0.0800 
 37 H        0.9160     1.1510    -1.5190 H     1 <1>   0.4000 
@<TRIPOS>BOND
  1   1   2  1   
  2   2   3  ar  
  3   2   4  ar  
  4   3   5  ar  
  5   3   6  1   
  6   4   7  ar  
  7   4  23  1   
  8   5   8  1   
  9   5   9  ar  
 10   6  10  2   
 11   6  11  1   
 12   7   9  ar  
 13   7  24  1   
 14   9  25  1   
 15  10  12  1   
 16  11  13  2   
 17  11  14  1   
 18  12  13  1   
 19  13  15  1   
 20  14  16  1   
 21  14  26  1   
 22  14  27  1   
 23  15  28  1   
 24  15  29  1   
 25  15  30  1   
 26  16  17  1   
 27  16  18  1   
 28  17  19  1   
 29  17  31  1   
 30  17  32  1   
 31  18  20  1   
 32  18  33  1   
 33  18  34  1   
 34  19  20  1   
 35  19  21  1   
 36  19  35  1   
 37  20  22  1   
 38  20  36  1   
 39  22  37  1   
@<TRIPOS>SUBSTRUCTURE
  1 ****  16 GROUP 4 **** **** 0

# MOE 2024.06 (io_trps.svl 2023.06)
