@<TRIPOS>MOLECULE
NONAME
44 45 1 0 0 
SMALL
USER_CHARGES


@<TRIPOS>ATOM
  1 S        0.2980     0.1300     0.7400 S.o2  1 <1>   1.3330 
  2 O       -0.8430     0.2060     1.6240 O.2   1 <1>  -0.6500 
  3 O        1.6350     0.1780     1.2880 O.2   1 <1>  -0.6500 
  4 N        0.1660    -1.2880    -0.1850 N.am  1 <1>  -0.8490 
  5 C        0.1210     1.4210    -0.4880 C.3   1 <1>  -0.0550 
  6 C       -0.3980    -2.4020     0.5830 C.3   1 <1>   0.1160 
  7 C        1.4310    -1.7000    -0.8040 C.3   1 <1>   0.1160 
  8 C        0.1020     2.8340     0.1190 C.3   1 <1>  -0.0800 
  9 C       -0.1700     3.9110    -0.9280 C.3   1 <1>   0.2000 
 10 C        1.4250     3.2650     0.7590 C.3   1 <1>   0.1400 
 11 O       -1.5310     4.0170    -1.1600 O.3   1 <1>  -0.6800 
 12 C        0.4110     5.1970    -0.3460 C.3   1 <1>   0.1400 
 13 N        1.4780     4.7340     0.5740 N.am  1 <1>  -0.6600 
 14 C        2.5350     5.5030     1.0000 C.2   1 <1>   0.5440 
 15 O        3.4660     4.9570     1.5610 O.2   1 <1>  -0.5700 
 16 C        2.5440     6.9370     0.7850 C.ar  1 <1>   0.0860 
 17 C        3.4230     7.5540    -0.1200 C.ar  1 <1>  -0.1440 
 18 C        1.6410     7.7390     1.4890 C.ar  1 <1>  -0.1500 
 19 C        3.3830     8.9270    -0.3080 C.ar  1 <1>  -0.1500 
 20 C        4.4340     6.7260    -0.9030 C.3   1 <1>  -0.0970 
 21 C        1.5950     9.1080     1.3060 C.ar  1 <1>  -0.1500 
 22 C        2.4700     9.6790     0.4050 C.ar  1 <1>   0.1900 
 23 F        2.4350    10.9690     0.2220 F     1 <1>  -0.1900 
 24 H        0.9170     1.3490    -1.2020 H     1 <1>   0.0800 
 25 H       -0.8030     1.2660    -1.0110 H     1 <1>   0.0800 
 26 H       -0.4820    -3.2780    -0.0360 H     1 <1>   0.0800 
 27 H       -1.3830    -2.1450     0.9360 H     1 <1>   0.0800 
 28 H        0.2260    -2.6250     1.4330 H     1 <1>   0.0800 
 29 H        1.2680    -2.5470    -1.4490 H     1 <1>   0.0800 
 30 H        2.1510    -1.9670    -0.0480 H     1 <1>   0.0800 
 31 H        1.8340    -0.8960    -1.3960 H     1 <1>   0.0800 
 32 H       -0.6530     2.8840     0.8860 H     1 <1>   0.0800 
 33 H        0.3170     3.6840    -1.8610 H     1 <1>   0.0800 
 34 H        2.2680     2.8190     0.2570 H     1 <1>   0.0800 
 35 H        1.4650     3.0120     1.8060 H     1 <1>   0.0800 
 36 H       -2.0160     4.1460    -0.3210 H     1 <1>   0.4000 
 37 H       -0.3320     5.7350     0.2170 H     1 <1>   0.0800 
 38 H        0.8180     5.8210    -1.1220 H     1 <1>   0.0800 
 39 H        0.9720     7.2710     2.1910 H     1 <1>   0.1500 
 40 H        4.0480     9.4200    -0.9950 H     1 <1>   0.1500 
 41 H        4.9880     7.3370    -1.5920 H     1 <1>   0.0800 
 42 H        3.9320     5.9540    -1.4600 H     1 <1>   0.0800 
 43 H        5.1290     6.2620    -0.2250 H     1 <1>   0.0800 
 44 H        0.9000     9.7250     1.8470 H     1 <1>   0.1500 
@<TRIPOS>BOND
  1   1   2  2   
  2   1   3  2   
  3   1   4  am  
  4   1   5  1   
  5   4   6  1   
  6   4   7  1   
  7   5   8  1   
  8   5  24  1   
  9   5  25  1   
 10   6  26  1   
 11   6  27  1   
 12   6  28  1   
 13   7  29  1   
 14   7  30  1   
 15   7  31  1   
 16   8   9  1   
 17   8  10  1   
 18   8  32  1   
 19   9  11  1   
 20   9  12  1   
 21   9  33  1   
 22  10  13  1   
 23  10  34  1   
 24  10  35  1   
 25  11  36  1   
 26  12  13  1   
 27  12  37  1   
 28  12  38  1   
 29  13  14  am  
 30  14  15  2   
 31  14  16  1   
 32  16  17  ar  
 33  16  18  ar  
 34  17  19  ar  
 35  17  20  1   
 36  18  21  ar  
 37  18  39  1   
 38  19  22  ar  
 39  19  40  1   
 40  20  41  1   
 41  20  42  1   
 42  20  43  1   
 43  21  22  ar  
 44  21  44  1   
 45  22  23  1   
@<TRIPOS>SUBSTRUCTURE
  1 ****  13 GROUP 4 **** **** 0

# MOE 2024.06 (io_trps.svl 2023.06)
