@<TRIPOS>MOLECULE
NONAME
46 48 1 0 0 
SMALL
USER_CHARGES


@<TRIPOS>ATOM
  1 O       -3.0580     1.6660    -1.7200 O.2   1 <1>  -0.5700 
  2 C       -2.2890     2.2300    -0.9740 C.2   1 <1>   0.6900 
  3 N       -2.5110     2.4550     0.3520 N.am  1 <1>  -0.4200 
  4 N       -1.0810     2.6840    -1.3600 N.am  1 <1>  -0.7300 
  5 C       -1.4020     3.0180     0.9060 C.2   1 <1>   0.5690 
  6 C       -3.5940     1.8090     1.1340 C.3   1 <1>   0.2010 
  7 C       -0.3340     3.1730    -0.1940 C.3   1 <1>   0.3610 
  8 O       -1.2780     3.3520     2.0610 O.2   1 <1>  -0.5700 
  9 C       -3.4430     0.2870     1.1480 C.2   1 <1>   0.5690 
 10 C        0.8830     2.2710     0.0250 C.3   1 <1>  -0.2400 
 11 C        0.0720     4.6270    -0.4450 C.3   1 <1>  -0.2400 
 12 O       -2.4900    -0.1760     1.7310 O.2   1 <1>  -0.5700 
 13 N       -4.3520    -0.5290     0.5240 N.am  1 <1>  -0.6600 
 14 C       -5.4950    -0.1050    -0.3270 C.3   1 <1>   0.1400 
 15 C       -4.1250    -1.9890     0.3990 C.3   1 <1>   0.1400 
 16 C       -5.9000    -1.3580    -1.1020 C.3   1 <1>   0.2000 
 17 C       -5.3780    -2.5380    -0.2860 C.3   1 <1>  -0.0800 
 18 O       -7.2770    -1.4530    -1.2370 O.3   1 <1>  -0.6800 
 19 C       -5.1270    -3.7850    -1.1520 C.3   1 <1>  -0.0160 
 20 C       -4.6740    -4.9720    -0.3170 C.ar  1 <1>   0.1670 
 21 N       -3.3920    -5.0150     0.0070 N.ar  1 <1>  -0.6200 
 22 C       -5.5970    -5.9430     0.0700 C.ar  1 <1>   0.1600 
 23 C       -3.0980    -6.0780     0.7360 C.ar  1 <1>   0.1600 
 24 N       -5.3060    -7.0060     0.8010 N.ar  1 <1>  -0.6200 
 25 C       -4.0230    -7.0410     1.1200 C.ar  1 <1>   0.1600 
 26 H       -0.6220     2.3320    -2.1980 H     1 <1>   0.3700 
 27 H       -3.5530     2.1590     2.1490 H     1 <1>   0.0800 
 28 H       -4.5410     2.0950     0.7200 H     1 <1>   0.0800 
 29 H        1.4060     2.5810     0.9120 H     1 <1>   0.0800 
 30 H        1.5580     2.3290    -0.8090 H     1 <1>   0.0800 
 31 H        0.5700     1.2500     0.1640 H     1 <1>   0.0800 
 32 H        0.5670     5.0190     0.4250 H     1 <1>   0.0800 
 33 H       -0.7980     5.2290    -0.6370 H     1 <1>   0.0800 
 34 H        0.7430     4.6950    -1.2820 H     1 <1>   0.0800 
 35 H       -6.2990     0.2330     0.3020 H     1 <1>   0.0800 
 36 H       -5.2020     0.6730    -1.0090 H     1 <1>   0.0800 
 37 H       -3.2500    -2.1540    -0.2090 H     1 <1>   0.0800 
 38 H       -3.9690    -2.4390     1.3650 H     1 <1>   0.0800 
 39 H       -5.4600    -1.3330    -2.0850 H     1 <1>   0.0800 
 40 H       -6.0830    -2.7770     0.4900 H     1 <1>   0.0800 
 41 H       -7.7050    -1.4840    -0.3600 H     1 <1>   0.4000 
 42 H       -4.3760    -3.5730    -1.8940 H     1 <1>   0.0800 
 43 H       -6.0320    -4.0390    -1.6740 H     1 <1>   0.0800 
 44 H       -6.6220    -5.8340    -0.2360 H     1 <1>   0.1500 
 45 H       -2.0740    -6.1930     1.0460 H     1 <1>   0.1500 
 46 H       -3.6870    -7.8710     1.7160 H     1 <1>   0.1500 
@<TRIPOS>BOND
  1   1   2  2   
  2   2   3  am  
  3   2   4  am  
  4   3   5  am  
  5   3   6  1   
  6   4   7  1   
  7   4  26  1   
  8   5   7  1   
  9   5   8  2   
 10   6   9  1   
 11   6  27  1   
 12   6  28  1   
 13   7  10  1   
 14   7  11  1   
 15   9  12  2   
 16   9  13  am  
 17  10  29  1   
 18  10  30  1   
 19  10  31  1   
 20  11  32  1   
 21  11  33  1   
 22  11  34  1   
 23  13  14  1   
 24  13  15  1   
 25  14  16  1   
 26  14  35  1   
 27  14  36  1   
 28  15  17  1   
 29  15  37  1   
 30  15  38  1   
 31  16  17  1   
 32  16  18  1   
 33  16  39  1   
 34  17  19  1   
 35  17  40  1   
 36  18  41  1   
 37  19  20  1   
 38  19  42  1   
 39  19  43  1   
 40  20  21  ar  
 41  20  22  ar  
 42  21  23  ar  
 43  22  24  ar  
 44  22  44  1   
 45  23  25  ar  
 46  23  45  1   
 47  24  25  ar  
 48  25  46  1   
@<TRIPOS>SUBSTRUCTURE
  1 ****  13 GROUP 4 **** **** 0

# MOE 2024.06 (io_trps.svl 2023.06)
