@<TRIPOS>MOLECULE
NONAME
40 42 1 0 0 
SMALL
USER_CHARGES


@<TRIPOS>ATOM
  1 CL      -2.7660     1.5480    -0.9940 Cl    1 <1>  -0.1770 
  2 C       -1.3790     2.5330    -0.6220 C.ar  1 <1>   0.1770 
  3 C       -1.5330     3.6530     0.1690 C.ar  1 <1>  -0.1500 
  4 C       -0.1380     2.1800    -1.1220 C.ar  1 <1>  -0.1500 
  5 C       -0.4130     4.4150     0.4450 C.ar  1 <1>   0.1900 
  6 C        0.9670     2.9630    -0.8310 C.ar  1 <1>  -0.1500 
  7 F       -0.5870     5.4570     1.2100 F     1 <1>  -0.1900 
  8 C        0.8630     4.1140    -0.0430 C.ar  1 <1>   0.0860 
  9 C        2.0360     4.9220     0.2390 C.2   1 <1>   0.5440 
 10 O        3.1410     4.4170     0.3010 O.2   1 <1>  -0.5700 
 11 N        1.9960     6.2870     0.3570 N.am  1 <1>  -0.6600 
 12 C        2.8240     6.9550     1.4290 C.3   1 <1>   0.2200 
 13 C        1.4830     7.1010    -0.7800 C.3   1 <1>   0.1400 
 14 C        2.2520     8.3120     1.8680 C.3   1 <1>   0.1200 
 15 C        4.3010     7.1100     0.9900 C.3   1 <1>   0.3430 
 16 C        2.3640     8.3190    -1.1180 C.3   1 <1>  -0.0800 
 17 O        2.7380     9.3360     1.0490 O.3   1 <1>  -0.5600 
 18 N        4.4660     6.9350    -0.4920 N.4   1 <1>  -0.9590 
 19 C        2.0940     9.4990    -0.1690 C.3   1 <1>   0.1200 
 20 C        3.8770     8.0460    -1.3130 C.3   1 <1>   0.3430 
 21 C        5.8860     6.6620    -0.8470 C.3   1 <1>   0.2630 
 22 H       -2.4970     3.9190     0.5610 H     1 <1>   0.1500 
 23 H       -0.0450     1.2970    -1.7310 H     1 <1>   0.1500 
 24 H        1.9320     2.6760    -1.2180 H     1 <1>   0.1500 
 25 H        2.8040     6.3170     2.2960 H     1 <1>   0.0800 
 26 H        1.4140     6.4720    -1.6530 H     1 <1>   0.0800 
 27 H        0.4840     7.4300    -0.5460 H     1 <1>   0.0800 
 28 H        2.5930     8.5320     2.8650 H     1 <1>   0.0800 
 29 H        1.1750     8.3130     1.8730 H     1 <1>   0.0800 
 30 H        4.8720     6.3510     1.4970 H     1 <1>   0.0800 
 31 H        4.6810     8.0690     1.3020 H     1 <1>   0.0800 
 32 H        2.0100     8.6680    -2.0710 H     1 <1>   0.0800 
 33 H        3.9100     6.0730    -0.6660 H     1 <1>   0.4500 
 34 H        1.0390     9.6340     0.0100 H     1 <1>   0.0800 
 35 H        2.4750    10.4090    -0.6000 H     1 <1>   0.0800 
 36 H        4.4160     8.9570    -1.1120 H     1 <1>   0.0800 
 37 H        4.0320     7.8070    -2.3520 H     1 <1>   0.0800 
 38 H        6.5000     7.5180    -0.6180 H     1 <1>   0.0800 
 39 H        5.9730     6.4440    -1.8990 H     1 <1>   0.0800 
 40 H        6.2510     5.8130    -0.2910 H     1 <1>   0.0800 
@<TRIPOS>BOND
  1   1   2  1   
  2   2   3  ar  
  3   2   4  ar  
  4   3   5  ar  
  5   3  22  1   
  6   4   6  ar  
  7   4  23  1   
  8   5   7  1   
  9   5   8  ar  
 10   6   8  ar  
 11   6  24  1   
 12   8   9  1   
 13   9  10  2   
 14   9  11  am  
 15  11  12  1   
 16  11  13  1   
 17  12  14  1   
 18  12  15  1   
 19  12  25  1   
 20  13  16  1   
 21  13  26  1   
 22  13  27  1   
 23  14  17  1   
 24  14  28  1   
 25  14  29  1   
 26  15  18  1   
 27  15  30  1   
 28  15  31  1   
 29  16  19  1   
 30  16  20  1   
 31  16  32  1   
 32  17  19  1   
 33  18  20  1   
 34  18  21  1   
 35  18  33  1   
 36  19  34  1   
 37  19  35  1   
 38  20  36  1   
 39  20  37  1   
 40  21  38  1   
 41  21  39  1   
 42  21  40  1   
@<TRIPOS>SUBSTRUCTURE
  1 ****  11 GROUP 4 **** **** 0

# MOE 2024.06 (io_trps.svl 2023.06)
