@<TRIPOS>MOLECULE
NONAME
43 47 1 0 0 
SMALL
USER_CHARGES


@<TRIPOS>ATOM
  1 S       -0.3190     0.1230     0.1460 S.3   1 <1>  -0.0800 
  2 C       -0.2040    -1.5870     0.6210 C.ar  1 <1>   0.0400 
  3 C        1.3220     0.4470     0.6970 C.2   1 <1>  -0.1100 
  4 C       -1.1260    -2.6250     0.5160 C.ar  1 <1>   0.4100 
  5 C        1.0400    -1.8280     1.1470 C.ar  1 <1>   0.2560 
  6 C        1.8840    -0.6710     1.1880 C.2   1 <1>  -0.1500 
  7 N       -0.7640    -3.8330     0.9170 N.ar  1 <1>  -0.6200 
  8 N       -2.4140    -2.4860     0.0120 N.pl3 1 <1>  -0.8380 
  9 N        1.3940    -3.0380     1.5620 N.ar  1 <1>  -0.5660 
 10 C        0.4630    -3.9580     1.4130 C.ar  1 <1>   0.4700 
 11 C       -3.3260    -1.4280     0.5490 C.3   1 <1>   0.2090 
 12 C       -3.1280    -3.6900    -0.5300 C.3   1 <1>   0.2090 
 13 C       -4.2920    -0.8990    -0.5390 C.3   1 <1>   0.1440 
 14 C       -4.6130    -3.4190    -0.8280 C.3   1 <1>  -0.1600 
 15 C       -5.4040    -0.1530     0.1800 C.ar  1 <1>   0.1670 
 16 C       -4.8160    -2.0340    -1.4590 C.3   1 <1>  -0.1600 
 17 C       -3.6550     0.2340    -1.3850 C.3   1 <1>  -0.1600 
 18 N       -6.4080    -0.7070     0.8260 N.ar  1 <1>  -0.6200 
 19 C       -5.2330     1.1970     0.1000 C.ar  1 <1>  -0.1430 
 20 C       -3.9970     1.5590    -0.6840 C.3   1 <1>  -0.0170 
 21 C       -7.2460     0.1570     1.3810 C.ar  1 <1>   0.4770 
 22 C       -6.1610     1.9990     0.7170 C.ar  1 <1>   0.1600 
 23 N       -7.1830     1.4820     1.3670 N.ar  1 <1>  -0.6200 
 24 C       -8.4120    -0.4430     2.1280 C.3   1 <1>  -0.0970 
 25 H        1.6900     1.4530     0.5900 H     1 <1>   0.1500 
 26 H        2.8770    -0.7570     1.5900 H     1 <1>   0.1500 
 27 H        0.7280    -4.9500     1.7380 H     1 <1>   0.1500 
 28 H       -2.7720    -0.6160     0.9810 H     1 <1>   0.0800 
 29 H       -3.9050    -1.8650     1.3440 H     1 <1>   0.0800 
 30 H       -3.0600    -4.5070     0.1690 H     1 <1>   0.0800 
 31 H       -2.6320    -3.9890    -1.4380 H     1 <1>   0.0800 
 32 H       -5.1780    -3.4860     0.0860 H     1 <1>   0.0800 
 33 H       -4.9840    -4.1820    -1.4890 H     1 <1>   0.0800 
 34 H       -4.2750    -2.0250    -2.3880 H     1 <1>   0.0800 
 35 H       -5.8560    -1.8780    -1.6840 H     1 <1>   0.0800 
 36 H       -4.1190     0.2560    -2.3560 H     1 <1>   0.0800 
 37 H       -2.5990     0.0950    -1.5240 H     1 <1>   0.0800 
 38 H       -4.1860     2.3460    -1.3940 H     1 <1>   0.0800 
 39 H       -3.2090     1.8500    -0.0110 H     1 <1>   0.0800 
 40 H       -6.0680     3.0710     0.6800 H     1 <1>   0.1500 
 41 H       -8.6920    -1.3790     1.6830 H     1 <1>   0.0800 
 42 H       -9.2540     0.2240     2.0960 H     1 <1>   0.0800 
 43 H       -8.1300    -0.6070     3.1500 H     1 <1>   0.0800 
@<TRIPOS>BOND
  1   1   2  1   
  2   1   3  1   
  3   2   4  ar  
  4   2   5  ar  
  5   3   6  2   
  6   3  25  1   
  7   4   7  ar  
  8   4   8  1   
  9   5   6  1   
 10   5   9  ar  
 11   6  26  1   
 12   7  10  ar  
 13   8  11  1   
 14   8  12  1   
 15   9  10  ar  
 16  10  27  1   
 17  11  13  1   
 18  11  28  1   
 19  11  29  1   
 20  12  14  1   
 21  12  30  1   
 22  12  31  1   
 23  13  15  1   
 24  13  16  1   
 25  13  17  1   
 26  14  16  1   
 27  14  32  1   
 28  14  33  1   
 29  15  18  ar  
 30  15  19  ar  
 31  16  34  1   
 32  16  35  1   
 33  17  20  1   
 34  17  36  1   
 35  17  37  1   
 36  18  21  ar  
 37  19  20  1   
 38  19  22  ar  
 39  20  38  1   
 40  20  39  1   
 41  21  23  ar  
 42  21  24  1   
 43  22  23  ar  
 44  22  40  1   
 45  24  41  1   
 46  24  42  1   
 47  24  43  1   
@<TRIPOS>SUBSTRUCTURE
  1 ****  11 GROUP 4 **** **** 0

# MOE 2024.06 (io_trps.svl 2023.06)
