@<TRIPOS>MOLECULE
NONAME
42 43 1 0 0 
SMALL
USER_CHARGES


@<TRIPOS>ATOM
  1 S       -0.7000     0.6220     1.3430 S.o2  1 <1>   1.4470 
  2 O       -0.5480    -0.2860     2.4580 O.2   1 <1>  -0.6500 
  3 O       -1.0120     2.0060     1.6270 O.2   1 <1>  -0.6500 
  4 N       -1.9420     0.0590     0.3350 N.am  1 <1>  -0.8490 
  5 C        0.7870     0.5830     0.3010 C.ar  1 <1>  -0.0090 
  6 C       -1.6980    -1.1220    -0.5230 C.3   1 <1>   0.1960 
  7 C       -3.2850     0.0980     0.9380 C.3   1 <1>   0.1960 
  8 C        0.8680     1.3550    -0.8550 C.ar  1 <1>  -0.1500 
  9 C        1.8740    -0.2260     0.6240 C.ar  1 <1>  -0.1500 
 10 C       -1.9010    -2.5120     0.1450 C.3   1 <1>  -0.1060 
 11 C       -3.9330    -1.2870     1.0790 C.3   1 <1>  -0.1600 
 12 C        2.0020     1.3040    -1.6470 C.ar  1 <1>   0.1900 
 13 C        2.9900    -0.2510    -0.1940 C.ar  1 <1>   0.1900 
 14 C       -2.4920    -3.4090    -0.9650 C.2   1 <1>   0.9060 
 15 C       -2.8620    -2.3350     1.3560 C.3   1 <1>   0.2000 
 16 C       -0.5740    -3.1380     0.6760 C.3   1 <1>  -0.1600 
 17 F        2.0480     2.0410    -2.7230 F     1 <1>  -0.1900 
 18 C        3.0840     0.5060    -1.3430 C.ar  1 <1>  -0.1500 
 19 F        3.9910    -1.0200     0.1350 F     1 <1>  -0.1900 
 20 O       -3.3350    -4.2770    -0.6960 O.co2 1 <1>  -0.9000 
 21 O       -2.1140    -3.2440    -2.1320 O.co2 1 <1>  -0.9000 
 22 O       -3.4800    -3.5150     1.7100 O.3   1 <1>  -0.6800 
 23 C        0.5130    -3.4290    -0.3750 C.3   1 <1>  -0.1600 
 24 C        1.7600    -4.0300     0.2800 C.3   1 <1>  -0.2400 
 25 H       -2.4100    -1.0330    -1.3280 H     1 <1>   0.0800 
 26 H       -0.7380    -1.0620    -0.9960 H     1 <1>   0.0800 
 27 H       -3.2270     0.5520     1.9140 H     1 <1>   0.0800 
 28 H       -3.9190     0.7230     0.3320 H     1 <1>   0.0800 
 29 H        0.0470     1.9920    -1.1360 H     1 <1>   0.1500 
 30 H        1.8510    -0.8390     1.5090 H     1 <1>   0.1500 
 31 H       -4.4570    -1.5370     0.1730 H     1 <1>   0.0800 
 32 H       -4.6430    -1.2630     1.8850 H     1 <1>   0.0800 
 33 H       -2.3060    -2.0220     2.2220 H     1 <1>   0.0800 
 34 H       -0.1570    -2.5100     1.4390 H     1 <1>   0.0800 
 35 H       -0.8260    -4.0720     1.1510 H     1 <1>   0.0800 
 36 H        3.9560     0.4750    -1.9690 H     1 <1>   0.1500 
 37 H       -3.6040    -4.0270     0.8480 H     1 <1>   0.4000 
 38 H        0.1350    -4.1280    -1.1030 H     1 <1>   0.0800 
 39 H        0.7930    -2.5350    -0.8990 H     1 <1>   0.0800 
 40 H        1.5130    -4.9550     0.7690 H     1 <1>   0.0800 
 41 H        2.1720    -3.3520     1.0050 H     1 <1>   0.0800 
 42 H        2.5070    -4.2270    -0.4690 H     1 <1>   0.0800 
@<TRIPOS>BOND
  1   1   2  2   
  2   1   3  2   
  3   1   4  am  
  4   1   5  1   
  5   4   6  1   
  6   4   7  1   
  7   5   8  ar  
  8   5   9  ar  
  9   6  10  1   
 10   6  25  1   
 11   6  26  1   
 12   7  11  1   
 13   7  27  1   
 14   7  28  1   
 15   8  12  ar  
 16   8  29  1   
 17   9  13  ar  
 18   9  30  1   
 19  10  14  1   
 20  10  15  1   
 21  10  16  1   
 22  11  15  1   
 23  11  31  1   
 24  11  32  1   
 25  12  17  1   
 26  12  18  ar  
 27  13  18  ar  
 28  13  19  1   
 29  14  20  ar  
 30  14  21  ar  
 31  15  22  1   
 32  15  33  1   
 33  16  23  1   
 34  16  34  1   
 35  16  35  1   
 36  18  36  1   
 37  22  37  1   
 38  23  24  1   
 39  23  38  1   
 40  23  39  1   
 41  24  40  1   
 42  24  41  1   
 43  24  42  1   
@<TRIPOS>SUBSTRUCTURE
  1 ****   6 GROUP 4 **** **** 0

# MOE 2024.06 (io_trps.svl 2023.06)
