@<TRIPOS>MOLECULE
NONAME
43 45 1 0 0 
SMALL
USER_CHARGES


@<TRIPOS>ATOM
  1 S        0.3500    -0.3270    -1.3190 S.3   1 <1>  -0.0800 
  2 C       -0.4730    -1.8560    -0.9850 C.2   1 <1>   0.0410 
  3 C       -1.1670     0.5290    -1.5220 C.2   1 <1>  -0.1100 
  4 C        0.3110    -3.0360    -0.7150 C.2   1 <1>   0.2880 
  5 C       -1.8120    -1.6470    -1.0420 C.2   1 <1>  -0.1500 
  6 C       -2.2040    -0.3080    -1.3430 C.2   1 <1>  -0.1500 
  7 N        1.6170    -3.0730    -0.6190 N.2   1 <1>  -0.7070 
  8 C       -0.2210    -4.3040    -0.5140 C.2   1 <1>  -0.1500 
  9 N        1.9230    -4.3480    -0.3610 N.pl3 1 <1>   0.3140 
 10 C        0.8230    -5.1410    -0.2710 C.2   1 <1>  -0.2370 
 11 C        3.3320    -4.7430    -0.1960 C.3   1 <1>   0.0160 
 12 C        0.8630    -6.5520     0.0110 C.2   1 <1>   0.7150 
 13 O        1.8100    -7.2100    -0.3770 O.2   1 <1>  -0.5700 
 14 N       -0.1320    -7.1870     0.7240 N.am  1 <1>  -0.6600 
 15 C       -0.2020    -8.6740     0.7590 C.3   1 <1>   0.3200 
 16 C       -1.0380    -6.4720     1.6770 C.3   1 <1>   0.1400 
 17 C       -1.3120    -9.1600    -0.1550 C.2   1 <1>  -0.3320 
 18 C       -2.4970    -6.4800     1.1990 C.3   1 <1>   0.1200 
 19 N       -1.9460   -10.3380    -0.0030 N.pl3 1 <1>   0.0330 
 20 C       -1.8620    -8.5770    -1.2430 C.2   1 <1>   0.0770 
 21 O       -3.2320    -5.5820     1.9600 O.3   1 <1>  -0.6800 
 22 C       -2.8550   -10.3850    -1.0010 C.2   1 <1>   0.0060 
 23 N       -2.8380    -9.3440    -1.7630 N.2   1 <1>  -0.5650 
 24 C       -3.7970   -11.5530    -1.2000 C.3   1 <1>  -0.0600 
 25 H       -1.1170     1.5780    -1.7540 H     1 <1>   0.1500 
 26 H       -2.5550    -2.4060    -0.8750 H     1 <1>   0.1500 
 27 H       -3.2430    -0.0350    -1.4110 H     1 <1>   0.1500 
 28 H       -1.2680    -4.5360    -0.5550 H     1 <1>   0.1500 
 29 H        3.9490    -3.8630    -0.1900 H     1 <1>   0.0800 
 30 H        3.6170    -5.3760    -1.0160 H     1 <1>   0.0800 
 31 H        3.4490    -5.2720     0.7300 H     1 <1>   0.0800 
 32 H       -0.3930    -8.9930     1.7680 H     1 <1>   0.0800 
 33 H        0.7290    -9.1190     0.4490 H     1 <1>   0.0800 
 34 H       -0.7120    -5.4530     1.7940 H     1 <1>   0.0800 
 35 H       -0.9770    -6.9440     2.6410 H     1 <1>   0.0800 
 36 H       -2.9410    -7.4550     1.2980 H     1 <1>   0.0800 
 37 H       -2.5630    -6.1650     0.1730 H     1 <1>   0.0800 
 38 H       -1.7850   -11.0610     0.7030 H     1 <1>   0.2700 
 39 H       -1.6030    -7.6300    -1.6870 H     1 <1>   0.1500 
 40 H       -3.4080    -5.9350     2.8540 H     1 <1>   0.4000 
 41 H       -4.4200   -11.6780    -0.3340 H     1 <1>   0.0800 
 42 H       -3.2370   -12.4530    -1.3740 H     1 <1>   0.0800 
 43 H       -4.4260   -11.3680    -2.0530 H     1 <1>   0.0800 
@<TRIPOS>BOND
  1   1   2  1   
  2   1   3  1   
  3   2   4  1   
  4   2   5  2   
  5   3   6  2   
  6   3  25  1   
  7   4   7  2   
  8   4   8  1   
  9   5   6  1   
 10   5  26  1   
 11   6  27  1   
 12   7   9  1   
 13   8  10  2   
 14   8  28  1   
 15   9  10  1   
 16   9  11  1   
 17  10  12  1   
 18  11  29  1   
 19  11  30  1   
 20  11  31  1   
 21  12  13  2   
 22  12  14  am  
 23  14  15  1   
 24  14  16  1   
 25  15  17  1   
 26  15  32  1   
 27  15  33  1   
 28  16  18  1   
 29  16  34  1   
 30  16  35  1   
 31  17  19  1   
 32  17  20  2   
 33  18  21  1   
 34  18  36  1   
 35  18  37  1   
 36  19  22  1   
 37  19  38  1   
 38  20  23  1   
 39  20  39  1   
 40  21  40  1   
 41  22  23  2   
 42  22  24  1   
 43  24  41  1   
 44  24  42  1   
 45  24  43  1   
@<TRIPOS>SUBSTRUCTURE
  1 ****   8 GROUP 4 **** **** 0

# MOE 2024.06 (io_trps.svl 2023.06)
