@<TRIPOS>MOLECULE
NONAME
53 56 1 0 0 
SMALL
USER_CHARGES


@<TRIPOS>ATOM
  1 O       -4.2340     1.3320    -0.2860 O.2   1 <1>  -0.5700 
  2 C       -3.7740     0.2150    -0.2870 C.2   1 <1>   0.5690 
  3 N       -2.5680    -0.0740     0.2830 N.am  1 <1>  -0.6600 
  4 C       -4.5740    -0.8750    -0.9640 C.3   1 <1>  -0.0190 
  5 C       -2.0580    -1.4720     0.3750 C.3   1 <1>   0.2200 
  6 C       -1.7210     0.9780     0.9140 C.3   1 <1>   0.0600 
  7 C       -3.7880    -1.4520    -2.1560 C.3   1 <1>   0.1200 
  8 C       -5.1500    -1.8730     0.0620 C.3   1 <1>   0.1400 
  9 C       -1.7530    -2.0590    -1.0310 C.3   1 <1>   0.1200 
 10 C       -2.9760    -2.3250     1.2840 C.3   1 <1>   0.1400 
 11 O       -2.8710    -2.4400    -1.7970 O.3   1 <1>  -0.5600 
 12 N       -4.1760    -2.8880     0.5850 N.am  1 <1>  -0.6600 
 13 C       -4.1980    -4.2320     0.2790 C.2   1 <1>   0.5690 
 14 O       -3.4610    -5.0130     0.8380 O.2   1 <1>  -0.5700 
 15 C       -5.0790    -4.8190    -0.8100 C.3   1 <1>   0.1570 
 16 N       -6.5270    -4.8040    -0.4920 N.pl3 1 <1>   0.0480 
 17 C       -7.4710    -4.2660    -1.3160 C.ar  1 <1>  -0.1520 
 18 C       -7.2160    -5.2860     0.5900 C.2   1 <1>   0.0060 
 19 C       -8.6760    -4.4380    -0.6630 C.ar  1 <1>   0.2270 
 20 C       -7.4210    -3.6380    -2.5660 C.ar  1 <1>  -0.1500 
 21 N       -8.4880    -5.0770     0.5180 N.2   1 <1>  -0.5650 
 22 C       -6.5540    -6.0150     1.7690 C.3   1 <1>   0.1000 
 23 C       -9.8590    -3.9760    -1.2360 C.ar  1 <1>  -0.1500 
 24 C       -8.5940    -3.1840    -3.1270 C.ar  1 <1>  -0.1500 
 25 C       -6.1320    -7.4310     1.3590 C.3   1 <1>  -0.2400 
 26 C       -7.4790    -6.0970     2.9930 C.3   1 <1>  -0.2400 
 27 C       -9.8150    -3.3510    -2.4620 C.ar  1 <1>  -0.1500 
 28 H       -5.4240    -0.3740    -1.3910 H     1 <1>   0.0800 
 29 H       -1.1110    -1.4200     0.8830 H     1 <1>   0.0800 
 30 H       -0.7440     0.9790     0.4650 H     1 <1>   0.0800 
 31 H       -1.6290     0.7890     1.9690 H     1 <1>   0.0800 
 32 H       -2.1580     1.9540     0.7800 H     1 <1>   0.0800 
 33 H       -3.2630    -0.6710    -2.6810 H     1 <1>   0.0800 
 34 H       -4.4770    -1.9100    -2.8430 H     1 <1>   0.0800 
 35 H       -5.9890    -2.3590    -0.3880 H     1 <1>   0.0800 
 36 H       -5.5400    -1.3180     0.8990 H     1 <1>   0.0800 
 37 H       -1.1630    -2.9490    -0.9040 H     1 <1>   0.0800 
 38 H       -1.1730    -1.3570    -1.6040 H     1 <1>   0.0800 
 39 H       -3.2990    -1.7340     2.1230 H     1 <1>   0.0800 
 40 H       -2.3810    -3.1270     1.6830 H     1 <1>   0.0800 
 41 H       -4.7830    -5.8350    -0.9900 H     1 <1>   0.0800 
 42 H       -4.9020    -4.2670    -1.7100 H     1 <1>   0.0800 
 43 H       -6.4870    -3.5140    -3.0830 H     1 <1>   0.1500 
 44 H       -5.6850    -5.4660     2.0790 H     1 <1>   0.0800 
 45 H      -10.7780    -4.1230    -0.7010 H     1 <1>   0.1500 
 46 H       -8.5860    -2.6970    -4.0870 H     1 <1>   0.1500 
 47 H       -6.9890    -7.9880     1.0240 H     1 <1>   0.0800 
 48 H       -5.6870    -7.9430     2.1930 H     1 <1>   0.0800 
 49 H       -5.4110    -7.3970     0.5640 H     1 <1>   0.0800 
 50 H       -8.3590    -6.6700     2.7590 H     1 <1>   0.0800 
 51 H       -7.7840    -5.1090     3.2860 H     1 <1>   0.0800 
 52 H       -6.9710    -6.5600     3.8190 H     1 <1>   0.0800 
 53 H      -10.7190    -2.9880    -2.9190 H     1 <1>   0.1500 
@<TRIPOS>BOND
  1   1   2  2   
  2   2   3  am  
  3   2   4  1   
  4   3   5  1   
  5   3   6  1   
  6   4   7  1   
  7   4   8  1   
  8   4  28  1   
  9   5   9  1   
 10   5  10  1   
 11   5  29  1   
 12   6  30  1   
 13   6  31  1   
 14   6  32  1   
 15   7  11  1   
 16   7  33  1   
 17   7  34  1   
 18   8  12  1   
 19   8  35  1   
 20   8  36  1   
 21   9  11  1   
 22   9  37  1   
 23   9  38  1   
 24  10  12  1   
 25  10  39  1   
 26  10  40  1   
 27  12  13  am  
 28  13  14  2   
 29  13  15  1   
 30  15  16  1   
 31  15  41  1   
 32  15  42  1   
 33  16  17  1   
 34  16  18  1   
 35  17  19  ar  
 36  17  20  ar  
 37  18  21  2   
 38  18  22  1   
 39  19  21  1   
 40  19  23  ar  
 41  20  24  ar  
 42  20  43  1   
 43  22  25  1   
 44  22  26  1   
 45  22  44  1   
 46  23  27  ar  
 47  23  45  1   
 48  24  27  ar  
 49  24  46  1   
 50  25  47  1   
 51  25  48  1   
 52  25  49  1   
 53  26  50  1   
 54  26  51  1   
 55  26  52  1   
 56  27  53  1   
@<TRIPOS>SUBSTRUCTURE
  1 ****   8 GROUP 4 **** **** 0

# MOE 2024.06 (io_trps.svl 2023.06)
