@<TRIPOS>MOLECULE
NONAME
54 57 1 0 0 
SMALL
USER_CHARGES


@<TRIPOS>ATOM
  1 O        0.7800    -0.7690     2.2530 O.2   1 <1>  -0.5700 
  2 C        1.3120    -1.1140     1.2110 C.2   1 <1>   0.5440 
  3 N        2.0210    -0.2210     0.4560 N.am  1 <1>  -0.4930 
  4 C        1.2490    -2.4820     0.7700 C.ar  1 <1>   0.0860 
  5 C        2.1780     1.1820     0.5790 C.2   1 <1>   0.0630 
  6 C        0.2010    -2.9570    -0.0420 C.ar  1 <1>   0.1000 
  7 C        2.2630    -3.3680     1.1360 C.ar  1 <1>  -0.1500 
  8 C        3.3720     1.8490     0.2820 C.2   1 <1>   0.3720 
  9 C        1.3150     2.1570     0.9420 C.2   1 <1>  -0.3320 
 10 N       -0.8790    -2.1780    -0.4470 N.pl3 1 <1>  -0.8380 
 11 C        0.2200    -4.2820    -0.4620 C.ar  1 <1>  -0.1500 
 12 C        2.2650    -4.6810     0.7100 C.ar  1 <1>  -0.1500 
 13 N        3.2860     3.1290     0.4710 N.2   1 <1>  -0.7070 
 14 N        4.5430     1.2070    -0.1680 N.pl3 1 <1>  -0.8210 
 15 N        2.0150     3.3180     0.8890 N.pl3 1 <1>   0.3140 
 16 C       -0.1540     2.0630     1.3320 C.3   1 <1>  -0.0600 
 17 C       -1.8980    -1.8120     0.5810 C.3   1 <1>   0.2090 
 18 C       -0.6670    -1.0840    -1.4410 C.3   1 <1>   0.2090 
 19 C        1.2370    -5.1400    -0.0960 C.ar  1 <1>  -0.1500 
 20 C        5.0560     1.7720    -1.4470 C.3   1 <1>   0.2090 
 21 C        5.6290     1.3000     0.8450 C.3   1 <1>   0.2090 
 22 C        1.5250     4.6610     1.2230 C.3   1 <1>   0.0160 
 23 C       -3.1790    -1.2790    -0.0870 C.3   1 <1>   0.1200 
 24 C       -2.0140    -0.6010    -2.0080 C.3   1 <1>   0.1200 
 25 C        6.5660     1.8670    -1.2880 C.3   1 <1>  -0.1600 
 26 C        6.7560     2.0970     0.2010 C.3   1 <1>  -0.1600 
 27 O       -2.8920    -0.2330    -0.9770 O.3   1 <1>  -0.5600 
 28 H        2.7250    -0.6190    -0.1660 H     1 <1>   0.3700 
 29 H        3.0590    -3.0110     1.7670 H     1 <1>   0.1500 
 30 H       -0.5840    -4.6310    -1.0830 H     1 <1>   0.1500 
 31 H        3.0570    -5.3480     1.0030 H     1 <1>   0.1500 
 32 H       -0.5520     1.1020     1.0660 H     1 <1>   0.0800 
 33 H       -0.7310     2.8110     0.8200 H     1 <1>   0.0800 
 34 H       -0.2620     2.1930     2.3940 H     1 <1>   0.0800 
 35 H       -1.5060    -1.0550     1.2360 H     1 <1>   0.0800 
 36 H       -2.1330    -2.6770     1.1770 H     1 <1>   0.0800 
 37 H       -0.0420    -1.4400    -2.2400 H     1 <1>   0.0800 
 38 H       -0.1770    -0.2500    -0.9730 H     1 <1>   0.0800 
 39 H        1.2300    -6.1630    -0.4320 H     1 <1>   0.1500 
 40 H        4.6460     2.7530    -1.6210 H     1 <1>   0.0800 
 41 H        4.7920     1.1320    -2.2700 H     1 <1>   0.0800 
 42 H        5.9650     0.3050     1.0780 H     1 <1>   0.0800 
 43 H        5.2900     1.7750     1.7520 H     1 <1>   0.0800 
 44 H        1.0820     4.6410     2.2000 H     1 <1>   0.0800 
 45 H        0.7990     4.9610     0.4930 H     1 <1>   0.0800 
 46 H        2.3510     5.3480     1.2150 H     1 <1>   0.0800 
 47 H       -3.8530    -0.9000     0.6590 H     1 <1>   0.0800 
 48 H       -3.6690    -2.0670    -0.6300 H     1 <1>   0.0800 
 49 H       -2.4740    -1.3800    -2.5900 H     1 <1>   0.0800 
 50 H       -1.8640     0.2590    -2.6340 H     1 <1>   0.0800 
 51 H        6.9820     2.6600    -1.8840 H     1 <1>   0.0800 
 52 H        7.0090     0.9310    -1.5780 H     1 <1>   0.0800 
 53 H        7.7220     1.7830     0.5520 H     1 <1>   0.0800 
 54 H        6.6140     3.1380     0.4320 H     1 <1>   0.0800 
@<TRIPOS>BOND
  1   1   2  2   
  2   2   3  am  
  3   2   4  1   
  4   3   5  1   
  5   3  28  1   
  6   4   6  ar  
  7   4   7  ar  
  8   5   8  1   
  9   5   9  2   
 10   6  10  1   
 11   6  11  ar  
 12   7  12  ar  
 13   7  29  1   
 14   8  13  2   
 15   8  14  1   
 16   9  15  1   
 17   9  16  1   
 18  10  17  1   
 19  10  18  1   
 20  11  19  ar  
 21  11  30  1   
 22  12  19  ar  
 23  12  31  1   
 24  13  15  1   
 25  14  20  1   
 26  14  21  1   
 27  15  22  1   
 28  16  32  1   
 29  16  33  1   
 30  16  34  1   
 31  17  23  1   
 32  17  35  1   
 33  17  36  1   
 34  18  24  1   
 35  18  37  1   
 36  18  38  1   
 37  19  39  1   
 38  20  25  1   
 39  20  40  1   
 40  20  41  1   
 41  21  26  1   
 42  21  42  1   
 43  21  43  1   
 44  22  44  1   
 45  22  45  1   
 46  22  46  1   
 47  23  27  1   
 48  23  47  1   
 49  23  48  1   
 50  24  27  1   
 51  24  49  1   
 52  24  50  1   
 53  25  26  1   
 54  25  51  1   
 55  25  52  1   
 56  26  53  1   
 57  26  54  1   
@<TRIPOS>SUBSTRUCTURE
  1 ****   3 GROUP 4 **** **** 0

# MOE 2024.06 (io_trps.svl 2023.06)
