@<TRIPOS>MOLECULE
NONAME
41 43 1 0 0 
SMALL
USER_CHARGES


@<TRIPOS>ATOM
  1 CL      -0.7610    -0.1880     0.4480 Cl    1 <1>  -0.1770 
  2 C       -0.6090    -1.9180     0.3590 C.ar  1 <1>   0.1770 
  3 C       -1.6720    -2.6710    -0.0670 C.ar  1 <1>  -0.1500 
  4 C        0.5940    -2.5090     0.7230 C.ar  1 <1>  -0.1500 
  5 C       -1.5510    -4.0610    -0.1400 C.ar  1 <1>   0.3610 
  6 C        0.7240    -3.8760     0.6550 C.ar  1 <1>  -0.1500 
  7 N       -2.6110    -4.8450    -0.5620 N.ar  1 <1>  -0.1790 
  8 C       -0.3420    -4.6880     0.2220 C.ar  1 <1>   0.0000 
  9 C       -2.5850    -6.1760    -0.6580 C.ar  1 <1>   0.4610 
 10 C       -0.2760    -6.1110     0.1240 C.ar  1 <1>  -0.1430 
 11 N       -3.6910    -6.8460    -1.0620 N.pl3 1 <1>  -0.8380 
 12 C       -1.3650    -6.8090    -0.3050 C.ar  1 <1>  -0.1500 
 13 C        1.0080    -6.8470     0.4900 C.3   1 <1>  -0.0970 
 14 C       -3.8230    -8.3480    -0.9370 C.3   1 <1>   0.2090 
 15 C       -4.8900    -6.2410    -1.7290 C.3   1 <1>   0.2090 
 16 C       -5.2840    -8.8100    -0.7200 C.3   1 <1>  -0.0800 
 17 C       -6.1380    -6.4210    -0.8530 C.3   1 <1>  -0.1600 
 18 C       -6.1240    -7.7190    -0.0330 C.3   1 <1>   0.2000 
 19 C       -5.3310   -10.1250     0.0690 C.3   1 <1>   0.1200 
 20 O       -5.5560    -7.4320     1.1910 O.3   1 <1>  -0.6800 
 21 O       -4.5610   -11.0720    -0.5890 O.3   1 <1>  -0.6800 
 22 H       -2.5860    -2.1740    -0.3390 H     1 <1>   0.1500 
 23 H        1.4080    -1.8840     1.0530 H     1 <1>   0.1500 
 24 H        1.6610    -4.3220     0.9390 H     1 <1>   0.1500 
 25 H       -3.4910    -4.3920    -0.7780 H     1 <1>   0.4570 
 26 H       -1.3040    -7.8780    -0.3950 H     1 <1>   0.1500 
 27 H        0.8990    -7.9090     0.3610 H     1 <1>   0.0800 
 28 H        1.2640    -6.6630     1.5180 H     1 <1>   0.0800 
 29 H        1.8190    -6.5180    -0.1370 H     1 <1>   0.0800 
 30 H       -3.4240    -8.8260    -1.8170 H     1 <1>   0.0800 
 31 H       -3.2470    -8.6870    -0.0920 H     1 <1>   0.0800 
 32 H       -4.7500    -5.2020    -1.9650 H     1 <1>   0.0800 
 33 H       -5.0460    -6.7540    -2.6660 H     1 <1>   0.0800 
 34 H       -5.7270    -9.0000    -1.6820 H     1 <1>   0.0800 
 35 H       -6.9900    -6.4430    -1.5080 H     1 <1>   0.0800 
 36 H       -6.2720    -5.5760    -0.2020 H     1 <1>   0.0800 
 37 H       -7.1300    -8.0580     0.1520 H     1 <1>   0.0800 
 38 H       -6.3370   -10.5000     0.1610 H     1 <1>   0.0800 
 39 H       -4.9170    -9.9940     1.0560 H     1 <1>   0.0800 
 40 H       -4.6270    -7.1710     1.0430 H     1 <1>   0.4000 
 41 H       -5.1010   -11.5810    -1.2280 H     1 <1>   0.4000 
@<TRIPOS>BOND
  1   1   2  1   
  2   2   3  ar  
  3   2   4  ar  
  4   3   5  ar  
  5   3  22  1   
  6   4   6  ar  
  7   4  23  1   
  8   5   7  ar  
  9   5   8  ar  
 10   6   8  ar  
 11   6  24  1   
 12   7   9  ar  
 13   7  25  1   
 14   8  10  ar  
 15   9  11  1   
 16   9  12  ar  
 17  10  12  ar  
 18  10  13  1   
 19  11  14  1   
 20  11  15  1   
 21  12  26  1   
 22  13  27  1   
 23  13  28  1   
 24  13  29  1   
 25  14  16  1   
 26  14  30  1   
 27  14  31  1   
 28  15  17  1   
 29  15  32  1   
 30  15  33  1   
 31  16  18  1   
 32  16  19  1   
 33  16  34  1   
 34  17  18  1   
 35  17  35  1   
 36  17  36  1   
 37  18  20  1   
 38  18  37  1   
 39  19  21  1   
 40  19  38  1   
 41  19  39  1   
 42  20  40  1   
 43  21  41  1   
@<TRIPOS>SUBSTRUCTURE
  1 ****   9 GROUP 4 **** **** 0

# MOE 2024.06 (io_trps.svl 2023.06)
