@<TRIPOS>MOLECULE
NONAME
55 58 1 0 0 
SMALL
USER_CHARGES


@<TRIPOS>ATOM
  1 O        0.3660     0.2650    -0.2870 O.3   1 <1>  -0.5600 
  2 C        1.7160    -0.0990    -0.3930 C.3   1 <1>   0.3440 
  3 C        0.1200     1.6420    -0.2900 C.3   1 <1>   0.2950 
  4 C        1.8410    -1.6160    -0.3960 C.ar  1 <1>  -0.1440 
  5 C        2.5140     0.4790     0.8000 C.3   1 <1>   0.3430 
  6 C       -1.3960     1.8390    -0.2250 C.3   1 <1>  -0.1950 
  7 C        0.8190     2.3090     0.9170 C.3   1 <1>   0.3430 
  8 C        2.8400    -2.2210    -1.1470 C.ar  1 <1>  -0.1500 
  9 C        0.9860    -2.4130     0.3550 C.ar  1 <1>  -0.1500 
 10 N        2.2780     1.9520     1.0000 N.4   1 <1>  -0.9590 
 11 C       -2.2380     1.7530    -1.4570 C.3   1 <1>  -0.2000 
 12 C       -2.0380     3.0760    -0.7720 C.3   1 <1>  -0.2000 
 13 C        2.9870    -3.5970    -1.1410 C.ar  1 <1>  -0.1500 
 14 C        1.1330    -3.7890     0.3610 C.ar  1 <1>  -0.1500 
 15 C        2.9190     2.5130     2.2160 C.3   1 <1>   0.5240 
 16 C        2.1340    -4.3820    -0.3850 C.ar  1 <1>  -0.1500 
 17 C        3.0900     4.0040     1.9630 C.2   1 <1>   0.0460 
 18 N        3.3920     4.4420     0.7200 N.2   1 <1>  -0.5650 
 19 C        2.9710     5.0410     2.8210 C.2   1 <1>  -0.3020 
 20 C        3.4640     5.7280     0.8510 C.2   1 <1>   0.0060 
 21 N        3.2160     6.1560     2.1080 N.pl3 1 <1>   0.0330 
 22 C        3.7960     6.6840    -0.2830 C.3   1 <1>   0.0200 
 23 C        5.1860     7.3070    -0.0960 C.3   1 <1>  -0.1600 
 24 C        5.5360     8.2590    -1.2470 C.3   1 <1>  -0.1600 
 25 C        6.9230     8.8760    -1.0480 C.3   1 <1>  -0.2400 
 26 H        2.0950     0.2920    -1.3220 H     1 <1>   0.0800 
 27 H        0.4950     2.0520    -1.2120 H     1 <1>   0.0800 
 28 H        3.5620     0.2880     0.6440 H     1 <1>   0.0800 
 29 H        2.2120    -0.0600     1.6830 H     1 <1>   0.0800 
 30 H       -1.8200     1.4250     0.6750 H     1 <1>   0.1000 
 31 H        0.3130     1.9880     1.8120 H     1 <1>   0.0800 
 32 H        0.7070     3.3780     0.8390 H     1 <1>   0.0800 
 33 H        3.5130    -1.6340    -1.7480 H     1 <1>   0.1500 
 34 H        0.1940    -1.9700     0.9350 H     1 <1>   0.1500 
 35 H        2.7500     2.4990     0.2540 H     1 <1>   0.4500 
 36 H       -1.7610     1.5780    -2.4070 H     1 <1>   0.1000 
 37 H       -3.1990     1.2720    -1.3900 H     1 <1>   0.1000 
 38 H       -2.8780     3.5060    -0.2520 H     1 <1>   0.1000 
 39 H       -1.4520     3.8180    -1.2860 H     1 <1>   0.1000 
 40 H        3.7620    -4.0620    -1.7260 H     1 <1>   0.1500 
 41 H        0.4640    -4.4000     0.9430 H     1 <1>   0.1500 
 42 H        2.3210     2.3370     3.0940 H     1 <1>   0.0800 
 43 H        3.8940     2.0760     2.3540 H     1 <1>   0.0800 
 44 H        2.2470    -5.4530    -0.3820 H     1 <1>   0.1500 
 45 H        2.7370     5.0610     3.8720 H     1 <1>   0.1500 
 46 H        3.2260     7.1270     2.4380 H     1 <1>   0.2700 
 47 H        3.7720     6.1430    -1.2130 H     1 <1>   0.0800 
 48 H        3.0490     7.4560    -0.3300 H     1 <1>   0.0800 
 49 H        5.2180     7.8480     0.8340 H     1 <1>   0.0800 
 50 H        5.9190     6.5200    -0.0480 H     1 <1>   0.0800 
 51 H        5.5210     7.7220    -2.1810 H     1 <1>   0.0800 
 52 H        4.8050     9.0480    -1.3050 H     1 <1>   0.0800 
 53 H        7.6750     8.1070    -1.0100 H     1 <1>   0.0800 
 54 H        6.9580     9.4410    -0.1330 H     1 <1>   0.0800 
 55 H        7.1520     9.5370    -1.8650 H     1 <1>   0.0800 
@<TRIPOS>BOND
  1   1   2  1   
  2   1   3  1   
  3   2   4  1   
  4   2   5  1   
  5   2  26  1   
  6   3   6  1   
  7   3   7  1   
  8   3  27  1   
  9   4   8  ar  
 10   4   9  ar  
 11   5  10  1   
 12   5  28  1   
 13   5  29  1   
 14   6  11  1   
 15   6  12  1   
 16   6  30  1   
 17   7  10  1   
 18   7  31  1   
 19   7  32  1   
 20   8  13  ar  
 21   8  33  1   
 22   9  14  ar  
 23   9  34  1   
 24  10  15  1   
 25  10  35  1   
 26  11  12  1   
 27  11  36  1   
 28  11  37  1   
 29  12  38  1   
 30  12  39  1   
 31  13  16  ar  
 32  13  40  1   
 33  14  16  ar  
 34  14  41  1   
 35  15  17  1   
 36  15  42  1   
 37  15  43  1   
 38  16  44  1   
 39  17  18  1   
 40  17  19  2   
 41  18  20  2   
 42  19  21  1   
 43  19  45  1   
 44  20  21  1   
 45  20  22  1   
 46  21  46  1   
 47  22  23  1   
 48  22  47  1   
 49  22  48  1   
 50  23  24  1   
 51  23  49  1   
 52  23  50  1   
 53  24  25  1   
 54  24  51  1   
 55  24  52  1   
 56  25  53  1   
 57  25  54  1   
 58  25  55  1   
@<TRIPOS>SUBSTRUCTURE
  1 ****  10 GROUP 4 **** **** 0

# MOE 2024.06 (io_trps.svl 2023.06)
