@<TRIPOS>MOLECULE
NONAME
39 40 1 0 0 
SMALL
USER_CHARGES


@<TRIPOS>ATOM
  1 O       -0.8860    -0.0610    -0.6460 O.3   1 <1>  -0.5600 
  2 C       -2.0650    -0.7730    -0.4310 C.3   1 <1>   0.2000 
  3 C       -0.9880     1.3220    -0.4650 C.3   1 <1>   0.1200 
  4 C       -2.4900    -0.6090     1.0400 C.3   1 <1>  -0.1600 
  5 C       -1.7630    -2.2360    -0.7950 C.3   1 <1>   0.3430 
  6 C       -1.3550     1.6230     0.9920 C.3   1 <1>  -0.1600 
  7 C       -2.6280     0.8740     1.4030 C.3   1 <1>  -0.1600 
  8 N       -2.9880    -3.0950    -0.8530 N.4   1 <1>  -0.9590 
  9 C       -2.7090    -4.5230    -0.5460 C.3   1 <1>   0.5230 
 10 C       -3.8000    -2.8890    -2.0920 C.3   1 <1>   0.3430 
 11 C       -3.8540    -5.0740     0.2940 C.2   1 <1>   0.0070 
 12 C       -5.2470    -2.5040    -1.7380 C.3   1 <1>   0.1200 
 13 N       -4.6970    -4.3220     0.9330 N.2   1 <1>  -0.5650 
 14 N       -4.0860    -6.3990     0.4590 N.pl3 1 <1>   0.0330 
 15 O       -5.2340    -1.5010    -0.7730 O.3   1 <1>  -0.6800 
 16 C       -5.5190    -5.1970     1.5440 C.2   1 <1>   0.0770 
 17 C       -5.1600    -6.4670     1.2630 C.2   1 <1>  -0.3020 
 18 H       -2.8120    -0.3720    -1.0950 H     1 <1>   0.0800 
 19 H       -1.7320     1.7060    -1.1420 H     1 <1>   0.0800 
 20 H       -0.0350     1.7580    -0.7100 H     1 <1>   0.0800 
 21 H       -1.7530    -1.0650     1.6770 H     1 <1>   0.0800 
 22 H       -3.4290    -1.1030     1.2160 H     1 <1>   0.0800 
 23 H       -1.0890    -2.6190    -0.0480 H     1 <1>   0.0800 
 24 H       -1.2610    -2.2580    -1.7470 H     1 <1>   0.0800 
 25 H       -1.4990     2.6820     1.1160 H     1 <1>   0.0800 
 26 H       -0.5360     1.3280     1.6250 H     1 <1>   0.0800 
 27 H       -2.7990     0.9850     2.4600 H     1 <1>   0.0800 
 28 H       -3.4720     1.2920     0.8810 H     1 <1>   0.0800 
 29 H       -3.6310    -2.8010    -0.0850 H     1 <1>   0.4500 
 30 H       -1.8010    -4.6030     0.0270 H     1 <1>   0.0800 
 31 H       -2.5970    -5.0880    -1.4560 H     1 <1>   0.0800 
 32 H       -3.8010    -3.7780    -2.7000 H     1 <1>   0.0800 
 33 H       -3.3750    -2.0900    -2.6780 H     1 <1>   0.0800 
 34 H       -5.7780    -3.3520    -1.3400 H     1 <1>   0.0800 
 35 H       -5.7670    -2.1380    -2.6070 H     1 <1>   0.0800 
 36 H       -3.5680    -7.1990     0.0780 H     1 <1>   0.2700 
 37 H       -6.1430    -1.3150    -0.4500 H     1 <1>   0.4000 
 38 H       -6.3360    -4.8650     2.1650 H     1 <1>   0.1500 
 39 H       -5.6040    -7.3920     1.5900 H     1 <1>   0.1500 
@<TRIPOS>BOND
  1   1   2  1   
  2   1   3  1   
  3   2   4  1   
  4   2   5  1   
  5   2  18  1   
  6   3   6  1   
  7   3  19  1   
  8   3  20  1   
  9   4   7  1   
 10   4  21  1   
 11   4  22  1   
 12   5   8  1   
 13   5  23  1   
 14   5  24  1   
 15   6   7  1   
 16   6  25  1   
 17   6  26  1   
 18   7  27  1   
 19   7  28  1   
 20   8   9  1   
 21   8  10  1   
 22   8  29  1   
 23   9  11  1   
 24   9  30  1   
 25   9  31  1   
 26  10  12  1   
 27  10  32  1   
 28  10  33  1   
 29  11  13  2   
 30  11  14  1   
 31  12  15  1   
 32  12  34  1   
 33  12  35  1   
 34  13  16  1   
 35  14  17  1   
 36  14  36  1   
 37  15  37  1   
 38  16  17  2   
 39  16  38  1   
 40  17  39  1   
@<TRIPOS>SUBSTRUCTURE
  1 ****   8 GROUP 4 **** **** 0

# MOE 2024.06 (io_trps.svl 2023.06)
