@<TRIPOS>MOLECULE
NONAME
44 46 1 0 0 
SMALL
USER_CHARGES


@<TRIPOS>ATOM
  1 O        1.3100     0.8490    -0.8060 O.3   1 <1>  -0.6800 
  2 C        1.5080     0.2120     0.4050 C.3   1 <1>   0.2800 
  3 C        3.0320     0.0860     0.7070 C.3   1 <1>  -0.0800 
  4 C        0.8740    -1.1860     0.2740 C.3   1 <1>  -0.1600 
  5 C        0.7530     1.0340     1.4740 C.3   1 <1>  -0.1600 
  6 C        3.6700    -1.2570     0.3080 C.3   1 <1>  -0.0800 
  7 C        3.9340     1.1290     0.0430 C.3   1 <1>   0.2090 
  8 C        1.5310    -2.0630    -0.8140 C.3   1 <1>  -0.1600 
  9 C        1.2250     2.4870     1.6530 C.3   1 <1>  -0.2400 
 10 C        3.0390    -1.8040    -0.9830 C.3   1 <1>  -0.1600 
 11 C        5.1660    -0.9590     0.1530 C.3   1 <1>   0.2090 
 12 N        5.2890     0.5190     0.0340 N.pl3 1 <1>  -0.8380 
 13 C        6.4470     1.2240     0.1190 C.ar  1 <1>   0.1000 
 14 C        6.7780     2.2720    -0.7660 C.ar  1 <1>  -0.1440 
 15 C        7.3750     0.9220     1.1240 C.ar  1 <1>  -0.1500 
 16 C        7.9580     2.9550    -0.6030 C.ar  1 <1>   0.2110 
 17 C        5.8600     2.6460    -1.9270 C.3   1 <1>  -0.0970 
 18 C        8.5410     1.6260     1.2490 C.ar  1 <1>   0.2110 
 19 N        8.8220     2.6350     0.3910 N.ar  1 <1>  -0.1790 
 20 H        0.3600     0.8470    -1.0170 H     1 <1>   0.4000 
 21 H        3.1710     0.1790     1.7690 H     1 <1>   0.0800 
 22 H        0.9840    -1.6870     1.2200 H     1 <1>   0.0800 
 23 H       -0.1820    -1.1070     0.0860 H     1 <1>   0.0800 
 24 H       -0.2950     1.0430     1.2300 H     1 <1>   0.0800 
 25 H        0.8450     0.5320     2.4210 H     1 <1>   0.0800 
 26 H        3.5330    -1.9860     1.0880 H     1 <1>   0.0800 
 27 H        3.9310     2.0620     0.5780 H     1 <1>   0.0800 
 28 H        3.6360     1.2980    -0.9760 H     1 <1>   0.0800 
 29 H        1.3690    -3.0980    -0.5640 H     1 <1>   0.0800 
 30 H        1.0480    -1.8820    -1.7590 H     1 <1>   0.0800 
 31 H        1.1960     3.0170     0.7170 H     1 <1>   0.0800 
 32 H        2.2260     2.5210     2.0420 H     1 <1>   0.0800 
 33 H        0.5810     2.9960     2.3490 H     1 <1>   0.0800 
 34 H        3.1810    -1.0810    -1.7690 H     1 <1>   0.0800 
 35 H        3.5290    -2.7130    -1.2860 H     1 <1>   0.0800 
 36 H        5.5730    -1.4360    -0.7230 H     1 <1>   0.0800 
 37 H        5.6950    -1.3060     1.0220 H     1 <1>   0.0800 
 38 H        7.1480     0.1300     1.8140 H     1 <1>   0.1500 
 39 H        8.2240     3.7600    -1.2700 H     1 <1>   0.1500 
 40 H        5.5170     1.7560    -2.4260 H     1 <1>   0.0800 
 41 H        6.3670     3.2560    -2.6520 H     1 <1>   0.0800 
 42 H        5.0050     3.1890    -1.5660 H     1 <1>   0.0800 
 43 H        9.2480     1.3910     2.0280 H     1 <1>   0.1500 
 44 H        9.6970     3.1610     0.4910 H     1 <1>   0.4570 
@<TRIPOS>BOND
  1   1   2  1   
  2   1  20  1   
  3   2   3  1   
  4   2   4  1   
  5   2   5  1   
  6   3   6  1   
  7   3   7  1   
  8   3  21  1   
  9   4   8  1   
 10   4  22  1   
 11   4  23  1   
 12   5   9  1   
 13   5  24  1   
 14   5  25  1   
 15   6  10  1   
 16   6  11  1   
 17   6  26  1   
 18   7  12  1   
 19   7  27  1   
 20   7  28  1   
 21   8  10  1   
 22   8  29  1   
 23   8  30  1   
 24   9  31  1   
 25   9  32  1   
 26   9  33  1   
 27  10  34  1   
 28  10  35  1   
 29  11  12  1   
 30  11  36  1   
 31  11  37  1   
 32  12  13  1   
 33  13  14  ar  
 34  13  15  ar  
 35  14  16  ar  
 36  14  17  1   
 37  15  18  ar  
 38  15  38  1   
 39  16  19  ar  
 40  16  39  1   
 41  17  40  1   
 42  17  41  1   
 43  17  42  1   
 44  18  19  ar  
 45  18  43  1   
 46  19  44  1   
@<TRIPOS>SUBSTRUCTURE
  1 ****   7 GROUP 4 **** **** 0

# MOE 2024.06 (io_trps.svl 2023.06)
