@<TRIPOS>MOLECULE
NONAME
51 53 1 0 0 
SMALL
USER_CHARGES


@<TRIPOS>ATOM
  1 O       -0.5000     2.5130    -1.9520 O.2   1 <1>  -0.5700 
  2 C        0.4530     2.4010    -1.2130 C.2   1 <1>   0.6900 
  3 N        0.9110     3.3830    -0.3860 N.am  1 <1>  -0.4200 
  4 N        1.1620     1.2630    -1.0790 N.am  1 <1>  -0.7300 
  5 C        1.8960     2.8800     0.4050 C.2   1 <1>   0.5690 
  6 C        0.0770     4.5470    -0.0050 C.3   1 <1>   0.2010 
  7 C        2.1090     1.3990     0.0360 C.3   1 <1>   0.3610 
  8 O        2.5020     3.4940     1.2520 O.2   1 <1>  -0.5700 
  9 C       -1.1200     4.1410     0.8630 C.2   1 <1>   0.5690 
 10 C        1.6890     0.4440     1.1550 C.3   1 <1>  -0.2400 
 11 C        3.5190     1.0970    -0.4760 C.3   1 <1>  -0.2400 
 12 O       -0.9850     3.1940     1.6080 O.2   1 <1>  -0.5700 
 13 N       -2.3120     4.8250     0.7950 N.am  1 <1>  -0.6600 
 14 C       -3.5510     4.2600     1.4090 C.3   1 <1>   0.1400 
 15 C       -2.5730     6.0540    -0.0030 C.3   1 <1>   0.1400 
 16 C       -4.5860     3.8780     0.3220 C.3   1 <1>   0.0000 
 17 C       -3.5530     5.7200    -1.1300 C.3   1 <1>  -0.1600 
 18 C       -5.8520     3.3360     1.0180 C.3   1 <1>   0.2000 
 19 C       -4.8530     5.1090    -0.5800 C.3   1 <1>  -0.1600 
 20 C       -4.1020     2.6620    -0.4890 C.3   1 <1>  -0.1600 
 21 O       -6.9350     3.3850     0.1330 O.3   1 <1>  -0.5600 
 22 C       -5.5410     1.8650     1.3300 C.3   1 <1>  -0.1600 
 23 C       -4.4310     1.4330     0.3620 C.3   1 <1>  -0.1600 
 24 C       -8.1910     3.4070     0.7330 C.3   1 <1>   0.0400 
 25 H        0.7400     0.3670    -1.3170 H     1 <1>   0.3700 
 26 H        0.6780     5.2510     0.5410 H     1 <1>   0.0800 
 27 H       -0.2660     5.0080    -0.9100 H     1 <1>   0.0800 
 28 H        2.3380     0.5760     2.0020 H     1 <1>   0.0800 
 29 H        1.7520    -0.5780     0.8300 H     1 <1>   0.0800 
 30 H        0.6830     0.6610     1.4710 H     1 <1>   0.0800 
 31 H        4.2310     1.2510     0.3140 H     1 <1>   0.0800 
 32 H        3.7690     1.7560    -1.2890 H     1 <1>   0.0800 
 33 H        3.5900     0.0780    -0.8100 H     1 <1>   0.0800 
 34 H       -3.3130     3.3990     2.0100 H     1 <1>   0.0800 
 35 H       -3.9740     5.0000     2.0650 H     1 <1>   0.0800 
 36 H       -3.0080     6.7980     0.6420 H     1 <1>   0.0800 
 37 H       -1.6670     6.4660    -0.4080 H     1 <1>   0.0800 
 38 H       -3.7840     6.6150    -1.6790 H     1 <1>   0.0800 
 39 H       -3.0850     5.0310    -1.8130 H     1 <1>   0.0800 
 40 H       -6.0940     3.9060     1.8990 H     1 <1>   0.0800 
 41 H       -5.4900     4.8330    -1.4030 H     1 <1>   0.0800 
 42 H       -5.3760     5.8540    -0.0060 H     1 <1>   0.0800 
 43 H       -4.6660     2.6010    -1.4040 H     1 <1>   0.0800 
 44 H       -3.0570     2.7060    -0.7390 H     1 <1>   0.0800 
 45 H       -5.1740     1.7870     2.3380 H     1 <1>   0.0800 
 46 H       -6.4100     1.2400     1.2310 H     1 <1>   0.0800 
 47 H       -3.5580     1.1290     0.9150 H     1 <1>   0.0800 
 48 H       -4.7510     0.6160    -0.2620 H     1 <1>   0.0800 
 49 H       -8.9320     3.4120    -0.0460 H     1 <1>   0.0800 
 50 H       -8.2830     4.3010     1.3260 H     1 <1>   0.0800 
 51 H       -8.3150     2.5310     1.3450 H     1 <1>   0.0800 
@<TRIPOS>BOND
  1   1   2  2   
  2   2   3  am  
  3   2   4  am  
  4   3   5  am  
  5   3   6  1   
  6   4   7  1   
  7   4  25  1   
  8   5   7  1   
  9   5   8  2   
 10   6   9  1   
 11   6  26  1   
 12   6  27  1   
 13   7  10  1   
 14   7  11  1   
 15   9  12  2   
 16   9  13  am  
 17  10  28  1   
 18  10  29  1   
 19  10  30  1   
 20  11  31  1   
 21  11  32  1   
 22  11  33  1   
 23  13  14  1   
 24  13  15  1   
 25  14  16  1   
 26  14  34  1   
 27  14  35  1   
 28  15  17  1   
 29  15  36  1   
 30  15  37  1   
 31  16  18  1   
 32  16  19  1   
 33  16  20  1   
 34  17  19  1   
 35  17  38  1   
 36  17  39  1   
 37  18  21  1   
 38  18  22  1   
 39  18  40  1   
 40  19  41  1   
 41  19  42  1   
 42  20  23  1   
 43  20  43  1   
 44  20  44  1   
 45  21  24  1   
 46  22  23  1   
 47  22  45  1   
 48  22  46  1   
 49  23  47  1   
 50  23  48  1   
 51  24  49  1   
 52  24  50  1   
 53  24  51  1   
@<TRIPOS>SUBSTRUCTURE
  1 ****   9 GROUP 4 **** **** 0

# MOE 2024.06 (io_trps.svl 2023.06)
