@<TRIPOS>MOLECULE
NONAME
41 42 1 0 0 
SMALL
USER_CHARGES


@<TRIPOS>ATOM
  1 F       -0.0820     2.6960    -0.5900 F     1 <1>  -0.1900 
  2 C        1.2160     2.8050    -0.4910 C.ar  1 <1>   0.1900 
  3 C        1.8090     2.6130     0.7410 C.ar  1 <1>  -0.1500 
  4 C        1.9470     3.1090    -1.6230 C.ar  1 <1>  -0.1500 
  5 C        3.1850     2.7320     0.8390 C.ar  1 <1>  -0.1500 
  6 C        3.3230     3.2250    -1.5120 C.ar  1 <1>  -0.1500 
  7 C        3.9450     3.0370    -0.2830 C.ar  1 <1>  -0.1440 
  8 C        5.4540     3.1710    -0.1610 C.3   1 <1>  -0.0160 
  9 C        5.8230     4.5720     0.3380 C.3   1 <1>  -0.1600 
 10 C        7.3460     4.7550     0.4510 C.3   1 <1>  -0.0990 
 11 C        7.7130     6.1130     1.0180 C.2   1 <1>   0.5690 
 12 O        8.0890     6.1730     2.1630 O.2   1 <1>  -0.5700 
 13 N        7.5980     7.1990     0.2030 N.am  1 <1>  -0.4930 
 14 C        7.8720     8.5590     0.4950 C.2   1 <1>   0.0630 
 15 C        8.3230     9.1380     1.6810 C.2   1 <1>   0.1390 
 16 C        7.7420     9.5950    -0.3590 C.2   1 <1>  -0.3020 
 17 N        8.4630    10.4270     1.5790 N.2   1 <1>  -0.7070 
 18 N        8.1030    10.7140     0.3100 N.pl3 1 <1>   0.3140 
 19 C        8.1130    12.0970    -0.2490 C.3   1 <1>   0.1760 
 20 C        9.5340    12.6780    -0.2310 C.3   1 <1>  -0.2400 
 21 C        7.1440    13.0020     0.5250 C.3   1 <1>  -0.2400 
 22 H        1.2060     2.3780     1.5990 H     1 <1>   0.1500 
 23 H        1.4490     3.2500    -2.5650 H     1 <1>   0.1500 
 24 H        3.6620     2.5870     1.7930 H     1 <1>   0.1500 
 25 H        3.9050     3.4610    -2.3850 H     1 <1>   0.1500 
 26 H        5.9120     2.9880    -1.1180 H     1 <1>   0.0800 
 27 H        5.8230     2.4280     0.5250 H     1 <1>   0.0800 
 28 H        5.3770     4.7300     1.3060 H     1 <1>   0.0800 
 29 H        5.4140     5.3070    -0.3340 H     1 <1>   0.0800 
 30 H        7.8080     4.6400    -0.5130 H     1 <1>   0.0800 
 31 H        7.7500     4.0000     1.1010 H     1 <1>   0.0800 
 32 H        7.2560     7.0280    -0.7390 H     1 <1>   0.3700 
 33 H        8.5320     8.5870     2.5820 H     1 <1>   0.1500 
 34 H        7.4220     9.6040    -1.3820 H     1 <1>   0.1500 
 35 H        7.7820    12.0370    -1.2690 H     1 <1>   0.0800 
 36 H        9.8920    12.7570     0.7810 H     1 <1>   0.0800 
 37 H        9.5420    13.6570    -0.6750 H     1 <1>   0.0800 
 38 H       10.2000    12.0440    -0.7880 H     1 <1>   0.0800 
 39 H        7.4540    13.0880     1.5520 H     1 <1>   0.0800 
 40 H        6.1500    12.5930     0.4930 H     1 <1>   0.0800 
 41 H        7.1240    13.9850     0.0900 H     1 <1>   0.0800 
@<TRIPOS>BOND
  1   1   2  1   
  2   2   3  ar  
  3   2   4  ar  
  4   3   5  ar  
  5   3  22  1   
  6   4   6  ar  
  7   4  23  1   
  8   5   7  ar  
  9   5  24  1   
 10   6   7  ar  
 11   6  25  1   
 12   7   8  1   
 13   8   9  1   
 14   8  26  1   
 15   8  27  1   
 16   9  10  1   
 17   9  28  1   
 18   9  29  1   
 19  10  11  1   
 20  10  30  1   
 21  10  31  1   
 22  11  12  2   
 23  11  13  am  
 24  13  14  1   
 25  13  32  1   
 26  14  15  1   
 27  14  16  2   
 28  15  17  2   
 29  15  33  1   
 30  16  18  1   
 31  16  34  1   
 32  17  18  1   
 33  18  19  1   
 34  19  20  1   
 35  19  21  1   
 36  19  35  1   
 37  20  36  1   
 38  20  37  1   
 39  20  38  1   
 40  21  39  1   
 41  21  40  1   
 42  21  41  1   
@<TRIPOS>SUBSTRUCTURE
  1 ****  13 GROUP 4 **** **** 0

# MOE 2024.06 (io_trps.svl 2023.06)
