@<TRIPOS>MOLECULE
NONAME
46 47 1 0 0 
SMALL
USER_CHARGES


@<TRIPOS>ATOM
  1 S       -0.3300    -0.0420     0.6620 S.3   1 <1>  -0.0800 
  2 C       -1.7080    -0.6710    -0.1810 C.2   1 <1>   0.4420 
  3 C       -0.6740     1.4890    -0.0660 C.2   1 <1>   0.1980 
  4 N       -2.2900     0.2230    -0.8920 N.2   1 <1>  -0.3380 
  5 N       -1.9930    -2.0070     0.0150 N.am  1 <1>  -0.4940 
  6 N       -1.6950     1.4520    -0.8220 N.2   1 <1>  -0.3380 
  7 C        0.2440     2.6490     0.2680 C.3   1 <1>   0.0200 
  8 C       -3.0050    -2.7610    -0.5150 C.2   1 <1>   0.5690 
  9 C       -0.1880     3.9270    -0.4470 C.3   1 <1>   0.1200 
 10 O       -3.8260    -2.3090    -1.2710 O.2   1 <1>  -0.5700 
 11 C       -3.1300    -4.2620    -0.1480 C.3   1 <1>   0.0610 
 12 O        0.6970     4.9400    -0.0920 O.3   1 <1>  -0.5600 
 13 C       -3.0420    -5.0970    -1.4490 C.3   1 <1>  -0.1600 
 14 C       -4.5130    -4.4970     0.5070 C.3   1 <1>  -0.1600 
 15 C       -2.0200    -4.7300     0.8300 C.3   1 <1>  -0.2400 
 16 C        0.4120     6.1640    -0.6800 C.3   1 <1>   0.1200 
 17 C       -3.4450    -6.5600    -1.2680 C.3   1 <1>   0.3430 
 18 C       -4.8840    -5.9720     0.6460 C.3   1 <1>   0.3430 
 19 C        1.4590     7.1590    -0.1980 C.3   1 <1>  -0.2400 
 20 N       -4.8160    -6.6280    -0.6900 N.4   1 <1>  -0.9590 
 21 C       -5.3060    -8.0380    -0.6260 C.3   1 <1>   0.2630 
 22 H       -1.3530    -2.4830     0.6420 H     1 <1>   0.3700 
 23 H        1.2450     2.3990    -0.0300 H     1 <1>   0.0800 
 24 H        0.2240     2.8150     1.3300 H     1 <1>   0.0800 
 25 H       -1.1830     4.2100    -0.1450 H     1 <1>   0.0800 
 26 H       -0.1540     3.7910    -1.5150 H     1 <1>   0.0800 
 27 H       -2.0400    -5.0540    -1.8390 H     1 <1>   0.0800 
 28 H       -3.6810    -4.6700    -2.2030 H     1 <1>   0.0800 
 29 H       -5.2810    -4.0170    -0.0760 H     1 <1>   0.0800 
 30 H       -4.5360    -4.0360     1.4790 H     1 <1>   0.0800 
 31 H       -1.0450    -4.5900     0.3950 H     1 <1>   0.0800 
 32 H       -2.1160    -5.7710     1.0780 H     1 <1>   0.0800 
 33 H       -2.0650    -4.1740     1.7510 H     1 <1>   0.0800 
 34 H       -0.5750     6.4740    -0.3800 H     1 <1>   0.0800 
 35 H        0.4560     6.0550    -1.7510 H     1 <1>   0.0800 
 36 H       -2.7450    -7.0550    -0.6140 H     1 <1>   0.0800 
 37 H       -3.4230    -7.0560    -2.2250 H     1 <1>   0.0800 
 38 H       -5.8830    -6.0520     1.0450 H     1 <1>   0.0800 
 39 H       -4.2070    -6.4580     1.3290 H     1 <1>   0.0800 
 40 H        1.4160     7.2490     0.8730 H     1 <1>   0.0800 
 41 H        1.2730     8.1240    -0.6320 H     1 <1>   0.0800 
 42 H        2.4410     6.8320    -0.4910 H     1 <1>   0.0800 
 43 H       -5.4350    -6.0940    -1.3200 H     1 <1>   0.4500 
 44 H       -4.6780    -8.6250     0.0260 H     1 <1>   0.0800 
 45 H       -5.2940    -8.4840    -1.6080 H     1 <1>   0.0800 
 46 H       -6.3160    -8.0670    -0.2500 H     1 <1>   0.0800 
@<TRIPOS>BOND
  1   1   2  1   
  2   1   3  1   
  3   2   4  2   
  4   2   5  1   
  5   3   6  2   
  6   3   7  1   
  7   4   6  1   
  8   5   8  am  
  9   5  22  1   
 10   7   9  1   
 11   7  23  1   
 12   7  24  1   
 13   8  10  2   
 14   8  11  1   
 15   9  12  1   
 16   9  25  1   
 17   9  26  1   
 18  11  13  1   
 19  11  14  1   
 20  11  15  1   
 21  12  16  1   
 22  13  17  1   
 23  13  27  1   
 24  13  28  1   
 25  14  18  1   
 26  14  29  1   
 27  14  30  1   
 28  15  31  1   
 29  15  32  1   
 30  15  33  1   
 31  16  19  1   
 32  16  34  1   
 33  16  35  1   
 34  17  20  1   
 35  17  36  1   
 36  17  37  1   
 37  18  20  1   
 38  18  38  1   
 39  18  39  1   
 40  19  40  1   
 41  19  41  1   
 42  19  42  1   
 43  20  21  1   
 44  20  43  1   
 45  21  44  1   
 46  21  45  1   
 47  21  46  1   
@<TRIPOS>SUBSTRUCTURE
  1 ****   2 GROUP 4 **** **** 0

# MOE 2024.06 (io_trps.svl 2023.06)
