@<TRIPOS>MOLECULE
NONAME
51 54 1 0 0 
SMALL
USER_CHARGES


@<TRIPOS>ATOM
  1 S        0.0610     0.8030     2.0940 S.3   1 <1>  -0.0800 
  2 C        1.0390    -0.0080     0.8730 C.2   1 <1>   0.3250 
  3 C        1.4920     1.4600     2.8170 C.2   1 <1>  -0.1100 
  4 N        2.2990     0.2200     1.0330 N.2   1 <1>  -0.5650 
  5 C        0.3950    -0.8130    -0.1440 C.ar  1 <1>   0.0530 
  6 C        2.5560     1.0400     2.1170 C.2   1 <1>   0.0460 
  7 C        1.1650    -1.6220    -0.9830 C.ar  1 <1>  -0.1500 
  8 C       -0.9890    -0.8290    -0.3470 C.ar  1 <1>  -0.1500 
  9 C        4.0070     1.3830     2.4210 C.3   1 <1>   0.0820 
 10 C        0.5930    -2.4040    -1.9700 C.ar  1 <1>  -0.1500 
 11 C       -1.5680    -1.6090    -1.3310 C.ar  1 <1>  -0.1500 
 12 C        4.6380     2.2750     1.3640 C.2   1 <1>   0.5690 
 13 C       -0.7780    -2.4000    -2.1460 C.ar  1 <1>  -0.1500 
 14 O        5.3960     3.1440     1.7300 O.2   1 <1>  -0.5700 
 15 N        4.3270     2.0460     0.0500 N.am  1 <1>  -0.4940 
 16 C        4.6150     2.7150    -1.1670 C.2   1 <1>  -0.0880 
 17 N        5.7120     3.4470    -1.5250 N.pl3 1 <1>   0.3140 
 18 C        3.7920     2.7270    -2.2410 C.2   1 <1>  -0.1500 
 19 N        5.5870     3.9310    -2.7870 N.2   1 <1>  -0.7070 
 20 C        6.9390     3.7340    -0.7390 C.3   1 <1>   0.1760 
 21 C        4.4400     3.4910    -3.2010 C.2   1 <1>   0.1390 
 22 C        6.8680     5.1610    -0.1770 C.3   1 <1>  -0.1600 
 23 C        8.2170     3.5620    -1.5770 C.3   1 <1>  -0.1600 
 24 C        8.1120     5.4700     0.6420 C.3   1 <1>   0.3430 
 25 C        9.4490     3.9140    -0.7490 C.3   1 <1>   0.3430 
 26 N        9.3230     5.3030    -0.2170 N.4   1 <1>  -0.9590 
 27 C       10.5570     5.7090     0.5210 C.3   1 <1>   0.2630 
 28 H        1.3800     2.0850     3.6850 H     1 <1>   0.1500 
 29 H        2.2330    -1.6400    -0.8580 H     1 <1>   0.1500 
 30 H       -1.6340    -0.2250     0.2640 H     1 <1>   0.1500 
 31 H        4.5760     0.4760     2.4940 H     1 <1>   0.0800 
 32 H        4.0610     1.8840     3.3690 H     1 <1>   0.0800 
 33 H        1.2130    -3.0170    -2.6000 H     1 <1>   0.1500 
 34 H       -2.6360    -1.6040    -1.4660 H     1 <1>   0.1500 
 35 H       -1.2280    -3.0080    -2.9120 H     1 <1>   0.1500 
 36 H        3.5930     1.3260    -0.0380 H     1 <1>   0.3700 
 37 H        2.8310     2.2590    -2.3540 H     1 <1>   0.1500 
 38 H        6.9920     3.0220     0.0600 H     1 <1>   0.0800 
 39 H        4.0430     3.7020    -4.1800 H     1 <1>   0.1500 
 40 H        6.0020     5.2610     0.4540 H     1 <1>   0.0800 
 41 H        6.7730     5.8730    -0.9780 H     1 <1>   0.0800 
 42 H        8.1880     4.1920    -2.4490 H     1 <1>   0.0800 
 43 H        8.2920     2.5410    -1.9070 H     1 <1>   0.0800 
 44 H        8.1610     4.8020     1.4880 H     1 <1>   0.0800 
 45 H        8.0550     6.4820     1.0120 H     1 <1>   0.0800 
 46 H       10.3300     3.8330    -1.3680 H     1 <1>   0.0800 
 47 H        9.5450     3.2170     0.0680 H     1 <1>   0.0800 
 48 H        9.2050     5.9300    -1.0280 H     1 <1>   0.4500 
 49 H       10.7070     5.0740     1.3790 H     1 <1>   0.0800 
 50 H       10.4730     6.7300     0.8580 H     1 <1>   0.0800 
 51 H       11.4200     5.6310    -0.1210 H     1 <1>   0.0800 
@<TRIPOS>BOND
  1   1   2  1   
  2   1   3  1   
  3   2   4  2   
  4   2   5  1   
  5   3   6  2   
  6   3  28  1   
  7   4   6  1   
  8   5   7  ar  
  9   5   8  ar  
 10   6   9  1   
 11   7  10  ar  
 12   7  29  1   
 13   8  11  ar  
 14   8  30  1   
 15   9  12  1   
 16   9  31  1   
 17   9  32  1   
 18  10  13  ar  
 19  10  33  1   
 20  11  13  ar  
 21  11  34  1   
 22  12  14  2   
 23  12  15  am  
 24  13  35  1   
 25  15  16  1   
 26  15  36  1   
 27  16  17  1   
 28  16  18  2   
 29  17  19  1   
 30  17  20  1   
 31  18  21  1   
 32  18  37  1   
 33  19  21  2   
 34  20  22  1   
 35  20  23  1   
 36  20  38  1   
 37  21  39  1   
 38  22  24  1   
 39  22  40  1   
 40  22  41  1   
 41  23  25  1   
 42  23  42  1   
 43  23  43  1   
 44  24  26  1   
 45  24  44  1   
 46  24  45  1   
 47  25  26  1   
 48  25  46  1   
 49  25  47  1   
 50  26  27  1   
 51  26  48  1   
 52  27  49  1   
 53  27  50  1   
 54  27  51  1   
@<TRIPOS>SUBSTRUCTURE
  1 ****  15 GROUP 4 **** **** 0

# MOE 2024.06 (io_trps.svl 2023.06)
