@<TRIPOS>MOLECULE
NONAME
49 51 1 0 0 
SMALL
USER_CHARGES


@<TRIPOS>ATOM
  1 N       -0.4260    -1.3660     0.5160 N.ar  1 <1>  -0.6200 
  2 C       -0.9400    -2.5790     0.5190 C.ar  1 <1>   0.7710 
  3 C        0.6730    -1.1530    -0.1890 C.ar  1 <1>   0.4100 
  4 N       -0.3900    -3.5950    -0.1570 N.ar  1 <1>  -0.1790 
  5 N       -2.0500    -2.7360     1.2510 N.pl3 1 <1>  -0.8690 
  6 N        1.1820     0.1110    -0.2040 N.pl3 1 <1>  -0.8380 
  7 C        1.2950    -2.2040    -0.8980 C.ar  1 <1>  -0.1500 
  8 C        0.7440    -3.4400    -0.8720 C.ar  1 <1>   0.2110 
  9 C       -2.9950    -3.8540     1.5180 C.3   1 <1>   0.2890 
 10 C        2.1000     0.6370    -1.2500 C.3   1 <1>   0.2090 
 11 C        0.7190     1.1590     0.7600 C.3   1 <1>   0.1290 
 12 C       -2.3850    -4.8670     2.5010 C.3   1 <1>  -0.1600 
 13 C       -3.5200    -4.5010     0.2200 C.3   1 <1>  -0.1600 
 14 C        3.5360     0.5860    -0.7380 C.3   1 <1>  -0.2400 
 15 C       -1.3840    -5.8560     1.8810 C.3   1 <1>   0.2090 
 16 C       -3.0570    -5.9490     0.0330 C.3   1 <1>   0.2090 
 17 N       -1.6180    -6.0040     0.4080 N.pl3 1 <1>  -0.8380 
 18 C       -0.6870    -6.6450    -0.4240 C.ar  1 <1>   0.1000 
 19 C       -0.7340    -6.4610    -1.8050 C.ar  1 <1>  -0.1500 
 20 C        0.3400    -7.4340     0.0920 C.ar  1 <1>  -0.1500 
 21 C        0.2130    -7.0290    -2.6370 C.ar  1 <1>  -0.1500 
 22 C        1.2900    -8.0020    -0.7370 C.ar  1 <1>  -0.1500 
 23 C        1.2300    -7.7990    -2.1040 C.ar  1 <1>  -0.1500 
 24 H       -0.8610    -4.5070    -0.0590 H     1 <1>   0.4570 
 25 H       -2.3280    -1.8660     1.7160 H     1 <1>   0.4000 
 26 H        2.2020    -2.0160    -1.4380 H     1 <1>   0.1500 
 27 H        1.1630    -4.2940    -1.3810 H     1 <1>   0.1500 
 28 H       -3.8460    -3.4140     2.0130 H     1 <1>   0.0800 
 29 H        1.8330     1.6540    -1.4880 H     1 <1>   0.0800 
 30 H        2.0060     0.0630    -2.1560 H     1 <1>   0.0800 
 31 H        0.3960     0.7120     1.6840 H     1 <1>   0.0800 
 32 H       -0.1030     1.7070     0.3320 H     1 <1>   0.0800 
 33 H        1.5180     1.8430     0.9850 H     1 <1>   0.0800 
 34 H       -3.1920    -5.4490     2.9090 H     1 <1>   0.0800 
 35 H       -1.9320    -4.3560     3.3320 H     1 <1>   0.0800 
 36 H       -3.2490    -3.9140    -0.6390 H     1 <1>   0.0800 
 37 H       -4.5950    -4.5140     0.2560 H     1 <1>   0.0800 
 38 H        3.6470     1.2100     0.1300 H     1 <1>   0.0800 
 39 H        4.2050     0.9450    -1.4990 H     1 <1>   0.0800 
 40 H        3.8120    -0.4210    -0.4850 H     1 <1>   0.0800 
 41 H       -1.4780    -6.8160     2.3620 H     1 <1>   0.0800 
 42 H       -0.3810    -5.4980     2.0470 H     1 <1>   0.0800 
 43 H       -3.2240    -6.2780    -0.9780 H     1 <1>   0.0800 
 44 H       -3.6150    -6.6050     0.6820 H     1 <1>   0.0800 
 45 H       -1.5120    -5.8690    -2.2490 H     1 <1>   0.1500 
 46 H        0.4070    -7.6230     1.1460 H     1 <1>   0.1500 
 47 H        0.1580    -6.8820    -3.7030 H     1 <1>   0.1500 
 48 H        2.0750    -8.6100    -0.3210 H     1 <1>   0.1500 
 49 H        1.9680    -8.2460    -2.7490 H     1 <1>   0.1500 
@<TRIPOS>BOND
  1   1   2  ar  
  2   1   3  ar  
  3   2   4  ar  
  4   2   5  1   
  5   3   6  1   
  6   3   7  ar  
  7   4   8  ar  
  8   4  24  1   
  9   5   9  1   
 10   5  25  1   
 11   6  10  1   
 12   6  11  1   
 13   7   8  ar  
 14   7  26  1   
 15   8  27  1   
 16   9  12  1   
 17   9  13  1   
 18   9  28  1   
 19  10  14  1   
 20  10  29  1   
 21  10  30  1   
 22  11  31  1   
 23  11  32  1   
 24  11  33  1   
 25  12  15  1   
 26  12  34  1   
 27  12  35  1   
 28  13  16  1   
 29  13  36  1   
 30  13  37  1   
 31  14  38  1   
 32  14  39  1   
 33  14  40  1   
 34  15  17  1   
 35  15  41  1   
 36  15  42  1   
 37  16  17  1   
 38  16  43  1   
 39  16  44  1   
 40  17  18  1   
 41  18  19  ar  
 42  18  20  ar  
 43  19  21  ar  
 44  19  45  1   
 45  20  22  ar  
 46  20  46  1   
 47  21  23  ar  
 48  21  47  1   
 49  22  23  ar  
 50  22  48  1   
 51  23  49  1   
@<TRIPOS>SUBSTRUCTURE
  1 ****   4 GROUP 4 **** **** 0

# MOE 2024.06 (io_trps.svl 2023.06)
