@<TRIPOS>MOLECULE
NONAME
49 52 1 0 0 
SMALL
USER_CHARGES


@<TRIPOS>ATOM
  1 CL      -2.4570    -5.5350     3.5460 Cl    1 <1>  -0.1770 
  2 C       -3.4010    -4.6350     2.3880 C.ar  1 <1>   0.1770 
  3 C       -2.9270    -4.4800     1.1000 C.ar  1 <1>  -0.1500 
  4 C       -4.6110    -4.0920     2.7750 C.ar  1 <1>  -0.1500 
  5 C       -3.6800    -3.7660     0.1820 C.ar  1 <1>  -0.1500 
  6 C       -5.3590    -3.3810     1.8520 C.ar  1 <1>  -0.1500 
  7 C       -4.9000    -3.2080     0.5510 C.ar  1 <1>  -0.1080 
  8 C       -5.7640    -2.4410    -0.4590 C.3   1 <1>   0.1610 
  9 C       -6.8330    -3.3470    -1.0920 C.2   1 <1>   0.5770 
 10 C       -4.9690    -1.6230    -1.5220 C.3   1 <1>   0.0000 
 11 C       -6.2740    -1.0650     0.0770 C.3   1 <1>   0.0000 
 12 O       -7.9640    -2.9560    -1.2650 O.2   1 <1>  -0.5700 
 13 N       -6.4790    -4.6130    -1.4340 N.am  1 <1>  -0.7300 
 14 C       -5.9970    -0.4790    -1.3310 C.3   1 <1>   0.0000 
 15 C       -7.3950    -5.6460    -1.9590 C.3   1 <1>   0.2200 
 16 C       -7.7630    -6.5910    -0.8280 C.3   1 <1>  -0.0800 
 17 C       -6.6310    -6.5710    -2.8990 C.3   1 <1>   0.1200 
 18 C       -6.5710    -7.5560    -0.8150 C.3   1 <1>   0.1200 
 19 C       -9.0970    -7.3110    -1.1020 C.3   1 <1>  -0.0160 
 20 O       -5.9850    -7.5030    -2.0840 O.3   1 <1>  -0.5600 
 21 C       -9.4750    -8.2340     0.0460 C.ar  1 <1>  -0.1430 
 22 C       -9.9500    -7.7410     1.2450 C.ar  1 <1>  -0.1500 
 23 C       -9.3640    -9.6070    -0.0460 C.ar  1 <1>  -0.1500 
 24 C      -10.2770    -8.6190     2.2650 C.ar  1 <1>   0.1600 
 25 C       -9.7190   -10.3970     1.0350 C.ar  1 <1>   0.1600 
 26 N      -10.1710    -9.9360     2.1890 N.ar  1 <1>  -0.6200 
 27 H       -1.9830    -4.9130     0.8240 H     1 <1>   0.1500 
 28 H       -4.9590    -4.2270     3.7830 H     1 <1>   0.1500 
 29 H       -3.3030    -3.6550    -0.8210 H     1 <1>   0.1500 
 30 H       -6.3060    -2.9640     2.1530 H     1 <1>   0.1500 
 31 H       -3.9860    -1.3310    -1.1920 H     1 <1>   0.0000 
 32 H       -4.9760    -2.0510    -2.5090 H     1 <1>   0.0000 
 33 H       -7.3100    -1.0430     0.3660 H     1 <1>   0.0000 
 34 H       -5.6240    -0.6380     0.8220 H     1 <1>   0.0000 
 35 H       -5.5490    -4.9620    -1.1870 H     1 <1>   0.3700 
 36 H       -6.8410    -0.5590    -1.9950 H     1 <1>   0.0000 
 37 H       -5.5570     0.5020    -1.3140 H     1 <1>   0.0000 
 38 H       -8.2480    -5.1880    -2.4320 H     1 <1>   0.0800 
 39 H       -7.8420    -6.0650     0.1070 H     1 <1>   0.0800 
 40 H       -5.9070    -6.0480    -3.4980 H     1 <1>   0.0800 
 41 H       -7.3090    -7.1090    -3.5370 H     1 <1>   0.0800 
 42 H       -6.8500    -8.5720    -0.6000 H     1 <1>   0.0800 
 43 H       -5.8310    -7.2330    -0.1030 H     1 <1>   0.0800 
 44 H       -9.0360    -7.8780    -2.0150 H     1 <1>   0.0800 
 45 H       -9.8770    -6.5800    -1.2250 H     1 <1>   0.0800 
 46 H      -10.0700    -6.6840     1.3950 H     1 <1>   0.1500 
 47 H       -9.0050   -10.0710    -0.9470 H     1 <1>   0.1500 
 48 H      -10.6460    -8.2160     3.1930 H     1 <1>   0.1500 
 49 H       -9.6250   -11.4660     0.9440 H     1 <1>   0.1500 
@<TRIPOS>BOND
  1   1   2  1   
  2   2   3  ar  
  3   2   4  ar  
  4   3   5  ar  
  5   3  27  1   
  6   4   6  ar  
  7   4  28  1   
  8   5   7  ar  
  9   5  29  1   
 10   6   7  ar  
 11   6  30  1   
 12   7   8  1   
 13   8   9  1   
 14   8  10  1   
 15   8  11  1   
 16   9  12  2   
 17   9  13  am  
 18  10  14  1   
 19  10  31  1   
 20  10  32  1   
 21  11  14  1   
 22  11  33  1   
 23  11  34  1   
 24  13  15  1   
 25  13  35  1   
 26  14  36  1   
 27  14  37  1   
 28  15  16  1   
 29  15  17  1   
 30  15  38  1   
 31  16  18  1   
 32  16  19  1   
 33  16  39  1   
 34  17  20  1   
 35  17  40  1   
 36  17  41  1   
 37  18  20  1   
 38  18  42  1   
 39  18  43  1   
 40  19  21  1   
 41  19  44  1   
 42  19  45  1   
 43  21  22  ar  
 44  21  23  ar  
 45  22  24  ar  
 46  22  46  1   
 47  23  25  ar  
 48  23  47  1   
 49  24  26  ar  
 50  24  48  1   
 51  25  26  ar  
 52  25  49  1   
@<TRIPOS>SUBSTRUCTURE
  1 ****  13 GROUP 4 **** **** 0

# MOE 2024.06 (io_trps.svl 2023.06)
