@<TRIPOS>MOLECULE
NONAME
51 54 1 0 0 
SMALL
USER_CHARGES


@<TRIPOS>ATOM
  1 O       -1.8350     1.6580    -3.2880 O.2   1 <1>  -0.5700 
  2 C       -2.4770     1.7440    -2.2500 C.2   1 <1>   0.7160 
  3 N       -3.6300     0.9790    -2.1530 N.am  1 <1>  -0.6600 
  4 C       -1.9920     2.6400    -1.1980 C.2   1 <1>   0.2030 
  5 C       -4.7200     1.2150    -1.1710 C.3   1 <1>   0.1400 
  6 C       -3.8280    -0.2580    -2.9550 C.3   1 <1>   0.1400 
  7 N       -2.2920     2.6280     0.0940 N.2   1 <1>  -0.7070 
  8 C       -1.0740     3.6690    -1.4500 C.2   1 <1>  -0.1500 
  9 C       -4.7490     0.0510    -0.1790 C.3   1 <1>  -0.1600 
 10 C       -3.8610    -1.4620    -2.0090 C.3   1 <1>  -0.1600 
 11 N       -1.5860     3.6210     0.6470 N.pl3 1 <1>   0.3140 
 12 C       -0.8420     4.2670    -0.2670 C.2   1 <1>  -0.3020 
 13 C       -4.9170    -1.3050    -0.8970 C.3   1 <1>   0.4240 
 14 C       -1.6540     3.9200     2.0910 C.3   1 <1>   0.0960 
 15 O       -6.1370    -1.2420    -1.6070 O.3   1 <1>  -0.5600 
 16 C       -4.8930    -2.5090     0.0910 C.ar  1 <1>  -0.1430 
 17 C       -0.4550     3.3230     2.8380 C.3   1 <1>  -0.2400 
 18 C       -7.3070    -1.5350    -0.9170 C.3   1 <1>   0.1200 
 19 C       -3.7650    -2.8160     0.8630 C.ar  1 <1>   0.0830 
 20 C       -6.0230    -3.3140     0.2320 C.ar  1 <1>  -0.1430 
 21 C       -7.2820    -3.0110    -0.5540 C.3   1 <1>  -0.0170 
 22 O       -2.6630    -2.0280     0.7600 O.3   1 <1>  -0.3630 
 23 C       -3.7810    -3.9110     1.7260 C.ar  1 <1>  -0.1500 
 24 C       -6.0270    -4.4000     1.0930 C.ar  1 <1>  -0.1500 
 25 C       -1.5330    -2.1700     1.5900 C.3   1 <1>   0.0400 
 26 C       -4.9060    -4.7000     1.8380 C.ar  1 <1>  -0.1500 
 27 H       -5.6570     1.2700    -1.6970 H     1 <1>   0.0800 
 28 H       -4.5860     2.1480    -0.6550 H     1 <1>   0.0800 
 29 H       -3.0330    -0.3840    -3.6700 H     1 <1>   0.0800 
 30 H       -4.7550    -0.1840    -3.4970 H     1 <1>   0.0800 
 31 H       -0.6600     3.8960    -2.4170 H     1 <1>   0.1500 
 32 H       -5.5360     0.1930     0.5350 H     1 <1>   0.0800 
 33 H       -3.8280     0.0750     0.3690 H     1 <1>   0.0800 
 34 H       -2.8800    -1.5690    -1.5920 H     1 <1>   0.0800 
 35 H       -4.0690    -2.3580    -2.5640 H     1 <1>   0.0800 
 36 H       -0.2020     5.0950    -0.0280 H     1 <1>   0.1500 
 37 H       -2.5680     3.5060     2.4770 H     1 <1>   0.0800 
 38 H       -1.6800     4.9870     2.2180 H     1 <1>   0.0800 
 39 H       -0.4380     2.2540     2.7080 H     1 <1>   0.0800 
 40 H       -0.5330     3.5390     3.8880 H     1 <1>   0.0800 
 41 H        0.4650     3.7410     2.4680 H     1 <1>   0.0800 
 42 H       -8.1370    -1.3180    -1.5650 H     1 <1>   0.0800 
 43 H       -7.3700    -0.9170    -0.0380 H     1 <1>   0.0800 
 44 H       -7.3020    -3.6030    -1.4510 H     1 <1>   0.0800 
 45 H       -8.1530    -3.2450     0.0300 H     1 <1>   0.0800 
 46 H       -2.9250    -4.1680     2.3180 H     1 <1>   0.1500 
 47 H       -6.9040    -5.0160     1.1860 H     1 <1>   0.1500 
 48 H       -0.8410    -1.3850     1.3430 H     1 <1>   0.0800 
 49 H       -1.0810    -3.1280     1.4040 H     1 <1>   0.0800 
 50 H       -1.8400    -2.0770     2.6160 H     1 <1>   0.0800 
 51 H       -4.9120    -5.5450     2.5050 H     1 <1>   0.1500 
@<TRIPOS>BOND
  1   1   2  2   
  2   2   3  am  
  3   2   4  1   
  4   3   5  1   
  5   3   6  1   
  6   4   7  2   
  7   4   8  1   
  8   5   9  1   
  9   5  27  1   
 10   5  28  1   
 11   6  10  1   
 12   6  29  1   
 13   6  30  1   
 14   7  11  1   
 15   8  12  2   
 16   8  31  1   
 17   9  13  1   
 18   9  32  1   
 19   9  33  1   
 20  10  13  1   
 21  10  34  1   
 22  10  35  1   
 23  11  12  1   
 24  11  14  1   
 25  12  36  1   
 26  13  15  1   
 27  13  16  1   
 28  14  17  1   
 29  14  37  1   
 30  14  38  1   
 31  15  18  1   
 32  16  19  ar  
 33  16  20  ar  
 34  17  39  1   
 35  17  40  1   
 36  17  41  1   
 37  18  21  1   
 38  18  42  1   
 39  18  43  1   
 40  19  22  1   
 41  19  23  ar  
 42  20  21  1   
 43  20  24  ar  
 44  21  44  1   
 45  21  45  1   
 46  22  25  1   
 47  23  26  ar  
 48  23  46  1   
 49  24  26  ar  
 50  24  47  1   
 51  25  48  1   
 52  25  49  1   
 53  25  50  1   
 54  26  51  1   
@<TRIPOS>SUBSTRUCTURE
  1 ****   9 GROUP 4 **** **** 0

# MOE 2024.06 (io_trps.svl 2023.06)
