@<TRIPOS>MOLECULE
NONAME
50 52 1 0 0 
SMALL
USER_CHARGES


@<TRIPOS>ATOM
  1 O        0.9340    -0.0950     1.2340 O.2   1 <1>  -0.5700 
  2 C        1.8780    -0.7520     0.8390 C.2   1 <1>   0.5440 
  3 N        3.1120    -0.1440     0.7210 N.am  1 <1>  -0.6600 
  4 C        1.6680    -2.1440     0.4930 C.ar  1 <1>   0.0860 
  5 C        4.1900    -0.6530    -0.1860 C.3   1 <1>   0.1400 
  6 C        3.3830     1.1510     1.4060 C.3   1 <1>   0.1400 
  7 C        2.4940    -3.1660     0.9380 C.ar  1 <1>  -0.1500 
  8 C        0.6120    -2.5510    -0.3070 C.ar  1 <1>  -0.1500 
  9 C        4.5350     0.3400    -1.3050 C.3   1 <1>   0.1400 
 10 C        3.2080     2.3170     0.4270 C.3   1 <1>  -0.1600 
 11 C        2.2560    -4.4740     0.5600 C.ar  1 <1>   0.1660 
 12 C        0.4530    -3.8850    -0.6330 C.ar  1 <1>   0.1660 
 13 N        5.2890     1.5150    -0.7770 N.am  1 <1>  -0.6600 
 14 C        4.4870     2.6920    -0.3340 C.3   1 <1>   0.1400 
 15 N        1.2590    -4.8470    -0.2210 N.ar  1 <1>  -0.6200 
 16 C        3.1640    -5.5850     1.0420 C.3   1 <1>  -0.0970 
 17 C       -0.7000    -4.3230    -1.5110 C.3   1 <1>  -0.0970 
 18 C        6.6720     1.4760    -0.6980 C.2   1 <1>   0.7160 
 19 O        7.2030     0.3780    -0.7510 O.2   1 <1>  -0.5700 
 20 C        7.5080     2.6650    -0.5470 C.2   1 <1>   0.1410 
 21 N        7.1820     3.9170    -1.0070 N.2   1 <1>  -0.5650 
 22 C        8.7330     2.7610     0.0280 C.2   1 <1>  -0.0400 
 23 C        8.1950     4.6350    -0.6910 C.2   1 <1>   0.3280 
 24 O        9.1460     3.9900    -0.0670 O.3   1 <1>  -0.2800 
 25 C        9.6300     1.7430     0.7130 C.3   1 <1>   0.0200 
 26 C       10.8410     1.4110    -0.1600 C.3   1 <1>  -0.2400 
 27 H        3.8750    -1.5660    -0.6560 H     1 <1>   0.0800 
 28 H        5.0750    -0.8700     0.3880 H     1 <1>   0.0800 
 29 H        4.3760     1.1470     1.8230 H     1 <1>   0.0800 
 30 H        2.6890     1.2710     2.2220 H     1 <1>   0.0800 
 31 H        3.3190    -2.9270     1.5820 H     1 <1>   0.1500 
 32 H       -0.0800    -1.8130    -0.6680 H     1 <1>   0.1500 
 33 H        3.6390     0.6610    -1.8050 H     1 <1>   0.0800 
 34 H        5.1460    -0.1650    -2.0340 H     1 <1>   0.0800 
 35 H        2.9020     3.1830     0.9850 H     1 <1>   0.0800 
 36 H        2.4100     2.0990    -0.2600 H     1 <1>   0.0800 
 37 H        5.0870     3.2960     0.3240 H     1 <1>   0.0800 
 38 H        4.2380     3.2930    -1.1920 H     1 <1>   0.0800 
 39 H        3.9520    -5.2040     1.6650 H     1 <1>   0.0800 
 40 H        3.5990    -6.0850     0.1960 H     1 <1>   0.0800 
 41 H        2.5880    -6.2970     1.6050 H     1 <1>   0.0800 
 42 H       -1.3120    -3.4880    -1.7960 H     1 <1>   0.0800 
 43 H       -1.3050    -5.0330    -0.9770 H     1 <1>   0.0800 
 44 H       -0.3160    -4.7940    -2.3970 H     1 <1>   0.0800 
 45 H        8.3260     5.6850    -0.8870 H     1 <1>   0.1500 
 46 H        9.0800     0.8420     0.9150 H     1 <1>   0.0800 
 47 H        9.9610     2.1450     1.6550 H     1 <1>   0.0800 
 48 H       10.5150     0.9990    -1.0990 H     1 <1>   0.0800 
 49 H       11.4680     0.6900     0.3340 H     1 <1>   0.0800 
 50 H       11.4170     2.2990    -0.3530 H     1 <1>   0.0800 
@<TRIPOS>BOND
  1   1   2  2   
  2   2   3  am  
  3   2   4  1   
  4   3   5  1   
  5   3   6  1   
  6   4   7  ar  
  7   4   8  ar  
  8   5   9  1   
  9   5  27  1   
 10   5  28  1   
 11   6  10  1   
 12   6  29  1   
 13   6  30  1   
 14   7  11  ar  
 15   7  31  1   
 16   8  12  ar  
 17   8  32  1   
 18   9  13  1   
 19   9  33  1   
 20   9  34  1   
 21  10  14  1   
 22  10  35  1   
 23  10  36  1   
 24  11  15  ar  
 25  11  16  1   
 26  12  15  ar  
 27  12  17  1   
 28  13  14  1   
 29  13  18  am  
 30  14  37  1   
 31  14  38  1   
 32  16  39  1   
 33  16  40  1   
 34  16  41  1   
 35  17  42  1   
 36  17  43  1   
 37  17  44  1   
 38  18  19  2   
 39  18  20  1   
 40  20  21  1   
 41  20  22  2   
 42  21  23  2   
 43  22  24  1   
 44  22  25  1   
 45  23  24  1   
 46  23  45  1   
 47  25  26  1   
 48  25  46  1   
 49  25  47  1   
 50  26  48  1   
 51  26  49  1   
 52  26  50  1   
@<TRIPOS>SUBSTRUCTURE
  1 ****   5 GROUP 4 **** **** 0

# MOE 2024.06 (io_trps.svl 2023.06)
