@<TRIPOS>MOLECULE
NONAME
46 48 1 0 0 
SMALL
USER_CHARGES


@<TRIPOS>ATOM
  1 S       -0.1260     0.2950     0.7440 S.o2  1 <1>   1.3330 
  2 O       -1.5070     0.6520     0.9760 O.2   1 <1>  -0.6500 
  3 O        0.8030     0.2540     1.8510 O.2   1 <1>  -0.6500 
  4 N       -0.0880    -1.2210    -0.0210 N.am  1 <1>  -0.8490 
  5 C        0.5170     1.3900    -0.5190 C.3   1 <1>  -0.0550 
  6 C        1.2180    -1.8840     0.0630 C.3   1 <1>   0.1160 
  7 C       -1.1360    -2.1190     0.4740 C.3   1 <1>   0.1160 
  8 C        0.4930     2.8730    -0.1110 C.3   1 <1>  -0.0800 
  9 C        0.9660     3.7870    -1.2380 C.3   1 <1>   0.2000 
 10 C        1.4130     3.2220     1.0600 C.3   1 <1>   0.1400 
 11 O       -0.0880     4.0630    -2.0930 O.3   1 <1>  -0.6800 
 12 C        1.4930     5.0500    -0.5570 C.3   1 <1>   0.1400 
 13 N        1.7850     4.6430     0.8410 N.am  1 <1>  -0.6600 
 14 C        2.2000     5.4760     1.8670 C.2   1 <1>   0.5440 
 15 O        2.2950     4.9790     2.9770 O.2   1 <1>  -0.5700 
 16 C        2.5040     6.9040     1.7000 C.ar  1 <1>   0.3960 
 17 N        3.0230     7.3720     0.5500 N.ar  1 <1>  -0.6200 
 18 C        2.2520     7.7660     2.7680 C.ar  1 <1>  -0.1500 
 19 C        3.2890     8.6710     0.4570 C.ar  1 <1>   0.2870 
 20 C        2.5210     9.1130     2.6810 C.ar  1 <1>  -0.1500 
 21 N        3.8400     9.1410    -0.7630 N.pl3 1 <1>   0.3260 
 22 C        3.0530     9.5650     1.4980 C.ar  1 <1>  -0.1500 
 23 C        3.7140    10.3330    -1.3650 C.2   1 <1>   0.0370 
 24 C        4.6400     8.4960    -1.6250 C.2   1 <1>   0.0370 
 25 N        4.3750    10.4060    -2.4670 N.2   1 <1>  -0.3380 
 26 N        4.9710     9.2240    -2.6340 N.2   1 <1>  -0.3380 
 27 H        1.5210     1.1030    -0.7630 H     1 <1>   0.0800 
 28 H       -0.0790     1.2730    -1.4040 H     1 <1>   0.0800 
 29 H        1.2080    -2.7930    -0.5150 H     1 <1>   0.0800 
 30 H        1.4540    -2.1230     1.0880 H     1 <1>   0.0800 
 31 H        1.9870    -1.2410    -0.3270 H     1 <1>   0.0800 
 32 H       -1.0930    -3.0630    -0.0420 H     1 <1>   0.0800 
 33 H       -2.1060    -1.6850     0.2980 H     1 <1>   0.0800 
 34 H       -1.0180    -2.2850     1.5320 H     1 <1>   0.0800 
 35 H       -0.5070     3.1470     0.1780 H     1 <1>   0.0800 
 36 H        1.7550     3.3310    -1.8110 H     1 <1>   0.0800 
 37 H        2.3080     2.6230     1.0470 H     1 <1>   0.0800 
 38 H        0.9140     3.0910     2.0060 H     1 <1>   0.0800 
 39 H       -0.8470     4.4260    -1.5960 H     1 <1>   0.4000 
 40 H        0.7540     5.8320    -0.5580 H     1 <1>   0.0800 
 41 H        2.3920     5.3850    -1.0440 H     1 <1>   0.0800 
 42 H        1.8400     7.3640     3.6780 H     1 <1>   0.1500 
 43 H        2.3280     9.7780     3.5070 H     1 <1>   0.1500 
 44 H        3.2890    10.6090     1.3890 H     1 <1>   0.1500 
 45 H        3.1180    11.1290    -0.9600 H     1 <1>   0.1500 
 46 H        4.9550     7.4820    -1.4620 H     1 <1>   0.1500 
@<TRIPOS>BOND
  1   1   2  2   
  2   1   3  2   
  3   1   4  am  
  4   1   5  1   
  5   4   6  1   
  6   4   7  1   
  7   5   8  1   
  8   5  27  1   
  9   5  28  1   
 10   6  29  1   
 11   6  30  1   
 12   6  31  1   
 13   7  32  1   
 14   7  33  1   
 15   7  34  1   
 16   8   9  1   
 17   8  10  1   
 18   8  35  1   
 19   9  11  1   
 20   9  12  1   
 21   9  36  1   
 22  10  13  1   
 23  10  37  1   
 24  10  38  1   
 25  11  39  1   
 26  12  13  1   
 27  12  40  1   
 28  12  41  1   
 29  13  14  am  
 30  14  15  2   
 31  14  16  1   
 32  16  17  ar  
 33  16  18  ar  
 34  17  19  ar  
 35  18  20  ar  
 36  18  42  1   
 37  19  21  1   
 38  19  22  ar  
 39  20  22  ar  
 40  20  43  1   
 41  21  23  1   
 42  21  24  1   
 43  22  44  1   
 44  23  25  2   
 45  23  45  1   
 46  24  26  2   
 47  24  46  1   
 48  25  26  1   
@<TRIPOS>SUBSTRUCTURE
  1 ****  13 GROUP 4 **** **** 0

# MOE 2024.06 (io_trps.svl 2023.06)
