@<TRIPOS>MOLECULE
NONAME
51 54 1 0 0 
SMALL
USER_CHARGES


@<TRIPOS>ATOM
  1 CL       1.5650     0.6680    -1.8110 Cl    1 <1>  -0.1770 
  2 C        0.6570     1.8150    -0.8510 C.ar  1 <1>   0.1770 
  3 C        1.2480     2.5240     0.1920 C.ar  1 <1>  -0.1440 
  4 C       -0.6760     1.9880    -1.1780 C.ar  1 <1>  -0.1500 
  5 C        0.4560     3.4190     0.9030 C.ar  1 <1>  -0.1500 
  6 C        2.7140     2.3680     0.5860 C.3   1 <1>   0.3640 
  7 C       -1.4480     2.8820    -0.4600 C.ar  1 <1>  -0.1500 
  8 C       -0.8790     3.5960     0.5790 C.ar  1 <1>  -0.1500 
  9 N        2.9760     0.9700     1.0000 N.am  1 <1>  -0.7300 
 10 C        3.6870     2.8670    -0.5170 C.3   1 <1>   0.2610 
 11 C        4.0060     0.2310     0.5310 C.2   1 <1>   0.5690 
 12 O        4.9730     2.2550    -0.4330 O.3   1 <1>  -0.5600 
 13 C        3.7930     4.3960    -0.4530 C.2   1 <1>   0.5690 
 14 O        4.2010    -0.8850     0.9360 O.2   1 <1>  -0.5700 
 15 C        4.9300     0.8440    -0.5230 C.3   1 <1>   0.1810 
 16 O        3.2410     5.0180    -1.3280 O.2   1 <1>  -0.5700 
 17 N        4.5110     5.0640     0.5210 N.am  1 <1>  -0.6600 
 18 C        5.4610     4.4210     1.4770 C.3   1 <1>   0.1400 
 19 C        4.8030     6.5190     0.3560 C.3   1 <1>   0.1400 
 20 C        6.8900     4.5360     0.9120 C.3   1 <1>   0.3430 
 21 C        6.2240     6.6840    -0.2160 C.3   1 <1>   0.3430 
 22 N        7.2710     5.9690     0.6140 N.4   1 <1>  -0.9590 
 23 C        8.6080     6.0240    -0.0340 C.3   1 <1>   0.4380 
 24 C        9.1160     7.4660    -0.0340 C.3   1 <1>  -0.1950 
 25 C        8.7900     8.4440    -1.1230 C.3   1 <1>  -0.2000 
 26 C       10.1760     7.8810    -1.0060 C.3   1 <1>  -0.2000 
 27 H       -1.1020     1.4260    -1.9900 H     1 <1>   0.1500 
 28 H        0.8660     3.9920     1.7170 H     1 <1>   0.1500 
 29 H        2.8810     2.9770     1.4570 H     1 <1>   0.0800 
 30 H       -2.4860     3.0240    -0.7100 H     1 <1>   0.1500 
 31 H       -1.4800     4.2940     1.1380 H     1 <1>   0.1500 
 32 H        2.3070     0.5230     1.6310 H     1 <1>   0.3700 
 33 H        3.2900     2.6200    -1.4840 H     1 <1>   0.0800 
 34 H        4.5900     0.5700    -1.5050 H     1 <1>   0.0800 
 35 H        5.9280     0.4700    -0.3830 H     1 <1>   0.0800 
 36 H        5.4040     4.9180     2.4300 H     1 <1>   0.0800 
 37 H        5.2140     3.3890     1.6470 H     1 <1>   0.0800 
 38 H        4.0930     6.9820    -0.3100 H     1 <1>   0.0800 
 39 H        4.7230     7.0180     1.3060 H     1 <1>   0.0800 
 40 H        6.9370     3.9510     0.0070 H     1 <1>   0.0800 
 41 H        7.5850     4.1100     1.6170 H     1 <1>   0.0800 
 42 H        6.4570     7.7350    -0.2750 H     1 <1>   0.0800 
 43 H        6.2260     6.2900    -1.2190 H     1 <1>   0.0800 
 44 H        7.3500     6.4730     1.5060 H     1 <1>   0.4500 
 45 H        9.3070     5.4080     0.5090 H     1 <1>   0.0800 
 46 H        8.5470     5.6570    -1.0460 H     1 <1>   0.0800 
 47 H        9.2480     7.8480     0.9650 H     1 <1>   0.1000 
 48 H        8.2170     8.1510    -1.9870 H     1 <1>   0.1000 
 49 H        8.6480     9.4840    -0.8750 H     1 <1>   0.1000 
 50 H       10.9650     8.5370    -0.6740 H     1 <1>   0.1000 
 51 H       10.5110     7.2010    -1.7710 H     1 <1>   0.1000 
@<TRIPOS>BOND
  1   1   2  1   
  2   2   3  ar  
  3   2   4  ar  
  4   3   5  ar  
  5   3   6  1   
  6   4   7  ar  
  7   4  27  1   
  8   5   8  ar  
  9   5  28  1   
 10   6   9  1   
 11   6  10  1   
 12   6  29  1   
 13   7   8  ar  
 14   7  30  1   
 15   8  31  1   
 16   9  11  am  
 17   9  32  1   
 18  10  12  1   
 19  10  13  1   
 20  10  33  1   
 21  11  14  2   
 22  11  15  1   
 23  12  15  1   
 24  13  16  2   
 25  13  17  am  
 26  15  34  1   
 27  15  35  1   
 28  17  18  1   
 29  17  19  1   
 30  18  20  1   
 31  18  36  1   
 32  18  37  1   
 33  19  21  1   
 34  19  38  1   
 35  19  39  1   
 36  20  22  1   
 37  20  40  1   
 38  20  41  1   
 39  21  22  1   
 40  21  42  1   
 41  21  43  1   
 42  22  23  1   
 43  22  44  1   
 44  23  24  1   
 45  23  45  1   
 46  23  46  1   
 47  24  25  1   
 48  24  26  1   
 49  24  47  1   
 50  25  26  1   
 51  25  48  1   
 52  25  49  1   
 53  26  50  1   
 54  26  51  1   
@<TRIPOS>SUBSTRUCTURE
  1 ****  13 GROUP 4 **** **** 0

# MOE 2024.06 (io_trps.svl 2023.06)
