@<TRIPOS>MOLECULE
NONAME
46 48 1 0 0 
SMALL
USER_CHARGES


@<TRIPOS>ATOM
  1 O        0.5060     1.5610    -1.7630 O.2   1 <1>  -0.5700 
  2 C        1.2680     1.1320    -0.9160 C.2   1 <1>   0.5440 
  3 N        1.2280     1.6890     0.3450 N.am  1 <1>  -0.6600 
  4 C        2.1950     0.0820    -1.2560 C.ar  1 <1>   0.0860 
  5 C        2.2790     1.5120     1.3740 C.3   1 <1>   0.1400 
  6 C        0.3200     2.8030     0.7000 C.3   1 <1>   0.1400 
  7 C        2.1510    -1.1710    -0.6180 C.ar  1 <1>   0.4100 
  8 C        3.1550     0.2820    -2.2370 C.ar  1 <1>  -0.1500 
  9 C        1.8360     2.3930     2.5360 C.3   1 <1>  -0.1600 
 10 C        0.9840     3.4830     1.8920 C.3   1 <1>  -0.1600 
 11 N        3.0040    -2.1600    -0.8770 N.ar  1 <1>  -0.6200 
 12 N        1.1880    -1.4410     0.3310 N.pl3 1 <1>  -0.8690 
 13 C        4.0250    -0.7470    -2.5130 C.ar  1 <1>  -0.1500 
 14 C        3.9080    -1.9320    -1.8090 C.ar  1 <1>   0.1600 
 15 C        0.9990    -2.7040     1.0530 C.3   1 <1>   0.2890 
 16 C       -0.0370    -3.5340     0.2890 C.3   1 <1>  -0.1600 
 17 C        0.5550    -2.3410     2.4670 C.3   1 <1>  -0.2400 
 18 C       -0.2600    -4.9150     0.9240 C.3   1 <1>   0.0960 
 19 N       -1.1770    -5.7470     0.1200 N.pl3 1 <1>   0.3140 
 20 N       -0.8310    -6.9810    -0.2900 N.2   1 <1>  -0.7070 
 21 C       -2.4330    -5.4410    -0.2670 C.2   1 <1>  -0.3020 
 22 C       -1.8680    -7.4240    -0.9340 C.2   1 <1>   0.1390 
 23 C       -2.9060    -6.5020    -0.9540 C.2   1 <1>  -0.1500 
 24 H        3.2200     1.8570     0.9800 H     1 <1>   0.0800 
 25 H        2.3680     0.4830     1.6780 H     1 <1>   0.0800 
 26 H       -0.6380     2.3980     0.9780 H     1 <1>   0.0800 
 27 H        0.1980     3.4840    -0.1260 H     1 <1>   0.0800 
 28 H        3.2060     1.2210    -2.7620 H     1 <1>   0.1500 
 29 H        2.6750     2.7930     3.0770 H     1 <1>   0.0800 
 30 H        1.2340     1.8070     3.2080 H     1 <1>   0.0800 
 31 H        0.2590     3.8940     2.5720 H     1 <1>   0.0800 
 32 H        1.6150     4.2760     1.5320 H     1 <1>   0.0800 
 33 H        0.4880    -0.7140     0.5120 H     1 <1>   0.4000 
 34 H        4.7860    -0.6380    -3.2650 H     1 <1>   0.1500 
 35 H        4.5940    -2.7330    -2.0280 H     1 <1>   0.1500 
 36 H        1.9330    -3.2410     1.1000 H     1 <1>   0.0800 
 37 H        0.3250    -3.6770    -0.7150 H     1 <1>   0.0800 
 38 H       -0.9660    -2.9940     0.2500 H     1 <1>   0.0800 
 39 H       -0.4010    -1.8490     2.4520 H     1 <1>   0.0800 
 40 H        1.2820    -1.6900     2.9180 H     1 <1>   0.0800 
 41 H        0.4820    -3.2220     3.0770 H     1 <1>   0.0800 
 42 H       -0.6820    -4.8200     1.9070 H     1 <1>   0.0800 
 43 H        0.6770    -5.4360     1.0020 H     1 <1>   0.0800 
 44 H       -2.9100    -4.5070    -0.0380 H     1 <1>   0.1500 
 45 H       -1.9070    -8.3970    -1.3950 H     1 <1>   0.1500 
 46 H       -3.8650    -6.6360    -1.4210 H     1 <1>   0.1500 
@<TRIPOS>BOND
  1   1   2  2   
  2   2   3  am  
  3   2   4  1   
  4   3   5  1   
  5   3   6  1   
  6   4   7  ar  
  7   4   8  ar  
  8   5   9  1   
  9   5  24  1   
 10   5  25  1   
 11   6  10  1   
 12   6  26  1   
 13   6  27  1   
 14   7  11  ar  
 15   7  12  1   
 16   8  13  ar  
 17   8  28  1   
 18   9  10  1   
 19   9  29  1   
 20   9  30  1   
 21  10  31  1   
 22  10  32  1   
 23  11  14  ar  
 24  12  15  1   
 25  12  33  1   
 26  13  14  ar  
 27  13  34  1   
 28  14  35  1   
 29  15  16  1   
 30  15  17  1   
 31  15  36  1   
 32  16  18  1   
 33  16  37  1   
 34  16  38  1   
 35  17  39  1   
 36  17  40  1   
 37  17  41  1   
 38  18  19  1   
 39  18  42  1   
 40  18  43  1   
 41  19  20  1   
 42  19  21  1   
 43  20  22  2   
 44  21  23  2   
 45  21  44  1   
 46  22  23  1   
 47  22  45  1   
 48  23  46  1   
@<TRIPOS>SUBSTRUCTURE
  1 ****  12 GROUP 4 **** **** 0

# MOE 2024.06 (io_trps.svl 2023.06)
