@<TRIPOS>MOLECULE
NONAME
48 50 1 0 0 
SMALL
USER_CHARGES


@<TRIPOS>ATOM
  1 O       -1.4880    -0.5590    -2.6110 O.2   1 <1>  -0.5700 
  2 C       -1.9840    -0.8900    -1.5600 C.2   1 <1>   0.5690 
  3 N       -1.9140    -0.1070    -0.4450 N.am  1 <1>  -0.6600 
  4 C       -2.6960    -2.2230    -1.5090 C.3   1 <1>  -0.0190 
  5 C       -2.5950    -0.4850     0.8260 C.3   1 <1>   0.2200 
  6 C       -1.2000     1.2020    -0.4430 C.3   1 <1>   0.0600 
  7 C       -1.9940    -3.1760    -0.5220 C.3   1 <1>   0.1200 
  8 C       -4.2190    -2.0330    -1.3670 C.3   1 <1>   0.1400 
  9 C       -1.9860    -1.7760     1.4340 C.3   1 <1>   0.1200 
 10 C       -4.1320    -0.4820     0.6490 C.3   1 <1>   0.1400 
 11 O       -2.3560    -2.9790     0.8100 O.3   1 <1>  -0.5600 
 12 N       -4.6940    -1.7230     0.0200 N.am  1 <1>  -0.6600 
 13 C       -5.4590    -2.5760     0.7830 C.2   1 <1>   0.5690 
 14 O       -5.9140    -2.2330     1.8500 O.2   1 <1>  -0.5700 
 15 C       -5.7540    -3.9900     0.2980 C.3   1 <1>  -0.0990 
 16 C       -6.3380    -4.9110     1.3790 C.3   1 <1>  -0.0170 
 17 C       -6.5580    -6.3060     0.8160 C.ar  1 <1>  -0.1440 
 18 C       -7.7820    -6.6580     0.2670 C.ar  1 <1>  -0.1500 
 19 C       -5.5330    -7.2380     0.8420 C.ar  1 <1>  -0.1500 
 20 C       -7.9820    -7.9260    -0.2520 C.ar  1 <1>  -0.1500 
 21 C       -5.7290    -8.5060     0.3240 C.ar  1 <1>  -0.1500 
 22 C       -6.9510    -8.8610    -0.2250 C.ar  1 <1>   0.0820 
 23 O       -7.0610   -10.1240    -0.7100 O.3   1 <1>  -0.3620 
 24 C       -8.2720   -10.5940    -1.2590 C.3   1 <1>   0.0400 
 25 H       -2.5470    -2.6560    -2.4820 H     1 <1>   0.0800 
 26 H       -2.3830     0.2970     1.5330 H     1 <1>   0.0800 
 27 H       -0.4370     1.2000     0.3160 H     1 <1>   0.0800 
 28 H       -1.8960     1.9980    -0.2480 H     1 <1>   0.0800 
 29 H       -0.7310     1.3850    -1.3950 H     1 <1>   0.0800 
 30 H       -0.9230    -3.0860    -0.6010 H     1 <1>   0.0800 
 31 H       -2.2630    -4.1890    -0.7620 H     1 <1>   0.0800 
 32 H       -4.7050    -2.9170    -1.7340 H     1 <1>   0.0800 
 33 H       -4.5260    -1.2280    -2.0140 H     1 <1>   0.0800 
 34 H       -2.3180    -1.8580     2.4530 H     1 <1>   0.0800 
 35 H       -0.9120    -1.7120     1.4380 H     1 <1>   0.0800 
 36 H       -4.4200     0.3710     0.0610 H     1 <1>   0.0800 
 37 H       -4.5660    -0.3450     1.6230 H     1 <1>   0.0800 
 38 H       -6.4430    -3.9330    -0.5230 H     1 <1>   0.0800 
 39 H       -4.8370    -4.4280    -0.0490 H     1 <1>   0.0800 
 40 H       -7.2710    -4.5090     1.7360 H     1 <1>   0.0800 
 41 H       -5.6630    -4.9580     2.2160 H     1 <1>   0.0800 
 42 H       -8.5850    -5.9430     0.2420 H     1 <1>   0.1500 
 43 H       -4.5780    -6.9800     1.2650 H     1 <1>   0.1500 
 44 H       -8.9400    -8.1650    -0.6690 H     1 <1>   0.1500 
 45 H       -4.9360    -9.2310     0.3440 H     1 <1>   0.1500 
 46 H       -8.1260   -11.6150    -1.5620 H     1 <1>   0.0800 
 47 H       -8.5250    -9.9920    -2.1130 H     1 <1>   0.0800 
 48 H       -9.0390   -10.5420    -0.5070 H     1 <1>   0.0800 
@<TRIPOS>BOND
  1   1   2  2   
  2   2   3  am  
  3   2   4  1   
  4   3   5  1   
  5   3   6  1   
  6   4   7  1   
  7   4   8  1   
  8   4  25  1   
  9   5   9  1   
 10   5  10  1   
 11   5  26  1   
 12   6  27  1   
 13   6  28  1   
 14   6  29  1   
 15   7  11  1   
 16   7  30  1   
 17   7  31  1   
 18   8  12  1   
 19   8  32  1   
 20   8  33  1   
 21   9  11  1   
 22   9  34  1   
 23   9  35  1   
 24  10  12  1   
 25  10  36  1   
 26  10  37  1   
 27  12  13  am  
 28  13  14  2   
 29  13  15  1   
 30  15  16  1   
 31  15  38  1   
 32  15  39  1   
 33  16  17  1   
 34  16  40  1   
 35  16  41  1   
 36  17  18  ar  
 37  17  19  ar  
 38  18  20  ar  
 39  18  42  1   
 40  19  21  ar  
 41  19  43  1   
 42  20  22  ar  
 43  20  44  1   
 44  21  22  ar  
 45  21  45  1   
 46  22  23  1   
 47  23  24  1   
 48  24  46  1   
 49  24  47  1   
 50  24  48  1   
@<TRIPOS>SUBSTRUCTURE
  1 ****  15 GROUP 4 **** **** 0

# MOE 2024.06 (io_trps.svl 2023.06)
