@<TRIPOS>MOLECULE
NONAME
41 42 1 0 0 
SMALL
USER_CHARGES


@<TRIPOS>ATOM
  1 O       -0.7440    -0.5970    -0.1570 O.co2 1 <1>  -0.9000 
  2 C       -0.7500    -1.8350    -0.2250 C.2   1 <1>   1.0330 
  3 O       -1.7390    -2.3890    -0.7470 O.co2 1 <1>  -0.9000 
  4 C        0.3480    -2.6170     0.2650 C.2   1 <1>  -0.2330 
  5 C        0.2580    -3.9740     0.5720 C.2   1 <1>   0.3720 
  6 C        1.6460    -2.3210     0.5460 C.2   1 <1>   0.0870 
  7 N        1.3780    -4.4450     0.9910 N.2   1 <1>  -0.4100 
  8 N       -0.8960    -4.7270     0.4290 N.pl3 1 <1>  -0.8520 
  9 O        2.2020    -3.4320     0.9750 O.3   1 <1>  -0.0190 
 10 C        2.4630    -1.1330     0.4510 C.ar  1 <1>   0.0530 
 11 C       -0.7400    -5.9720    -0.3600 C.3   1 <1>   0.2090 
 12 C        2.2470    -0.1520    -0.5170 C.ar  1 <1>  -0.1500 
 13 C        3.5330    -0.9350     1.3270 C.ar  1 <1>  -0.1500 
 14 C       -2.0980    -6.5230    -0.8540 C.3   1 <1>   0.0000 
 15 C        3.0530     0.9680    -0.6080 C.ar  1 <1>  -0.1500 
 16 C        4.3460     0.1810     1.2420 C.ar  1 <1>  -0.1500 
 17 C       -2.9410    -6.9730     0.3580 C.3   1 <1>   0.1200 
 18 C       -2.8770    -5.4460    -1.6370 C.3   1 <1>  -0.2400 
 19 C       -1.8470    -7.7050    -1.8120 C.3   1 <1>  -0.2400 
 20 C        4.1070     1.1380     0.2720 C.ar  1 <1>  -0.1500 
 21 O       -2.3670    -8.0920     0.9710 O.3   1 <1>  -0.5600 
 22 C       -2.8780    -8.3590     2.2340 C.3   1 <1>   0.0400 
 23 H       -1.5730    -4.0960    -0.0530 H     1 <1>   0.4000 
 24 H       -0.2480    -6.7100     0.2510 H     1 <1>   0.0800 
 25 H       -0.1070    -5.7670    -1.2070 H     1 <1>   0.0800 
 26 H        1.4300    -0.2680    -1.2070 H     1 <1>   0.1500 
 27 H        3.7240    -1.6700     2.0870 H     1 <1>   0.1500 
 28 H        2.8510     1.7070    -1.3620 H     1 <1>   0.1500 
 29 H        5.1610     0.3060     1.9320 H     1 <1>   0.1500 
 30 H       -3.9340    -7.2420     0.0450 H     1 <1>   0.0800 
 31 H       -3.0010    -6.1710     1.0750 H     1 <1>   0.0800 
 32 H       -3.1780    -4.6400    -0.9900 H     1 <1>   0.0800 
 33 H       -3.7640    -5.8610    -2.0800 H     1 <1>   0.0800 
 34 H       -2.2650    -5.0290    -2.4180 H     1 <1>   0.0800 
 35 H       -1.2650    -8.4680    -1.3250 H     1 <1>   0.0800 
 36 H       -1.3130    -7.3770    -2.6860 H     1 <1>   0.0800 
 37 H       -2.7800    -8.1410    -2.1230 H     1 <1>   0.0800 
 38 H        4.7330     2.0090     0.2020 H     1 <1>   0.1500 
 39 H       -2.4010    -9.2480     2.6070 H     1 <1>   0.0800 
 40 H       -3.9400    -8.5150     2.1630 H     1 <1>   0.0800 
 41 H       -2.6580    -7.5300     2.8850 H     1 <1>   0.0800 
@<TRIPOS>BOND
  1   1   2  ar  
  2   2   3  ar  
  3   2   4  1   
  4   4   5  1   
  5   4   6  2   
  6   5   7  2   
  7   5   8  1   
  8   6   9  1   
  9   6  10  1   
 10   7   9  1   
 11   8  11  1   
 12   8  23  1   
 13  10  12  ar  
 14  10  13  ar  
 15  11  14  1   
 16  11  24  1   
 17  11  25  1   
 18  12  15  ar  
 19  12  26  1   
 20  13  16  ar  
 21  13  27  1   
 22  14  17  1   
 23  14  18  1   
 24  14  19  1   
 25  15  20  ar  
 26  15  28  1   
 27  16  20  ar  
 28  16  29  1   
 29  17  21  1   
 30  17  30  1   
 31  17  31  1   
 32  18  32  1   
 33  18  33  1   
 34  18  34  1   
 35  19  35  1   
 36  19  36  1   
 37  19  37  1   
 38  20  38  1   
 39  21  22  1   
 40  22  39  1   
 41  22  40  1   
 42  22  41  1   
@<TRIPOS>SUBSTRUCTURE
  1 ****   5 GROUP 4 **** **** 0

# MOE 2024.06 (io_trps.svl 2023.06)
