@<TRIPOS>MOLECULE
NONAME
56 59 1 0 0 
SMALL
USER_CHARGES


@<TRIPOS>ATOM
  1 O        0.8110     0.2530     1.0250 O.2   1 <1>  -0.5700 
  2 C        1.6790    -0.3520     0.4110 C.2   1 <1>   0.7160 
  3 N        2.5760     0.4030    -0.3340 N.am  1 <1>  -0.6600 
  4 C        1.7040    -1.8160     0.4780 C.2   1 <1>   0.1410 
  5 C        3.5130    -0.2050    -1.3240 C.3   1 <1>   0.1400 
  6 C        2.5570     1.8920    -0.2620 C.3   1 <1>   0.1400 
  7 N        2.8530    -2.5670     0.5170 N.2   1 <1>  -0.5650 
  8 C        0.6360    -2.6760     0.5360 C.2   1 <1>  -0.3320 
  9 C        4.9150    -0.3990    -0.7240 C.3   1 <1>   0.1100 
 10 C        3.9250     2.5480    -0.4870 C.3   1 <1>  -0.1600 
 11 C        2.4580    -3.7900     0.6030 C.2   1 <1>   0.0360 
 12 N        1.1190    -3.9220     0.6200 N.pl3 1 <1>   0.0330 
 13 C       -0.8580    -2.3900     0.5230 C.3   1 <1>  -0.0600 
 14 N        5.7050     0.8480    -0.6270 N.3   1 <1>  -0.8100 
 15 C        5.0790     1.8580     0.2440 C.3   1 <1>   0.1100 
 16 C        7.0790     0.5290    -0.1950 C.3   1 <1>   0.2900 
 17 C        8.0140     1.7220    -0.3130 C.2   1 <1>  -0.0400 
 18 O        8.2810     2.2380    -1.4830 O.3   1 <1>  -0.0190 
 19 C        8.6910     2.4220     0.6100 C.2   1 <1>  -0.1500 
 20 N        9.1010     3.2470    -1.3920 N.2   1 <1>  -0.4100 
 21 C        9.3650     3.3840    -0.1390 C.2   1 <1>   0.1080 
 22 C       10.2820     4.4490     0.4520 C.3   1 <1>   0.1010 
 23 C        9.7180     5.8580     0.2020 C.3   1 <1>  -0.1600 
 24 C       11.7080     4.3280    -0.1120 C.3   1 <1>  -0.1600 
 25 C       10.6410     6.9470     0.7700 C.3   1 <1>  -0.1600 
 26 C       12.6350     5.4130     0.4560 C.3   1 <1>  -0.1600 
 27 C       12.0630     6.8150     0.2080 C.3   1 <1>  -0.1600 
 28 H        3.5770     0.4070    -2.2050 H     1 <1>   0.0800 
 29 H        3.1340    -1.1620    -1.6330 H     1 <1>   0.0800 
 30 H        2.2050     2.1880     0.7120 H     1 <1>   0.0800 
 31 H        1.8560     2.2670    -0.9880 H     1 <1>   0.0800 
 32 H        5.4410    -1.0850    -1.3650 H     1 <1>   0.0800 
 33 H        4.8280    -0.8590     0.2460 H     1 <1>   0.0800 
 34 H        3.8550     3.5580    -0.1260 H     1 <1>   0.0800 
 35 H        4.1460     2.6130    -1.5380 H     1 <1>   0.0800 
 36 H        3.1150    -4.6410     0.6580 H     1 <1>   0.1500 
 37 H        0.5900    -4.7960     0.6890 H     1 <1>   0.2700 
 38 H       -1.0500    -1.3490     0.3390 H     1 <1>   0.0800 
 39 H       -1.2920    -2.6500     1.4720 H     1 <1>   0.0800 
 40 H       -1.3400    -2.9610    -0.2500 H     1 <1>   0.0800 
 41 H        4.7430     1.4130     1.1670 H     1 <1>   0.0800 
 42 H        5.7990     2.6200     0.4860 H     1 <1>   0.0800 
 43 H        7.4730    -0.2590    -0.8130 H     1 <1>   0.0800 
 44 H        7.0640     0.1820     0.8240 H     1 <1>   0.0800 
 45 H        8.7260     2.2990     1.6760 H     1 <1>   0.1500 
 46 H       10.3310     4.2930     1.5150 H     1 <1>   0.0800 
 47 H        8.7430     5.9390     0.6500 H     1 <1>   0.0800 
 48 H        9.6030     6.0080    -0.8590 H     1 <1>   0.0800 
 49 H       11.6720     4.4190    -1.1850 H     1 <1>   0.0800 
 50 H       12.1040     3.3550     0.1200 H     1 <1>   0.0800 
 51 H       10.6720     6.8660     1.8430 H     1 <1>   0.0800 
 52 H       10.2450     7.9170     0.5240 H     1 <1>   0.0800 
 53 H       13.6050     5.3340    -0.0050 H     1 <1>   0.0800 
 54 H       12.7600     5.2600     1.5140 H     1 <1>   0.0800 
 55 H       12.7010     7.5520     0.6640 H     1 <1>   0.0800 
 56 H       12.0440     7.0070    -0.8520 H     1 <1>   0.0800 
@<TRIPOS>BOND
  1   1   2  2   
  2   2   3  am  
  3   2   4  1   
  4   3   5  1   
  5   3   6  1   
  6   4   7  1   
  7   4   8  2   
  8   5   9  1   
  9   5  28  1   
 10   5  29  1   
 11   6  10  1   
 12   6  30  1   
 13   6  31  1   
 14   7  11  2   
 15   8  12  1   
 16   8  13  1   
 17   9  14  1   
 18   9  32  1   
 19   9  33  1   
 20  10  15  1   
 21  10  34  1   
 22  10  35  1   
 23  11  12  1   
 24  11  36  1   
 25  12  37  1   
 26  13  38  1   
 27  13  39  1   
 28  13  40  1   
 29  14  15  1   
 30  14  16  1   
 31  15  41  1   
 32  15  42  1   
 33  16  17  1   
 34  16  43  1   
 35  16  44  1   
 36  17  18  1   
 37  17  19  2   
 38  18  20  1   
 39  19  21  1   
 40  19  45  1   
 41  20  21  2   
 42  21  22  1   
 43  22  23  1   
 44  22  24  1   
 45  22  46  1   
 46  23  25  1   
 47  23  47  1   
 48  23  48  1   
 49  24  26  1   
 50  24  49  1   
 51  24  50  1   
 52  25  27  1   
 53  25  51  1   
 54  25  52  1   
 55  26  27  1   
 56  26  53  1   
 57  26  54  1   
 58  27  55  1   
 59  27  56  1   
@<TRIPOS>SUBSTRUCTURE
  1 ****  14 GROUP 4 **** **** 0

# MOE 2024.06 (io_trps.svl 2023.06)
