@<TRIPOS>MOLECULE
NONAME
53 56 1 0 0 
SMALL
USER_CHARGES


@<TRIPOS>ATOM
  1 O       -1.9150     0.0270     2.9620 O.2   1 <1>  -0.5700 
  2 C       -2.2620     0.6590     1.9810 C.2   1 <1>   0.5440 
  3 N       -3.3690     0.2310     1.2880 N.am  1 <1>  -0.6600 
  4 C       -1.5140     1.8330     1.5910 C.ar  1 <1>   0.0860 
  5 C       -4.0080     0.9580     0.1600 C.3   1 <1>   0.1400 
  6 C       -3.7630    -1.1980     1.2690 C.3   1 <1>   0.1400 
  7 C       -0.8120     1.9100     0.3820 C.ar  1 <1>   0.0820 
  8 C       -1.4730     2.9370     2.4420 C.ar  1 <1>  -0.1500 
  9 C       -5.0420    -0.0220    -0.3940 C.3   1 <1>   0.2000 
 10 C       -4.4610    -1.4030    -0.0830 C.3   1 <1>  -0.0800 
 11 O       -0.8140     0.8630    -0.4800 O.3   1 <1>  -0.3630 
 12 C       -0.1170     3.0690     0.0280 C.ar  1 <1>   0.0820 
 13 C       -0.7830     4.0840     2.1030 C.ar  1 <1>  -0.1500 
 14 O       -6.2150     0.1220     0.3290 O.3   1 <1>  -0.6800 
 15 C       -3.4700    -1.8350    -1.1850 C.3   1 <1>  -0.0170 
 16 C       -0.0170    -0.2550    -0.1500 C.3   1 <1>   0.0400 
 17 O        0.5340     3.0820    -1.1700 O.3   1 <1>  -0.3630 
 18 C       -0.1080     4.1550     0.8970 C.ar  1 <1>  -0.1500 
 19 C       -2.8600    -3.1990    -0.9100 C.ar  1 <1>   0.1670 
 20 C        1.2610     4.2080    -1.6090 C.3   1 <1>   0.0400 
 21 N       -1.6470    -3.2350    -0.4480 N.ar  1 <1>  -0.6200 
 22 C       -3.6270    -4.3470    -1.1630 C.ar  1 <1>  -0.1500 
 23 C       -1.1030    -4.4510    -0.1870 C.ar  1 <1>   0.3100 
 24 C       -3.1050    -5.5810    -0.9180 C.ar  1 <1>  -0.1500 
 25 C       -1.7980    -5.6600    -0.4100 C.ar  1 <1>   0.0000 
 26 C        0.2010    -4.5140     0.3290 C.ar  1 <1>  -0.1500 
 27 C       -1.1590    -6.8810    -0.1150 C.ar  1 <1>  -0.1500 
 28 C        0.8040    -5.7120     0.6100 C.ar  1 <1>  -0.1500 
 29 C        0.1150    -6.9080     0.3840 C.ar  1 <1>  -0.1500 
 30 H       -4.4610     1.8780     0.4880 H     1 <1>   0.0800 
 31 H       -3.2760     1.1710    -0.5980 H     1 <1>   0.0800 
 32 H       -2.9040    -1.8350     1.3970 H     1 <1>   0.0800 
 33 H       -4.4490    -1.3780     2.0790 H     1 <1>   0.0800 
 34 H       -1.9920     2.8810     3.3840 H     1 <1>   0.1500 
 35 H       -5.2640     0.1370    -1.4360 H     1 <1>   0.0800 
 36 H       -5.2380    -2.1430    -0.0060 H     1 <1>   0.0800 
 37 H       -0.7680     4.9230     2.7770 H     1 <1>   0.1500 
 38 H       -5.9920     0.1340     1.2820 H     1 <1>   0.4000 
 39 H       -2.6780    -1.1120    -1.2750 H     1 <1>   0.0800 
 40 H       -3.9780    -1.8720    -2.1320 H     1 <1>   0.0800 
 41 H       -0.0250    -0.9320    -0.9850 H     1 <1>   0.0800 
 42 H       -0.4280    -0.7480     0.7140 H     1 <1>   0.0800 
 43 H        0.9860     0.0780     0.0460 H     1 <1>   0.0800 
 44 H        0.4170     5.0600     0.6590 H     1 <1>   0.1500 
 45 H        1.6790     3.9790    -2.5730 H     1 <1>   0.0800 
 46 H        2.0510     4.4090    -0.9070 H     1 <1>   0.0800 
 47 H        0.5920     5.0450    -1.6910 H     1 <1>   0.0800 
 48 H       -4.6240    -4.2380    -1.5500 H     1 <1>   0.1500 
 49 H       -3.6620    -6.4820    -1.1000 H     1 <1>   0.1500 
 50 H        0.7120    -3.5850     0.4980 H     1 <1>   0.1500 
 51 H       -1.6940    -7.7970    -0.2900 H     1 <1>   0.1500 
 52 H        1.8050    -5.7470     1.0060 H     1 <1>   0.1500 
 53 H        0.6010    -7.8420     0.6100 H     1 <1>   0.1500 
@<TRIPOS>BOND
  1   1   2  2   
  2   2   3  am  
  3   2   4  1   
  4   3   5  1   
  5   3   6  1   
  6   4   7  ar  
  7   4   8  ar  
  8   5   9  1   
  9   5  30  1   
 10   5  31  1   
 11   6  10  1   
 12   6  32  1   
 13   6  33  1   
 14   7  11  1   
 15   7  12  ar  
 16   8  13  ar  
 17   8  34  1   
 18   9  10  1   
 19   9  14  1   
 20   9  35  1   
 21  10  15  1   
 22  10  36  1   
 23  11  16  1   
 24  12  17  1   
 25  12  18  ar  
 26  13  18  ar  
 27  13  37  1   
 28  14  38  1   
 29  15  19  1   
 30  15  39  1   
 31  15  40  1   
 32  16  41  1   
 33  16  42  1   
 34  16  43  1   
 35  17  20  1   
 36  18  44  1   
 37  19  21  ar  
 38  19  22  ar  
 39  20  45  1   
 40  20  46  1   
 41  20  47  1   
 42  21  23  ar  
 43  22  24  ar  
 44  22  48  1   
 45  23  25  ar  
 46  23  26  ar  
 47  24  25  ar  
 48  24  49  1   
 49  25  27  ar  
 50  26  28  ar  
 51  26  50  1   
 52  27  29  ar  
 53  27  51  1   
 54  28  29  ar  
 55  28  52  1   
 56  29  53  1   
@<TRIPOS>SUBSTRUCTURE
  1 ****  16 GROUP 4 **** **** 0

# MOE 2024.06 (io_trps.svl 2023.06)
