@<TRIPOS>MOLECULE
NONAME
57 59 1 0 0 
SMALL
USER_CHARGES


@<TRIPOS>ATOM
  1 O        1.9890    -1.4100    -1.2980 O.co2 1 <1>  -0.9000 
  2 C        1.5600    -0.8280    -0.2900 C.2   1 <1>   0.9060 
  3 O        0.9050    -1.4270     0.5720 O.co2 1 <1>  -0.9000 
  4 C        1.8950     0.6730    -0.1540 C.3   1 <1>  -0.1060 
  5 C        3.2630     0.2190     0.5760 C.3   1 <1>   0.2000 
  6 C        2.2750     2.2490    -0.0830 C.3   1 <1>  -0.1600 
  7 C        0.4930     1.0250    -0.8550 C.3   1 <1>  -0.0160 
  8 O        3.4900     0.8100     1.8240 O.3   1 <1>  -0.6800 
  9 C        4.4970     0.4840    -0.2980 C.3   1 <1>   0.1400 
 10 C        3.4950     2.6320    -0.9340 C.3   1 <1>   0.1400 
 11 C       -0.5150     1.7640     0.0390 C.ar  1 <1>  -0.1440 
 12 N        4.7130     1.9520    -0.4430 N.am  1 <1>  -0.6600 
 13 C       -1.2440     2.8340    -0.4620 C.ar  1 <1>  -0.1500 
 14 C       -0.7120     1.3710     1.3530 C.ar  1 <1>  -0.1500 
 15 C        5.9250     2.5390    -0.1830 C.2   1 <1>   0.5690 
 16 C       -2.1460     3.5080     0.3430 C.ar  1 <1>  -0.1500 
 17 C       -1.6140     2.0420     2.1600 C.ar  1 <1>  -0.1500 
 18 O        6.8770     1.8920     0.1850 O.2   1 <1>  -0.5700 
 19 C        6.0880     4.0470    -0.3550 C.3   1 <1>  -0.0990 
 20 C       -2.3310     3.1130     1.6570 C.ar  1 <1>  -0.1500 
 21 C        7.4920     4.5850    -0.0080 C.3   1 <1>  -0.1600 
 22 C        7.5980     6.1220    -0.0660 C.3   1 <1>  -0.0800 
 23 C        7.3780     6.6710    -1.4900 C.3   1 <1>  -0.1600 
 24 C        8.9730     6.5610     0.4660 C.3   1 <1>  -0.1600 
 25 C        7.5560     8.1940    -1.5450 C.3   1 <1>  -0.1600 
 26 C        9.1450     8.0840     0.4160 C.3   1 <1>  -0.1600 
 27 C        8.9280     8.6160    -1.0060 C.3   1 <1>  -0.1600 
 28 H        3.3400    -0.8350     0.8170 H     1 <1>   0.0800 
 29 H        2.3860     2.6080     0.9220 H     1 <1>   0.0800 
 30 H        1.5470     2.9540    -0.4430 H     1 <1>   0.0800 
 31 H        0.6730     1.5820    -1.7590 H     1 <1>   0.0800 
 32 H       -0.0880     0.1970    -1.2420 H     1 <1>   0.0800 
 33 H        3.9540     1.6520     1.6500 H     1 <1>   0.4000 
 34 H        4.3420     0.0420    -1.2680 H     1 <1>   0.0800 
 35 H        5.3530     0.0090     0.1470 H     1 <1>   0.0800 
 36 H        3.6140     3.6990    -0.9160 H     1 <1>   0.0800 
 37 H        3.3210     2.3330    -1.9550 H     1 <1>   0.0800 
 38 H       -1.1100     3.1430    -1.4820 H     1 <1>   0.1500 
 39 H       -0.1610     0.5320     1.7490 H     1 <1>   0.1500 
 40 H       -2.7060     4.3360    -0.0530 H     1 <1>   0.1500 
 41 H       -1.7530     1.7230     3.1780 H     1 <1>   0.1500 
 42 H        5.8610     4.2790    -1.3780 H     1 <1>   0.0800 
 43 H        5.3690     4.5330     0.2770 H     1 <1>   0.0800 
 44 H       -3.0300     3.6340     2.2850 H     1 <1>   0.1500 
 45 H        8.2150     4.1450    -0.6740 H     1 <1>   0.0800 
 46 H        7.7370     4.2610     0.9890 H     1 <1>   0.0800 
 47 H        6.8440     6.5400     0.5810 H     1 <1>   0.0800 
 48 H        8.0800     6.2090    -2.1630 H     1 <1>   0.0800 
 49 H        6.3870     6.4350    -1.8320 H     1 <1>   0.0800 
 50 H        9.0920     6.2280     1.4830 H     1 <1>   0.0800 
 51 H        9.7490     6.1000    -0.1220 H     1 <1>   0.0800 
 52 H        7.4500     8.5330    -2.5610 H     1 <1>   0.0800 
 53 H        6.7850     8.6640    -0.9590 H     1 <1>   0.0800 
 54 H        8.4370     8.5460     1.0820 H     1 <1>   0.0800 
 55 H       10.1330     8.3460     0.7510 H     1 <1>   0.0800 
 56 H        9.0020     9.6900    -1.0050 H     1 <1>   0.0800 
 57 H        9.6980     8.2310    -1.6520 H     1 <1>   0.0800 
@<TRIPOS>BOND
  1   1   2  ar  
  2   2   3  ar  
  3   2   4  1   
  4   4   5  1   
  5   4   6  1   
  6   4   7  1   
  7   5   8  1   
  8   5   9  1   
  9   5  28  1   
 10   6  10  1   
 11   6  29  1   
 12   6  30  1   
 13   7  11  1   
 14   7  31  1   
 15   7  32  1   
 16   8  33  1   
 17   9  12  1   
 18   9  34  1   
 19   9  35  1   
 20  10  12  1   
 21  10  36  1   
 22  10  37  1   
 23  11  13  ar  
 24  11  14  ar  
 25  12  15  am  
 26  13  16  ar  
 27  13  38  1   
 28  14  17  ar  
 29  14  39  1   
 30  15  18  2   
 31  15  19  1   
 32  16  20  ar  
 33  16  40  1   
 34  17  20  ar  
 35  17  41  1   
 36  19  21  1   
 37  19  42  1   
 38  19  43  1   
 39  20  44  1   
 40  21  22  1   
 41  21  45  1   
 42  21  46  1   
 43  22  23  1   
 44  22  24  1   
 45  22  47  1   
 46  23  25  1   
 47  23  48  1   
 48  23  49  1   
 49  24  26  1   
 50  24  50  1   
 51  24  51  1   
 52  25  27  1   
 53  25  52  1   
 54  25  53  1   
 55  26  27  1   
 56  26  54  1   
 57  26  55  1   
 58  27  56  1   
 59  27  57  1   
@<TRIPOS>SUBSTRUCTURE
  1 ****  10 GROUP 4 **** **** 0

# MOE 2024.06 (io_trps.svl 2023.06)
