@<TRIPOS>MOLECULE
NONAME
38 40 1 0 0 
SMALL
USER_CHARGES


@<TRIPOS>ATOM
  1 N       -0.8820    -0.2550    -0.5410 N.2   1 <1>  -0.5760 
  2 C       -1.3310    -1.4970    -0.1730 C.2   1 <1>   0.3120 
  3 C       -1.2950     0.7390     0.1760 C.2   1 <1>   0.3760 
  4 N       -1.0410    -2.6190    -0.7550 N.2   1 <1>  -0.5650 
  5 N       -2.1720    -1.7080     0.8810 N.pl3 1 <1>   0.6010 
  6 C       -2.1690     0.5930     1.2910 C.2   1 <1>  -0.1360 
  7 C       -1.7250    -3.4870    -0.0180 C.2   1 <1>   0.3350 
  8 N       -2.4360    -3.0120     0.9640 N.2   1 <1>  -0.7070 
  9 C       -2.6090    -0.6450     1.6420 C.2   1 <1>  -0.1810 
 10 C       -1.6900    -4.9800    -0.3520 C.3   1 <1>   0.5240 
 11 N       -3.0620    -5.5700    -0.1870 N.4   1 <1>  -0.9590 
 12 C       -2.9650    -7.0530     0.0180 C.3   1 <1>   0.3430 
 13 C       -3.9330    -5.1560    -1.3190 C.3   1 <1>   0.3430 
 14 C       -4.2800    -7.7160     0.4440 C.3   1 <1>   0.0960 
 15 C       -5.2430    -4.6190    -0.7580 C.3   1 <1>  -0.2400 
 16 N       -4.0380    -9.1500     0.6640 N.pl3 1 <1>   0.3140 
 17 N       -2.8980    -9.7480     0.2680 N.2   1 <1>  -0.7070 
 18 C       -4.8710   -10.0280     1.2540 C.2   1 <1>  -0.3020 
 19 C       -3.0370   -10.9920     0.6160 C.2   1 <1>   0.1390 
 20 C       -4.2550   -11.2280     1.2400 C.2   1 <1>  -0.1500 
 21 H       -0.9670     1.7340    -0.0730 H     1 <1>   0.0600 
 22 H       -2.4570     1.4800     1.8270 H     1 <1>   0.1500 
 23 H       -3.2670    -0.8650     2.4620 H     1 <1>   0.1500 
 24 H       -0.9970    -5.4550     0.3220 H     1 <1>   0.0800 
 25 H       -1.3360    -5.1150    -1.3600 H     1 <1>   0.0800 
 26 H       -3.4130    -5.0950     0.6630 H     1 <1>   0.4500 
 27 H       -2.2310    -7.2590     0.7820 H     1 <1>   0.0800 
 28 H       -2.6250    -7.5210    -0.8930 H     1 <1>   0.0800 
 29 H       -4.1170    -5.9880    -1.9800 H     1 <1>   0.0800 
 30 H       -3.4560    -4.3720    -1.8900 H     1 <1>   0.0800 
 31 H       -5.0220    -7.6230    -0.3260 H     1 <1>   0.0800 
 32 H       -4.6390    -7.2900     1.3610 H     1 <1>   0.0800 
 33 H       -5.7740    -5.3670    -0.2000 H     1 <1>   0.0800 
 34 H       -5.8720    -4.3070    -1.5730 H     1 <1>   0.0800 
 35 H       -5.0640    -3.7600    -0.1350 H     1 <1>   0.0800 
 36 H       -5.8380    -9.7650     1.6450 H     1 <1>   0.1500 
 37 H       -2.2890   -11.7490     0.4390 H     1 <1>   0.1500 
 38 H       -4.6010   -12.1750     1.6180 H     1 <1>   0.1500 
@<TRIPOS>BOND
  1   1   2  1   
  2   1   3  2   
  3   2   4  2   
  4   2   5  1   
  5   3   6  1   
  6   3  21  1   
  7   4   7  1   
  8   5   8  1   
  9   5   9  1   
 10   6   9  2   
 11   6  22  1   
 12   7   8  2   
 13   7  10  1   
 14   9  23  1   
 15  10  11  1   
 16  10  24  1   
 17  10  25  1   
 18  11  12  1   
 19  11  13  1   
 20  11  26  1   
 21  12  14  1   
 22  12  27  1   
 23  12  28  1   
 24  13  15  1   
 25  13  29  1   
 26  13  30  1   
 27  14  16  1   
 28  14  31  1   
 29  14  32  1   
 30  15  33  1   
 31  15  34  1   
 32  15  35  1   
 33  16  17  1   
 34  16  18  1   
 35  17  19  2   
 36  18  20  2   
 37  18  36  1   
 38  19  20  1   
 39  19  37  1   
 40  20  38  1   
@<TRIPOS>SUBSTRUCTURE
  1 ****  11 GROUP 4 **** **** 0

# MOE 2024.06 (io_trps.svl 2023.06)
