@<TRIPOS>MOLECULE
NONAME
43 45 1 0 0 
SMALL
USER_CHARGES


@<TRIPOS>ATOM
  1 O        2.7540    -0.0820    -1.7710 O.2   1 <1>  -0.5700 
  2 C        2.7810     0.0890    -0.5730 C.2   1 <1>   0.5690 
  3 N        2.2910     1.2240     0.0160 N.am  1 <1>  -0.4940 
  4 C        3.3910    -0.9780     0.3300 C.3   1 <1>   0.2370 
  5 C        1.9690     2.4670    -0.5700 C.2   1 <1>  -0.0880 
  6 N        2.3840    -1.3160     1.3510 N.pl3 1 <1>   0.3140 
  7 C        3.9080    -2.2380    -0.4000 C.3   1 <1>  -0.2400 
  8 N        2.6840     3.1290    -1.5280 N.pl3 1 <1>   0.3140 
  9 C        0.9210     3.2610    -0.2510 C.2   1 <1>  -0.1810 
 10 N        2.2880    -0.6580     2.4890 N.2   1 <1>  -0.4180 
 11 C        1.3930    -2.1880     1.3170 C.2   1 <1>   0.0360 
 12 N        2.1080     4.3220    -1.8200 N.2   1 <1>  -0.7070 
 13 C        3.9590     2.7380    -2.1840 C.3   1 <1>   0.2390 
 14 C        1.0610     4.3840    -1.0580 C.2   1 <1>   0.1390 
 15 C       -0.1900     3.0210     0.7550 C.3   1 <1>  -0.0590 
 16 N        1.2760    -1.1480     3.1080 N.2   1 <1>   0.0000 
 17 N        0.7020    -2.1050     2.3880 N.2   1 <1>  -0.3380 
 18 C        5.0070     2.1880    -1.2130 C.ar  1 <1>  -0.1440 
 19 C        5.2270     2.7820     0.0220 C.ar  1 <1>  -0.1500 
 20 C        5.7430     1.0650    -1.5620 C.ar  1 <1>  -0.1500 
 21 C        6.1510     2.2540     0.9080 C.ar  1 <1>  -0.1440 
 22 C        6.6730     0.5360    -0.6850 C.ar  1 <1>  -0.1500 
 23 C        6.8730     1.1270     0.5500 C.ar  1 <1>  -0.1500 
 24 C        6.3680     2.9080     2.2600 C.3   1 <1>  -0.0970 
 25 H        2.1600     1.1840     1.0330 H     1 <1>   0.3700 
 26 H        4.2240    -0.5240     0.8360 H     1 <1>   0.0800 
 27 H        3.1240    -2.7010    -0.9730 H     1 <1>   0.0800 
 28 H        4.3110    -2.9440     0.3040 H     1 <1>   0.0800 
 29 H        4.6920    -1.9580    -1.0820 H     1 <1>   0.0800 
 30 H        1.2010    -2.8560     0.4990 H     1 <1>   0.1500 
 31 H        3.7260     2.0080    -2.9360 H     1 <1>   0.0800 
 32 H        4.3580     3.6060    -2.6760 H     1 <1>   0.0800 
 33 H        0.3830     5.2210    -1.0580 H     1 <1>   0.1500 
 34 H       -1.1460     3.1030     0.2690 H     1 <1>   0.0800 
 35 H       -0.1350     3.7510     1.5420 H     1 <1>   0.0800 
 36 H       -0.1080     2.0400     1.1860 H     1 <1>   0.0800 
 37 H        4.6670     3.6600     0.3000 H     1 <1>   0.1500 
 38 H        5.5900     0.5930    -2.5180 H     1 <1>   0.1500 
 39 H        7.2430    -0.3330    -0.9630 H     1 <1>   0.1500 
 40 H        7.5970     0.7110     1.2290 H     1 <1>   0.1500 
 41 H        7.3660     2.7210     2.6150 H     1 <1>   0.0800 
 42 H        5.6650     2.5150     2.9720 H     1 <1>   0.0800 
 43 H        6.2300     3.9720     2.1870 H     1 <1>   0.0800 
@<TRIPOS>BOND
  1   1   2  2   
  2   2   3  am  
  3   2   4  1   
  4   3   5  1   
  5   3  25  1   
  6   4   6  1   
  7   4   7  1   
  8   4  26  1   
  9   5   8  1   
 10   5   9  2   
 11   6  10  1   
 12   6  11  1   
 13   7  27  1   
 14   7  28  1   
 15   7  29  1   
 16   8  12  1   
 17   8  13  1   
 18   9  14  1   
 19   9  15  1   
 20  10  16  2   
 21  11  17  2   
 22  11  30  1   
 23  12  14  2   
 24  13  18  1   
 25  13  31  1   
 26  13  32  1   
 27  14  33  1   
 28  15  34  1   
 29  15  35  1   
 30  15  36  1   
 31  16  17  1   
 32  18  19  ar  
 33  18  20  ar  
 34  19  21  ar  
 35  19  37  1   
 36  20  22  ar  
 37  20  38  1   
 38  21  23  ar  
 39  21  24  1   
 40  22  23  ar  
 41  22  39  1   
 42  23  40  1   
 43  24  41  1   
 44  24  42  1   
 45  24  43  1   
@<TRIPOS>SUBSTRUCTURE
  1 ****   3 GROUP 4 **** **** 0

# MOE 2024.06 (io_trps.svl 2023.06)
