@<TRIPOS>MOLECULE
NONAME
48 51 1 0 0 
SMALL
USER_CHARGES


@<TRIPOS>ATOM
  1 O       -0.3520    -0.5250     0.8820 O.2   1 <1>  -0.5700 
  2 C       -1.4080    -0.3060     0.3400 C.2   1 <1>   0.5690 
  3 N       -1.9380     0.9110     0.0820 N.am  1 <1>  -0.6600 
  4 C       -2.3220    -1.3990    -0.1360 C.3   1 <1>  -0.0990 
  5 C       -1.2540     2.1960     0.3810 C.3   1 <1>   0.2200 
  6 C       -3.2470     0.8050    -0.5930 C.3   1 <1>   0.1400 
  7 C       -3.6550    -0.6590    -0.3700 C.3   1 <1>  -0.0800 
  8 C       -2.1100     3.0800     1.2890 C.3   1 <1>  -0.1600 
  9 C       -1.0500     3.0270    -0.8830 C.3   1 <1>  -0.1600 
 10 C       -4.5830    -0.7480     0.8510 C.3   1 <1>   0.2090 
 11 C       -2.8780     4.0550     0.3850 C.3   1 <1>  -0.1600 
 12 C       -2.2860     3.9200    -1.0220 C.3   1 <1>  -0.1600 
 13 N       -5.0060    -2.1520     1.0740 N.pl3 1 <1>  -0.8690 
 14 C       -6.0440    -2.7850     0.4180 C.ar  1 <1>   0.4100 
 15 N       -6.7360    -2.0790    -0.4540 N.ar  1 <1>  -0.3100 
 16 C       -6.3170    -4.1500     0.6880 C.ar  1 <1>   0.0000 
 17 N       -7.7300    -2.6360    -1.1320 N.ar  1 <1>  -0.3100 
 18 C       -7.3660    -4.7340    -0.0370 C.ar  1 <1>   0.0000 
 19 C       -5.6140    -4.9470     1.6200 C.ar  1 <1>  -0.1500 
 20 C       -8.0360    -3.8900    -0.9440 C.ar  1 <1>   0.1670 
 21 C       -7.6710    -6.0980     0.1890 C.ar  1 <1>  -0.1500 
 22 C       -5.9300    -6.2630     1.8200 C.ar  1 <1>  -0.1500 
 23 C       -9.1900    -4.4270    -1.7730 C.3   1 <1>  -0.0970 
 24 C       -6.9700    -6.8450     1.0940 C.ar  1 <1>  -0.1500 
 25 H       -2.3880    -2.1870     0.5900 H     1 <1>   0.0800 
 26 H       -1.9370    -1.7890    -1.0590 H     1 <1>   0.0800 
 27 H       -0.3060     1.9860     0.8490 H     1 <1>   0.0800 
 28 H       -3.1200     1.0040    -1.6440 H     1 <1>   0.0800 
 29 H       -3.9630     1.4910    -0.1770 H     1 <1>   0.0800 
 30 H       -4.1750    -1.0370    -1.2330 H     1 <1>   0.0800 
 31 H       -1.4490     3.6490     1.9200 H     1 <1>   0.0800 
 32 H       -2.7600     2.4990     1.9180 H     1 <1>   0.0800 
 33 H       -0.8770     2.4130    -1.7490 H     1 <1>   0.0800 
 34 H       -0.1900     3.6560    -0.7330 H     1 <1>   0.0800 
 35 H       -5.4560    -0.1360     0.6910 H     1 <1>   0.0800 
 36 H       -4.0800    -0.3830     1.7310 H     1 <1>   0.0800 
 37 H       -2.7630     5.0620     0.7480 H     1 <1>   0.0800 
 38 H       -3.9260     3.8140     0.3710 H     1 <1>   0.0800 
 39 H       -3.0020     3.4500    -1.6730 H     1 <1>   0.0800 
 40 H       -2.0270     4.8790    -1.4360 H     1 <1>   0.0800 
 41 H       -4.4110    -2.7020     1.6940 H     1 <1>   0.4000 
 42 H       -4.8140    -4.5110     2.1870 H     1 <1>   0.1500 
 43 H       -8.4700    -6.5580    -0.3620 H     1 <1>   0.1500 
 44 H       -5.3880    -6.8620     2.5320 H     1 <1>   0.1500 
 45 H       -9.5900    -3.6560    -2.4080 H     1 <1>   0.0800 
 46 H       -9.9750    -4.7740    -1.1270 H     1 <1>   0.0800 
 47 H       -8.8510    -5.2350    -2.3940 H     1 <1>   0.0800 
 48 H       -7.2090    -7.8820     1.2600 H     1 <1>   0.1500 
@<TRIPOS>BOND
  1   1   2  2   
  2   2   3  am  
  3   2   4  1   
  4   3   5  1   
  5   3   6  1   
  6   4   7  1   
  7   4  25  1   
  8   4  26  1   
  9   5   8  1   
 10   5   9  1   
 11   5  27  1   
 12   6   7  1   
 13   6  28  1   
 14   6  29  1   
 15   7  10  1   
 16   7  30  1   
 17   8  11  1   
 18   8  31  1   
 19   8  32  1   
 20   9  12  1   
 21   9  33  1   
 22   9  34  1   
 23  10  13  1   
 24  10  35  1   
 25  10  36  1   
 26  11  12  1   
 27  11  37  1   
 28  11  38  1   
 29  12  39  1   
 30  12  40  1   
 31  13  14  1   
 32  13  41  1   
 33  14  15  ar  
 34  14  16  ar  
 35  15  17  ar  
 36  16  18  ar  
 37  16  19  ar  
 38  17  20  ar  
 39  18  20  ar  
 40  18  21  ar  
 41  19  22  ar  
 42  19  42  1   
 43  20  23  1   
 44  21  24  ar  
 45  21  43  1   
 46  22  24  ar  
 47  22  44  1   
 48  23  45  1   
 49  23  46  1   
 50  23  47  1   
 51  24  48  1   
@<TRIPOS>SUBSTRUCTURE
  1 ****  10 GROUP 4 **** **** 0

# MOE 2024.06 (io_trps.svl 2023.06)
