@<TRIPOS>MOLECULE
NONAME
44 46 1 0 0 
SMALL
USER_CHARGES


@<TRIPOS>ATOM
  1 CL      -0.5160     0.9200     0.5940 Cl    1 <1>  -0.1400 
  2 C       -0.0200     2.5840     0.4230 C.2   1 <1>   0.1400 
  3 C        1.1940     2.8970    -0.1240 C.2   1 <1>   0.1910 
  4 C       -0.8880     3.5890     0.8570 C.2   1 <1>  -0.1500 
  5 N        1.5940     4.2110    -0.2620 N.pl3 1 <1>  -0.5760 
  6 C       -0.4820     4.8920     0.7130 C.2   1 <1>  -0.1800 
  7 C        2.8450     4.5390    -0.8100 C.2   1 <1>   0.9370 
  8 C        0.7650     5.2090     0.1490 C.cat 1 <1>   0.7390 
  9 O        3.5830     3.6490    -1.1660 O.2   1 <1>  -0.5700 
 10 C        3.2190     5.9000    -0.9360 C.2   1 <1>  -0.1360 
 11 N        1.1690     6.4880     0.0030 N.pl3 1 <1>  -0.6450 
 12 C        2.3760     6.8680    -0.5330 C.2   1 <1>   0.2030 
 13 C        2.6360     8.3750    -0.6090 C.3   1 <1>   0.2480 
 14 N        1.9000     9.0820     0.4700 N.3   1 <1>  -0.8100 
 15 C        1.7030    10.5310     0.1520 C.3   1 <1>   0.2900 
 16 C        2.5840     8.9430     1.7720 C.3   1 <1>   0.0300 
 17 C        2.9940    11.3230    -0.0580 C.2   1 <1>   0.2980 
 18 O        3.5960    11.2390    -1.2180 O.3   1 <1>  -0.0190 
 19 N        3.5630    12.0720     0.7990 N.2   1 <1>  -0.5650 
 20 N        4.6420    11.9940    -1.0840 N.2   1 <1>  -0.4100 
 21 C        4.6090    12.4800     0.0950 C.2   1 <1>   0.3350 
 22 C        5.6250    13.4290     0.7040 C.3   1 <1>   0.0210 
 23 C        6.7160    13.8280    -0.2880 C.3   1 <1>   0.1200 
 24 O        7.5990    14.6890     0.3560 O.3   1 <1>  -0.5600 
 25 C        8.6440    15.1290    -0.4490 C.3   1 <1>   0.0400 
 26 H        1.8530     2.1060    -0.4530 H     1 <1>   0.1500 
 27 H       -1.8410     3.3200     1.2860 H     1 <1>   0.1500 
 28 H       -1.1230     5.6930     1.0340 H     1 <1>   0.1500 
 29 H        4.1840     6.0960    -1.3630 H     1 <1>   0.1500 
 30 H        0.6110     7.2690     0.3830 H     1 <1>   0.4500 
 31 H        2.2790     8.7210    -1.5650 H     1 <1>   0.0800 
 32 H        3.6920     8.5830    -0.5510 H     1 <1>   0.0800 
 33 H        1.1580    10.9920     0.9580 H     1 <1>   0.0800 
 34 H        1.0980    10.6250    -0.7320 H     1 <1>   0.0800 
 35 H        2.6610     7.9080     2.0540 H     1 <1>   0.0800 
 36 H        2.0290     9.4590     2.5380 H     1 <1>   0.0800 
 37 H        3.5770     9.3630     1.7330 H     1 <1>   0.0800 
 38 H        6.0750    12.9490     1.5530 H     1 <1>   0.0800 
 39 H        5.1110    14.3110     1.0380 H     1 <1>   0.0800 
 40 H        6.2870    14.3390    -1.1340 H     1 <1>   0.0800 
 41 H        7.2580    12.9600    -0.6220 H     1 <1>   0.0800 
 42 H        9.2660    15.7830     0.1380 H     1 <1>   0.0800 
 43 H        8.2430    15.6690    -1.2900 H     1 <1>   0.0800 
 44 H        9.2200    14.2820    -0.7800 H     1 <1>   0.0800 
@<TRIPOS>BOND
  1   1   2  1   
  2   2   3  2   
  3   2   4  1   
  4   3   5  1   
  5   3  26  1   
  6   4   6  2   
  7   4  27  1   
  8   5   7  1   
  9   5   8  ar  
 10   6   8  1   
 11   6  28  1   
 12   7   9  2   
 13   7  10  1   
 14   8  11  ar  
 15  10  12  2   
 16  10  29  1   
 17  11  12  1   
 18  11  30  1   
 19  12  13  1   
 20  13  14  1   
 21  13  31  1   
 22  13  32  1   
 23  14  15  1   
 24  14  16  1   
 25  15  17  1   
 26  15  33  1   
 27  15  34  1   
 28  16  35  1   
 29  16  36  1   
 30  16  37  1   
 31  17  18  1   
 32  17  19  2   
 33  18  20  1   
 34  19  21  1   
 35  20  21  2   
 36  21  22  1   
 37  22  23  1   
 38  22  38  1   
 39  22  39  1   
 40  23  24  1   
 41  23  40  1   
 42  23  41  1   
 43  24  25  1   
 44  25  42  1   
 45  25  43  1   
 46  25  44  1   
@<TRIPOS>SUBSTRUCTURE
  1 ****  13 GROUP 4 **** **** 0

# MOE 2024.06 (io_trps.svl 2023.06)
