@<TRIPOS>MOLECULE
NONAME
50 53 1 0 0 
SMALL
USER_CHARGES


@<TRIPOS>ATOM
  1 S       -1.3090     0.4920    -1.0350 S.3   1 <1>  -0.0800 
  2 C       -2.2050     0.7570     0.4400 C.2   1 <1>   0.1980 
  3 C       -0.8760     2.1700    -1.0400 C.2   1 <1>  -0.1100 
  4 N       -2.1620     1.9550     0.8640 N.2   1 <1>  -0.5650 
  5 C       -2.9180    -0.4330     1.0540 C.3   1 <1>   0.1640 
  6 C       -1.4060     2.8010     0.0340 C.2   1 <1>   0.1410 
  7 C       -3.9910    -0.9880     0.1260 C.ar  1 <1>  -0.1440 
  8 C       -1.2330     4.2190     0.3450 C.2   1 <1>   0.7160 
  9 C       -3.8920    -2.2720    -0.3920 C.ar  1 <1>  -0.1500 
 10 C       -5.0850    -0.2040    -0.2090 C.ar  1 <1>  -0.1500 
 11 O       -1.9410     4.7920     1.1550 O.2   1 <1>  -0.5700 
 12 N       -0.2350     4.9050    -0.2920 N.am  1 <1>  -0.4930 
 13 C       -4.8760    -2.7640    -1.2330 C.ar  1 <1>  -0.1500 
 14 C       -6.0680    -0.6950    -1.0500 C.ar  1 <1>  -0.1500 
 15 C        0.2160     6.2390    -0.1500 C.2   1 <1>   0.0630 
 16 C       -5.9640    -1.9760    -1.5620 C.ar  1 <1>  -0.1500 
 17 C        1.5740     6.5700    -0.2080 C.2   1 <1>   0.3720 
 18 C       -0.4220     7.4150     0.0360 C.2   1 <1>  -0.3320 
 19 N        1.7850     7.8380    -0.0490 N.2   1 <1>  -0.7070 
 20 N        2.5970     5.6220    -0.4080 N.pl3 1 <1>  -0.8210 
 21 N        0.5480     8.3610     0.1120 N.pl3 1 <1>   0.3140 
 22 C       -1.9110     7.7120     0.1400 C.3   1 <1>  -0.0600 
 23 C        3.5640     6.0370    -1.4650 C.3   1 <1>   0.2090 
 24 C        3.3630     5.3920     0.8470 C.3   1 <1>   0.2090 
 25 C        0.3660     9.8000     0.3380 C.3   1 <1>   0.0160 
 26 C        4.9050     6.2360    -0.7710 C.3   1 <1>  -0.1600 
 27 C        4.8280     5.3270     0.4430 C.3   1 <1>  -0.1600 
 28 H       -0.2680     2.5210    -1.8540 H     1 <1>   0.1500 
 29 H       -3.3760    -0.1240     1.9760 H     1 <1>   0.0800 
 30 H       -2.1920    -1.1910     1.2860 H     1 <1>   0.0800 
 31 H       -3.0510    -2.8960    -0.1470 H     1 <1>   0.1500 
 32 H       -5.1710     0.7970     0.1820 H     1 <1>   0.1500 
 33 H        0.5100     4.3270    -0.6820 H     1 <1>   0.3700 
 34 H       -4.7940    -3.7600    -1.6320 H     1 <1>   0.1500 
 35 H       -6.9130    -0.0790    -1.3060 H     1 <1>   0.1500 
 36 H       -6.7290    -2.3590    -2.2160 H     1 <1>   0.1500 
 37 H       -2.4870     6.8750    -0.2110 H     1 <1>   0.0800 
 38 H       -2.1710     8.5660    -0.4590 H     1 <1>   0.0800 
 39 H       -2.1780     7.9010     1.1650 H     1 <1>   0.0800 
 40 H        3.2520     6.9380    -1.9690 H     1 <1>   0.0800 
 41 H        3.6390     5.2450    -2.1890 H     1 <1>   0.0800 
 42 H        3.0460     4.4780     1.3190 H     1 <1>   0.0800 
 43 H        3.2100     6.2120     1.5320 H     1 <1>   0.0800 
 44 H       -0.2480     9.9460     1.2060 H     1 <1>   0.0800 
 45 H       -0.1030    10.2340    -0.5240 H     1 <1>   0.0800 
 46 H        1.3260    10.2560     0.4950 H     1 <1>   0.0800 
 47 H        4.9790     7.2630    -0.4570 H     1 <1>   0.0800 
 48 H        5.7310     6.0010    -1.4170 H     1 <1>   0.0800 
 49 H        5.0730     4.3170     0.1680 H     1 <1>   0.0800 
 50 H        5.4760     5.6480     1.2390 H     1 <1>   0.0800 
@<TRIPOS>BOND
  1   1   2  1   
  2   1   3  1   
  3   2   4  2   
  4   2   5  1   
  5   3   6  2   
  6   3  28  1   
  7   4   6  1   
  8   5   7  1   
  9   5  29  1   
 10   5  30  1   
 11   6   8  1   
 12   7   9  ar  
 13   7  10  ar  
 14   8  11  2   
 15   8  12  am  
 16   9  13  ar  
 17   9  31  1   
 18  10  14  ar  
 19  10  32  1   
 20  12  15  1   
 21  12  33  1   
 22  13  16  ar  
 23  13  34  1   
 24  14  16  ar  
 25  14  35  1   
 26  15  17  1   
 27  15  18  2   
 28  16  36  1   
 29  17  19  2   
 30  17  20  1   
 31  18  21  1   
 32  18  22  1   
 33  19  21  1   
 34  20  23  1   
 35  20  24  1   
 36  21  25  1   
 37  22  37  1   
 38  22  38  1   
 39  22  39  1   
 40  23  26  1   
 41  23  40  1   
 42  23  41  1   
 43  24  27  1   
 44  24  42  1   
 45  24  43  1   
 46  25  44  1   
 47  25  45  1   
 48  25  46  1   
 49  26  27  1   
 50  26  47  1   
 51  26  48  1   
 52  27  49  1   
 53  27  50  1   
@<TRIPOS>SUBSTRUCTURE
  1 ****   8 GROUP 4 **** **** 0

# MOE 2024.06 (io_trps.svl 2023.06)
