@<TRIPOS>MOLECULE
NONAME
22 23 1 0 0 
SMALL
USER_CHARGES


@<TRIPOS>ATOM
  1 O        1.0360     1.5540    -1.0360 O.co2 1 <1>  -0.9000 
  2 C        0.6100     1.7610     0.1070 C.2   1 <1>   0.9060 
  3 O        0.5650     0.8530     0.9460 O.co2 1 <1>  -0.9000 
  4 C        0.1760     3.1820     0.5060 C.3   1 <1>  -0.1860 
  5 C       -0.8860     3.2220     1.6420 C.3   1 <1>  -0.1600 
  6 C       -0.3330     4.0450    -0.6840 C.3   1 <1>  -0.1600 
  7 C       -2.3340     3.1620     1.1160 C.3   1 <1>   0.2000 
  8 C       -1.8450     3.8890    -0.9380 C.3   1 <1>   0.2000 
  9 O       -2.4870     4.2330     0.2450 O.3   1 <1>  -0.5600 
 10 C       -2.6330     1.9510     0.2330 C.3   1 <1>  -0.1600 
 11 C       -2.2990     2.4480    -1.1730 C.3   1 <1>  -0.1600 
 12 H        1.0750     3.6310     0.8790 H     1 <1>   0.0800 
 13 H       -0.7770     4.1410     2.1880 H     1 <1>   0.0800 
 14 H       -0.7220     2.4210     2.3400 H     1 <1>   0.0800 
 15 H        0.2110     3.8080    -1.5810 H     1 <1>   0.0800 
 16 H       -0.1450     5.0810    -0.4670 H     1 <1>   0.0800 
 17 H       -3.0420     3.2600     1.9190 H     1 <1>   0.0800 
 18 H       -2.1760     4.5480    -1.7200 H     1 <1>   0.0800 
 19 H       -2.0470     1.0950     0.5190 H     1 <1>   0.0800 
 20 H       -3.6750     1.6980     0.3050 H     1 <1>   0.0800 
 21 H       -3.1760     2.4410    -1.7930 H     1 <1>   0.0800 
 22 H       -1.5320     1.8610    -1.6470 H     1 <1>   0.0800 
@<TRIPOS>BOND
  1   1   2  ar  
  2   2   3  ar  
  3   2   4  1   
  4   4   5  1   
  5   4   6  1   
  6   4  12  1   
  7   5   7  1   
  8   5  13  1   
  9   5  14  1   
 10   6   8  1   
 11   6  15  1   
 12   6  16  1   
 13   7   9  1   
 14   7  10  1   
 15   7  17  1   
 16   8   9  1   
 17   8  11  1   
 18   8  18  1   
 19  10  11  1   
 20  10  19  1   
 21  10  20  1   
 22  11  21  1   
 23  11  22  1   
@<TRIPOS>SUBSTRUCTURE
  1 ****   4 GROUP 4 **** **** 0

# MOE 2024.06 (io_trps.svl 2023.06)
