@<TRIPOS>MOLECULE
NONAME
42 43 1 0 0 
SMALL
USER_CHARGES


@<TRIPOS>ATOM
  1 F        0.3940    -0.3720     1.0650 F     1 <1>  -0.3400 
  2 C       -0.1740    -0.8120    -0.0510 C.3   1 <1>   1.1640 
  3 F        0.0860     0.0950    -0.9830 F     1 <1>  -0.3400 
  4 F       -1.4860    -0.7660     0.1560 F     1 <1>  -0.3400 
  5 C        0.3220    -2.2080    -0.4650 C.ar  1 <1>  -0.1440 
  6 C        1.6320    -2.6000    -0.2100 C.ar  1 <1>  -0.1500 
  7 C       -0.5290    -3.1050    -1.1010 C.ar  1 <1>  -0.1500 
  8 C        2.0960    -3.8610    -0.5720 C.ar  1 <1>  -0.1440 
  9 C       -0.0940    -4.3700    -1.4550 C.ar  1 <1>  -0.1440 
 10 C        1.2150    -4.7390    -1.1920 C.ar  1 <1>  -0.1500 
 11 C        3.5450    -4.2930    -0.2850 C.3   1 <1>   1.1640 
 12 C       -1.0390    -5.3640    -2.1210 C.3   1 <1>   0.0440 
 13 F        4.0540    -5.0430    -1.2540 F     1 <1>  -0.3400 
 14 F        3.6360    -5.0080     0.8280 F     1 <1>  -0.3400 
 15 F        4.3740    -3.2660    -0.1390 F     1 <1>  -0.3400 
 16 C       -1.2240    -6.6250    -1.2840 C.2   1 <1>   0.5690 
 17 O       -0.7500    -7.6480    -1.7250 O.2   1 <1>  -0.5700 
 18 N       -1.9020    -6.6250    -0.0900 N.am  1 <1>  -0.6600 
 19 C       -2.0120    -7.9000     0.6830 C.3   1 <1>   0.3200 
 20 C       -2.8250    -5.5400     0.3850 C.3   1 <1>   0.1400 
 21 C       -3.1660    -8.7300     0.1520 C.2   1 <1>   0.0060 
 22 C       -2.3930    -4.9410     1.7330 C.3   1 <1>   0.1200 
 23 N       -4.2730    -8.9620     0.7860 N.2   1 <1>  -0.5650 
 24 N       -3.1120    -9.3000    -1.0700 N.pl3 1 <1>   0.0330 
 25 O       -1.0730    -4.5310     1.6670 O.3   1 <1>  -0.6800 
 26 C       -4.9760    -9.7290    -0.0710 C.2   1 <1>   0.0770 
 27 C       -4.2830    -9.9450    -1.2110 C.2   1 <1>  -0.3020 
 28 H        2.3000    -1.9090     0.2810 H     1 <1>   0.1500 
 29 H       -1.5450    -2.8150    -1.3130 H     1 <1>   0.1500 
 30 H        1.5500    -5.7250    -1.4740 H     1 <1>   0.1500 
 31 H       -0.6230    -5.6430    -3.0720 H     1 <1>   0.0800 
 32 H       -1.9960    -4.9200    -2.3190 H     1 <1>   0.0800 
 33 H       -2.1720    -7.6960     1.7260 H     1 <1>   0.0800 
 34 H       -1.0980    -8.4630     0.5990 H     1 <1>   0.0800 
 35 H       -3.8170    -5.9490     0.4890 H     1 <1>   0.0800 
 36 H       -2.8890    -4.7450    -0.3340 H     1 <1>   0.0800 
 37 H       -2.4840    -5.6660     2.5220 H     1 <1>   0.0800 
 38 H       -2.9970    -4.0860     1.9810 H     1 <1>   0.0800 
 39 H       -2.3260    -9.2110    -1.7300 H     1 <1>   0.2700 
 40 H       -0.5590    -5.1740     1.1350 H     1 <1>   0.4000 
 41 H       -5.9590   -10.0910     0.1810 H     1 <1>   0.1500 
 42 H       -4.5510   -10.5050    -2.0880 H     1 <1>   0.1500 
@<TRIPOS>BOND
  1   1   2  1   
  2   2   3  1   
  3   2   4  1   
  4   2   5  1   
  5   5   6  ar  
  6   5   7  ar  
  7   6   8  ar  
  8   6  28  1   
  9   7   9  ar  
 10   7  29  1   
 11   8  10  ar  
 12   8  11  1   
 13   9  10  ar  
 14   9  12  1   
 15  10  30  1   
 16  11  13  1   
 17  11  14  1   
 18  11  15  1   
 19  12  16  1   
 20  12  31  1   
 21  12  32  1   
 22  16  17  2   
 23  16  18  am  
 24  18  19  1   
 25  18  20  1   
 26  19  21  1   
 27  19  33  1   
 28  19  34  1   
 29  20  22  1   
 30  20  35  1   
 31  20  36  1   
 32  21  23  2   
 33  21  24  1   
 34  22  25  1   
 35  22  37  1   
 36  22  38  1   
 37  23  26  1   
 38  24  27  1   
 39  24  39  1   
 40  25  40  1   
 41  26  27  2   
 42  26  41  1   
 43  27  42  1   
@<TRIPOS>SUBSTRUCTURE
  1 ****   9 GROUP 4 **** **** 0

# MOE 2024.06 (io_trps.svl 2023.06)
