@<TRIPOS>MOLECULE
NONAME
48 51 1 0 0 
SMALL
USER_CHARGES


@<TRIPOS>ATOM
  1 O        1.1340     3.3020     0.1770 O.2   1 <1>  -0.5700 
  2 C        0.2870     4.1170    -0.1090 C.2   1 <1>   0.5690 
  3 N       -0.6620     4.5470     0.7840 N.am  1 <1>  -0.5090 
  4 C        0.3360     4.7050    -1.5260 C.3   1 <1>   0.1810 
  5 C       -1.5630     5.6900     0.4470 C.3   1 <1>   0.3640 
  6 C       -0.6920     4.1060     2.1990 C.3   1 <1>   0.0490 
  7 O       -0.6440     5.6890    -1.8120 O.3   1 <1>  -0.5600 
  8 C       -2.9810     5.1980     0.1440 C.ar  1 <1>  -0.1440 
  9 C       -1.0120     6.5310    -0.7270 C.3   1 <1>   0.2610 
 10 C       -0.7200     2.6430     2.5130 C.3   1 <1>  -0.2000 
 11 C       -1.9360     3.4790     2.7490 C.3   1 <1>  -0.2000 
 12 C       -3.2220     4.1560    -0.7430 C.ar  1 <1>  -0.1500 
 13 C       -4.0600     5.8060     0.7710 C.ar  1 <1>  -0.1500 
 14 C        0.1470     7.4380    -0.2880 C.2   1 <1>   0.5690 
 15 C       -4.5130     3.7280    -1.0000 C.ar  1 <1>  -0.1500 
 16 C       -5.3510     5.3820     0.5150 C.ar  1 <1>  -0.1500 
 17 O        0.2490     7.7830     0.8660 O.2   1 <1>  -0.5700 
 18 N        1.0730     7.8090    -1.2080 N.am  1 <1>  -0.7300 
 19 C       -5.5900     4.3430    -0.3690 C.ar  1 <1>   0.0820 
 20 C        2.4550     8.1890    -0.8440 C.3   1 <1>   0.3210 
 21 O       -6.8840     3.9880    -0.5610 O.3   1 <1>  -0.3620 
 22 C        3.2690     6.9140    -0.7170 C.2   1 <1>   0.1080 
 23 C       -7.2330     2.9280    -1.4240 C.3   1 <1>   0.0400 
 24 N        4.0310     6.4400    -1.6400 N.2   1 <1>  -0.4100 
 25 C        3.2470     6.0660     0.3890 C.2   1 <1>  -0.1500 
 26 O        4.5050     5.3180    -1.1760 O.3   1 <1>  -0.0190 
 27 C        4.0550     5.0610     0.0220 C.2   1 <1>  -0.0100 
 28 H        0.2080     3.9080    -2.2350 H     1 <1>   0.0800 
 29 H        1.3060     5.1360    -1.6870 H     1 <1>   0.0800 
 30 H       -1.6250     6.3250     1.3130 H     1 <1>   0.0800 
 31 H       -0.1100     4.7470     2.8410 H     1 <1>   0.1000 
 32 H       -1.7980     7.1720    -1.0820 H     1 <1>   0.0800 
 33 H       -0.7180     1.9420     1.6970 H     1 <1>   0.1000 
 34 H       -0.1650     2.2890     3.3630 H     1 <1>   0.1000 
 35 H       -2.2180     3.6860     3.7660 H     1 <1>   0.1000 
 36 H       -2.7860     3.3070     2.1120 H     1 <1>   0.1000 
 37 H       -2.4030     3.6670    -1.2400 H     1 <1>   0.1500 
 38 H       -3.9070     6.6140     1.4660 H     1 <1>   0.1500 
 39 H       -4.6590     2.9200    -1.6910 H     1 <1>   0.1500 
 40 H       -6.1870     5.8530     1.0010 H     1 <1>   0.1500 
 41 H        0.9770     7.4290    -2.1550 H     1 <1>   0.3700 
 42 H        2.8730     8.8200    -1.6090 H     1 <1>   0.0800 
 43 H        2.4620     8.7250     0.0900 H     1 <1>   0.0800 
 44 H       -8.3030     2.8260    -1.4120 H     1 <1>   0.0800 
 45 H       -6.7750     2.0220    -1.0680 H     1 <1>   0.0800 
 46 H       -6.8990     3.1640    -2.4190 H     1 <1>   0.0800 
 47 H        2.6890     6.2070     1.2980 H     1 <1>   0.1500 
 48 H        4.3520     4.1580     0.5240 H     1 <1>   0.1500 
@<TRIPOS>BOND
  1   1   2  2   
  2   2   3  am  
  3   2   4  1   
  4   3   5  1   
  5   3   6  1   
  6   4   7  1   
  7   4  28  1   
  8   4  29  1   
  9   5   8  1   
 10   5   9  1   
 11   5  30  1   
 12   6  10  1   
 13   6  11  1   
 14   6  31  1   
 15   7   9  1   
 16   8  12  ar  
 17   8  13  ar  
 18   9  14  1   
 19   9  32  1   
 20  10  11  1   
 21  10  33  1   
 22  10  34  1   
 23  11  35  1   
 24  11  36  1   
 25  12  15  ar  
 26  12  37  1   
 27  13  16  ar  
 28  13  38  1   
 29  14  17  2   
 30  14  18  am  
 31  15  19  ar  
 32  15  39  1   
 33  16  19  ar  
 34  16  40  1   
 35  18  20  1   
 36  18  41  1   
 37  19  21  1   
 38  20  22  1   
 39  20  42  1   
 40  20  43  1   
 41  21  23  1   
 42  22  24  2   
 43  22  25  1   
 44  23  44  1   
 45  23  45  1   
 46  23  46  1   
 47  24  26  1   
 48  25  27  2   
 49  25  47  1   
 50  26  27  1   
 51  27  48  1   
@<TRIPOS>SUBSTRUCTURE
  1 ****   5 GROUP 4 **** **** 0

# MOE 2024.06 (io_trps.svl 2023.06)
