@<TRIPOS>MOLECULE
NONAME
57 60 1 0 0 
SMALL
USER_CHARGES


@<TRIPOS>ATOM
  1 F        0.3980     0.6090     0.3530 F     1 <1>  -0.1900 
  2 C        0.1010     1.8740     0.2130 C.ar  1 <1>   0.1900 
  3 C       -1.0390     2.3600     0.8120 C.ar  1 <1>  -0.1500 
  4 C        0.9410     2.6750    -0.5330 C.ar  1 <1>  -0.1500 
  5 C       -1.3870     3.7050     0.6760 C.ar  1 <1>   0.0860 
  6 C        0.6120     4.0090    -0.6720 C.ar  1 <1>  -0.1500 
  7 C       -2.6020     4.1330     1.3270 C.2   1 <1>   0.5440 
  8 C       -0.5310     4.5380    -0.0830 C.ar  1 <1>   0.0830 
  9 O       -2.5830     4.5280     2.4740 O.2   1 <1>  -0.5700 
 10 N       -3.7860     4.1320     0.6460 N.am  1 <1>  -0.7300 
 11 O       -0.6970     5.8690    -0.3240 O.3   1 <1>  -0.3630 
 12 C       -4.9940     4.8650     1.0800 C.3   1 <1>   0.1400 
 13 C       -1.7820     6.6400     0.1430 C.3   1 <1>   0.1200 
 14 C       -6.2180     4.2550     0.3980 C.3   1 <1>  -0.1600 
 15 C       -1.6370     8.0830    -0.3290 C.3   1 <1>   0.0960 
 16 C       -7.4880     5.0820     0.6300 C.3   1 <1>   0.2000 
 17 N       -2.9200     8.7780    -0.1170 N.pl3 1 <1>   0.3140 
 18 O       -8.5530     4.2880     0.1970 O.3   1 <1>  -0.5600 
 19 C       -7.4770     6.4250    -0.1390 C.3   1 <1>   0.1400 
 20 N       -3.5860     8.7320     1.0420 N.2   1 <1>  -0.4180 
 21 C       -3.6410     9.4570    -1.0110 C.2   1 <1>  -0.3020 
 22 C       -9.8120     4.8610     0.3990 C.3   1 <1>   0.1200 
 23 N       -8.8210     7.0900    -0.1250 N.am  1 <1>  -0.6600 
 24 N       -4.6920     9.3700     0.9030 N.2   1 <1>  -0.2270 
 25 C       -4.7520     9.8220    -0.3530 C.2   1 <1>   0.0460 
 26 C       -9.9480     6.1540    -0.4160 C.3   1 <1>   0.1400 
 27 C       -9.0520     8.4330     0.0440 C.2   1 <1>   0.5690 
 28 C       -5.9360    10.6200    -0.8750 C.3   1 <1>   0.0210 
 29 O      -10.1690     8.8940     0.0160 O.2   1 <1>  -0.5700 
 30 C       -7.9100     9.4130     0.2550 C.3   1 <1>  -0.0990 
 31 C       -7.1890     9.7500    -1.0670 C.3   1 <1>  -0.1600 
 32 H       -1.6600     1.6990     1.3900 H     1 <1>   0.1500 
 33 H        1.8250     2.2610    -0.9860 H     1 <1>   0.1500 
 34 H        1.2530     4.6580    -1.2440 H     1 <1>   0.1500 
 35 H       -3.8150     3.7430    -0.2990 H     1 <1>   0.3700 
 36 H       -4.8810     5.9020     0.8130 H     1 <1>   0.0800 
 37 H       -5.0940     4.8020     2.1520 H     1 <1>   0.0800 
 38 H       -1.7940     6.6060     1.2200 H     1 <1>   0.0800 
 39 H       -2.6810     6.2260    -0.2700 H     1 <1>   0.0800 
 40 H       -6.3710     3.2700     0.8030 H     1 <1>   0.0800 
 41 H       -6.0470     4.1740    -0.6600 H     1 <1>   0.0800 
 42 H       -1.4010     8.1080    -1.3760 H     1 <1>   0.0800 
 43 H       -0.8730     8.5850     0.2340 H     1 <1>   0.0800 
 44 H       -7.6160     5.2630     1.6840 H     1 <1>   0.0800 
 45 H       -7.2010     6.2390    -1.1620 H     1 <1>   0.0800 
 46 H       -6.7290     7.0650     0.2900 H     1 <1>   0.0800 
 47 H       -3.3350     9.6330    -2.0240 H     1 <1>   0.1500 
 48 H       -9.9420     5.0590     1.4490 H     1 <1>   0.0800 
 49 H      -10.5520     4.1470     0.0860 H     1 <1>   0.0800 
 50 H      -10.8930     6.6150    -0.1860 H     1 <1>   0.0800 
 51 H       -9.9440     5.9140    -1.4650 H     1 <1>   0.0800 
 52 H       -5.6620    11.0430    -1.8250 H     1 <1>   0.0800 
 53 H       -6.1440    11.4350    -0.2040 H     1 <1>   0.0800 
 54 H       -7.2410     9.0110     0.9880 H     1 <1>   0.0800 
 55 H       -8.3140    10.3180     0.6720 H     1 <1>   0.0800 
 56 H       -6.9100     8.8460    -1.5780 H     1 <1>   0.0800 
 57 H       -7.8840    10.2760    -1.7000 H     1 <1>   0.0800 
@<TRIPOS>BOND
  1   1   2  1   
  2   2   3  ar  
  3   2   4  ar  
  4   3   5  ar  
  5   3  32  1   
  6   4   6  ar  
  7   4  33  1   
  8   5   7  1   
  9   5   8  ar  
 10   6   8  ar  
 11   6  34  1   
 12   7   9  2   
 13   7  10  am  
 14   8  11  1   
 15  10  12  1   
 16  10  35  1   
 17  11  13  1   
 18  12  14  1   
 19  12  36  1   
 20  12  37  1   
 21  13  15  1   
 22  13  38  1   
 23  13  39  1   
 24  14  16  1   
 25  14  40  1   
 26  14  41  1   
 27  15  17  1   
 28  15  42  1   
 29  15  43  1   
 30  16  18  1   
 31  16  19  1   
 32  16  44  1   
 33  17  20  1   
 34  17  21  1   
 35  18  22  1   
 36  19  23  1   
 37  19  45  1   
 38  19  46  1   
 39  20  24  2   
 40  21  25  2   
 41  21  47  1   
 42  22  26  1   
 43  22  48  1   
 44  22  49  1   
 45  23  26  1   
 46  23  27  am  
 47  24  25  1   
 48  25  28  1   
 49  26  50  1   
 50  26  51  1   
 51  27  29  2   
 52  27  30  1   
 53  28  31  1   
 54  28  52  1   
 55  28  53  1   
 56  30  31  1   
 57  30  54  1   
 58  30  55  1   
 59  31  56  1   
 60  31  57  1   
@<TRIPOS>SUBSTRUCTURE
  1 ****  12 GROUP 4 **** **** 0

# MOE 2024.06 (io_trps.svl 2023.06)
