@<TRIPOS>MOLECULE
NONAME
39 39 1 0 0 
SMALL
USER_CHARGES


@<TRIPOS>ATOM
  1 O       -0.2270     0.8240    -0.2950 O.2   1 <1>  -0.5700 
  2 C       -1.1980     1.0730     0.3940 C.2   1 <1>   0.7800 
  3 O       -2.2880     0.3060     0.3750 O.3   1 <1>  -0.4300 
  4 N       -1.2300     2.1950     1.1770 N.am  1 <1>  -0.6600 
  5 C       -2.4850    -0.8790    -0.3670 C.3   1 <1>   0.2800 
  6 C       -0.0140     3.0310     1.3520 C.3   1 <1>   0.1400 
  7 C       -2.4900     2.9160     1.4580 C.3   1 <1>   0.1400 
  8 C       -2.4320    -0.5780    -1.8690 C.3   1 <1>  -0.2400 
  9 C       -3.8910    -1.3530     0.0040 C.3   1 <1>  -0.2400 
 10 C       -1.4650    -1.9440     0.0530 C.3   1 <1>  -0.2400 
 11 C       -0.0480     4.1850     0.3370 C.3   1 <1>   0.2000 
 12 C       -2.6110     4.0780     0.4580 C.3   1 <1>  -0.1600 
 13 O        0.0340     3.6650    -0.9460 O.3   1 <1>  -0.6800 
 14 C       -1.3570     4.9990     0.4340 C.3   1 <1>  -0.0800 
 15 C       -1.3800     5.9980    -0.7360 C.3   1 <1>   0.3430 
 16 N       -2.6070     6.8360    -0.7230 N.4   1 <1>  -0.8530 
 17 H        0.0020     3.4230     2.3540 H     1 <1>   0.0800 
 18 H        0.8790     2.4440     1.2180 H     1 <1>   0.0800 
 19 H       -3.3360     2.2550     1.3640 H     1 <1>   0.0800 
 20 H       -2.4690     3.2850     2.4700 H     1 <1>   0.0800 
 21 H       -2.7200    -1.4500    -2.4270 H     1 <1>   0.0800 
 22 H       -1.4390    -0.3110    -2.1780 H     1 <1>   0.0800 
 23 H       -3.1080     0.2210    -2.1160 H     1 <1>   0.0800 
 24 H       -4.1270    -2.2640    -0.5160 H     1 <1>   0.0800 
 25 H       -4.6200    -0.6110    -0.2660 H     1 <1>   0.0800 
 26 H       -3.9540    -1.5410     1.0610 H     1 <1>   0.0800 
 27 H       -1.7050    -2.8840    -0.4110 H     1 <1>   0.0800 
 28 H       -1.4810    -2.0780     1.1190 H     1 <1>   0.0800 
 29 H       -0.4720    -1.6760    -0.2560 H     1 <1>   0.0800 
 30 H        0.8110     4.8190     0.4820 H     1 <1>   0.0800 
 31 H       -2.7640     3.6490    -0.5190 H     1 <1>   0.0800 
 32 H       -3.4910     4.6410     0.7110 H     1 <1>   0.0800 
 33 H        0.0540     2.6740    -0.8950 H     1 <1>   0.4000 
 34 H       -1.3180     5.5450     1.3610 H     1 <1>   0.0800 
 35 H       -1.3300     5.4480    -1.6640 H     1 <1>   0.0800 
 36 H       -0.5040     6.6260    -0.6830 H     1 <1>   0.0800 
 37 H       -3.4380     6.2420    -0.8200 H     1 <1>   0.4500 
 38 H       -2.6000     7.4960    -1.5090 H     1 <1>   0.4500 
 39 H       -2.6850     7.3710     0.1480 H     1 <1>   0.4500 
@<TRIPOS>BOND
  1   1   2  2   
  2   2   3  1   
  3   2   4  am  
  4   3   5  1   
  5   4   6  1   
  6   4   7  1   
  7   5   8  1   
  8   5   9  1   
  9   5  10  1   
 10   6  11  1   
 11   6  17  1   
 12   6  18  1   
 13   7  12  1   
 14   7  19  1   
 15   7  20  1   
 16   8  21  1   
 17   8  22  1   
 18   8  23  1   
 19   9  24  1   
 20   9  25  1   
 21   9  26  1   
 22  10  27  1   
 23  10  28  1   
 24  10  29  1   
 25  11  13  1   
 26  11  14  1   
 27  11  30  1   
 28  12  14  1   
 29  12  31  1   
 30  12  32  1   
 31  13  33  1   
 32  14  15  1   
 33  14  34  1   
 34  15  16  1   
 35  15  35  1   
 36  15  36  1   
 37  16  37  1   
 38  16  38  1   
 39  16  39  1   
@<TRIPOS>SUBSTRUCTURE
  1 ****   4 GROUP 4 **** **** 0

# MOE 2024.06 (io_trps.svl 2023.06)
