@<TRIPOS>MOLECULE
NONAME
38 39 1 0 0 
SMALL
USER_CHARGES


@<TRIPOS>ATOM
  1 CL       0.1570    -0.3240    -0.9660 Cl    1 <1>  -0.1230 
  2 C        1.8730    -0.4640    -0.6190 C.2   1 <1>   0.1230 
  3 C        2.7690     0.5700    -0.3300 C.2   1 <1>   0.2030 
  4 C        2.5640    -1.6150    -0.5800 C.2   1 <1>  -0.3020 
  5 N        3.9740     0.0520    -0.1220 N.2   1 <1>  -0.7070 
  6 C        2.4660     1.9860    -0.2610 C.2   1 <1>   0.7160 
  7 N        3.8310    -1.2760    -0.2780 N.pl3 1 <1>   0.3140 
  8 O        1.3610     2.4380    -0.5080 O.2   1 <1>  -0.5700 
  9 N        3.4940     2.8260     0.0910 N.am  1 <1>  -0.4940 
 10 C        4.9570    -2.2060    -0.1260 C.3   1 <1>   0.0160 
 11 C        3.6240     4.2330     0.1830 C.2   1 <1>  -0.0880 
 12 N        2.6780     5.1490     0.5360 N.pl3 1 <1>   0.3140 
 13 C        4.7620     4.9330    -0.0420 C.2   1 <1>  -0.1810 
 14 N        3.1850     6.4020     0.5430 N.2   1 <1>  -0.7070 
 15 C        1.2930     4.9290     0.9730 C.3   1 <1>   0.0160 
 16 C        4.4250     6.2640     0.1950 C.2   1 <1>   0.1080 
 17 C        6.1160     4.3880    -0.4680 C.3   1 <1>   0.0210 
 18 C        5.3560     7.4570     0.0770 C.3   1 <1>   0.0210 
 19 C        6.9660     4.0500     0.7570 C.3   1 <1>  -0.2400 
 20 C        5.3350     8.0370    -1.3410 C.3   1 <1>  -0.2400 
 21 H        2.2330    -2.6220    -0.7460 H     1 <1>   0.1500 
 22 H        4.3660     2.2990     0.1900 H     1 <1>   0.3700 
 23 H        4.7340    -2.9070     0.6560 H     1 <1>   0.0800 
 24 H        5.8420    -1.6520     0.1300 H     1 <1>   0.0800 
 25 H        5.1140    -2.7270    -1.0510 H     1 <1>   0.0800 
 26 H        1.2440     4.0370     1.5670 H     1 <1>   0.0800 
 27 H        0.6660     4.8300     0.1070 H     1 <1>   0.0800 
 28 H        0.9700     5.7700     1.5570 H     1 <1>   0.0800 
 29 H        6.6240     5.1130    -1.0790 H     1 <1>   0.0800 
 30 H        5.9740     3.5040    -1.0640 H     1 <1>   0.0800 
 31 H        6.3560     7.1650     0.3400 H     1 <1>   0.0800 
 32 H        5.0380     8.2100     0.7760 H     1 <1>   0.0800 
 33 H        7.1230     4.9300     1.3550 H     1 <1>   0.0800 
 34 H        7.9220     3.6640     0.4510 H     1 <1>   0.0800 
 35 H        6.4690     3.3110     1.3610 H     1 <1>   0.0800 
 36 H        5.6550     7.2970    -2.0520 H     1 <1>   0.0800 
 37 H        5.9840     8.8910    -1.4040 H     1 <1>   0.0800 
 38 H        4.3330     8.3410    -1.5910 H     1 <1>   0.0800 
@<TRIPOS>BOND
  1   1   2  1   
  2   2   3  1   
  3   2   4  2   
  4   3   5  2   
  5   3   6  1   
  6   4   7  1   
  7   4  21  1   
  8   5   7  1   
  9   6   8  2   
 10   6   9  am  
 11   7  10  1   
 12   9  11  1   
 13   9  22  1   
 14  10  23  1   
 15  10  24  1   
 16  10  25  1   
 17  11  12  1   
 18  11  13  2   
 19  12  14  1   
 20  12  15  1   
 21  13  16  1   
 22  13  17  1   
 23  14  16  2   
 24  15  26  1   
 25  15  27  1   
 26  15  28  1   
 27  16  18  1   
 28  17  19  1   
 29  17  29  1   
 30  17  30  1   
 31  18  20  1   
 32  18  31  1   
 33  18  32  1   
 34  19  33  1   
 35  19  34  1   
 36  19  35  1   
 37  20  36  1   
 38  20  37  1   
 39  20  38  1   
@<TRIPOS>SUBSTRUCTURE
  1 ****   9 GROUP 4 **** **** 0

# MOE 2024.06 (io_trps.svl 2023.06)
