@<TRIPOS>MOLECULE
NONAME
46 48 1 0 0 
SMALL
USER_CHARGES


@<TRIPOS>ATOM
  1 S        0.7000    -0.7670    -0.9290 S.3   1 <1>  -0.0800 
  2 C        0.2380    -1.7200     0.4390 C.2   1 <1>   0.1980 
  3 C        1.6710     0.1620     0.1570 C.2   1 <1>   0.1980 
  4 N        0.7860    -1.3320     1.5210 N.2   1 <1>  -0.3380 
  5 C       -0.7280    -2.8770     0.2240 C.3   1 <1>   0.2900 
  6 N        1.6080    -0.2500     1.3580 N.2   1 <1>  -0.3380 
  7 C        2.4610     1.3190    -0.4090 C.3   1 <1>  -0.0600 
  8 N       -2.0430    -2.4460    -0.3080 N.3   1 <1>  -0.8100 
  9 C       -2.8160    -3.6290    -0.7430 C.3   1 <1>   0.1100 
 10 C       -2.7660    -1.6230     0.6800 C.3   1 <1>   0.1100 
 11 C       -4.1470    -3.2880    -1.4320 C.3   1 <1>   0.1400 
 12 C       -3.8310    -0.7730    -0.0170 C.3   1 <1>  -0.1600 
 13 N       -5.1870    -2.8840    -0.4370 N.am  1 <1>  -0.6600 
 14 C       -5.2150    -1.4320    -0.0880 C.3   1 <1>   0.1400 
 15 C       -6.1320    -3.7410     0.1030 C.2   1 <1>   0.5690 
 16 O       -7.0130    -3.2870     0.8060 O.2   1 <1>  -0.5700 
 17 C       -6.1840    -5.2850    -0.1650 C.3   1 <1>   0.3410 
 18 O       -4.9150    -5.8770    -0.3580 O.3   1 <1>  -0.5600 
 19 C       -6.7890    -6.0650     1.0170 C.3   1 <1>  -0.1600 
 20 C       -6.9780    -5.5780    -1.4480 C.3   1 <1>  -0.2400 
 21 C       -4.6940    -6.9770     0.4700 C.3   1 <1>   0.1200 
 22 C       -6.0540    -7.3880     1.0020 C.3   1 <1>  -0.1600 
 23 H       -0.8680    -3.3960     1.1560 H     1 <1>   0.0800 
 24 H       -0.2690    -3.5580    -0.4710 H     1 <1>   0.0800 
 25 H        3.1520     0.9610    -1.1500 H     1 <1>   0.0800 
 26 H        3.0110     1.8030     0.3780 H     1 <1>   0.0800 
 27 H        1.7930     2.0300    -0.8580 H     1 <1>   0.0800 
 28 H       -3.0050    -4.2760     0.0960 H     1 <1>   0.0800 
 29 H       -2.2240    -4.1790    -1.4530 H     1 <1>   0.0800 
 30 H       -2.0790    -0.9450     1.1570 H     1 <1>   0.0800 
 31 H       -3.2050    -2.2400     1.4470 H     1 <1>   0.0800 
 32 H       -4.4840    -4.1470    -1.9790 H     1 <1>   0.0800 
 33 H       -3.9920    -2.5030    -2.1510 H     1 <1>   0.0800 
 34 H       -3.4930    -0.4970    -0.9990 H     1 <1>   0.0800 
 35 H       -3.9460     0.1400     0.5360 H     1 <1>   0.0800 
 36 H       -5.8230    -0.9130    -0.8090 H     1 <1>   0.0800 
 37 H       -5.6840    -1.3120     0.8730 H     1 <1>   0.0800 
 38 H       -7.8560    -6.1740     0.9370 H     1 <1>   0.0800 
 39 H       -6.5700    -5.5480     1.9360 H     1 <1>   0.0800 
 40 H       -6.5300    -5.0780    -2.2860 H     1 <1>   0.0800 
 41 H       -7.9830    -5.2120    -1.3410 H     1 <1>   0.0800 
 42 H       -7.0150    -6.6330    -1.6450 H     1 <1>   0.0800 
 43 H       -4.0500    -6.6580     1.2710 H     1 <1>   0.0800 
 44 H       -4.2200    -7.7590    -0.0980 H     1 <1>   0.0800 
 45 H       -6.5180    -8.0760     0.3170 H     1 <1>   0.0800 
 46 H       -5.9900    -7.8400     1.9760 H     1 <1>   0.0800 
@<TRIPOS>BOND
  1   1   2  1   
  2   1   3  1   
  3   2   4  2   
  4   2   5  1   
  5   3   6  2   
  6   3   7  1   
  7   4   6  1   
  8   5   8  1   
  9   5  23  1   
 10   5  24  1   
 11   7  25  1   
 12   7  26  1   
 13   7  27  1   
 14   8   9  1   
 15   8  10  1   
 16   9  11  1   
 17   9  28  1   
 18   9  29  1   
 19  10  12  1   
 20  10  30  1   
 21  10  31  1   
 22  11  13  1   
 23  11  32  1   
 24  11  33  1   
 25  12  14  1   
 26  12  34  1   
 27  12  35  1   
 28  13  14  1   
 29  13  15  am  
 30  14  36  1   
 31  14  37  1   
 32  15  16  2   
 33  15  17  1   
 34  17  18  1   
 35  17  19  1   
 36  17  20  1   
 37  18  21  1   
 38  19  22  1   
 39  19  38  1   
 40  19  39  1   
 41  20  40  1   
 42  20  41  1   
 43  20  42  1   
 44  21  22  1   
 45  21  43  1   
 46  21  44  1   
 47  22  45  1   
 48  22  46  1   
@<TRIPOS>SUBSTRUCTURE
  1 ****   9 GROUP 4 **** **** 0

# MOE 2024.06 (io_trps.svl 2023.06)
