@<TRIPOS>MOLECULE
NONAME
52 55 1 0 0 
SMALL
USER_CHARGES


@<TRIPOS>ATOM
  1 F       -0.3240     4.0460    -4.0080 F     1 <1>  -0.1900 
  2 C       -0.0060     4.2660    -2.7610 C.ar  1 <1>   0.1900 
  3 C       -0.9220     4.8960    -1.9410 C.ar  1 <1>  -0.1500 
  4 C        1.2340     3.8620    -2.3080 C.ar  1 <1>  -0.1500 
  5 C       -0.5800     5.1300    -0.6190 C.ar  1 <1>  -0.1500 
  6 C        1.5650     4.1000    -0.9840 C.ar  1 <1>  -0.1500 
  7 C        0.6630     4.7340    -0.1370 C.ar  1 <1>  -0.1430 
  8 C        1.0490     4.9920     1.3130 C.3   1 <1>   0.2840 
  9 N        2.1940     5.9390     1.3780 N.am  1 <1>  -0.6600 
 10 C        3.3780     5.6080     1.9840 C.2   1 <1>   0.5690 
 11 C        2.0450     7.2360     0.6580 C.3   1 <1>   0.1400 
 12 O        3.5130     4.5650     2.5830 O.2   1 <1>  -0.5700 
 13 C        4.5830     6.5590     1.8990 C.3   1 <1>   0.2700 
 14 C        2.8480     8.3610     1.3340 C.3   1 <1>   0.2090 
 15 N        4.2850     7.9970     1.5120 N.pl3 1 <1>  -0.8380 
 16 C        5.3250     8.8660     1.2500 C.ar  1 <1>   0.4100 
 17 N        6.4700     8.3200     0.8580 N.ar  1 <1>  -0.6200 
 18 C        5.1780    10.2450     1.4060 C.ar  1 <1>  -0.1500 
 19 C        7.4690     9.1480     0.6080 C.ar  1 <1>   0.1600 
 20 C        6.2250    11.0930     1.1330 C.ar  1 <1>  -0.1500 
 21 C        7.4230    10.5340     0.7030 C.ar  1 <1>   0.0860 
 22 C        8.5880    11.3220     0.3840 C.2   1 <1>   0.5440 
 23 O        9.6590    11.0120     0.8720 O.2   1 <1>  -0.5700 
 24 N        8.5380    12.4100    -0.4620 N.am  1 <1>  -0.6600 
 25 C        7.4740    12.6530    -1.4810 C.3   1 <1>   0.1400 
 26 C        9.6930    13.3470    -0.5980 C.3   1 <1>   0.1400 
 27 C        7.1020    14.1450    -1.5270 C.3   1 <1>   0.1200 
 28 C        9.2020    14.8010    -0.7050 C.3   1 <1>   0.1200 
 29 O        8.2430    14.9320    -1.7170 O.3   1 <1>  -0.5600 
 30 H       -1.8790     5.1930    -2.3320 H     1 <1>   0.1500 
 31 H        1.9220     3.3740    -2.9750 H     1 <1>   0.1500 
 32 H       -1.2850     5.6190     0.0300 H     1 <1>   0.1500 
 33 H        2.5280     3.7950    -0.6090 H     1 <1>   0.1500 
 34 H        1.3080     4.0550     1.7790 H     1 <1>   0.0800 
 35 H        0.2190     5.4080     1.8550 H     1 <1>   0.0800 
 36 H        1.0070     7.5170     0.6320 H     1 <1>   0.0800 
 37 H        2.3850     7.1160    -0.3560 H     1 <1>   0.0800 
 38 H        5.2640     6.1360     1.1840 H     1 <1>   0.0800 
 39 H        5.0760     6.5590     2.8540 H     1 <1>   0.0800 
 40 H        2.4180     8.5710     2.2980 H     1 <1>   0.0800 
 41 H        2.7660     9.2460     0.7290 H     1 <1>   0.0800 
 42 H        4.2460    10.6410     1.7560 H     1 <1>   0.1500 
 43 H        8.4010     8.7040     0.3020 H     1 <1>   0.1500 
 44 H        6.1350    12.1580     1.2560 H     1 <1>   0.1500 
 45 H        6.5960    12.0680    -1.2760 H     1 <1>   0.0800 
 46 H        7.8430    12.3590    -2.4490 H     1 <1>   0.0800 
 47 H       10.2540    13.0930    -1.4800 H     1 <1>   0.0800 
 48 H       10.3500    13.2580     0.2500 H     1 <1>   0.0800 
 49 H        6.6240    14.4460    -0.6120 H     1 <1>   0.0800 
 50 H        6.4330    14.3360    -2.3470 H     1 <1>   0.0800 
 51 H       10.0240    15.4520    -0.9440 H     1 <1>   0.0800 
 52 H        8.7670    15.1200     0.2260 H     1 <1>   0.0800 
@<TRIPOS>BOND
  1   1   2  1   
  2   2   3  ar  
  3   2   4  ar  
  4   3   5  ar  
  5   3  30  1   
  6   4   6  ar  
  7   4  31  1   
  8   5   7  ar  
  9   5  32  1   
 10   6   7  ar  
 11   6  33  1   
 12   7   8  1   
 13   8   9  1   
 14   8  34  1   
 15   8  35  1   
 16   9  10  am  
 17   9  11  1   
 18  10  12  2   
 19  10  13  1   
 20  11  14  1   
 21  11  36  1   
 22  11  37  1   
 23  13  15  1   
 24  13  38  1   
 25  13  39  1   
 26  14  15  1   
 27  14  40  1   
 28  14  41  1   
 29  15  16  1   
 30  16  17  ar  
 31  16  18  ar  
 32  17  19  ar  
 33  18  20  ar  
 34  18  42  1   
 35  19  21  ar  
 36  19  43  1   
 37  20  21  ar  
 38  20  44  1   
 39  21  22  1   
 40  22  23  2   
 41  22  24  am  
 42  24  25  1   
 43  24  26  1   
 44  25  27  1   
 45  25  45  1   
 46  25  46  1   
 47  26  28  1   
 48  26  47  1   
 49  26  48  1   
 50  27  29  1   
 51  27  49  1   
 52  27  50  1   
 53  28  29  1   
 54  28  51  1   
 55  28  52  1   
@<TRIPOS>SUBSTRUCTURE
  1 ****  16 GROUP 4 **** **** 0

# MOE 2024.06 (io_trps.svl 2023.06)
