@<TRIPOS>MOLECULE
NONAME
52 56 1 0 0 
SMALL
USER_CHARGES


@<TRIPOS>ATOM
  1 S        1.7220     0.2750    -1.5030 S.3   1 <1>  -0.0800 
  2 C        1.0310    -0.7630    -0.2580 C.2   1 <1>   0.3250 
  3 C        0.9930    -0.6940    -2.7330 C.2   1 <1>  -0.1100 
  4 N        0.3340    -1.7210    -0.7780 N.2   1 <1>  -0.5650 
  5 C        1.2980    -0.4450     1.1420 C.ar  1 <1>   0.6730 
  6 C        0.2890    -1.7020    -2.1780 C.2   1 <1>   0.1410 
  7 N        0.6700    -1.1740     2.0790 N.ar  1 <1>  -0.6200 
  8 N        2.1520     0.5540     1.4190 N.ar  1 <1>  -0.6200 
  9 C       -0.4340    -2.7120    -2.9540 C.2   1 <1>   0.7160 
 10 C        0.9160    -0.8870     3.3340 C.ar  1 <1>   0.1600 
 11 C        2.3790     0.8210     2.6830 C.ar  1 <1>   0.1600 
 12 O       -0.0440    -2.9610    -4.0820 O.2   1 <1>  -0.5700 
 13 N       -1.5420    -3.3990    -2.4870 N.am  1 <1>  -0.6600 
 14 C        1.7770     0.1180     3.6950 C.ar  1 <1>  -0.1500 
 15 C       -2.4090    -2.9510    -1.3630 C.3   1 <1>   0.1400 
 16 C       -1.9620    -4.7040    -3.0630 C.3   1 <1>   0.1400 
 17 C       -2.3290    -3.9840    -0.2380 C.3   1 <1>  -0.1600 
 18 C       -1.8950    -5.7700    -1.9650 C.3   1 <1>  -0.1600 
 19 C       -2.7290    -5.3870    -0.7320 C.3   1 <1>   0.4240 
 20 O       -4.0580    -5.3230    -1.1950 O.3   1 <1>  -0.5600 
 21 C       -2.5610    -6.4460     0.3800 C.ar  1 <1>  -0.1430 
 22 C       -5.0750    -5.4510    -0.2510 C.3   1 <1>   0.1200 
 23 C       -3.6530    -7.1520     0.8750 C.ar  1 <1>  -0.1430 
 24 C       -1.3040    -6.7120     0.9150 C.ar  1 <1>  -0.1500 
 25 C       -5.0350    -6.8630     0.3240 C.3   1 <1>  -0.0170 
 26 C       -3.4900    -8.1090     1.8640 C.ar  1 <1>  -0.1500 
 27 C       -1.1410    -7.6650     1.9040 C.ar  1 <1>  -0.1500 
 28 C       -2.2280    -8.3740     2.3840 C.ar  1 <1>   0.0830 
 29 O       -1.9830    -9.2960     3.3480 O.3   1 <1>  -0.3620 
 30 C       -3.0170   -10.0910     3.8830 C.3   1 <1>   0.0400 
 31 H        1.1570    -0.4300    -3.7620 H     1 <1>   0.1500 
 32 H        0.4180    -1.4690     4.0920 H     1 <1>   0.1500 
 33 H        3.0630     1.6210     2.9160 H     1 <1>   0.1500 
 34 H        1.9710     0.3450     4.7260 H     1 <1>   0.1500 
 35 H       -3.4240    -2.8750    -1.7150 H     1 <1>   0.0800 
 36 H       -2.1190    -1.9800    -1.0050 H     1 <1>   0.0800 
 37 H       -1.3200    -4.9880    -3.8800 H     1 <1>   0.0800 
 38 H       -2.9670    -4.6200    -3.4400 H     1 <1>   0.0800 
 39 H       -2.9530    -3.6860     0.5820 H     1 <1>   0.0800 
 40 H       -1.3190    -4.0000     0.1290 H     1 <1>   0.0800 
 41 H       -0.8660    -5.8990    -1.6900 H     1 <1>   0.0800 
 42 H       -2.2470    -6.7110    -2.3480 H     1 <1>   0.0800 
 43 H       -6.0120    -5.2730    -0.7500 H     1 <1>   0.0800 
 44 H       -4.9400    -4.7130     0.5200 H     1 <1>   0.0800 
 45 H       -0.4380    -6.1780     0.5660 H     1 <1>   0.1500 
 46 H       -5.2730    -7.5710    -0.4490 H     1 <1>   0.0800 
 47 H       -5.7720    -6.9480     1.1020 H     1 <1>   0.0800 
 48 H       -4.3520    -8.6390     2.2190 H     1 <1>   0.1500 
 49 H       -0.1660    -7.8660     2.3100 H     1 <1>   0.1500 
 50 H       -2.5870   -10.7500     4.6140 H     1 <1>   0.0800 
 51 H       -3.4620   -10.6650     3.0890 H     1 <1>   0.0800 
 52 H       -3.7440    -9.4500     4.3500 H     1 <1>   0.0800 
@<TRIPOS>BOND
  1   1   2  1   
  2   1   3  1   
  3   2   4  2   
  4   2   5  1   
  5   3   6  2   
  6   3  31  1   
  7   4   6  1   
  8   5   7  ar  
  9   5   8  ar  
 10   6   9  1   
 11   7  10  ar  
 12   8  11  ar  
 13   9  12  2   
 14   9  13  am  
 15  10  14  ar  
 16  10  32  1   
 17  11  14  ar  
 18  11  33  1   
 19  13  15  1   
 20  13  16  1   
 21  14  34  1   
 22  15  17  1   
 23  15  35  1   
 24  15  36  1   
 25  16  18  1   
 26  16  37  1   
 27  16  38  1   
 28  17  19  1   
 29  17  39  1   
 30  17  40  1   
 31  18  19  1   
 32  18  41  1   
 33  18  42  1   
 34  19  20  1   
 35  19  21  1   
 36  20  22  1   
 37  21  23  ar  
 38  21  24  ar  
 39  22  25  1   
 40  22  43  1   
 41  22  44  1   
 42  23  25  1   
 43  23  26  ar  
 44  24  27  ar  
 45  24  45  1   
 46  25  46  1   
 47  25  47  1   
 48  26  28  ar  
 49  26  48  1   
 50  27  28  ar  
 51  27  49  1   
 52  28  29  1   
 53  29  30  1   
 54  30  50  1   
 55  30  51  1   
 56  30  52  1   
@<TRIPOS>SUBSTRUCTURE
  1 ****  17 GROUP 4 **** **** 0

# MOE 2024.06 (io_trps.svl 2023.06)
