@<TRIPOS>MOLECULE
NONAME
37 39 1 0 0 
SMALL
USER_CHARGES


@<TRIPOS>ATOM
  1 CL      -0.8680    -0.4440    -1.0080 Cl    1 <1>  -0.1230 
  2 C       -2.2060     0.2760    -0.1430 C.2   1 <1>   0.1230 
  3 C       -2.3490     1.7050    -0.0970 C.ar  1 <1>   0.0000 
  4 C       -3.1460    -0.4400     0.4930 C.2   1 <1>  -0.1400 
  5 C       -3.4720     2.0810     0.6270 C.ar  1 <1>   0.0400 
  6 C       -1.5600     2.7110    -0.6500 C.ar  1 <1>  -0.1500 
  7 S       -4.3240     0.6480     1.2360 S.3   1 <1>  -0.0800 
  8 C       -3.3260    -1.9300     0.6670 C.3   1 <1>   0.5230 
  9 C       -3.8410     3.3980     0.8220 C.ar  1 <1>  -0.1500 
 10 C       -1.9120     4.0380    -0.4670 C.ar  1 <1>  -0.1500 
 11 N       -4.1460    -2.4640    -0.4510 N.4   1 <1>  -0.9590 
 12 C       -3.0450     4.3820     0.2640 C.ar  1 <1>  -0.1500 
 13 C       -4.0280    -3.9630    -0.4780 C.3   1 <1>   0.3430 
 14 C       -5.5640    -1.9600    -0.3760 C.3   1 <1>   0.3430 
 15 C       -5.1540    -4.5910     0.3170 C.3   1 <1>  -0.1860 
 16 C       -6.5180    -2.9300    -1.0610 C.3   1 <1>  -0.1600 
 17 C       -4.9570    -6.0720     0.3560 C.2   1 <1>   0.9060 
 18 C       -6.5070    -4.2720    -0.3230 C.3   1 <1>   0.2000 
 19 O       -3.9370    -6.5330    -0.1610 O.co2 1 <1>  -0.9000 
 20 O       -5.8270    -6.7470     0.9030 O.co2 1 <1>  -0.9000 
 21 O       -7.4120    -4.2030     0.7070 O.3   1 <1>  -0.6800 
 22 H       -0.6810     2.4560    -1.2160 H     1 <1>   0.1500 
 23 H       -3.7930    -2.1450     1.6150 H     1 <1>   0.0800 
 24 H       -2.3560    -2.3990     0.6530 H     1 <1>   0.0800 
 25 H       -4.7200     3.6450     1.3920 H     1 <1>   0.1500 
 26 H       -1.3030     4.8160    -0.8950 H     1 <1>   0.1500 
 27 H       -3.7250    -2.1150    -1.3200 H     1 <1>   0.4500 
 28 H       -3.3010     5.4200     0.3950 H     1 <1>   0.1500 
 29 H       -4.0910    -4.3250    -1.4920 H     1 <1>   0.0800 
 30 H       -3.0780    -4.2870    -0.0800 H     1 <1>   0.0800 
 31 H       -5.8660    -1.8750     0.6560 H     1 <1>   0.0800 
 32 H       -5.6350    -0.9840    -0.8290 H     1 <1>   0.0800 
 33 H       -5.1050    -4.2430     1.3300 H     1 <1>   0.0800 
 34 H       -6.2110    -3.0700    -2.0810 H     1 <1>   0.0800 
 35 H       -7.5170    -2.5290    -1.0740 H     1 <1>   0.0800 
 36 H       -6.8260    -5.0620    -0.9860 H     1 <1>   0.0800 
 37 H       -7.4090    -5.0900     1.1460 H     1 <1>   0.4000 
@<TRIPOS>BOND
  1   1   2  1   
  2   2   3  1   
  3   2   4  2   
  4   3   5  ar  
  5   3   6  ar  
  6   4   7  1   
  7   4   8  1   
  8   5   7  1   
  9   5   9  ar  
 10   6  10  ar  
 11   6  22  1   
 12   8  11  1   
 13   8  23  1   
 14   8  24  1   
 15   9  12  ar  
 16   9  25  1   
 17  10  12  ar  
 18  10  26  1   
 19  11  13  1   
 20  11  14  1   
 21  11  27  1   
 22  12  28  1   
 23  13  15  1   
 24  13  29  1   
 25  13  30  1   
 26  14  16  1   
 27  14  31  1   
 28  14  32  1   
 29  15  17  1   
 30  15  18  1   
 31  15  33  1   
 32  16  18  1   
 33  16  34  1   
 34  16  35  1   
 35  17  19  ar  
 36  17  20  ar  
 37  18  21  1   
 38  18  36  1   
 39  21  37  1   
@<TRIPOS>SUBSTRUCTURE
  1 ****   8 GROUP 4 **** **** 0

# MOE 2024.06 (io_trps.svl 2023.06)
