@<TRIPOS>MOLECULE
NONAME
57 60 1 0 0 
SMALL
USER_CHARGES


@<TRIPOS>ATOM
  1 O        2.8980    -0.6650     1.5240 O.co2 1 <1>  -0.9000 
  2 C        3.1440    -0.2230     0.4050 C.2   1 <1>   0.9060 
  3 O        4.1270    -0.6260    -0.2410 O.co2 1 <1>  -0.9000 
  4 C        2.3860     1.0260    -0.0830 C.3   1 <1>  -0.1060 
  5 C        2.8800     1.5140    -1.4800 C.3   1 <1>   0.2000 
  6 C        2.7300     2.1620     0.9180 C.3   1 <1>  -0.1600 
  7 C        0.8720     0.7010    -0.0980 C.3   1 <1>  -0.0170 
  8 O        3.0360     0.4350    -2.3350 O.3   1 <1>  -0.6800 
  9 C        4.2190     2.2910    -1.4070 C.3   1 <1>   0.3430 
 10 C        4.2550     2.3360     1.0730 C.3   1 <1>   0.3430 
 11 C       -0.0230     1.8680    -0.5060 C.ar  1 <1>  -0.1440 
 12 N        4.9840     1.9340    -0.1740 N.4   1 <1>  -0.9590 
 13 C       -0.4760     2.7730     0.4430 C.ar  1 <1>  -0.1500 
 14 C       -0.4050     2.0280    -1.8290 C.ar  1 <1>  -0.1500 
 15 C        6.4160     2.3100    -0.2000 C.3   1 <1>   0.4860 
 16 C       -1.2830     3.8340     0.0710 C.ar  1 <1>  -0.1500 
 17 C       -1.2130     3.0880    -2.2030 C.ar  1 <1>  -0.1500 
 18 C        6.5770     3.8220    -0.2500 C.ar  1 <1>  -0.1440 
 19 C       -1.6500     3.9940    -1.2530 C.ar  1 <1>  -0.1500 
 20 C        6.6210     4.4890    -1.4660 C.ar  1 <1>  -0.1500 
 21 C        6.6960     4.5510     0.9240 C.ar  1 <1>  -0.1500 
 22 C        6.7670     5.8650    -1.5070 C.ar  1 <1>  -0.1500 
 23 C        6.8400     5.9260     0.8820 C.ar  1 <1>  -0.1500 
 24 C        6.8770     6.5930    -0.3320 C.ar  1 <1>  -0.1440 
 25 C        7.0370     8.1110    -0.3650 C.3   1 <1>   0.2390 
 26 N        8.2440     8.5410     0.3740 N.pl3 1 <1>   0.3140 
 27 N        8.1670     9.1410     1.5800 N.2   1 <1>  -0.7070 
 28 C        9.5270     8.4120    -0.0230 C.2   1 <1>  -0.3020 
 29 C        9.3990     9.3760     1.9150 C.2   1 <1>   0.1390 
 30 C       10.2980     8.9420     0.9490 C.2   1 <1>  -0.1500 
 31 H        2.1630     2.1670    -1.9390 H     1 <1>   0.0800 
 32 H        2.3160     1.9380     1.8860 H     1 <1>   0.0800 
 33 H        2.3000     3.0930     0.5930 H     1 <1>   0.0800 
 34 H        0.7020    -0.1240    -0.7700 H     1 <1>   0.0800 
 35 H        0.5720     0.3610     0.8790 H     1 <1>   0.0800 
 36 H        3.5080    -0.2780    -1.8140 H     1 <1>   0.4000 
 37 H        4.0090     3.3470    -1.3880 H     1 <1>   0.0800 
 38 H        4.7940     2.0720    -2.2900 H     1 <1>   0.0800 
 39 H        4.5920     1.7130     1.8860 H     1 <1>   0.0800 
 40 H        4.4690     3.3630     1.3190 H     1 <1>   0.0800 
 41 H        4.9520     0.8790    -0.1700 H     1 <1>   0.4500 
 42 H       -0.2040     2.6500     1.4770 H     1 <1>   0.1500 
 43 H       -0.0730     1.3240    -2.5740 H     1 <1>   0.1500 
 44 H        6.9050     1.9230     0.6790 H     1 <1>   0.0800 
 45 H        6.8890     1.8690    -1.0620 H     1 <1>   0.0800 
 46 H       -1.6290     4.5320     0.8130 H     1 <1>   0.1500 
 47 H       -1.5030     3.2050    -3.2330 H     1 <1>   0.1500 
 48 H       -2.2790     4.8170    -1.5430 H     1 <1>   0.1500 
 49 H        6.5480     3.9460    -2.3930 H     1 <1>   0.1500 
 50 H        6.6830     4.0610     1.8830 H     1 <1>   0.1500 
 51 H        6.7980     6.3640    -2.4610 H     1 <1>   0.1500 
 52 H        6.9320     6.4810     1.8030 H     1 <1>   0.1500 
 53 H        6.1820     8.5750     0.0910 H     1 <1>   0.0800 
 54 H        7.1190     8.4650    -1.3750 H     1 <1>   0.0800 
 55 H        9.8130     7.9580    -0.9540 H     1 <1>   0.1500 
 56 H        9.6810     9.8550     2.8380 H     1 <1>   0.1500 
 57 H       11.3700     9.0240     0.9970 H     1 <1>   0.1500 
@<TRIPOS>BOND
  1   1   2  ar  
  2   2   3  ar  
  3   2   4  1   
  4   4   5  1   
  5   4   6  1   
  6   4   7  1   
  7   5   8  1   
  8   5   9  1   
  9   5  31  1   
 10   6  10  1   
 11   6  32  1   
 12   6  33  1   
 13   7  11  1   
 14   7  34  1   
 15   7  35  1   
 16   8  36  1   
 17   9  12  1   
 18   9  37  1   
 19   9  38  1   
 20  10  12  1   
 21  10  39  1   
 22  10  40  1   
 23  11  13  ar  
 24  11  14  ar  
 25  12  15  1   
 26  12  41  1   
 27  13  16  ar  
 28  13  42  1   
 29  14  17  ar  
 30  14  43  1   
 31  15  18  1   
 32  15  44  1   
 33  15  45  1   
 34  16  19  ar  
 35  16  46  1   
 36  17  19  ar  
 37  17  47  1   
 38  18  20  ar  
 39  18  21  ar  
 40  19  48  1   
 41  20  22  ar  
 42  20  49  1   
 43  21  23  ar  
 44  21  50  1   
 45  22  24  ar  
 46  22  51  1   
 47  23  24  ar  
 48  23  52  1   
 49  24  25  1   
 50  25  26  1   
 51  25  53  1   
 52  25  54  1   
 53  26  27  1   
 54  26  28  1   
 55  27  29  2   
 56  28  30  2   
 57  28  55  1   
 58  29  30  1   
 59  29  56  1   
 60  30  57  1   
@<TRIPOS>SUBSTRUCTURE
  1 ****  10 GROUP 4 **** **** 0

# MOE 2024.06 (io_trps.svl 2023.06)
