@<TRIPOS>MOLECULE
NONAME
47 48 1 0 0 
SMALL
USER_CHARGES


@<TRIPOS>ATOM
  1 O       -0.1410    -0.0880    -0.5790 O.2   1 <1>  -0.5700 
  2 C        0.8810    -0.7140    -0.4480 C.2   1 <1>   0.5690 
  3 N        2.1040    -0.1810    -0.6880 N.am  1 <1>  -0.7300 
  4 C        0.7900    -2.1550    -0.0190 C.3   1 <1>  -0.0990 
  5 C        2.3530     1.2190    -1.0910 C.3   1 <1>   0.1400 
  6 C        0.1960    -2.9880    -1.1560 C.3   1 <1>   0.0960 
  7 C        3.3730     1.8380    -0.1330 C.3   1 <1>  -0.1600 
  8 N        0.1350    -4.4080    -0.7620 N.pl3 1 <1>   0.3140 
  9 C        3.6790     3.3110    -0.4710 C.3   1 <1>  -0.0800 
 10 N        1.2350    -5.1660    -0.8460 N.2   1 <1>  -0.7070 
 11 C       -0.9100    -5.1070    -0.2790 C.2   1 <1>  -0.3320 
 12 C        4.7880     3.8550     0.4230 C.3   1 <1>   0.1200 
 13 C        2.5350     4.2470    -0.1060 C.3   1 <1>  -0.1600 
 14 C        0.8750    -6.3300    -0.4230 C.2   1 <1>   0.1080 
 15 C       -0.4700    -6.3810    -0.0250 C.2   1 <1>  -0.0860 
 16 C       -2.2970    -4.4950    -0.1090 C.3   1 <1>  -0.0600 
 17 O        4.1550     4.2610     1.5900 O.3   1 <1>  -0.5600 
 18 C        2.8490     4.6730     1.3270 C.3   1 <1>   0.1200 
 19 C        1.8580    -7.4820    -0.3750 C.3   1 <1>  -0.0590 
 20 C       -1.1200    -7.5480     0.5190 C.2   1 <1>   0.5950 
 21 O       -0.8060    -8.6800     0.2500 O.2   1 <1>  -0.5700 
 22 C       -2.2450    -7.3880     1.5180 C.3   1 <1>  -0.1790 
 23 H        2.9380    -0.7590    -0.5700 H     1 <1>   0.3700 
 24 H        0.1580    -2.2140     0.8480 H     1 <1>   0.0800 
 25 H        1.7660    -2.5250     0.2350 H     1 <1>   0.0800 
 26 H        1.4290     1.7710    -1.0670 H     1 <1>   0.0800 
 27 H        2.7310     1.2360    -2.0990 H     1 <1>   0.0800 
 28 H        0.8150    -2.9110    -2.0310 H     1 <1>   0.0800 
 29 H       -0.7880    -2.6370    -1.4030 H     1 <1>   0.0800 
 30 H        4.2860     1.2720    -0.1940 H     1 <1>   0.0800 
 31 H        3.0030     1.7700     0.8760 H     1 <1>   0.0800 
 32 H        3.9560     3.4020    -1.5070 H     1 <1>   0.0800 
 33 H        5.2480     4.7230    -0.0190 H     1 <1>   0.0800 
 34 H        5.5400     3.1240     0.6630 H     1 <1>   0.0800 
 35 H        1.5600     3.8000    -0.1750 H     1 <1>   0.0800 
 36 H        2.5550     5.1180    -0.7370 H     1 <1>   0.0800 
 37 H       -2.5970    -3.9960    -1.0130 H     1 <1>   0.0800 
 38 H       -2.2910    -3.7800     0.6950 H     1 <1>   0.0800 
 39 H       -3.0370    -5.2430     0.1000 H     1 <1>   0.0800 
 40 H        2.2020     4.1850     2.0350 H     1 <1>   0.0800 
 41 H        2.7920     5.7410     1.4500 H     1 <1>   0.0800 
 42 H        2.8440    -7.1370    -0.6280 H     1 <1>   0.0800 
 43 H        1.5640    -8.2370    -1.0800 H     1 <1>   0.0800 
 44 H        1.8800    -7.9080     0.6100 H     1 <1>   0.0800 
 45 H       -2.1560    -6.4520     2.0360 H     1 <1>   0.0800 
 46 H       -2.1970    -8.1840     2.2390 H     1 <1>   0.0800 
 47 H       -3.1880    -7.4410     1.0090 H     1 <1>   0.0800 
@<TRIPOS>BOND
  1   1   2  2   
  2   2   3  am  
  3   2   4  1   
  4   3   5  1   
  5   3  23  1   
  6   4   6  1   
  7   4  24  1   
  8   4  25  1   
  9   5   7  1   
 10   5  26  1   
 11   5  27  1   
 12   6   8  1   
 13   6  28  1   
 14   6  29  1   
 15   7   9  1   
 16   7  30  1   
 17   7  31  1   
 18   8  10  1   
 19   8  11  1   
 20   9  12  1   
 21   9  13  1   
 22   9  32  1   
 23  10  14  2   
 24  11  15  2   
 25  11  16  1   
 26  12  17  1   
 27  12  33  1   
 28  12  34  1   
 29  13  18  1   
 30  13  35  1   
 31  13  36  1   
 32  14  15  1   
 33  14  19  1   
 34  15  20  1   
 35  16  37  1   
 36  16  38  1   
 37  16  39  1   
 38  17  18  1   
 39  18  40  1   
 40  18  41  1   
 41  19  42  1   
 42  19  43  1   
 43  19  44  1   
 44  20  21  2   
 45  20  22  1   
 46  22  45  1   
 47  22  46  1   
 48  22  47  1   
@<TRIPOS>SUBSTRUCTURE
  1 ****   4 GROUP 4 **** **** 0

# MOE 2024.06 (io_trps.svl 2023.06)
