@<TRIPOS>MOLECULE
NONAME
34 36 1 0 0 
SMALL
USER_CHARGES


@<TRIPOS>ATOM
  1 CL       1.1390    -1.4240    -0.9120 Cl    1 <1>  -0.1770 
  2 C       -0.0360    -2.6100    -0.4050 C.ar  1 <1>   0.1770 
  3 C       -1.0010    -3.0320    -1.3020 C.ar  1 <1>  -0.1500 
  4 C        0.0170    -3.1070     0.8830 C.ar  1 <1>  -0.1500 
  5 C       -1.9410    -3.9740    -0.9090 C.ar  1 <1>  -0.1440 
  6 C       -0.9190    -4.0460     1.2780 C.ar  1 <1>  -0.1500 
  7 C       -1.8890    -4.4750     0.3870 C.ar  1 <1>  -0.1500 
  8 C       -3.0140    -4.4380    -1.8950 C.3   1 <1>   0.0450 
  9 C       -3.2530    -5.9430    -1.8690 C.2   1 <1>   0.5690 
 10 O       -2.5090    -6.6360    -2.5270 O.2   1 <1>  -0.5700 
 11 N       -4.2720    -6.4760    -1.1350 N.am  1 <1>  -0.6600 
 12 C       -5.3010    -5.7250    -0.3590 C.3   1 <1>   0.2350 
 13 C       -4.3500    -7.9310    -0.8270 C.3   1 <1>   0.2350 
 14 C       -6.2650    -6.7660     0.1730 C.3   1 <1>  -0.2420 
 15 C       -5.6700    -8.1270    -0.1010 C.3   1 <1>  -0.2420 
 16 C       -7.0550    -6.2040     1.3590 C.2   1 <1>   0.9470 
 17 C       -6.9590    -7.7210    -0.7650 C.3   1 <1>  -0.2000 
 18 C       -5.6320    -9.3860     0.7650 C.2   1 <1>   0.9470 
 19 O       -8.2930    -6.2130     1.3320 O.co2 1 <1>  -0.9000 
 20 O       -6.4420    -5.5820     2.2390 O.co2 1 <1>  -0.9000 
 21 O       -6.4030   -10.3220     0.5110 O.co2 1 <1>  -0.9000 
 22 O       -4.7270    -9.5110     1.6010 O.co2 1 <1>  -0.9000 
 23 H       -1.0060    -2.6220    -2.2950 H     1 <1>   0.1500 
 24 H        0.7770    -2.7630     1.5610 H     1 <1>   0.1500 
 25 H       -0.9000    -4.4500     2.2770 H     1 <1>   0.1500 
 26 H       -2.6020    -5.2120     0.7210 H     1 <1>   0.1500 
 27 H       -2.7150    -4.1820    -2.8940 H     1 <1>   0.0800 
 28 H       -3.9260    -3.9100    -1.6960 H     1 <1>   0.0800 
 29 H       -4.8300    -5.2040     0.4570 H     1 <1>   0.0800 
 30 H       -5.8270    -5.0250    -0.9830 H     1 <1>   0.0800 
 31 H       -4.3150    -8.5190    -1.7270 H     1 <1>   0.0800 
 32 H       -3.5270    -8.2020    -0.1870 H     1 <1>   0.0800 
 33 H       -6.9710    -7.5170    -1.8190 H     1 <1>   0.1000 
 34 H       -7.8640    -8.1960    -0.4250 H     1 <1>   0.1000 
@<TRIPOS>BOND
  1   1   2  1   
  2   2   3  ar  
  3   2   4  ar  
  4   3   5  ar  
  5   3  23  1   
  6   4   6  ar  
  7   4  24  1   
  8   5   7  ar  
  9   5   8  1   
 10   6   7  ar  
 11   6  25  1   
 12   7  26  1   
 13   8   9  1   
 14   8  27  1   
 15   8  28  1   
 16   9  10  2   
 17   9  11  am  
 18  11  12  1   
 19  11  13  1   
 20  12  14  1   
 21  12  29  1   
 22  12  30  1   
 23  13  15  1   
 24  13  31  1   
 25  13  32  1   
 26  14  15  1   
 27  14  16  1   
 28  14  17  1   
 29  15  17  1   
 30  15  18  1   
 31  16  19  ar  
 32  16  20  ar  
 33  17  33  1   
 34  17  34  1   
 35  18  21  ar  
 36  18  22  ar  
@<TRIPOS>SUBSTRUCTURE
  1 ****  11 GROUP 4 **** **** 0

# MOE 2024.06 (io_trps.svl 2023.06)
