@<TRIPOS>MOLECULE
NONAME
48 51 1 0 0 
SMALL
USER_CHARGES


@<TRIPOS>ATOM
  1 S       -1.3600    -0.4150    -1.1810 S.3   1 <1>  -0.0800 
  2 C       -2.0140    -0.9510     0.3640 C.2   1 <1>  -0.1400 
  3 C       -1.5810     1.2690    -0.7440 C.2   1 <1>  -0.1100 
  4 C       -2.3560     0.1120     1.1180 C.2   1 <1>  -0.1500 
  5 C       -2.1060    -2.4430     0.6340 C.3   1 <1>   0.3800 
  6 C       -2.1110     1.3730     0.4880 C.2   1 <1>  -0.1500 
  7 O       -0.8280    -2.9510     0.6130 O.3   1 <1>  -0.6800 
  8 C       -2.9540    -3.2090    -0.4060 C.3   1 <1>  -0.0800 
  9 C       -4.3940    -2.6680    -0.4940 C.3   1 <1>  -0.1600 
 10 C       -2.9960    -4.7240    -0.1250 C.3   1 <1>  -0.1600 
 11 C       -5.2230    -3.4420    -1.5200 C.3   1 <1>   0.3430 
 12 C       -3.8410    -5.4640    -1.1590 C.3   1 <1>   0.3430 
 13 N       -5.2220    -4.8950    -1.1820 N.4   1 <1>  -0.9590 
 14 C       -6.1130    -5.6670    -2.0940 C.3   1 <1>   0.4810 
 15 C       -6.3110    -7.0690    -1.5210 C.2   1 <1>  -0.0380 
 16 N       -7.0440    -7.2140    -0.3570 N.pl3 1 <1>  -0.5840 
 17 C       -5.7750    -8.1720    -2.1130 C.2   1 <1>  -0.1360 
 18 C       -7.2130    -8.4920     0.2080 C.2   1 <1>  -0.0680 
 19 C       -5.9190    -9.4870    -1.5780 C.2   1 <1>   0.5650 
 20 N       -6.6700    -9.6120    -0.3790 N.pl3 1 <1>   0.5610 
 21 C       -7.8670    -8.8950     1.3200 C.2   1 <1>  -0.1500 
 22 O       -5.3920   -10.4310    -2.1470 O.2   1 <1>  -0.5700 
 23 N       -6.9790   -10.7160     0.3760 N.2   1 <1>  -0.7070 
 24 C       -7.6830   -10.2730     1.3660 C.2   1 <1>   0.1080 
 25 C       -8.2290   -11.1900     2.4360 C.3   1 <1>  -0.0590 
 26 H       -1.2850     2.0110    -1.4640 H     1 <1>   0.1500 
 27 H       -2.7760     0.0730     2.1090 H     1 <1>   0.1500 
 28 H       -2.4980    -2.6010     1.6250 H     1 <1>   0.0800 
 29 H       -2.3430     2.2970     0.9900 H     1 <1>   0.1500 
 30 H       -0.2090    -2.2380     0.8650 H     1 <1>   0.4000 
 31 H       -2.4880    -3.0610    -1.3670 H     1 <1>   0.0800 
 32 H       -4.3750    -1.6330    -0.7910 H     1 <1>   0.0800 
 33 H       -4.8730    -2.7170     0.4680 H     1 <1>   0.0800 
 34 H       -3.3800    -4.9140     0.8620 H     1 <1>   0.0800 
 35 H       -1.9970    -5.1250    -0.1610 H     1 <1>   0.0800 
 36 H       -4.8010    -3.2940    -2.5010 H     1 <1>   0.0800 
 37 H       -6.2320    -3.0600    -1.5240 H     1 <1>   0.0800 
 38 H       -3.8720    -6.5110    -0.9040 H     1 <1>   0.0800 
 39 H       -3.3840    -5.3630    -2.1310 H     1 <1>   0.0800 
 40 H       -5.5960    -5.0100    -0.2320 H     1 <1>   0.4500 
 41 H       -5.6720    -5.7280    -3.0760 H     1 <1>   0.0800 
 42 H       -7.0710    -5.1820    -2.1810 H     1 <1>   0.0800 
 43 H       -7.5860    -6.4510     0.0760 H     1 <1>   0.4000 
 44 H       -5.2030    -8.1190    -3.0210 H     1 <1>   0.1500 
 45 H       -8.4170    -8.3100     2.0340 H     1 <1>   0.1500 
 46 H       -8.7870   -10.6340     3.1660 H     1 <1>   0.0800 
 47 H       -7.4150   -11.6950     2.9240 H     1 <1>   0.0800 
 48 H       -8.8710   -11.9240     1.9850 H     1 <1>   0.0800 
@<TRIPOS>BOND
  1   1   2  1   
  2   1   3  1   
  3   2   4  2   
  4   2   5  1   
  5   3   6  2   
  6   3  26  1   
  7   4   6  1   
  8   4  27  1   
  9   5   7  1   
 10   5   8  1   
 11   5  28  1   
 12   6  29  1   
 13   7  30  1   
 14   8   9  1   
 15   8  10  1   
 16   8  31  1   
 17   9  11  1   
 18   9  32  1   
 19   9  33  1   
 20  10  12  1   
 21  10  34  1   
 22  10  35  1   
 23  11  13  1   
 24  11  36  1   
 25  11  37  1   
 26  12  13  1   
 27  12  38  1   
 28  12  39  1   
 29  13  14  1   
 30  13  40  1   
 31  14  15  1   
 32  14  41  1   
 33  14  42  1   
 34  15  16  1   
 35  15  17  2   
 36  16  18  1   
 37  16  43  1   
 38  17  19  1   
 39  17  44  1   
 40  18  20  1   
 41  18  21  2   
 42  19  20  1   
 43  19  22  2   
 44  20  23  1   
 45  21  24  1   
 46  21  45  1   
 47  23  24  2   
 48  24  25  1   
 49  25  46  1   
 50  25  47  1   
 51  25  48  1   
@<TRIPOS>SUBSTRUCTURE
  1 ****  13 GROUP 4 **** **** 0

# MOE 2024.06 (io_trps.svl 2023.06)
