@<TRIPOS>MOLECULE
NONAME
54 57 1 0 0 
SMALL
USER_CHARGES


@<TRIPOS>ATOM
  1 O       -3.4570     1.0430    -2.3000 O.2   1 <1>  -0.5700 
  2 C       -2.7610     1.0460    -1.3040 C.2   1 <1>   0.5440 
  3 N       -2.4560    -0.1540    -0.7290 N.am  1 <1>  -0.7300 
  4 C       -2.3310     2.2870    -0.7180 C.ar  1 <1>   0.0860 
  5 C       -2.8850    -1.4810    -1.2330 C.3   1 <1>   0.2200 
  6 C       -1.0430     2.5680    -0.2780 C.ar  1 <1>   0.1660 
  7 C       -3.2440     3.3110    -0.5450 C.ar  1 <1>   0.1600 
  8 C       -4.0600    -2.0220    -0.4280 C.3   1 <1>  -0.0800 
  9 C       -1.8140    -2.5040    -0.8850 C.3   1 <1>   0.1200 
 10 N       -0.7320     3.7000     0.3020 N.ar  1 <1>  -0.6200 
 11 C        0.1100     1.5910    -0.4470 C.3   1 <1>  -0.0960 
 12 N       -2.9560     4.4530     0.0260 N.ar  1 <1>  -0.6200 
 13 C       -3.3820    -2.6980     0.7700 C.3   1 <1>   0.1200 
 14 C       -5.1430    -0.9940    -0.0420 C.3   1 <1>  -0.0170 
 15 O       -2.0200    -2.7900     0.4640 O.3   1 <1>  -0.5600 
 16 C       -1.6990     4.6070     0.4390 C.ar  1 <1>   0.7200 
 17 C       -6.3170    -1.6670     0.6600 C.ar  1 <1>  -0.1440 
 18 N       -1.3740     5.7950     1.0510 N.pl3 1 <1>  -0.8380 
 19 C       -7.3080    -2.3900    -0.0450 C.ar  1 <1>   0.0000 
 20 C       -6.4390    -1.5890     2.0160 C.ar  1 <1>  -0.1500 
 21 C       -2.2740     6.9820     1.0180 C.3   1 <1>   0.1290 
 22 C       -0.0820     5.9980     1.7660 C.3   1 <1>   0.1290 
 23 C       -8.3410    -2.9970     0.7100 C.ar  1 <1>   0.3100 
 24 C       -7.3390    -2.5430    -1.4520 C.ar  1 <1>  -0.1500 
 25 C       -7.5060    -2.2200     2.6660 C.ar  1 <1>   0.1600 
 26 N       -8.4250    -2.9030     2.0610 N.ar  1 <1>  -0.6200 
 27 C       -9.3310    -3.7330     0.0390 C.ar  1 <1>  -0.1500 
 28 C       -8.3200    -3.2650    -2.0750 C.ar  1 <1>  -0.1500 
 29 C       -9.3290    -3.8700    -1.3220 C.ar  1 <1>  -0.1500 
 30 H       -1.9780    -0.1960     0.1750 H     1 <1>   0.3700 
 31 H       -3.0860    -1.4420    -2.2900 H     1 <1>   0.0800 
 32 H       -4.2530     3.1650    -0.8930 H     1 <1>   0.1500 
 33 H       -4.5200    -2.8000    -1.0090 H     1 <1>   0.0800 
 34 H       -0.8150    -2.1330    -1.0320 H     1 <1>   0.0800 
 35 H       -1.9560    -3.4140    -1.4420 H     1 <1>   0.0800 
 36 H       -0.0070     1.0040    -1.3400 H     1 <1>   0.0800 
 37 H        0.1660     0.9410     0.4060 H     1 <1>   0.0800 
 38 H        1.0370     2.1300    -0.5260 H     1 <1>   0.0800 
 39 H       -3.7700    -3.6880     0.9390 H     1 <1>   0.0800 
 40 H       -3.4750    -2.1130     1.6690 H     1 <1>   0.0800 
 41 H       -5.4880    -0.4740    -0.9180 H     1 <1>   0.0800 
 42 H       -4.7230    -0.2510     0.6120 H     1 <1>   0.0800 
 43 H       -5.7290    -1.0500     2.6180 H     1 <1>   0.1500 
 44 H       -1.6930     7.8870     0.9880 H     1 <1>   0.0800 
 45 H       -2.8950     6.9870     1.8970 H     1 <1>   0.0800 
 46 H       -2.9050     6.9580     0.1460 H     1 <1>   0.0800 
 47 H       -0.2230     6.6620     2.6010 H     1 <1>   0.0800 
 48 H        0.6390     6.4230     1.0900 H     1 <1>   0.0800 
 49 H        0.2970     5.0630     2.1400 H     1 <1>   0.0800 
 50 H       -6.5780    -2.0800    -2.0510 H     1 <1>   0.1500 
 51 H       -7.5650    -2.1330     3.7380 H     1 <1>   0.1500 
 52 H      -10.0980    -4.1870     0.6390 H     1 <1>   0.1500 
 53 H       -8.3310    -3.3740    -3.1460 H     1 <1>   0.1500 
 54 H      -10.0950    -4.4370    -1.8230 H     1 <1>   0.1500 
@<TRIPOS>BOND
  1   1   2  2   
  2   2   3  am  
  3   2   4  1   
  4   3   5  1   
  5   3  30  1   
  6   4   6  ar  
  7   4   7  ar  
  8   5   8  1   
  9   5   9  1   
 10   5  31  1   
 11   6  10  ar  
 12   6  11  1   
 13   7  12  ar  
 14   7  32  1   
 15   8  13  1   
 16   8  14  1   
 17   8  33  1   
 18   9  15  1   
 19   9  34  1   
 20   9  35  1   
 21  10  16  ar  
 22  11  36  1   
 23  11  37  1   
 24  11  38  1   
 25  12  16  ar  
 26  13  15  1   
 27  13  39  1   
 28  13  40  1   
 29  14  17  1   
 30  14  41  1   
 31  14  42  1   
 32  16  18  1   
 33  17  19  ar  
 34  17  20  ar  
 35  18  21  1   
 36  18  22  1   
 37  19  23  ar  
 38  19  24  ar  
 39  20  25  ar  
 40  20  43  1   
 41  21  44  1   
 42  21  45  1   
 43  21  46  1   
 44  22  47  1   
 45  22  48  1   
 46  22  49  1   
 47  23  26  ar  
 48  23  27  ar  
 49  24  28  ar  
 50  24  50  1   
 51  25  26  ar  
 52  25  51  1   
 53  27  29  ar  
 54  27  52  1   
 55  28  29  ar  
 56  28  53  1   
 57  29  54  1   
@<TRIPOS>SUBSTRUCTURE
  1 ****  14 GROUP 4 **** **** 0

# MOE 2024.06 (io_trps.svl 2023.06)
