@<TRIPOS>MOLECULE
NONAME
49 52 1 0 0 
SMALL
USER_CHARGES


@<TRIPOS>ATOM
  1 CL       0.3300     0.3360     1.0460 Cl    1 <1>  -0.1230 
  2 C        1.0620    -1.2270     0.7380 C.2   1 <1>   0.1230 
  3 C        2.2000    -1.7120     1.2890 C.2   1 <1>  -0.3020 
  4 C        0.5520    -2.1790    -0.1310 C.2   1 <1>  -0.1500 
  5 N        2.4220    -2.9530     0.7870 N.pl3 1 <1>   0.0480 
  6 C        1.4020    -3.2600    -0.0890 C.2   1 <1>  -0.2370 
  7 C        3.5750    -3.8060     1.1370 C.3   1 <1>   0.0160 
  8 C        1.3090    -4.5020    -0.8150 C.2   1 <1>   0.7150 
  9 O        2.3200    -5.0330    -1.2390 O.2   1 <1>  -0.5700 
 10 N        0.0960    -5.1170    -1.0360 N.am  1 <1>  -0.6600 
 11 C       -0.0800    -6.1480    -2.0960 C.3   1 <1>   0.1400 
 12 C       -1.0920    -4.9420    -0.1570 C.3   1 <1>   0.1400 
 13 C       -0.4150    -7.4940    -1.4490 C.3   1 <1>  -0.1600 
 14 C       -1.4320    -6.2800     0.5040 C.3   1 <1>  -0.1600 
 15 C       -1.6410    -7.3990    -0.5300 C.3   1 <1>   0.4240 
 16 O       -2.7070    -7.0210    -1.3710 O.3   1 <1>  -0.5600 
 17 C       -1.9070    -8.7550     0.1590 C.ar  1 <1>  -0.1430 
 18 C       -4.0020    -7.2870    -0.9290 C.3   1 <1>   0.1200 
 19 C       -3.1190    -9.4190    -0.0010 C.ar  1 <1>  -0.1430 
 20 C       -0.9330    -9.3380     0.9640 C.ar  1 <1>  -0.1500 
 21 C       -4.1990    -8.7980    -0.8640 C.3   1 <1>  -0.0170 
 22 C       -3.3460   -10.6380     0.6190 C.ar  1 <1>  -0.1500 
 23 C       -1.1600   -10.5520     1.5860 C.ar  1 <1>  -0.1500 
 24 C       -2.3640   -11.2120     1.4190 C.ar  1 <1>   0.0830 
 25 O       -2.5060   -12.3990     2.0610 O.3   1 <1>  -0.3630 
 26 C       -3.6850   -13.1620     1.9390 C.3   1 <1>   0.0400 
 27 H        2.8480    -1.2330     2.0000 H     1 <1>   0.1500 
 28 H       -0.3410    -2.0630    -0.7190 H     1 <1>   0.1500 
 29 H        4.1200    -3.3670     1.9530 H     1 <1>   0.0800 
 30 H        4.2200    -3.8950     0.2810 H     1 <1>   0.0800 
 31 H        3.2250    -4.7810     1.4200 H     1 <1>   0.0800 
 32 H        0.8130    -6.2410    -2.6900 H     1 <1>   0.0800 
 33 H       -0.8810    -5.8460    -2.7490 H     1 <1>   0.0800 
 34 H       -1.9230    -4.5990    -0.7510 H     1 <1>   0.0800 
 35 H       -0.9000    -4.2140     0.6110 H     1 <1>   0.0800 
 36 H        0.4450    -7.8170    -0.8940 H     1 <1>   0.0800 
 37 H       -0.6020    -8.2280    -2.2110 H     1 <1>   0.0800 
 38 H       -2.3060    -6.1760     1.1180 H     1 <1>   0.0800 
 39 H       -0.6210    -6.5440     1.1570 H     1 <1>   0.0800 
 40 H       -4.6870    -6.8490    -1.6330 H     1 <1>   0.0800 
 41 H       -4.1490    -6.8350     0.0350 H     1 <1>   0.0800 
 42 H        0.0140    -8.8530     1.1160 H     1 <1>   0.1500 
 43 H       -4.1500    -9.2080    -1.8570 H     1 <1>   0.0800 
 44 H       -5.1700    -9.0110    -0.4560 H     1 <1>   0.0800 
 45 H       -4.2890   -11.1270     0.4720 H     1 <1>   0.1500 
 46 H       -0.4030   -10.9970     2.2050 H     1 <1>   0.1500 
 47 H       -3.5650   -14.0570     2.5220 H     1 <1>   0.0800 
 48 H       -3.8310   -13.4160     0.9040 H     1 <1>   0.0800 
 49 H       -4.5130   -12.5870     2.3160 H     1 <1>   0.0800 
@<TRIPOS>BOND
  1   1   2  1   
  2   2   3  2   
  3   2   4  1   
  4   3   5  1   
  5   3  27  1   
  6   4   6  2   
  7   4  28  1   
  8   5   6  1   
  9   5   7  1   
 10   6   8  1   
 11   7  29  1   
 12   7  30  1   
 13   7  31  1   
 14   8   9  2   
 15   8  10  am  
 16  10  11  1   
 17  10  12  1   
 18  11  13  1   
 19  11  32  1   
 20  11  33  1   
 21  12  14  1   
 22  12  34  1   
 23  12  35  1   
 24  13  15  1   
 25  13  36  1   
 26  13  37  1   
 27  14  15  1   
 28  14  38  1   
 29  14  39  1   
 30  15  16  1   
 31  15  17  1   
 32  16  18  1   
 33  17  19  ar  
 34  17  20  ar  
 35  18  21  1   
 36  18  40  1   
 37  18  41  1   
 38  19  21  1   
 39  19  22  ar  
 40  20  23  ar  
 41  20  42  1   
 42  21  43  1   
 43  21  44  1   
 44  22  24  ar  
 45  22  45  1   
 46  23  24  ar  
 47  23  46  1   
 48  24  25  1   
 49  25  26  1   
 50  26  47  1   
 51  26  48  1   
 52  26  49  1   
@<TRIPOS>SUBSTRUCTURE
  1 ****  14 GROUP 4 **** **** 0

# MOE 2024.06 (io_trps.svl 2023.06)
