@<TRIPOS>MOLECULE
NONAME
41 43 1 0 0 
SMALL
USER_CHARGES


@<TRIPOS>ATOM
  1 CL       1.6240     0.9680    -2.9190 Cl    1 <1>  -0.1770 
  2 C        2.0420     1.5360    -1.3230 C.ar  1 <1>   0.1770 
  3 C        2.0890     0.6490    -0.2620 C.ar  1 <1>   0.1600 
  4 C        2.3290     2.8680    -1.1300 C.ar  1 <1>  -0.1500 
  5 N        2.3980     0.9990     0.9810 N.ar  1 <1>  -0.6200 
  6 C        2.6640     3.2630     0.1570 C.ar  1 <1>   0.0860 
  7 C        2.6620     2.2870     1.1540 C.ar  1 <1>   0.1600 
  8 C        2.9990     4.6320     0.4680 C.2   1 <1>   0.5440 
  9 O        2.1550     5.4910     0.3050 O.2   1 <1>  -0.5700 
 10 N        4.2480     4.9890     0.9280 N.am  1 <1>  -0.6600 
 11 C        5.4510     4.0940     0.9230 C.3   1 <1>   0.1400 
 12 C        4.5310     6.3790     1.3820 C.3   1 <1>   0.1400 
 13 C        6.3880     4.3940    -0.2550 C.3   1 <1>   0.1400 
 14 C        4.8490     7.3090     0.2040 C.3   1 <1>  -0.1600 
 15 N        6.8240     5.8270    -0.2790 N.am  1 <1>  -0.6600 
 16 C        5.8070     6.7500    -0.8590 C.3   1 <1>   0.1400 
 17 C        8.0770     6.2110     0.1780 C.2   1 <1>   0.7160 
 18 O        8.7900     5.3370     0.6440 O.2   1 <1>  -0.5700 
 19 C        8.5950     7.5760     0.1240 C.2   1 <1>   0.1410 
 20 N        7.8530     8.7190     0.2870 N.2   1 <1>  -0.5650 
 21 C        9.8810     7.9670    -0.0650 C.2   1 <1>  -0.0400 
 22 C        8.7120     9.6630     0.1880 C.2   1 <1>   0.3280 
 23 O        9.9380     9.2640    -0.0250 O.3   1 <1>  -0.2800 
 24 C       11.1700     7.2030    -0.3010 C.3   1 <1>  -0.0600 
 25 H        1.8610    -0.3870    -0.4460 H     1 <1>   0.1500 
 26 H        2.2920     3.5750    -1.9390 H     1 <1>   0.1500 
 27 H        2.9000     2.6010     2.1570 H     1 <1>   0.1500 
 28 H        5.1580     3.0630     0.8680 H     1 <1>   0.0800 
 29 H        5.9960     4.2210     1.8420 H     1 <1>   0.0800 
 30 H        5.3650     6.3720     2.0630 H     1 <1>   0.0800 
 31 H        3.6780     6.7630     1.9180 H     1 <1>   0.0800 
 32 H        5.8880     4.1540    -1.1770 H     1 <1>   0.0800 
 33 H        7.2450     3.7460    -0.1880 H     1 <1>   0.0800 
 34 H        5.2580     8.2180     0.6020 H     1 <1>   0.0800 
 35 H        3.9270     7.5790    -0.2790 H     1 <1>   0.0800 
 36 H        6.2880     7.5590    -1.3810 H     1 <1>   0.0800 
 37 H        5.2260     6.2120    -1.5890 H     1 <1>   0.0800 
 38 H        8.5190    10.7200     0.2630 H     1 <1>   0.1500 
 39 H       10.9890     6.1470    -0.3700 H     1 <1>   0.0800 
 40 H       11.8500     7.3830     0.5120 H     1 <1>   0.0800 
 41 H       11.6260     7.5340    -1.2160 H     1 <1>   0.0800 
@<TRIPOS>BOND
  1   1   2  1   
  2   2   3  ar  
  3   2   4  ar  
  4   3   5  ar  
  5   3  25  1   
  6   4   6  ar  
  7   4  26  1   
  8   5   7  ar  
  9   6   7  ar  
 10   6   8  1   
 11   7  27  1   
 12   8   9  2   
 13   8  10  am  
 14  10  11  1   
 15  10  12  1   
 16  11  13  1   
 17  11  28  1   
 18  11  29  1   
 19  12  14  1   
 20  12  30  1   
 21  12  31  1   
 22  13  15  1   
 23  13  32  1   
 24  13  33  1   
 25  14  16  1   
 26  14  34  1   
 27  14  35  1   
 28  15  16  1   
 29  15  17  am  
 30  16  36  1   
 31  16  37  1   
 32  17  18  2   
 33  17  19  1   
 34  19  20  1   
 35  19  21  2   
 36  20  22  2   
 37  21  23  1   
 38  21  24  1   
 39  22  23  1   
 40  22  38  1   
 41  24  39  1   
 42  24  40  1   
 43  24  41  1   
@<TRIPOS>SUBSTRUCTURE
  1 ****  13 GROUP 4 **** **** 0

# MOE 2024.06 (io_trps.svl 2023.06)
