@<TRIPOS>MOLECULE
NONAME
51 53 1 0 0 
SMALL
USER_CHARGES


@<TRIPOS>ATOM
  1 O       -0.5680     0.5100     0.9700 O.2   1 <1>  -0.5700 
  2 C       -1.5830     1.0980     0.6440 C.2   1 <1>   0.5440 
  3 N       -2.7450     0.3680     0.5080 N.am  1 <1>  -0.6600 
  4 C       -1.5410     2.5210     0.3890 C.ar  1 <1>   0.0860 
  5 C       -3.9100     0.7930    -0.3130 C.3   1 <1>   0.1400 
  6 C       -2.7870    -1.1010     0.7290 C.3   1 <1>   0.1400 
  7 C       -2.4500     3.4060     0.9740 C.ar  1 <1>  -0.1500 
  8 C       -0.5740     3.0670    -0.4570 C.ar  1 <1>  -0.1500 
  9 C       -4.8730    -0.3920    -0.2600 C.3   1 <1>   0.2000 
 10 C       -3.9470    -1.6060    -0.1360 C.3   1 <1>  -0.0800 
 11 C       -2.4050     4.7610     0.7120 C.ar  1 <1>  -0.1500 
 12 C       -0.5270     4.4220    -0.7190 C.ar  1 <1>  -0.1500 
 13 O       -5.6370    -0.2740     0.8920 O.3   1 <1>  -0.6800 
 14 C       -4.6190    -2.8840     0.4010 C.3   1 <1>   0.0200 
 15 C       -1.4420     5.2910    -0.1360 C.ar  1 <1>   0.1000 
 16 C       -3.7040    -4.0970     0.3750 C.2   1 <1>  -0.0400 
 17 N       -1.4100     6.6550    -0.3780 N.pl3 1 <1>  -0.8380 
 18 O       -4.1210    -5.2080     0.9230 O.3   1 <1>  -0.0190 
 19 C       -2.4740    -4.3230    -0.1160 C.2   1 <1>  -0.1500 
 20 C       -0.1290     7.4060    -0.2380 C.3   1 <1>   0.2090 
 21 C       -2.4170     7.2340    -1.3060 C.3   1 <1>   0.1290 
 22 N       -3.2390    -6.1600     0.8290 N.2   1 <1>  -0.4100 
 23 C       -2.2350    -5.6560     0.2080 C.2   1 <1>   0.1080 
 24 C       -0.2800     8.4980     0.8230 C.3   1 <1>   0.1200 
 25 C       -0.9700    -6.4150    -0.1220 C.3   1 <1>  -0.0590 
 26 O        0.9420     9.1270     1.0330 O.3   1 <1>  -0.6800 
 27 H       -4.3700     1.6890     0.0640 H     1 <1>   0.0800 
 28 H       -3.5820     0.9550    -1.3260 H     1 <1>   0.0800 
 29 H       -1.8550    -1.5610     0.4470 H     1 <1>   0.0800 
 30 H       -2.9710    -1.2910     1.7730 H     1 <1>   0.0800 
 31 H       -3.1940     3.0200     1.6480 H     1 <1>   0.1500 
 32 H        0.1480     2.4080    -0.9070 H     1 <1>   0.1500 
 33 H       -5.5350    -0.4390    -1.1080 H     1 <1>   0.0800 
 34 H       -3.5570    -1.8140    -1.1170 H     1 <1>   0.0800 
 35 H       -3.1080     5.4310     1.1710 H     1 <1>   0.1500 
 36 H        0.2200     4.8160    -1.3820 H     1 <1>   0.1500 
 37 H       -5.0430    -0.0780     1.6450 H     1 <1>   0.4000 
 38 H       -5.4900    -3.1050    -0.1900 H     1 <1>   0.0800 
 39 H       -4.9470    -2.7300     1.4140 H     1 <1>   0.0800 
 40 H       -1.7990    -3.6730    -0.6390 H     1 <1>   0.1500 
 41 H        0.6490     6.7280     0.0670 H     1 <1>   0.0800 
 42 H        0.1410     7.8460    -1.1820 H     1 <1>   0.0800 
 43 H       -2.8050     8.1500    -0.8970 H     1 <1>   0.0800 
 44 H       -3.2320     6.5430    -1.4440 H     1 <1>   0.0800 
 45 H       -1.9660     7.4320    -2.2620 H     1 <1>   0.0800 
 46 H       -0.6090     8.0750     1.7560 H     1 <1>   0.0800 
 47 H       -0.9830     9.2430     0.4950 H     1 <1>   0.0800 
 48 H       -0.8260    -6.4410    -1.1860 H     1 <1>   0.0800 
 49 H       -1.0410    -7.4230     0.2440 H     1 <1>   0.0800 
 50 H       -0.1260    -5.9360     0.3400 H     1 <1>   0.0800 
 51 H        1.5600     8.5290     1.4980 H     1 <1>   0.4000 
@<TRIPOS>BOND
  1   1   2  2   
  2   2   3  am  
  3   2   4  1   
  4   3   5  1   
  5   3   6  1   
  6   4   7  ar  
  7   4   8  ar  
  8   5   9  1   
  9   5  27  1   
 10   5  28  1   
 11   6  10  1   
 12   6  29  1   
 13   6  30  1   
 14   7  11  ar  
 15   7  31  1   
 16   8  12  ar  
 17   8  32  1   
 18   9  10  1   
 19   9  13  1   
 20   9  33  1   
 21  10  14  1   
 22  10  34  1   
 23  11  15  ar  
 24  11  35  1   
 25  12  15  ar  
 26  12  36  1   
 27  13  37  1   
 28  14  16  1   
 29  14  38  1   
 30  14  39  1   
 31  15  17  1   
 32  16  18  1   
 33  16  19  2   
 34  17  20  1   
 35  17  21  1   
 36  18  22  1   
 37  19  23  1   
 38  19  40  1   
 39  20  24  1   
 40  20  41  1   
 41  20  42  1   
 42  21  43  1   
 43  21  44  1   
 44  21  45  1   
 45  22  23  2   
 46  23  25  1   
 47  24  26  1   
 48  24  46  1   
 49  24  47  1   
 50  25  48  1   
 51  25  49  1   
 52  25  50  1   
 53  26  51  1   
@<TRIPOS>SUBSTRUCTURE
  1 ****   2 GROUP 4 **** **** 0

# MOE 2024.06 (io_trps.svl 2023.06)
