@<TRIPOS>MOLECULE
NONAME
47 50 1 0 0 
SMALL
USER_CHARGES


@<TRIPOS>ATOM
  1 O        1.6080     0.1720     1.1070 O.2   1 <1>  -0.5700 
  2 C        2.3110    -0.8120     0.9680 C.2   1 <1>   0.6160 
  3 N        3.6770    -0.6180     0.9950 N.am  1 <1>  -0.6600 
  4 C        1.7160    -2.1120     0.7220 C.2   1 <1>   0.0140 
  5 C        4.2730     0.5070     1.7900 C.3   1 <1>   0.1400 
  6 C        4.6110    -1.3760     0.1100 C.3   1 <1>   0.1400 
  7 C        0.5870    -2.2470    -0.0230 C.2   1 <1>  -0.1780 
  8 C        2.3520    -3.2600     1.3280 C.2   1 <1>  -0.1500 
  9 C        4.9530     1.6450     0.9750 C.3   1 <1>   0.4230 
 10 C        5.1630    -0.4840    -1.0230 C.3   1 <1>  -0.0800 
 11 C       -0.1300    -3.4490    -0.3670 C.ar  1 <1>   0.0280 
 12 C        2.3670    -4.5160     0.8530 C.2   1 <1>  -0.0730 
 13 N        4.4020     1.9070    -0.4150 N.4   1 <1>  -0.9590 
 14 C        6.4890     1.4810     0.9380 C.3   1 <1>   0.1200 
 15 C        6.6400    -0.1040    -0.8300 C.3   1 <1>   0.1200 
 16 C        4.2460     0.7150    -1.3200 C.3   1 <1>   0.3430 
 17 C        0.4660    -4.7130    -0.4950 C.ar  1 <1>   0.0820 
 18 C       -1.4990    -3.3630    -0.6100 C.ar  1 <1>  -0.1500 
 19 O        1.8020    -4.9070    -0.3130 O.3   1 <1>  -0.1590 
 20 C        3.0870     2.6180    -0.3200 C.3   1 <1>   0.2630 
 21 O        6.8970     0.2240     0.4960 O.3   1 <1>  -0.5600 
 22 C       -0.2780    -5.8220    -0.8540 C.ar  1 <1>  -0.1500 
 23 C       -2.2470    -4.4740    -0.9640 C.ar  1 <1>  -0.1500 
 24 C       -1.6380    -5.7070    -1.0870 C.ar  1 <1>  -0.1500 
 25 H        3.5040     0.9520     2.3970 H     1 <1>   0.0800 
 26 H        4.9890     0.0920     2.4790 H     1 <1>   0.0800 
 27 H        5.4100    -1.7940     0.7000 H     1 <1>   0.0800 
 28 H        4.0880    -2.2020    -0.3410 H     1 <1>   0.0800 
 29 H        0.1280    -1.3530    -0.4070 H     1 <1>   0.1500 
 30 H        2.8610    -3.0450     2.2530 H     1 <1>   0.1500 
 31 H        4.7950     2.5440     1.5470 H     1 <1>   0.0800 
 32 H        5.1390    -1.0910    -1.9100 H     1 <1>   0.0800 
 33 H        2.8560    -5.3340     1.3550 H     1 <1>   0.1500 
 34 H        5.0670     2.5410    -0.8730 H     1 <1>   0.4500 
 35 H        6.8730     1.5870     1.9380 H     1 <1>   0.0800 
 36 H        6.9520     2.2350     0.3270 H     1 <1>   0.0800 
 37 H        6.9460     0.7060    -1.4710 H     1 <1>   0.0800 
 38 H        7.2570    -0.9580    -1.0540 H     1 <1>   0.0800 
 39 H        3.2280     0.3650    -1.2650 H     1 <1>   0.0800 
 40 H        4.4140     1.0320    -2.3360 H     1 <1>   0.0800 
 41 H       -1.9940    -2.4130    -0.5180 H     1 <1>   0.1500 
 42 H        2.3550     1.9950     0.1640 H     1 <1>   0.0800 
 43 H        2.7230     2.8680    -1.3030 H     1 <1>   0.0800 
 44 H        3.1890     3.5270     0.2500 H     1 <1>   0.0800 
 45 H        0.2040    -6.7780    -0.9520 H     1 <1>   0.1500 
 46 H       -3.3040    -4.3750    -1.1430 H     1 <1>   0.1500 
 47 H       -2.2150    -6.5730    -1.3630 H     1 <1>   0.1500 
@<TRIPOS>BOND
  1   1   2  2   
  2   2   3  am  
  3   2   4  1   
  4   3   5  1   
  5   3   6  1   
  6   4   7  2   
  7   4   8  1   
  8   5   9  1   
  9   5  25  1   
 10   5  26  1   
 11   6  10  1   
 12   6  27  1   
 13   6  28  1   
 14   7  11  1   
 15   7  29  1   
 16   8  12  2   
 17   8  30  1   
 18   9  13  1   
 19   9  14  1   
 20   9  31  1   
 21  10  15  1   
 22  10  16  1   
 23  10  32  1   
 24  11  17  ar  
 25  11  18  ar  
 26  12  19  1   
 27  12  33  1   
 28  13  16  1   
 29  13  20  1   
 30  13  34  1   
 31  14  21  1   
 32  14  35  1   
 33  14  36  1   
 34  15  21  1   
 35  15  37  1   
 36  15  38  1   
 37  16  39  1   
 38  16  40  1   
 39  17  19  1   
 40  17  22  ar  
 41  18  23  ar  
 42  18  41  1   
 43  20  42  1   
 44  20  43  1   
 45  20  44  1   
 46  22  24  ar  
 47  22  45  1   
 48  23  24  ar  
 49  23  46  1   
 50  24  47  1   
@<TRIPOS>SUBSTRUCTURE
  1 ****   4 GROUP 4 **** **** 0

# MOE 2024.06 (io_trps.svl 2023.06)
