@<TRIPOS>MOLECULE
NONAME
58 61 1 0 0 
SMALL
USER_CHARGES


@<TRIPOS>ATOM
  1 S        0.5610     0.7730    -1.5710 S.o2  1 <1>   1.4470 
  2 O        0.0230     0.0000    -2.6700 O.2   1 <1>  -0.6500 
  3 O        1.3300     1.9630    -1.8700 O.2   1 <1>  -0.6500 
  4 N       -0.7720     1.2630    -0.6430 N.am  1 <1>  -0.8490 
  5 C        1.4890    -0.3090    -0.4320 C.ar  1 <1>  -0.0090 
  6 C       -1.4220     2.4420    -1.2280 C.3   1 <1>   0.1960 
  7 C       -1.6880     0.1570    -0.3000 C.3   1 <1>   0.1960 
  8 C        2.1530     0.1620     0.7050 C.ar  1 <1>  -0.1440 
  9 C        1.5240    -1.6760    -0.6820 C.ar  1 <1>  -0.1500 
 10 C       -2.6790     2.7810    -0.4300 C.3   1 <1>  -0.1600 
 11 C       -3.0710     0.3240    -0.9340 C.3   1 <1>  -0.1600 
 12 C        2.8200    -0.7250     1.5350 C.ar  1 <1>  -0.1500 
 13 C        2.1740     1.6410     1.0710 C.3   1 <1>  -0.0970 
 14 C        2.1810    -2.5870     0.1420 C.ar  1 <1>   0.0530 
 15 C       -3.7390     1.6510    -0.5160 C.3   1 <1>   0.2800 
 16 C        2.8330    -2.0770     1.2580 C.ar  1 <1>  -0.1500 
 17 C        2.1820    -4.0020    -0.1450 C.2   1 <1>   0.0870 
 18 O       -4.5910     1.9460    -1.5830 O.3   1 <1>  -0.5600 
 19 C       -4.5330     1.4600     0.8140 C.3   1 <1>  -0.1600 
 20 O        1.4050    -4.5120    -1.0760 O.3   1 <1>  -0.0190 
 21 C        2.8660    -5.0410     0.3820 C.2   1 <1>  -0.1500 
 22 C       -5.5790     2.9500    -1.4990 C.3   1 <1>   0.1200 
 23 C       -5.9860     1.9640     0.8010 C.3   1 <1>   0.2800 
 24 N        1.5310    -5.8010    -1.1920 N.2   1 <1>  -0.4100 
 25 C        2.4100    -6.1460    -0.3220 C.2   1 <1>   0.1080 
 26 C       -6.0940     3.2300    -0.0750 C.3   1 <1>   0.2000 
 27 O       -6.7830     0.9780     0.2500 O.3   1 <1>  -0.6800 
 28 C       -6.5220     2.1740     2.2210 C.3   1 <1>  -0.2400 
 29 C        2.8660    -7.5740    -0.1160 C.3   1 <1>  -0.0590 
 30 O       -5.3500     4.2750     0.4800 O.3   1 <1>  -0.6800 
 31 H       -0.7410     3.2770    -1.1990 H     1 <1>   0.0800 
 32 H       -1.6780     2.2560    -2.2590 H     1 <1>   0.0800 
 33 H       -1.2770    -0.7920    -0.6020 H     1 <1>   0.0800 
 34 H       -1.7960     0.1300     0.7710 H     1 <1>   0.0800 
 35 H        1.0200    -2.0530    -1.5560 H     1 <1>   0.1500 
 36 H       -3.0720     3.7080    -0.8000 H     1 <1>   0.0800 
 37 H       -2.3630     2.9430     0.5840 H     1 <1>   0.0800 
 38 H       -3.6920    -0.5140    -0.6750 H     1 <1>   0.0800 
 39 H       -2.9460     0.2920    -2.0030 H     1 <1>   0.0800 
 40 H        3.3370    -0.3660     2.4080 H     1 <1>   0.1500 
 41 H        2.6310     1.7980     2.0310 H     1 <1>   0.0800 
 42 H        1.1750     2.0370     1.1130 H     1 <1>   0.0800 
 43 H        2.7370     2.1950     0.3400 H     1 <1>   0.0800 
 44 H        3.3560    -2.7420     1.9210 H     1 <1>   0.1500 
 45 H       -4.5280     0.4310     1.1230 H     1 <1>   0.0800 
 46 H       -4.0110     1.9790     1.5950 H     1 <1>   0.0800 
 47 H        3.6000    -5.0430     1.1640 H     1 <1>   0.1500 
 48 H       -5.1990     3.8490    -1.9520 H     1 <1>   0.0800 
 49 H       -6.4030     2.6000    -2.0940 H     1 <1>   0.0800 
 50 H       -7.1150     3.5670    -0.1130 H     1 <1>   0.0800 
 51 H       -6.7180     0.1640     0.7800 H     1 <1>   0.4000 
 52 H       -5.9600     2.9410     2.7220 H     1 <1>   0.0800 
 53 H       -6.4470     1.2700     2.7980 H     1 <1>   0.0800 
 54 H       -7.5500     2.4890     2.1850 H     1 <1>   0.0800 
 55 H        3.6100    -7.6250     0.6570 H     1 <1>   0.0800 
 56 H        3.2830    -7.9530    -1.0310 H     1 <1>   0.0800 
 57 H        2.0260    -8.1830     0.1620 H     1 <1>   0.0800 
 58 H       -4.4050     4.0380     0.4680 H     1 <1>   0.4000 
@<TRIPOS>BOND
  1   1   2  2   
  2   1   3  2   
  3   1   4  am  
  4   1   5  1   
  5   4   6  1   
  6   4   7  1   
  7   5   8  ar  
  8   5   9  ar  
  9   6  10  1   
 10   6  31  1   
 11   6  32  1   
 12   7  11  1   
 13   7  33  1   
 14   7  34  1   
 15   8  12  ar  
 16   8  13  1   
 17   9  14  ar  
 18   9  35  1   
 19  10  15  1   
 20  10  36  1   
 21  10  37  1   
 22  11  15  1   
 23  11  38  1   
 24  11  39  1   
 25  12  16  ar  
 26  12  40  1   
 27  13  41  1   
 28  13  42  1   
 29  13  43  1   
 30  14  16  ar  
 31  14  17  1   
 32  15  18  1   
 33  15  19  1   
 34  16  44  1   
 35  17  20  1   
 36  17  21  2   
 37  18  22  1   
 38  19  23  1   
 39  19  45  1   
 40  19  46  1   
 41  20  24  1   
 42  21  25  1   
 43  21  47  1   
 44  22  26  1   
 45  22  48  1   
 46  22  49  1   
 47  23  26  1   
 48  23  27  1   
 49  23  28  1   
 50  24  25  2   
 51  25  29  1   
 52  26  30  1   
 53  26  50  1   
 54  27  51  1   
 55  28  52  1   
 56  28  53  1   
 57  28  54  1   
 58  29  55  1   
 59  29  56  1   
 60  29  57  1   
 61  30  58  1   
@<TRIPOS>SUBSTRUCTURE
  1 ****   7 GROUP 4 **** **** 0

# MOE 2024.06 (io_trps.svl 2023.06)
