@<TRIPOS>MOLECULE
NONAME
57 60 1 0 0 
SMALL
USER_CHARGES


@<TRIPOS>ATOM
  1 O       -2.9740     0.6030    -2.2410 O.2   1 <1>  -0.5700 
  2 C       -2.4930     0.7090    -1.1410 C.2   1 <1>   0.5690 
  3 N       -2.1040    -0.3690    -0.4220 N.am  1 <1>  -0.7300 
  4 C       -2.3250     2.0810    -0.5360 C.3   1 <1>  -0.0990 
  5 C       -2.1910    -1.7760    -0.8780 C.3   1 <1>   0.2200 
  6 C       -1.0550     2.7550    -1.0570 C.3   1 <1>   0.0210 
  7 C       -3.3660    -2.5000    -0.2280 C.3   1 <1>  -0.0800 
  8 C       -1.0260    -2.5490    -0.2780 C.3   1 <1>   0.1200 
  9 C       -0.8870     4.1110    -0.3960 C.2   1 <1>  -0.1810 
 10 C       -2.7930    -2.9090     1.1360 C.3   1 <1>   0.1200 
 11 C       -4.6770    -1.6890    -0.1580 C.3   1 <1>  -0.0160 
 12 O       -1.4020    -2.7900     1.0440 O.3   1 <1>  -0.5600 
 13 C       -1.4080     5.3210    -0.8460 C.2   1 <1>   0.1080 
 14 C       -0.2230     4.4240     0.7390 C.2   1 <1>  -0.3320 
 15 C       -5.9110    -2.4170     0.3870 C.ar  1 <1>  -0.1440 
 16 N       -1.1020     6.3060    -0.0650 N.2   1 <1>  -0.7070 
 17 C       -2.2370     5.5220    -2.0950 C.3   1 <1>  -0.0590 
 18 N       -0.3680     5.7570     0.9130 N.pl3 1 <1>   0.3140 
 19 C        0.5530     3.5260     1.6910 C.3   1 <1>  -0.0600 
 20 C       -7.0930    -1.6810     0.6530 C.ar  1 <1>   0.0000 
 21 C       -5.9510    -3.7610     0.6340 C.ar  1 <1>  -0.1500 
 22 C        0.1730     6.5790     2.0020 C.3   1 <1>   0.0160 
 23 C       -8.2070    -2.3780     1.1840 C.ar  1 <1>   0.3100 
 24 C       -7.2390    -0.2930     0.4170 C.ar  1 <1>  -0.1500 
 25 C       -7.1090    -4.3540     1.1510 C.ar  1 <1>   0.1600 
 26 N       -8.1980    -3.7120     1.4270 N.ar  1 <1>  -0.6200 
 27 C       -9.3830    -1.6680     1.4720 C.ar  1 <1>  -0.1500 
 28 C       -8.4010     0.3700     0.7060 C.ar  1 <1>  -0.1500 
 29 C       -9.4880    -0.3230     1.2430 C.ar  1 <1>  -0.1500 
 30 H       -1.7340    -0.2670     0.5260 H     1 <1>   0.3700 
 31 H       -3.1820     2.6780    -0.7910 H     1 <1>   0.0800 
 32 H       -2.2820     2.0060     0.5350 H     1 <1>   0.0800 
 33 H       -2.2110    -1.8280    -1.9540 H     1 <1>   0.0800 
 34 H       -1.1120     2.8730    -2.1250 H     1 <1>   0.0800 
 35 H       -0.2000     2.1410    -0.8430 H     1 <1>   0.0800 
 36 H       -3.5430    -3.3920    -0.8020 H     1 <1>   0.0800 
 37 H       -0.1020    -1.9980    -0.3010 H     1 <1>   0.0800 
 38 H       -0.9020    -3.4990    -0.7670 H     1 <1>   0.0800 
 39 H       -3.0360    -3.9260     1.3900 H     1 <1>   0.0800 
 40 H       -3.1260    -2.2500     1.9210 H     1 <1>   0.0800 
 41 H       -4.9080    -1.3320    -1.1480 H     1 <1>   0.0800 
 42 H       -4.5050    -0.8290     0.4650 H     1 <1>   0.0800 
 43 H       -2.9860     4.7570    -2.1740 H     1 <1>   0.0800 
 44 H       -1.5990     5.4880    -2.9580 H     1 <1>   0.0800 
 45 H       -2.7220     6.4800    -2.0580 H     1 <1>   0.0800 
 46 H        0.5090     2.5020     1.3720 H     1 <1>   0.0800 
 47 H        0.1390     3.5910     2.6810 H     1 <1>   0.0800 
 48 H        1.5850     3.8280     1.7220 H     1 <1>   0.0800 
 49 H       -5.1210    -4.4120     0.4490 H     1 <1>   0.1500 
 50 H        1.2430     6.4970     2.0060 H     1 <1>   0.0800 
 51 H       -0.2300     6.2370     2.9350 H     1 <1>   0.0800 
 52 H       -0.1090     7.6030     1.8410 H     1 <1>   0.0800 
 53 H       -6.4230     0.2640    -0.0040 H     1 <1>   0.1500 
 54 H       -7.0920    -5.4160     1.3310 H     1 <1>   0.1500 
 55 H      -10.2070    -2.2230     1.8800 H     1 <1>   0.1500 
 56 H       -8.4940     1.4270     0.5230 H     1 <1>   0.1500 
 57 H      -10.3970     0.2080     1.4680 H     1 <1>   0.1500 
@<TRIPOS>BOND
  1   1   2  2   
  2   2   3  am  
  3   2   4  1   
  4   3   5  1   
  5   3  30  1   
  6   4   6  1   
  7   4  31  1   
  8   4  32  1   
  9   5   7  1   
 10   5   8  1   
 11   5  33  1   
 12   6   9  1   
 13   6  34  1   
 14   6  35  1   
 15   7  10  1   
 16   7  11  1   
 17   7  36  1   
 18   8  12  1   
 19   8  37  1   
 20   8  38  1   
 21   9  13  1   
 22   9  14  2   
 23  10  12  1   
 24  10  39  1   
 25  10  40  1   
 26  11  15  1   
 27  11  41  1   
 28  11  42  1   
 29  13  16  2   
 30  13  17  1   
 31  14  18  1   
 32  14  19  1   
 33  15  20  ar  
 34  15  21  ar  
 35  16  18  1   
 36  17  43  1   
 37  17  44  1   
 38  17  45  1   
 39  18  22  1   
 40  19  46  1   
 41  19  47  1   
 42  19  48  1   
 43  20  23  ar  
 44  20  24  ar  
 45  21  25  ar  
 46  21  49  1   
 47  22  50  1   
 48  22  51  1   
 49  22  52  1   
 50  23  26  ar  
 51  23  27  ar  
 52  24  28  ar  
 53  24  53  1   
 54  25  26  ar  
 55  25  54  1   
 56  27  29  ar  
 57  27  55  1   
 58  28  29  ar  
 59  28  56  1   
 60  29  57  1   
@<TRIPOS>SUBSTRUCTURE
  1 ****   2 GROUP 4 **** **** 0

# MOE 2024.06 (io_trps.svl 2023.06)
