@<TRIPOS>MOLECULE
NONAME
55 58 1 0 0 
SMALL
USER_CHARGES


@<TRIPOS>ATOM
  1 O        2.1280     0.8550     2.2640 O.2   1 <1>  -0.5700 
  2 C        2.2280     0.3940     1.1420 C.2   1 <1>   0.7030 
  3 N        1.5990     1.0480     0.0930 N.am  1 <1>  -0.6600 
  4 C        3.0130    -0.8140     0.9770 C.2   1 <1>   0.2770 
  5 C        1.6550     0.5810    -1.3360 C.3   1 <1>   0.1400 
  6 C        1.1440     2.4600     0.2800 C.3   1 <1>   0.1400 
  7 N        2.5610    -2.0500     0.4930 N.pl3 1 <1>  -0.6290 
  8 C        4.3270    -0.9850     1.2890 C.2   1 <1>   0.1820 
  9 C        2.3890     1.5520    -2.2760 C.3   1 <1>   0.1400 
 10 C        2.3430     3.4270     0.3070 C.3   1 <1>  -0.1600 
 11 C        3.6190    -2.8790     0.4960 C.cat 1 <1>   0.9620 
 12 C        1.3310    -2.5170     0.1290 C.2   1 <1>   0.2290 
 13 N        4.6840    -2.2570     0.9740 N.pl3 1 <1>  -0.7000 
 14 C        5.3290    -0.0180     1.8920 C.3   1 <1>  -0.0720 
 15 N        3.4960     2.2560    -1.5720 N.am  1 <1>  -0.6600 
 16 C        3.1060     3.5810    -1.0190 C.3   1 <1>   0.1400 
 17 N        3.5880    -4.1520     0.1000 N.2   1 <1>  -0.6120 
 18 C        1.2530    -3.8120    -0.2690 C.2   1 <1>  -0.1360 
 19 C        4.6830     1.6030    -1.2770 C.2   1 <1>   0.7160 
 20 C        2.4250    -4.5910    -0.2710 C.2   1 <1>   0.3760 
 21 O        4.7550     0.4170    -1.5740 O.2   1 <1>  -0.5700 
 22 C        5.8220     2.2220    -0.6070 C.2   1 <1>   0.2030 
 23 N        5.8030     3.0730     0.4060 N.2   1 <1>  -0.7070 
 24 C        7.1480     1.9320    -0.9530 C.2   1 <1>  -0.1500 
 25 N        7.0880     3.3330     0.6850 N.pl3 1 <1>   0.3000 
 26 C        7.9250     2.6470    -0.1170 C.2   1 <1>  -0.3320 
 27 C        9.4390     2.7250    -0.0370 C.3   1 <1>   0.0200 
 28 C        9.9440     2.1170     1.2760 C.3   1 <1>  -0.1600 
 29 C       11.4740     2.1540     1.3610 C.3   1 <1>  -0.2400 
 30 H        0.6540     0.4330    -1.7000 H     1 <1>   0.0800 
 31 H        2.1610    -0.3620    -1.4070 H     1 <1>   0.0800 
 32 H        0.6120     2.5360     1.2140 H     1 <1>   0.0800 
 33 H        0.4600     2.7360    -0.5040 H     1 <1>   0.0800 
 34 H        1.6890     2.2700    -2.6670 H     1 <1>   0.0800 
 35 H        2.7840     1.0070    -3.1160 H     1 <1>   0.0800 
 36 H        3.0300     3.1300     1.0780 H     1 <1>   0.0800 
 37 H        1.9790     4.3990     0.5860 H     1 <1>   0.0800 
 38 H        0.4800    -1.8520     0.1720 H     1 <1>   0.1500 
 39 H        5.5920    -2.7150     1.0460 H     1 <1>   0.4500 
 40 H        4.8870     0.9530     2.0290 H     1 <1>   0.0800 
 41 H        6.1820     0.0820     1.2460 H     1 <1>   0.0800 
 42 H        5.6580    -0.3790     2.8500 H     1 <1>   0.0800 
 43 H        3.9750     4.1960    -0.8700 H     1 <1>   0.0800 
 44 H        2.4840     4.0930    -1.7330 H     1 <1>   0.0800 
 45 H        0.3260    -4.2610    -0.5790 H     1 <1>   0.1500 
 46 H        2.3450    -5.6140    -0.5980 H     1 <1>   0.0600 
 47 H        7.4450     1.2590    -1.7400 H     1 <1>   0.1500 
 48 H        7.3740     3.9810     1.4300 H     1 <1>   0.2700 
 49 H        9.7540     3.7510    -0.1160 H     1 <1>   0.0800 
 50 H        9.8630     2.1850    -0.8670 H     1 <1>   0.0800 
 51 H        9.6100     1.0960     1.3440 H     1 <1>   0.0800 
 52 H        9.5330     2.6580     2.1100 H     1 <1>   0.0800 
 53 H       11.9090     1.5940     0.5510 H     1 <1>   0.0800 
 54 H       11.8020     1.7190     2.2890 H     1 <1>   0.0800 
 55 H       11.8320     3.1670     1.3140 H     1 <1>   0.0800 
@<TRIPOS>BOND
  1   1   2  2   
  2   2   3  am  
  3   2   4  1   
  4   3   5  1   
  5   3   6  1   
  6   4   7  1   
  7   4   8  2   
  8   5   9  1   
  9   5  30  1   
 10   5  31  1   
 11   6  10  1   
 12   6  32  1   
 13   6  33  1   
 14   7  11  ar  
 15   7  12  1   
 16   8  13  1   
 17   8  14  1   
 18   9  15  1   
 19   9  34  1   
 20   9  35  1   
 21  10  16  1   
 22  10  36  1   
 23  10  37  1   
 24  11  13  ar  
 25  11  17  1   
 26  12  18  2   
 27  12  38  1   
 28  13  39  1   
 29  14  40  1   
 30  14  41  1   
 31  14  42  1   
 32  15  16  1   
 33  15  19  am  
 34  16  43  1   
 35  16  44  1   
 36  17  20  2   
 37  18  20  1   
 38  18  45  1   
 39  19  21  2   
 40  19  22  1   
 41  20  46  1   
 42  22  23  2   
 43  22  24  1   
 44  23  25  1   
 45  24  26  2   
 46  24  47  1   
 47  25  26  1   
 48  25  48  1   
 49  26  27  1   
 50  27  28  1   
 51  27  49  1   
 52  27  50  1   
 53  28  29  1   
 54  28  51  1   
 55  28  52  1   
 56  29  53  1   
 57  29  54  1   
 58  29  55  1   
@<TRIPOS>SUBSTRUCTURE
  1 ****  21 GROUP 4 **** **** 0

# MOE 2024.06 (io_trps.svl 2023.06)
