@<TRIPOS>MOLECULE
NONAME
53 56 1 0 0 
SMALL
USER_CHARGES


@<TRIPOS>ATOM
  1 O       -0.6670     0.5030     1.3980 O.2   1 <1>  -0.5700 
  2 C       -1.3510     0.8190     0.4350 C.2   1 <1>   0.7160 
  3 N       -1.9630    -0.2090    -0.2660 N.am  1 <1>  -0.6600 
  4 C       -1.4700     2.2390     0.0860 C.2   1 <1>   0.2030 
  5 C       -1.8470    -1.6350     0.1910 C.3   1 <1>   0.3640 
  6 C       -2.7930     0.0140    -1.4900 C.3   1 <1>   0.1400 
  7 N       -2.2510     2.8110    -0.8300 N.2   1 <1>  -0.7070 
  8 C       -0.7250     3.2450     0.7210 C.2   1 <1>  -0.1810 
  9 C       -0.6680    -2.3670    -0.4770 C.ar  1 <1>  -0.1430 
 10 C       -3.1930    -2.3990    -0.0130 C.3   1 <1>   0.2000 
 11 C       -3.2390    -1.3010    -2.1480 C.3   1 <1>   0.1200 
 12 N       -2.0020     4.1330    -0.7630 N.pl3 1 <1>   0.3000 
 13 C       -1.0780     4.3980     0.1720 C.2   1 <1>  -0.3320 
 14 C        0.3090     3.4200     1.7980 C.3   1 <1>   0.0210 
 15 C       -0.3470    -3.6430    -0.0270 C.ar  1 <1>  -0.1500 
 16 C        0.1050    -1.8150    -1.4950 C.ar  1 <1>  -0.1500 
 17 O       -3.8780    -2.1250    -1.2190 O.3   1 <1>  -0.5600 
 18 C       -4.1770    -2.0940     1.1250 C.3   1 <1>   0.1200 
 19 C       -0.3750     5.5970     0.7400 C.3   1 <1>   0.0200 
 20 C        0.6050     4.9420     1.7460 C.3   1 <1>  -0.1600 
 21 C        0.6900    -4.3670    -0.5890 C.ar  1 <1>   0.0830 
 22 C        1.1580    -2.5210    -2.0520 C.ar  1 <1>  -0.1500 
 23 O       -3.7640    -2.7180     2.2990 O.3   1 <1>  -0.6800 
 24 O        0.8970    -5.6230    -0.1200 O.3   1 <1>  -0.3630 
 25 C        1.4680    -3.7910    -1.5980 C.ar  1 <1>   0.0830 
 26 C        0.7170    -6.6780    -1.0400 C.3   1 <1>   0.0400 
 27 O        2.5330    -4.4150    -2.1570 O.3   1 <1>  -0.3630 
 28 C        3.6440    -4.6190    -1.3120 C.3   1 <1>   0.0400 
 29 H       -1.6400    -1.6460     1.2480 H     1 <1>   0.0800 
 30 H       -3.6670     0.5830    -1.2240 H     1 <1>   0.0800 
 31 H       -2.2280     0.5860    -2.2040 H     1 <1>   0.0800 
 32 H       -3.0090    -3.4560    -0.0140 H     1 <1>   0.0800 
 33 H       -2.4010    -1.8330    -2.5630 H     1 <1>   0.0800 
 34 H       -3.9370    -1.0980    -2.9400 H     1 <1>   0.0800 
 35 H       -2.4740     4.8230    -1.3600 H     1 <1>   0.2700 
 36 H       -0.1000     3.1310     2.7500 H     1 <1>   0.0800 
 37 H        1.1860     2.8360     1.5830 H     1 <1>   0.0800 
 38 H       -0.9040    -4.0980     0.7720 H     1 <1>   0.1500 
 39 H       -0.0930    -0.8250    -1.8650 H     1 <1>   0.1500 
 40 H       -5.1610    -2.4570     0.8830 H     1 <1>   0.0800 
 41 H       -4.2190    -1.0340     1.3080 H     1 <1>   0.0800 
 42 H        0.1530     6.1400    -0.0240 H     1 <1>   0.0800 
 43 H       -1.0750     6.2420     1.2430 H     1 <1>   0.0800 
 44 H        1.6150     5.0960     1.4110 H     1 <1>   0.0800 
 45 H        0.4940     5.3800     2.7220 H     1 <1>   0.0800 
 46 H        1.7510    -2.0850    -2.8350 H     1 <1>   0.1500 
 47 H       -3.9740    -3.6720     2.2780 H     1 <1>   0.4000 
 48 H        0.7660    -7.6060    -0.5000 H     1 <1>   0.0800 
 49 H        1.4950    -6.6450    -1.7800 H     1 <1>   0.0800 
 50 H       -0.2470    -6.5720    -1.5060 H     1 <1>   0.0800 
 51 H        4.4430    -5.0340    -1.9000 H     1 <1>   0.0800 
 52 H        3.3740    -5.3010    -0.5270 H     1 <1>   0.0800 
 53 H        3.9430    -3.6720    -0.8970 H     1 <1>   0.0800 
@<TRIPOS>BOND
  1   1   2  2   
  2   2   3  am  
  3   2   4  1   
  4   3   5  1   
  5   3   6  1   
  6   4   7  2   
  7   4   8  1   
  8   5   9  1   
  9   5  10  1   
 10   5  29  1   
 11   6  11  1   
 12   6  30  1   
 13   6  31  1   
 14   7  12  1   
 15   8  13  2   
 16   8  14  1   
 17   9  15  ar  
 18   9  16  ar  
 19  10  17  1   
 20  10  18  1   
 21  10  32  1   
 22  11  17  1   
 23  11  33  1   
 24  11  34  1   
 25  12  13  1   
 26  12  35  1   
 27  13  19  1   
 28  14  20  1   
 29  14  36  1   
 30  14  37  1   
 31  15  21  ar  
 32  15  38  1   
 33  16  22  ar  
 34  16  39  1   
 35  18  23  1   
 36  18  40  1   
 37  18  41  1   
 38  19  20  1   
 39  19  42  1   
 40  19  43  1   
 41  20  44  1   
 42  20  45  1   
 43  21  24  1   
 44  21  25  ar  
 45  22  25  ar  
 46  22  46  1   
 47  23  47  1   
 48  24  26  1   
 49  25  27  1   
 50  26  48  1   
 51  26  49  1   
 52  26  50  1   
 53  27  28  1   
 54  28  51  1   
 55  28  52  1   
 56  28  53  1   
@<TRIPOS>SUBSTRUCTURE
  1 ****   3 GROUP 4 **** **** 0

# MOE 2024.06 (io_trps.svl 2023.06)
