@<TRIPOS>MOLECULE
NONAME
54 57 1 0 0 
SMALL
USER_CHARGES


@<TRIPOS>ATOM
  1 O        0.6840    -0.0170    -1.9730 O.3   1 <1>  -0.5600 
  2 C        1.7770    -0.7720    -1.5040 C.3   1 <1>   0.2000 
  3 C        0.9410     1.3180    -2.2830 C.3   1 <1>   0.1200 
  4 C        2.5370    -0.0700    -0.3310 C.3   1 <1>   0.5660 
  5 C        1.1830    -2.1270    -1.0790 C.3   1 <1>   0.1200 
  6 C        1.3770     2.0570    -1.0130 C.3   1 <1>   0.3430 
  7 N        2.5990     1.4230    -0.4320 N.4   1 <1>  -0.9590 
  8 C        3.9890    -0.5330    -0.2370 C.ar  1 <1>  -0.1430 
  9 O        2.0610    -2.8420    -0.2760 O.3   1 <1>  -0.6800 
 10 C        3.0270     2.0530     0.8410 C.3   1 <1>   0.4870 
 11 C        4.4330    -1.1660     0.9160 C.ar  1 <1>  -0.1500 
 12 C        4.8860    -0.3230    -1.2790 C.ar  1 <1>  -0.1500 
 13 C        3.2790     3.5240     0.5850 C.ar  1 <1>  -0.1430 
 14 C        5.7490    -1.5740     1.0310 C.ar  1 <1>  -0.1500 
 15 C        6.2020    -0.7330    -1.1640 C.ar  1 <1>  -0.1500 
 16 C        4.2510     3.9160    -0.3370 C.ar  1 <1>   0.0830 
 17 C        2.5380     4.4790     1.2670 C.ar  1 <1>  -0.1500 
 18 C        6.6350    -1.3570    -0.0080 C.ar  1 <1>  -0.1500 
 19 O        4.9410     2.9380    -0.9810 O.3   1 <1>  -0.3630 
 20 C        4.4750     5.2700    -0.5760 C.ar  1 <1>  -0.1500 
 21 C        2.7730     5.8170     1.0170 C.ar  1 <1>  -0.1430 
 22 C        6.1980     3.2160    -1.5660 C.3   1 <1>   0.0400 
 23 C        3.7260     6.2060     0.1100 C.ar  1 <1>  -0.1430 
 24 C        2.0920     7.0110     1.6410 C.3   1 <1>  -0.0170 
 25 C        3.8050     7.7090     0.0070 C.3   1 <1>  -0.0170 
 26 C        2.9760     8.1930     1.2090 C.3   1 <1>  -0.1600 
 27 H        2.4400    -0.9260    -2.3360 H     1 <1>   0.0800 
 28 H        1.6950     1.3670    -3.0500 H     1 <1>   0.0800 
 29 H        0.0300     1.7450    -2.6660 H     1 <1>   0.0800 
 30 H        2.0290    -0.3410     0.5800 H     1 <1>   0.0800 
 31 H        0.9360    -2.7270    -1.9390 H     1 <1>   0.0800 
 32 H        0.2910    -1.9640    -0.4970 H     1 <1>   0.0800 
 33 H        0.5690     2.0280    -0.3010 H     1 <1>   0.0800 
 34 H        1.5780     3.0900    -1.2510 H     1 <1>   0.0800 
 35 H        3.3920     1.6370    -1.0560 H     1 <1>   0.4500 
 36 H        2.6700    -3.3960    -0.8100 H     1 <1>   0.4000 
 37 H        2.2680     1.9300     1.5960 H     1 <1>   0.0800 
 38 H        3.9410     1.5980     1.1900 H     1 <1>   0.0800 
 39 H        3.7580    -1.3580     1.7340 H     1 <1>   0.1500 
 40 H        4.5810     0.1600    -2.1920 H     1 <1>   0.1500 
 41 H        6.0870    -2.0660     1.9280 H     1 <1>   0.1500 
 42 H        6.8950    -0.5720    -1.9720 H     1 <1>   0.1500 
 43 H        1.7880     4.2040     1.9880 H     1 <1>   0.1500 
 44 H        7.6600    -1.6760     0.0830 H     1 <1>   0.1500 
 45 H        5.2100     5.6110    -1.2810 H     1 <1>   0.1500 
 46 H        6.6520     2.2850    -1.8520 H     1 <1>   0.0800 
 47 H        6.8190     3.7140    -0.8410 H     1 <1>   0.0800 
 48 H        6.0550     3.8340    -2.4350 H     1 <1>   0.0800 
 49 H        1.1000     7.1130     1.2380 H     1 <1>   0.0800 
 50 H        2.0450     6.9280     2.7130 H     1 <1>   0.0800 
 51 H        4.8210     8.0590     0.0640 H     1 <1>   0.0800 
 52 H        3.3590     8.0310    -0.9170 H     1 <1>   0.0800 
 53 H        3.6460     8.4380     2.0150 H     1 <1>   0.0800 
 54 H        2.3910     9.0630     0.9660 H     1 <1>   0.0800 
@<TRIPOS>BOND
  1   1   2  1   
  2   1   3  1   
  3   2   4  1   
  4   2   5  1   
  5   2  27  1   
  6   3   6  1   
  7   3  28  1   
  8   3  29  1   
  9   4   7  1   
 10   4   8  1   
 11   4  30  1   
 12   5   9  1   
 13   5  31  1   
 14   5  32  1   
 15   6   7  1   
 16   6  33  1   
 17   6  34  1   
 18   7  10  1   
 19   7  35  1   
 20   8  11  ar  
 21   8  12  ar  
 22   9  36  1   
 23  10  13  1   
 24  10  37  1   
 25  10  38  1   
 26  11  14  ar  
 27  11  39  1   
 28  12  15  ar  
 29  12  40  1   
 30  13  16  ar  
 31  13  17  ar  
 32  14  18  ar  
 33  14  41  1   
 34  15  18  ar  
 35  15  42  1   
 36  16  19  1   
 37  16  20  ar  
 38  17  21  ar  
 39  17  43  1   
 40  18  44  1   
 41  19  22  1   
 42  20  23  ar  
 43  20  45  1   
 44  21  23  ar  
 45  21  24  1   
 46  22  46  1   
 47  22  47  1   
 48  22  48  1   
 49  23  25  1   
 50  24  26  1   
 51  24  49  1   
 52  24  50  1   
 53  25  26  1   
 54  25  51  1   
 55  25  52  1   
 56  26  53  1   
 57  26  54  1   
@<TRIPOS>SUBSTRUCTURE
  1 ****   7 GROUP 4 **** **** 0

# MOE 2024.06 (io_trps.svl 2023.06)
