@<TRIPOS>MOLECULE
NONAME
45 47 1 0 0 
SMALL
USER_CHARGES


@<TRIPOS>ATOM
  1 S        0.0050     0.1040    -1.0030 S.o2  1 <1>   1.3330 
  2 O        1.0280     0.0690    -2.0230 O.2   1 <1>  -0.6500 
  3 O       -1.0110    -0.9230    -0.9710 O.2   1 <1>  -0.6500 
  4 N        0.7750     0.1040     0.5120 N.am  1 <1>  -0.8490 
  5 C       -0.7860     1.7130    -1.0770 C.3   1 <1>  -0.0550 
  6 C       -0.1200    -0.2350     1.6230 C.3   1 <1>   0.1160 
  7 C        1.9530    -0.7680     0.5380 C.3   1 <1>   0.1160 
  8 C        0.1960     2.9030    -1.1600 C.3   1 <1>  -0.0800 
  9 C       -0.4770     4.2490    -1.4380 C.3   1 <1>   0.2000 
 10 C        1.0170     3.1510     0.1130 C.3   1 <1>   0.1400 
 11 O       -1.5880     4.3780    -0.6180 O.3   1 <1>  -0.6800 
 12 C        0.5650     5.2720    -0.9930 C.3   1 <1>   0.1400 
 13 N        1.2540     4.6180     0.1500 N.am  1 <1>  -0.6600 
 14 C        1.9940     5.2370     1.1430 C.2   1 <1>   0.5440 
 15 O        2.2950     4.5460     2.1020 O.2   1 <1>  -0.5700 
 16 C        2.4130     6.6440     1.1090 C.ar  1 <1>   0.3960 
 17 N        2.4360     7.3440    -0.0090 N.ar  1 <1>  -0.6200 
 18 C        2.8080     7.2400     2.3400 C.ar  1 <1>   0.1600 
 19 C        2.8520     8.6270     0.1120 C.ar  1 <1>   0.3100 
 20 N        3.2050     8.4650     2.5000 N.ar  1 <1>  -0.6200 
 21 C        3.2330     9.1890     1.3550 C.ar  1 <1>   0.3100 
 22 C        2.9090     9.4360    -1.0350 C.ar  1 <1>  -0.1500 
 23 C        3.6500    10.5280     1.3950 C.ar  1 <1>  -0.1500 
 24 C        3.3190    10.7430    -0.9690 C.ar  1 <1>  -0.1500 
 25 C        3.6940    11.2950     0.2600 C.ar  1 <1>  -0.1500 
 26 H       -1.4080     1.7370    -1.9510 H     1 <1>   0.0800 
 27 H       -1.4300     1.8330    -0.2290 H     1 <1>   0.0800 
 28 H        0.3980    -0.1250     2.5610 H     1 <1>   0.0800 
 29 H       -0.4680    -1.2510     1.5310 H     1 <1>   0.0800 
 30 H       -0.9730     0.4220     1.6280 H     1 <1>   0.0800 
 31 H        2.4260    -0.7280     1.5040 H     1 <1>   0.0800 
 32 H        2.6690    -0.4440    -0.2000 H     1 <1>   0.0800 
 33 H        1.6710    -1.7850     0.3210 H     1 <1>   0.0800 
 34 H        0.8920     2.7180    -1.9600 H     1 <1>   0.0800 
 35 H       -0.7860     4.3740    -2.4620 H     1 <1>   0.0800 
 36 H        1.9520     2.6170     0.0910 H     1 <1>   0.0800 
 37 H        0.4680     2.8630     0.9940 H     1 <1>   0.0800 
 38 H       -1.2790     4.4820     0.3060 H     1 <1>   0.4000 
 39 H        0.1110     6.2070    -0.7130 H     1 <1>   0.0800 
 40 H        1.2800     5.4390    -1.7800 H     1 <1>   0.0800 
 41 H        2.7710     6.6160     3.2170 H     1 <1>   0.1500 
 42 H        2.6190     8.9970    -1.9720 H     1 <1>   0.1500 
 43 H        3.9350    10.9340     2.3490 H     1 <1>   0.1500 
 44 H        3.3590    11.3550    -1.8540 H     1 <1>   0.1500 
 45 H        4.0150    12.3220     0.3000 H     1 <1>   0.1500 
@<TRIPOS>BOND
  1   1   2  2   
  2   1   3  2   
  3   1   4  am  
  4   1   5  1   
  5   4   6  1   
  6   4   7  1   
  7   5   8  1   
  8   5  26  1   
  9   5  27  1   
 10   6  28  1   
 11   6  29  1   
 12   6  30  1   
 13   7  31  1   
 14   7  32  1   
 15   7  33  1   
 16   8   9  1   
 17   8  10  1   
 18   8  34  1   
 19   9  11  1   
 20   9  12  1   
 21   9  35  1   
 22  10  13  1   
 23  10  36  1   
 24  10  37  1   
 25  11  38  1   
 26  12  13  1   
 27  12  39  1   
 28  12  40  1   
 29  13  14  am  
 30  14  15  2   
 31  14  16  1   
 32  16  17  ar  
 33  16  18  ar  
 34  17  19  ar  
 35  18  20  ar  
 36  18  41  1   
 37  19  21  ar  
 38  19  22  ar  
 39  20  21  ar  
 40  21  23  ar  
 41  22  24  ar  
 42  22  42  1   
 43  23  25  ar  
 44  23  43  1   
 45  24  25  ar  
 46  24  44  1   
 47  25  45  1   
@<TRIPOS>SUBSTRUCTURE
  1 ****  13 GROUP 4 **** **** 0

# MOE 2024.06 (io_trps.svl 2023.06)
