@<TRIPOS>MOLECULE
NONAME
57 59 1 0 0 
SMALL
USER_CHARGES


@<TRIPOS>ATOM
  1 O        0.2610     0.0460     0.0370 O.2   1 <1>  -0.5700 
  2 C        1.1120    -0.8080     0.0390 C.2   1 <1>   0.6300 
  3 N        0.8800    -2.1310     0.2870 N.am  1 <1>  -0.5470 
  4 C        2.5530    -0.4000    -0.2290 C.3   1 <1>  -0.1000 
  5 C       -0.3030    -2.8350     0.5530 C.ar  1 <1>   0.1170 
  6 C        2.9470     0.1640    -1.5630 C.3   1 <1>  -0.2000 
  7 C        3.4470    -1.1850    -1.1510 C.3   1 <1>  -0.2000 
  8 C       -1.5660    -2.3530     0.2280 C.ar  1 <1>  -0.1500 
  9 C       -0.2120    -4.0850     1.1530 C.ar  1 <1>  -0.1500 
 10 C       -2.7020    -3.0940     0.5010 C.ar  1 <1>  -0.1500 
 11 C       -1.3460    -4.8280     1.4280 C.ar  1 <1>  -0.1500 
 12 C       -2.6020    -4.3380     1.1060 C.ar  1 <1>  -0.1430 
 13 C       -3.8550    -5.1520     1.4290 C.3   1 <1>   0.0440 
 14 C       -4.0440    -6.4390     0.6250 C.2   1 <1>   0.5690 
 15 O       -3.1560    -6.8070    -0.1070 O.2   1 <1>  -0.5700 
 16 N       -5.2050    -7.1720     0.7480 N.am  1 <1>  -0.6600 
 17 C       -5.4310    -8.3830    -0.1090 C.3   1 <1>   0.1400 
 18 C       -6.3090    -6.8780     1.7070 C.3   1 <1>   0.1400 
 19 C       -6.7860    -8.2980    -0.8350 C.3   1 <1>   0.2000 
 20 C       -7.6330    -6.7530     0.9440 C.3   1 <1>  -0.1600 
 21 O       -6.9870    -9.4670    -1.5650 O.3   1 <1>  -0.6800 
 22 C       -7.9840    -8.0230     0.1210 C.3   1 <1>   0.0000 
 23 C       -8.1860    -9.2430     1.0650 C.3   1 <1>   0.1200 
 24 C       -9.3070    -7.8020    -0.6710 C.3   1 <1>  -0.1600 
 25 O       -9.1820    -9.0120     2.0040 O.3   1 <1>  -0.6800 
 26 C       -9.2960    -6.7100    -1.7580 C.3   1 <1>  -0.1600 
 27 C      -10.6730    -6.5900    -2.4170 C.3   1 <1>  -0.2400 
 28 H        1.7220    -2.7010     0.2960 H     1 <1>   0.3700 
 29 H        2.9940     0.0600     0.6360 H     1 <1>   0.1000 
 30 H        2.1900     0.2340    -2.3270 H     1 <1>   0.1000 
 31 H        3.6310     0.9950    -1.5850 H     1 <1>   0.1000 
 32 H        4.4880    -1.2910    -0.8990 H     1 <1>   0.1000 
 33 H        3.0610    -2.0400    -1.6800 H     1 <1>   0.1000 
 34 H       -1.6710    -1.3950    -0.2460 H     1 <1>   0.1500 
 35 H        0.7500    -4.4860     1.4100 H     1 <1>   0.1500 
 36 H       -3.6630    -2.6920     0.2350 H     1 <1>   0.1500 
 37 H       -1.2500    -5.7970     1.8860 H     1 <1>   0.1500 
 38 H       -4.7150    -4.5300     1.2680 H     1 <1>   0.0800 
 39 H       -3.8250    -5.4110     2.4700 H     1 <1>   0.0800 
 40 H       -4.6570    -8.4660    -0.8530 H     1 <1>   0.0800 
 41 H       -5.3880    -9.2590     0.5130 H     1 <1>   0.0800 
 42 H       -6.3630    -7.6710     2.4330 H     1 <1>   0.0800 
 43 H       -6.1290    -5.9660     2.2450 H     1 <1>   0.0800 
 44 H       -6.7040    -7.5010    -1.5520 H     1 <1>   0.0800 
 45 H       -8.4230    -6.5250     1.6360 H     1 <1>   0.0800 
 46 H       -7.5420    -5.9060     0.2900 H     1 <1>   0.0800 
 47 H       -7.0690   -10.2420    -0.9800 H     1 <1>   0.4000 
 48 H       -7.2890    -9.4880     1.6030 H     1 <1>   0.0800 
 49 H       -8.4860   -10.1090     0.5000 H     1 <1>   0.0800 
 50 H       -9.5790    -8.7310    -1.1430 H     1 <1>   0.0800 
 51 H      -10.0940    -7.5700     0.0260 H     1 <1>   0.0800 
 52 H       -9.0140    -8.1900     2.5010 H     1 <1>   0.4000 
 53 H       -9.0360    -5.7550    -1.3390 H     1 <1>   0.0800 
 54 H       -8.5780    -6.9540    -2.5220 H     1 <1>   0.0800 
 55 H      -11.4190    -6.3240    -1.6880 H     1 <1>   0.0800 
 56 H      -10.9530    -7.5230    -2.8740 H     1 <1>   0.0800 
 57 H      -10.6520    -5.8310    -3.1780 H     1 <1>   0.0800 
@<TRIPOS>BOND
  1   1   2  2   
  2   2   3  am  
  3   2   4  1   
  4   3   5  1   
  5   3  28  1   
  6   4   6  1   
  7   4   7  1   
  8   4  29  1   
  9   5   8  ar  
 10   5   9  ar  
 11   6   7  1   
 12   6  30  1   
 13   6  31  1   
 14   7  32  1   
 15   7  33  1   
 16   8  10  ar  
 17   8  34  1   
 18   9  11  ar  
 19   9  35  1   
 20  10  12  ar  
 21  10  36  1   
 22  11  12  ar  
 23  11  37  1   
 24  12  13  1   
 25  13  14  1   
 26  13  38  1   
 27  13  39  1   
 28  14  15  2   
 29  14  16  am  
 30  16  17  1   
 31  16  18  1   
 32  17  19  1   
 33  17  40  1   
 34  17  41  1   
 35  18  20  1   
 36  18  42  1   
 37  18  43  1   
 38  19  21  1   
 39  19  22  1   
 40  19  44  1   
 41  20  22  1   
 42  20  45  1   
 43  20  46  1   
 44  21  47  1   
 45  22  23  1   
 46  22  24  1   
 47  23  25  1   
 48  23  48  1   
 49  23  49  1   
 50  24  26  1   
 51  24  50  1   
 52  24  51  1   
 53  25  52  1   
 54  26  27  1   
 55  26  53  1   
 56  26  54  1   
 57  27  55  1   
 58  27  56  1   
 59  27  57  1   
@<TRIPOS>SUBSTRUCTURE
  1 ****  13 GROUP 4 **** **** 0

# MOE 2024.06 (io_trps.svl 2023.06)
