@<TRIPOS>MOLECULE
NONAME
56 60 1 0 0 
SMALL
USER_CHARGES


@<TRIPOS>ATOM
  1 N        0.5220     0.1790     0.3450 N.ar  1 <1>  -0.6200 
  2 C       -0.4540     1.0070     0.7550 C.ar  1 <1>   0.6200 
  3 C        1.3080     0.6550    -0.5870 C.ar  1 <1>   0.1660 
  4 N       -0.6430     2.2530     0.3000 N.ar  1 <1>  -0.6200 
  5 C       -1.3750     0.5140     1.7700 C.ar  1 <1>   0.0000 
  6 C        1.1900     1.9060    -1.1050 C.ar  1 <1>  -0.1430 
  7 C        2.4560    -0.1050    -1.2080 C.3   1 <1>   0.1440 
  8 C        0.1770     2.6960    -0.6250 C.ar  1 <1>   0.1600 
  9 C       -0.9760    -0.4090     2.7410 C.ar  1 <1>  -0.1500 
 10 C       -2.7040     0.9440     1.8180 C.ar  1 <1>  -0.1500 
 11 C        2.2460     2.1820    -2.1460 C.3   1 <1>  -0.0160 
 12 C        3.2680    -0.7720    -0.0840 C.3   1 <1>   0.3430 
 13 C        1.9180    -1.1710    -2.1840 C.3   1 <1>  -0.1600 
 14 C        3.2370     1.0170    -1.9450 C.3   1 <1>  -0.1600 
 15 C       -1.8530    -0.8790     3.7030 C.ar  1 <1>  -0.1500 
 16 C       -3.5860     0.4790     2.7760 C.ar  1 <1>  -0.1500 
 17 N        4.3680    -1.6580    -0.6200 N.4   1 <1>  -0.9590 
 18 C        3.0220    -2.1390    -2.6460 C.3   1 <1>  -0.1600 
 19 C       -3.1620    -0.4350     3.7230 C.ar  1 <1>  -0.1500 
 20 C        3.7830    -2.7450    -1.4630 C.3   1 <1>   0.3430 
 21 C        5.1940    -2.2520     0.4740 C.3   1 <1>   0.3430 
 22 C        5.9980    -1.1940     1.2380 C.3   1 <1>  -0.1600 
 23 C        7.0270    -0.4530     0.3690 C.3   1 <1>   0.0960 
 24 N        7.7100     0.5740     1.1740 N.pl3 1 <1>   0.0480 
 25 C        8.8990     0.4780     1.8100 C.2   1 <1>   0.0360 
 26 C        7.2720     1.8150     1.4540 C.2   1 <1>  -0.3020 
 27 N        9.2340     1.5440     2.4590 N.2   1 <1>  -0.5650 
 28 C        8.2120     2.3900     2.2350 C.2   1 <1>   0.0770 
 29 H        0.0350     3.6960    -1.0000 H     1 <1>   0.1500 
 30 H        0.0380    -0.7650     2.7450 H     1 <1>   0.1500 
 31 H       -3.0540     1.6550     1.0900 H     1 <1>   0.1500 
 32 H        2.7150     3.1390    -1.9950 H     1 <1>   0.0800 
 33 H        1.8020     2.1440    -3.1270 H     1 <1>   0.0800 
 34 H        2.5930    -1.3610     0.5160 H     1 <1>   0.0800 
 35 H        3.6770     0.0000     0.5460 H     1 <1>   0.0800 
 36 H        1.4580    -0.6990    -3.0360 H     1 <1>   0.0800 
 37 H        1.1480    -1.7400    -1.6870 H     1 <1>   0.0800 
 38 H        3.6510     0.6990    -2.8850 H     1 <1>   0.0800 
 39 H        4.0380     1.3730    -1.3200 H     1 <1>   0.0800 
 40 H       -1.5180    -1.5890     4.4380 H     1 <1>   0.1500 
 41 H       -4.6040     0.8300     2.7860 H     1 <1>   0.1500 
 42 H        4.9640    -1.0910    -1.2340 H     1 <1>   0.4500 
 43 H        3.7130    -1.6390    -3.3010 H     1 <1>   0.0800 
 44 H        2.5720    -2.9360    -3.2120 H     1 <1>   0.0800 
 45 H       -3.8460    -0.7980     4.4700 H     1 <1>   0.1500 
 46 H        3.1060    -3.3420    -0.8720 H     1 <1>   0.0800 
 47 H        4.5650    -3.3900    -1.8350 H     1 <1>   0.0800 
 48 H        5.8790    -2.9730     0.0570 H     1 <1>   0.0800 
 49 H        4.5510    -2.7740     1.1660 H     1 <1>   0.0800 
 50 H        6.5300    -1.6990     2.0260 H     1 <1>   0.0800 
 51 H        5.3350    -0.4920     1.7110 H     1 <1>   0.0800 
 52 H        6.5520     0.0400    -0.4590 H     1 <1>   0.0800 
 53 H        7.7650    -1.1370    -0.0120 H     1 <1>   0.0800 
 54 H        9.5030    -0.4120     1.7740 H     1 <1>   0.1500 
 55 H        6.3450     2.2250     1.0990 H     1 <1>   0.1500 
 56 H        8.2090     3.3820     2.6570 H     1 <1>   0.1500 
@<TRIPOS>BOND
  1   1   2  ar  
  2   1   3  ar  
  3   2   4  ar  
  4   2   5  1   
  5   3   6  ar  
  6   3   7  1   
  7   4   8  ar  
  8   5   9  ar  
  9   5  10  ar  
 10   6   8  ar  
 11   6  11  1   
 12   7  12  1   
 13   7  13  1   
 14   7  14  1   
 15   8  29  1   
 16   9  15  ar  
 17   9  30  1   
 18  10  16  ar  
 19  10  31  1   
 20  11  14  1   
 21  11  32  1   
 22  11  33  1   
 23  12  17  1   
 24  12  34  1   
 25  12  35  1   
 26  13  18  1   
 27  13  36  1   
 28  13  37  1   
 29  14  38  1   
 30  14  39  1   
 31  15  19  ar  
 32  15  40  1   
 33  16  19  ar  
 34  16  41  1   
 35  17  20  1   
 36  17  21  1   
 37  17  42  1   
 38  18  20  1   
 39  18  43  1   
 40  18  44  1   
 41  19  45  1   
 42  20  46  1   
 43  20  47  1   
 44  21  22  1   
 45  21  48  1   
 46  21  49  1   
 47  22  23  1   
 48  22  50  1   
 49  22  51  1   
 50  23  24  1   
 51  23  52  1   
 52  23  53  1   
 53  24  25  1   
 54  24  26  1   
 55  25  27  2   
 56  25  54  1   
 57  26  28  2   
 58  26  55  1   
 59  27  28  1   
 60  28  56  1   
@<TRIPOS>SUBSTRUCTURE
  1 ****  12 GROUP 4 **** **** 0

# MOE 2024.06 (io_trps.svl 2023.06)
