@<TRIPOS>MOLECULE
NONAME
46 48 1 0 0 
SMALL
USER_CHARGES


@<TRIPOS>ATOM
  1 O       -1.0840    -0.2770     0.5440 O.2   1 <1>  -0.5700 
  2 C       -2.0420     0.3830     0.1850 C.2   1 <1>   0.5440 
  3 N       -1.9320     1.7630     0.1820 N.am  1 <1>  -0.6600 
  4 C       -3.2530    -0.2980    -0.2110 C.ar  1 <1>   0.0860 
  5 C       -3.0990     2.6840     0.2630 C.3   1 <1>   0.0600 
  6 C       -0.6090     2.4320     0.3190 C.3   1 <1>   0.0600 
  7 C       -3.7210    -1.3840     0.5250 C.ar  1 <1>   0.1600 
  8 C       -3.9980     0.0660    -1.3280 C.ar  1 <1>  -0.1500 
  9 N       -4.8190    -2.0790     0.2780 N.ar  1 <1>  -0.6200 
 10 C       -5.1380    -0.6480    -1.6050 C.ar  1 <1>  -0.1500 
 11 C       -5.5240    -1.7060    -0.7860 C.ar  1 <1>   0.4100 
 12 N       -6.6750    -2.4070    -1.0640 N.pl3 1 <1>  -0.8380 
 13 C       -7.9920    -1.7000    -1.0140 C.3   1 <1>   0.2090 
 14 C       -6.7770    -3.8560    -0.6920 C.3   1 <1>   0.2090 
 15 C       -8.7040    -1.8960     0.3400 C.3   1 <1>   0.2090 
 16 C       -7.5130    -4.0690     0.6490 C.3   1 <1>   0.2090 
 17 N       -8.8240    -3.3410     0.7080 N.pl3 1 <1>  -0.8380 
 18 C      -10.0390    -3.9910     0.5240 C.ar  1 <1>   0.1000 
 19 C      -11.1390    -3.6140     1.2830 C.ar  1 <1>  -0.1500 
 20 C      -10.2020    -5.0130    -0.4050 C.ar  1 <1>  -0.1500 
 21 C      -12.3640    -4.2330     1.1210 C.ar  1 <1>  -0.1500 
 22 C      -11.4260    -5.6350    -0.5680 C.ar  1 <1>  -0.1500 
 23 C      -12.5290    -5.2550     0.1910 C.ar  1 <1>   0.0730 
 24 C      -13.7980    -5.8990     0.0190 C.1   1 <1>   0.4840 
 25 N      -14.8080    -6.4110    -0.1200 N.1   1 <1>  -0.5570 
 26 H       -4.0000     2.1430     0.4950 H     1 <1>   0.0800 
 27 H       -3.2240     3.1940    -0.6760 H     1 <1>   0.0800 
 28 H       -2.9350     3.4110     1.0390 H     1 <1>   0.0800 
 29 H        0.1860     1.7540     0.0580 H     1 <1>   0.0800 
 30 H       -0.4690     2.7520     1.3370 H     1 <1>   0.0800 
 31 H       -0.5580     3.2840    -0.3350 H     1 <1>   0.0800 
 32 H       -3.1380    -1.6890     1.3780 H     1 <1>   0.1500 
 33 H       -3.6770     0.8790    -1.9550 H     1 <1>   0.1500 
 34 H       -5.7430    -0.4140    -2.4600 H     1 <1>   0.1500 
 35 H       -8.6240    -2.0810    -1.7970 H     1 <1>   0.0800 
 36 H       -7.8520    -0.6480    -1.1850 H     1 <1>   0.0800 
 37 H       -5.7930    -4.2860    -0.6270 H     1 <1>   0.0800 
 38 H       -7.3040    -4.3750    -1.4700 H     1 <1>   0.0800 
 39 H       -9.6810    -1.4500     0.2940 H     1 <1>   0.0800 
 40 H       -8.1430    -1.3890     1.1050 H     1 <1>   0.0800 
 41 H       -6.8830    -3.7090     1.4430 H     1 <1>   0.0800 
 42 H       -7.6720    -5.1200     0.8110 H     1 <1>   0.0800 
 43 H      -11.0180    -2.8320     2.0100 H     1 <1>   0.1500 
 44 H       -9.3690    -5.3180    -1.0070 H     1 <1>   0.1500 
 45 H      -13.2000    -3.9220     1.7240 H     1 <1>   0.1500 
 46 H      -11.5280    -6.4230    -1.2940 H     1 <1>   0.1500 
@<TRIPOS>BOND
  1   1   2  2   
  2   2   3  am  
  3   2   4  1   
  4   3   5  1   
  5   3   6  1   
  6   4   7  ar  
  7   4   8  ar  
  8   5  26  1   
  9   5  27  1   
 10   5  28  1   
 11   6  29  1   
 12   6  30  1   
 13   6  31  1   
 14   7   9  ar  
 15   7  32  1   
 16   8  10  ar  
 17   8  33  1   
 18   9  11  ar  
 19  10  11  ar  
 20  10  34  1   
 21  11  12  1   
 22  12  13  1   
 23  12  14  1   
 24  13  15  1   
 25  13  35  1   
 26  13  36  1   
 27  14  16  1   
 28  14  37  1   
 29  14  38  1   
 30  15  17  1   
 31  15  39  1   
 32  15  40  1   
 33  16  17  1   
 34  16  41  1   
 35  16  42  1   
 36  17  18  1   
 37  18  19  ar  
 38  18  20  ar  
 39  19  21  ar  
 40  19  43  1   
 41  20  22  ar  
 42  20  44  1   
 43  21  23  ar  
 44  21  45  1   
 45  22  23  ar  
 46  22  46  1   
 47  23  24  1   
 48  24  25  3   
@<TRIPOS>SUBSTRUCTURE
  1 ****  12 GROUP 4 **** **** 0

# MOE 2024.06 (io_trps.svl 2023.06)
