@<TRIPOS>MOLECULE
NONAME
46 47 1 0 0 
SMALL
USER_CHARGES


@<TRIPOS>ATOM
  1 S        0.4160     1.6820    -1.3510 S.o2  1 <1>   1.3330 
  2 O        0.1080     0.8230    -2.4650 O.2   1 <1>  -0.6500 
  3 O        0.7050     3.0860    -1.5530 O.2   1 <1>  -0.6500 
  4 N        1.7820     1.0450    -0.5700 N.am  1 <1>  -0.8490 
  5 C       -0.8820     1.5640    -0.1040 C.3   1 <1>  -0.0550 
  6 C        1.7240    -0.4210    -0.4210 C.3   1 <1>   0.1160 
  7 C        3.0110     1.3560    -1.3190 C.3   1 <1>   0.1160 
  8 C       -0.8340     2.5670     1.0810 C.3   1 <1>  -0.0800 
  9 C       -1.3200     3.9700     0.6750 C.3   1 <1>   0.2000 
 10 C        0.5610     2.8010     1.6760 C.3   1 <1>   0.3430 
 11 O       -2.3360     4.3700     1.5310 O.3   1 <1>  -0.6800 
 12 C       -0.1170     4.9140     0.8010 C.3   1 <1>   0.3430 
 13 N        1.0590     4.0220     1.0060 N.4   1 <1>  -0.9590 
 14 C        2.2440     4.6720     1.6190 C.3   1 <1>   0.4860 
 15 C        2.6120     5.8890     0.7890 C.ar  1 <1>  -0.1440 
 16 C        2.5950     7.1510     1.3640 C.ar  1 <1>  -0.1500 
 17 C        2.9560     5.7570    -0.5540 C.ar  1 <1>  -0.1500 
 18 C        2.9160     8.2430     0.5820 C.ar  1 <1>   0.1900 
 19 C        3.2720     6.8660    -1.3260 C.ar  1 <1>  -0.1440 
 20 F        2.8940     9.4280     1.1260 F     1 <1>  -0.1900 
 21 C        3.2530     8.1260    -0.7520 C.ar  1 <1>  -0.1500 
 22 C        3.6370     6.6950    -2.7910 C.3   1 <1>  -0.0970 
 23 H       -1.8310     1.6810    -0.5950 H     1 <1>   0.0800 
 24 H       -0.8820     0.5690     0.2940 H     1 <1>   0.0800 
 25 H        2.6010    -0.7780     0.0930 H     1 <1>   0.0800 
 26 H        1.6740    -0.9000    -1.3870 H     1 <1>   0.0800 
 27 H        0.8620    -0.7160     0.1500 H     1 <1>   0.0800 
 28 H        3.8730     0.9560    -0.8110 H     1 <1>   0.0800 
 29 H        3.1400     2.4210    -1.4090 H     1 <1>   0.0800 
 30 H        2.9640     0.9340    -2.3100 H     1 <1>   0.0800 
 31 H       -1.4710     2.1640     1.8500 H     1 <1>   0.0800 
 32 H       -1.7140     3.9980    -0.3290 H     1 <1>   0.0800 
 33 H        1.2190     1.9600     1.5230 H     1 <1>   0.0800 
 34 H        0.4690     2.9840     2.7340 H     1 <1>   0.0800 
 35 H       -2.1030     4.2980     2.4770 H     1 <1>   0.4000 
 36 H       -0.2490     5.5670     1.6470 H     1 <1>   0.0800 
 37 H        0.0070     5.5010    -0.0950 H     1 <1>   0.0800 
 38 H        1.3370     3.7530     0.0390 H     1 <1>   0.4500 
 39 H        2.0220     4.9740     2.6290 H     1 <1>   0.0800 
 40 H        3.0750     3.9860     1.6380 H     1 <1>   0.0800 
 41 H        2.3420     7.3090     2.3980 H     1 <1>   0.1500 
 42 H        2.9800     4.7870    -1.0200 H     1 <1>   0.1500 
 43 H        3.4960     9.0070    -1.3190 H     1 <1>   0.1500 
 44 H        3.0060     5.9550    -3.2510 H     1 <1>   0.0800 
 45 H        4.6620     6.3820    -2.8790 H     1 <1>   0.0800 
 46 H        3.5130     7.6210    -3.3250 H     1 <1>   0.0800 
@<TRIPOS>BOND
  1   1   2  2   
  2   1   3  2   
  3   1   4  am  
  4   1   5  1   
  5   4   6  1   
  6   4   7  1   
  7   5   8  1   
  8   5  23  1   
  9   5  24  1   
 10   6  25  1   
 11   6  26  1   
 12   6  27  1   
 13   7  28  1   
 14   7  29  1   
 15   7  30  1   
 16   8   9  1   
 17   8  10  1   
 18   8  31  1   
 19   9  11  1   
 20   9  12  1   
 21   9  32  1   
 22  10  13  1   
 23  10  33  1   
 24  10  34  1   
 25  11  35  1   
 26  12  13  1   
 27  12  36  1   
 28  12  37  1   
 29  13  14  1   
 30  13  38  1   
 31  14  15  1   
 32  14  39  1   
 33  14  40  1   
 34  15  16  ar  
 35  15  17  ar  
 36  16  18  ar  
 37  16  41  1   
 38  17  19  ar  
 39  17  42  1   
 40  18  20  1   
 41  18  21  ar  
 42  19  21  ar  
 43  19  22  1   
 44  21  43  1   
 45  22  44  1   
 46  22  45  1   
 47  22  46  1   
@<TRIPOS>SUBSTRUCTURE
  1 ****  13 GROUP 4 **** **** 0

# MOE 2024.06 (io_trps.svl 2023.06)
