@<TRIPOS>MOLECULE
NONAME
38 40 1 0 0 
SMALL
USER_CHARGES


@<TRIPOS>ATOM
  1 O       -0.3920     0.3400    -0.1370 O.2   1 <1>  -0.5700 
  2 C       -1.4430     0.9460    -0.0080 C.2   1 <1>   0.7160 
  3 N       -2.6050     0.1940    -0.0060 N.am  1 <1>  -0.6600 
  4 C       -1.4120     2.3990     0.1290 C.2   1 <1>   0.2030 
  5 C       -3.9950     0.7170     0.0180 C.3   1 <1>   0.1400 
  6 C       -2.6030    -1.2870    -0.0710 C.3   1 <1>   0.1400 
  7 N       -2.4070     3.2180     0.3220 N.2   1 <1>  -0.4100 
  8 C       -0.2490     3.1550     0.0740 C.2   1 <1>  -0.1500 
  9 C       -4.8810    -0.5090    -0.2000 C.3   1 <1>   0.2000 
 10 C       -4.0400    -1.7040     0.2450 C.3   1 <1>  -0.0800 
 11 O       -1.9800     4.4550     0.3950 O.3   1 <1>  -0.0190 
 12 C       -0.6760     4.4090     0.2450 C.2   1 <1>  -0.0400 
 13 O       -6.0460    -0.4430     0.5460 O.3   1 <1>  -0.6800 
 14 C       -4.4640    -3.0190    -0.4250 C.3   1 <1>   0.0200 
 15 C        0.1070     5.7040     0.2850 C.3   1 <1>  -0.0600 
 16 C       -3.5470    -4.1570    -0.0220 C.2   1 <1>  -0.0400 
 17 O       -3.4640    -4.5170     1.2310 O.3   1 <1>  -0.0190 
 18 C       -2.7230    -4.9420    -0.7320 C.2   1 <1>  -0.1500 
 19 N       -2.6260    -5.4980     1.3980 N.2   1 <1>  -0.4100 
 20 C       -2.1650    -5.7760     0.2320 C.2   1 <1>   0.1080 
 21 C       -1.1510    -6.8650    -0.0440 C.3   1 <1>  -0.0590 
 22 H       -4.1880     1.1690     0.9760 H     1 <1>   0.0800 
 23 H       -4.1420     1.4370    -0.7680 H     1 <1>   0.0800 
 24 H       -2.3200    -1.5920    -1.0650 H     1 <1>   0.0800 
 25 H       -1.9080    -1.7040     0.6390 H     1 <1>   0.0800 
 26 H        0.7430     2.7690    -0.0740 H     1 <1>   0.1500 
 27 H       -5.1490    -0.5820    -1.2400 H     1 <1>   0.0800 
 28 H       -4.1090    -1.8110     1.3140 H     1 <1>   0.0800 
 29 H       -5.8390    -0.3830     1.4990 H     1 <1>   0.4000 
 30 H       -4.4420    -2.9100    -1.4950 H     1 <1>   0.0800 
 31 H       -5.4720    -3.2610    -0.1350 H     1 <1>   0.0800 
 32 H        1.1550     5.5120     0.1490 H     1 <1>   0.0800 
 33 H       -0.0390     6.1890     1.2340 H     1 <1>   0.0800 
 34 H       -0.2330     6.3590    -0.4970 H     1 <1>   0.0800 
 35 H       -2.5160    -4.9530    -1.7860 H     1 <1>   0.1500 
 36 H       -1.5620    -7.5800    -0.7320 H     1 <1>   0.0800 
 37 H       -0.8950    -7.3680     0.8700 H     1 <1>   0.0800 
 38 H       -0.2610    -6.4360    -0.4660 H     1 <1>   0.0800 
@<TRIPOS>BOND
  1   1   2  2   
  2   2   3  am  
  3   2   4  1   
  4   3   5  1   
  5   3   6  1   
  6   4   7  2   
  7   4   8  1   
  8   5   9  1   
  9   5  22  1   
 10   5  23  1   
 11   6  10  1   
 12   6  24  1   
 13   6  25  1   
 14   7  11  1   
 15   8  12  2   
 16   8  26  1   
 17   9  10  1   
 18   9  13  1   
 19   9  27  1   
 20  10  14  1   
 21  10  28  1   
 22  11  12  1   
 23  12  15  1   
 24  13  29  1   
 25  14  16  1   
 26  14  30  1   
 27  14  31  1   
 28  15  32  1   
 29  15  33  1   
 30  15  34  1   
 31  16  17  1   
 32  16  18  2   
 33  17  19  1   
 34  18  20  1   
 35  18  35  1   
 36  19  20  2   
 37  20  21  1   
 38  21  36  1   
 39  21  37  1   
 40  21  38  1   
@<TRIPOS>SUBSTRUCTURE
  1 ****   6 GROUP 4 **** **** 0

# MOE 2024.06 (io_trps.svl 2023.06)
