@<TRIPOS>MOLECULE
NONAME
52 55 1 0 0 
SMALL
USER_CHARGES


@<TRIPOS>ATOM
  1 O        1.6270    -0.3010     2.0870 O.2   1 <1>  -0.5700 
  2 C        2.0910    -1.1240     1.3400 C.2   1 <1>   0.5690 
  3 N        1.4400    -1.5120     0.2250 N.am  1 <1>  -0.7300 
  4 C        3.4250    -1.7740     1.6350 C.3   1 <1>  -0.0990 
  5 C        1.9550    -2.5480    -0.6940 C.3   1 <1>   0.1400 
  6 C        4.2680    -1.8900     0.3500 C.3   1 <1>  -0.0800 
  7 C        3.4740    -2.3690    -0.8920 C.3   1 <1>  -0.0800 
  8 C        5.4630    -2.8410     0.5030 C.3   1 <1>  -0.1600 
  9 C        4.1680    -3.6530    -1.3630 C.3   1 <1>  -0.1600 
 10 C        5.6030    -3.5110    -0.8590 C.3   1 <1>   0.2200 
 11 N        6.3660    -4.7960    -0.7930 N.am  1 <1>  -0.6600 
 12 C        7.6730    -4.9020    -1.2220 C.2   1 <1>   0.5690 
 13 C        5.6900    -5.9830    -0.1820 C.3   1 <1>   0.0600 
 14 O        8.2770    -5.9500    -1.1490 O.2   1 <1>  -0.5700 
 15 C        8.4400    -3.7150    -1.8340 C.3   1 <1>   0.1710 
 16 N        8.6400    -2.5410    -0.9370 N.3   1 <1>  -0.8100 
 17 C        9.2500    -1.4200    -1.6740 C.3   1 <1>   0.2530 
 18 C        9.4680    -2.8960     0.2270 C.3   1 <1>   0.1100 
 19 C        9.5970    -0.2430    -0.7670 C.ar  1 <1>  -0.1430 
 20 C        9.4530    -1.7550     1.2490 C.3   1 <1>  -0.0170 
 21 C        9.7120    -0.3990     0.6090 C.ar  1 <1>  -0.1430 
 22 C        9.8180     1.0050    -1.3310 C.ar  1 <1>  -0.1500 
 23 C       10.0460     0.6860     1.4030 C.ar  1 <1>  -0.1500 
 24 C       10.1510     2.0870    -0.5350 C.ar  1 <1>  -0.1500 
 25 C       10.2660     1.9270     0.8340 C.ar  1 <1>  -0.1500 
 26 H        0.5220    -1.0990     0.0450 H     1 <1>   0.3700 
 27 H        3.9530    -1.1950     2.3720 H     1 <1>   0.0800 
 28 H        3.2280    -2.7460     2.0460 H     1 <1>   0.0800 
 29 H        1.7450    -3.5120    -0.2620 H     1 <1>   0.0800 
 30 H        1.4490    -2.4810    -1.6420 H     1 <1>   0.0800 
 31 H        4.6480    -0.9070     0.1230 H     1 <1>   0.0800 
 32 H        3.6110    -1.6250    -1.6600 H     1 <1>   0.0800 
 33 H        5.2640    -3.5750     1.2600 H     1 <1>   0.0800 
 34 H        6.3570    -2.3010     0.7560 H     1 <1>   0.0800 
 35 H        4.1370    -3.7530    -2.4330 H     1 <1>   0.0800 
 36 H        3.6880    -4.4990    -0.9080 H     1 <1>   0.0800 
 37 H        6.0980    -2.8140    -1.5130 H     1 <1>   0.0800 
 38 H        5.0740    -5.6870     0.6460 H     1 <1>   0.0800 
 39 H        6.4160    -6.6900     0.1800 H     1 <1>   0.0800 
 40 H        5.0800    -6.4700    -0.9230 H     1 <1>   0.0800 
 41 H        7.9020    -3.4020    -2.7100 H     1 <1>   0.0800 
 42 H        9.4000    -4.0750    -2.1600 H     1 <1>   0.0800 
 43 H       10.1530    -1.7540    -2.1570 H     1 <1>   0.0800 
 44 H        8.5640    -1.0870    -2.4330 H     1 <1>   0.0800 
 45 H        9.0870    -3.7860     0.6990 H     1 <1>   0.0800 
 46 H       10.4800    -3.0870    -0.0910 H     1 <1>   0.0800 
 47 H        8.4940    -1.7330     1.7310 H     1 <1>   0.0800 
 48 H       10.1960    -1.9510     2.0010 H     1 <1>   0.0800 
 49 H        9.7340     1.1410    -2.3940 H     1 <1>   0.1500 
 50 H       10.1320     0.5690     2.4690 H     1 <1>   0.1500 
 51 H       10.3210     3.0520    -0.9800 H     1 <1>   0.1500 
 52 H       10.5250     2.7670     1.4550 H     1 <1>   0.1500 
@<TRIPOS>BOND
  1   1   2  2   
  2   2   3  am  
  3   2   4  1   
  4   3   5  1   
  5   3  26  1   
  6   4   6  1   
  7   4  27  1   
  8   4  28  1   
  9   5   7  1   
 10   5  29  1   
 11   5  30  1   
 12   6   7  1   
 13   6   8  1   
 14   6  31  1   
 15   7   9  1   
 16   7  32  1   
 17   8  10  1   
 18   8  33  1   
 19   8  34  1   
 20   9  10  1   
 21   9  35  1   
 22   9  36  1   
 23  10  11  1   
 24  10  37  1   
 25  11  12  am  
 26  11  13  1   
 27  12  14  2   
 28  12  15  1   
 29  13  38  1   
 30  13  39  1   
 31  13  40  1   
 32  15  16  1   
 33  15  41  1   
 34  15  42  1   
 35  16  17  1   
 36  16  18  1   
 37  17  19  1   
 38  17  43  1   
 39  17  44  1   
 40  18  20  1   
 41  18  45  1   
 42  18  46  1   
 43  19  21  ar  
 44  19  22  ar  
 45  20  21  1   
 46  20  47  1   
 47  20  48  1   
 48  21  23  ar  
 49  22  24  ar  
 50  22  49  1   
 51  23  25  ar  
 52  23  50  1   
 53  24  25  ar  
 54  24  51  1   
 55  25  52  1   
@<TRIPOS>SUBSTRUCTURE
  1 ****   8 GROUP 4 **** **** 0

# MOE 2024.06 (io_trps.svl 2023.06)
