@<TRIPOS>MOLECULE
NONAME
62 64 1 0 0 
SMALL
USER_CHARGES


@<TRIPOS>ATOM
  1 O        4.0360    -0.6920    -1.7940 O.2   1 <1>  -0.5700 
  2 C        4.1170    -0.7080    -0.5870 C.2   1 <1>   0.6300 
  3 N        5.0610     0.0400     0.0720 N.am  1 <1>  -0.6600 
  4 C        3.1000    -1.5390     0.2050 C.3   1 <1>  -0.1000 
  5 C        5.1250     0.2210     1.5550 C.3   1 <1>   0.1400 
  6 C        6.0920     0.8000    -0.6850 C.3   1 <1>   0.1400 
  7 C        3.4730    -2.7740     1.0020 C.3   1 <1>  -0.1900 
  8 C        2.6120    -2.9090    -0.2160 C.3   1 <1>  -0.1900 
  9 C        4.5660     1.5820     1.9950 C.3   1 <1>   0.1400 
 10 C        5.5550     2.1640    -1.1360 C.3   1 <1>  -0.1600 
 11 C        2.8650    -2.9520     2.4030 C.3   1 <1>  -0.1450 
 12 C        4.9230    -3.2900     0.9890 C.3   1 <1>  -0.1450 
 13 C        1.1050    -3.1900    -0.0930 C.3   1 <1>  -0.1450 
 14 C        3.1570    -3.5900    -1.4850 C.3   1 <1>  -0.1450 
 15 N        5.2490     2.7200     1.3030 N.am  1 <1>  -0.6600 
 16 C        4.7570     2.9550    -0.0880 C.3   1 <1>   0.1400 
 17 C        6.3260     3.3350     1.8850 C.2   1 <1>   0.5690 
 18 O        6.7820     2.9470     2.9370 O.2   1 <1>  -0.5700 
 19 C        7.0560     4.4800     1.2290 C.3   1 <1>  -0.0380 
 20 C        8.1570     3.9110     0.3760 C.2   1 <1>   0.5690 
 21 O        8.2980     4.3600    -0.7340 O.2   1 <1>  -0.5700 
 22 N        8.9220     2.9050     0.9040 N.am  1 <1>  -0.5470 
 23 C        9.8960     2.0690     0.3400 C.ar  1 <1>   0.1170 
 24 C       10.5510     2.3480    -0.8550 C.ar  1 <1>  -0.1500 
 25 C       10.2230     0.8980     1.0130 C.ar  1 <1>  -0.1500 
 26 C       11.4980     1.4800    -1.3730 C.ar  1 <1>  -0.1440 
 27 C       11.1690     0.0270     0.5060 C.ar  1 <1>  -0.1500 
 28 C       11.8050     0.3170    -0.6880 C.ar  1 <1>  -0.1500 
 29 C       12.2010     1.7980    -2.6810 C.3   1 <1>  -0.0970 
 30 H        2.3570    -0.8860     0.6200 H     1 <1>   0.1000 
 31 H        6.1470     0.1390     1.8810 H     1 <1>   0.0800 
 32 H        4.5730    -0.5520     2.0540 H     1 <1>   0.0800 
 33 H        6.3970     0.2330    -1.5480 H     1 <1>   0.0800 
 34 H        6.9620     0.9400    -0.0670 H     1 <1>   0.0800 
 35 H        4.6890     1.6800     3.0600 H     1 <1>   0.0800 
 36 H        3.5100     1.6160     1.7940 H     1 <1>   0.0800 
 37 H        4.9230     2.0110    -1.9930 H     1 <1>   0.0800 
 38 H        6.3820     2.7550    -1.4800 H     1 <1>   0.0800 
 39 H        1.9160    -2.4590     2.4950 H     1 <1>   0.0800 
 40 H        3.5180    -2.5400     3.1510 H     1 <1>   0.0800 
 41 H        2.7280    -3.9980     2.6090 H     1 <1>   0.0800 
 42 H        5.4370    -3.0370     0.0810 H     1 <1>   0.0800 
 43 H        4.9290    -4.3600     1.0950 H     1 <1>   0.0800 
 44 H        5.4820    -2.8640     1.8020 H     1 <1>   0.0800 
 45 H        0.6500    -2.6210     0.6950 H     1 <1>   0.0800 
 46 H        0.9420    -4.2350     0.0980 H     1 <1>   0.0800 
 47 H        0.6070    -2.9270    -1.0100 H     1 <1>   0.0800 
 48 H        4.1830    -3.3420    -1.6770 H     1 <1>   0.0800 
 49 H        2.5900    -3.2730    -2.3420 H     1 <1>   0.0800 
 50 H        3.0770    -4.6580    -1.3940 H     1 <1>   0.0800 
 51 H        3.7270     2.6450    -0.1460 H     1 <1>   0.0800 
 52 H        4.7780     4.0030    -0.3290 H     1 <1>   0.0800 
 53 H        7.4900     5.1080     1.9830 H     1 <1>   0.0800 
 54 H        6.3940     5.0800     0.6390 H     1 <1>   0.0800 
 55 H        8.6460     2.6450     1.8570 H     1 <1>   0.3700 
 56 H       10.3250     3.2530    -1.3870 H     1 <1>   0.1500 
 57 H        9.7330     0.6620     1.9410 H     1 <1>   0.1500 
 58 H       11.4110    -0.8770     1.0370 H     1 <1>   0.1500 
 59 H       12.5410    -0.3630    -1.0790 H     1 <1>   0.1500 
 60 H       11.6640     2.5510    -3.2280 H     1 <1>   0.0800 
 61 H       12.2650     0.9150    -3.2910 H     1 <1>   0.0800 
 62 H       13.1940     2.1580    -2.4810 H     1 <1>   0.0800 
@<TRIPOS>BOND
  1   1   2  2   
  2   2   3  am  
  3   2   4  1   
  4   3   5  1   
  5   3   6  1   
  6   4   7  1   
  7   4   8  1   
  8   4  30  1   
  9   5   9  1   
 10   5  31  1   
 11   5  32  1   
 12   6  10  1   
 13   6  33  1   
 14   6  34  1   
 15   7   8  1   
 16   7  11  1   
 17   7  12  1   
 18   8  13  1   
 19   8  14  1   
 20   9  15  1   
 21   9  35  1   
 22   9  36  1   
 23  10  16  1   
 24  10  37  1   
 25  10  38  1   
 26  11  39  1   
 27  11  40  1   
 28  11  41  1   
 29  12  42  1   
 30  12  43  1   
 31  12  44  1   
 32  13  45  1   
 33  13  46  1   
 34  13  47  1   
 35  14  48  1   
 36  14  49  1   
 37  14  50  1   
 38  15  16  1   
 39  15  17  am  
 40  16  51  1   
 41  16  52  1   
 42  17  18  2   
 43  17  19  1   
 44  19  20  1   
 45  19  53  1   
 46  19  54  1   
 47  20  21  2   
 48  20  22  am  
 49  22  23  1   
 50  22  55  1   
 51  23  24  ar  
 52  23  25  ar  
 53  24  26  ar  
 54  24  56  1   
 55  25  27  ar  
 56  25  57  1   
 57  26  28  ar  
 58  26  29  1   
 59  27  28  ar  
 60  27  58  1   
 61  28  59  1   
 62  29  60  1   
 63  29  61  1   
 64  29  62  1   
@<TRIPOS>SUBSTRUCTURE
  1 ****   6 GROUP 4 **** **** 0

# MOE 2024.06 (io_trps.svl 2023.06)
