@<TRIPOS>MOLECULE
NONAME
59 61 1 0 0 
SMALL
USER_CHARGES


@<TRIPOS>ATOM
  1 O        0.5850     1.1740     0.1650 O.2   1 <1>  -0.5700 
  2 C        0.3470     2.3480     0.0070 C.2   1 <1>   0.5690 
  3 N       -0.8990     2.8800     0.2080 N.am  1 <1>  -0.6600 
  4 C        1.4920     3.2480    -0.4630 C.3   1 <1>   0.1810 
  5 C       -1.1590     4.3470     0.0430 C.3   1 <1>   0.3640 
  6 C       -2.0340     2.0630     0.7300 C.3   1 <1>   0.0600 
  7 O        1.2780     4.6170    -0.1990 O.3   1 <1>  -0.5600 
  8 C       -2.4420     4.5560    -0.7770 C.ar  1 <1>  -0.1430 
  9 C        0.0200     5.0920    -0.6400 C.3   1 <1>   0.2610 
 10 C       -3.5450     5.2580    -0.2890 C.ar  1 <1>  -0.1430 
 11 C       -2.5020     4.0180    -2.0590 C.ar  1 <1>  -0.1500 
 12 C       -0.0550     6.6070    -0.4110 C.2   1 <1>   0.5690 
 13 C       -4.6580     5.4320    -1.0990 C.ar  1 <1>  -0.1500 
 14 C       -3.5980     5.8430     1.1170 C.3   1 <1>  -0.0960 
 15 C       -3.6170     4.1930    -2.8570 C.ar  1 <1>  -0.1500 
 16 O       -0.4800     7.0320     0.6410 O.2   1 <1>  -0.5700 
 17 N        0.4550     7.4990    -1.3280 N.am  1 <1>  -0.6600 
 18 C       -4.6960     4.9070    -2.3770 C.ar  1 <1>  -0.1500 
 19 C        0.2200     8.9690    -1.1450 C.3   1 <1>   0.1400 
 20 C        1.5350     7.1650    -2.2950 C.3   1 <1>   0.1400 
 21 C        1.0590     9.5390     0.0180 C.3   1 <1>   0.3430 
 22 C        2.9110     7.2630    -1.6150 C.3   1 <1>  -0.1600 
 23 N        2.2620     8.6900     0.3090 N.4   1 <1>  -0.9590 
 24 C        3.1860     8.5680    -0.8570 C.3   1 <1>   0.3430 
 25 C        2.8810     9.0280     1.6100 C.3   1 <1>   0.4230 
 26 C        3.6910    10.3210     1.5250 C.3   1 <1>  -0.2400 
 27 C        3.7450     7.8560     2.0650 C.3   1 <1>  -0.2400 
 28 H        1.6300     3.1210    -1.5210 H     1 <1>   0.0800 
 29 H        2.3950     2.9560     0.0400 H     1 <1>   0.0800 
 30 H       -1.2790     4.7520     1.0300 H     1 <1>   0.0800 
 31 H       -2.4580     2.5350     1.5980 H     1 <1>   0.0800 
 32 H       -1.7000     1.0770     1.0050 H     1 <1>   0.0800 
 33 H       -2.7950     1.9670    -0.0250 H     1 <1>   0.0800 
 34 H       -0.0350     4.9140    -1.6960 H     1 <1>   0.0800 
 35 H       -1.6790     3.4430    -2.4470 H     1 <1>   0.1500 
 36 H       -5.5110     5.9790    -0.7390 H     1 <1>   0.1500 
 37 H       -4.5920     6.1800     1.3550 H     1 <1>   0.0800 
 38 H       -2.9370     6.6850     1.1980 H     1 <1>   0.0800 
 39 H       -3.3240     5.1030     1.8460 H     1 <1>   0.0800 
 40 H       -3.6460     3.7730    -3.8470 H     1 <1>   0.1500 
 41 H       -5.5670     5.0500    -2.9930 H     1 <1>   0.1500 
 42 H        0.4570     9.4950    -2.0540 H     1 <1>   0.0800 
 43 H       -0.8240     9.1420    -0.9420 H     1 <1>   0.0800 
 44 H        1.3980     6.1730    -2.6870 H     1 <1>   0.0800 
 45 H        1.4890     7.8440    -3.1310 H     1 <1>   0.0800 
 46 H        0.4290     9.5590     0.8930 H     1 <1>   0.0800 
 47 H        1.3490    10.5520    -0.2010 H     1 <1>   0.0800 
 48 H        3.6600     7.1600    -2.3800 H     1 <1>   0.0800 
 49 H        3.0460     6.4310    -0.9480 H     1 <1>   0.0800 
 50 H        1.8480     7.7510     0.4300 H     1 <1>   0.4500 
 51 H        3.0710     9.4140    -1.5140 H     1 <1>   0.0800 
 52 H        4.2060     8.5530    -0.5110 H     1 <1>   0.0800 
 53 H        2.0960     9.1610     2.3400 H     1 <1>   0.0800 
 54 H        4.5370    10.2220     0.8690 H     1 <1>   0.0800 
 55 H        4.0660    10.5670     2.5030 H     1 <1>   0.0800 
 56 H        3.0770    11.1410     1.1990 H     1 <1>   0.0800 
 57 H        4.5890     7.7050     1.4170 H     1 <1>   0.0800 
 58 H        3.1600     6.9530     2.1100 H     1 <1>   0.0800 
 59 H        4.1200     8.0520     3.0530 H     1 <1>   0.0800 
@<TRIPOS>BOND
  1   1   2  2   
  2   2   3  am  
  3   2   4  1   
  4   3   5  1   
  5   3   6  1   
  6   4   7  1   
  7   4  28  1   
  8   4  29  1   
  9   5   8  1   
 10   5   9  1   
 11   5  30  1   
 12   6  31  1   
 13   6  32  1   
 14   6  33  1   
 15   7   9  1   
 16   8  10  ar  
 17   8  11  ar  
 18   9  12  1   
 19   9  34  1   
 20  10  13  ar  
 21  10  14  1   
 22  11  15  ar  
 23  11  35  1   
 24  12  16  2   
 25  12  17  am  
 26  13  18  ar  
 27  13  36  1   
 28  14  37  1   
 29  14  38  1   
 30  14  39  1   
 31  15  18  ar  
 32  15  40  1   
 33  17  19  1   
 34  17  20  1   
 35  18  41  1   
 36  19  21  1   
 37  19  42  1   
 38  19  43  1   
 39  20  22  1   
 40  20  44  1   
 41  20  45  1   
 42  21  23  1   
 43  21  46  1   
 44  21  47  1   
 45  22  24  1   
 46  22  48  1   
 47  22  49  1   
 48  23  24  1   
 49  23  25  1   
 50  23  50  1   
 51  24  51  1   
 52  24  52  1   
 53  25  26  1   
 54  25  27  1   
 55  25  53  1   
 56  26  54  1   
 57  26  55  1   
 58  26  56  1   
 59  27  57  1   
 60  27  58  1   
 61  27  59  1   
@<TRIPOS>SUBSTRUCTURE
  1 ****  12 GROUP 4 **** **** 0

# MOE 2024.06 (io_trps.svl 2023.06)
