@<TRIPOS>MOLECULE
NONAME
46 48 1 0 0 
SMALL
USER_CHARGES


@<TRIPOS>ATOM
  1 O        2.6110    -0.5420    -1.9270 O.2   1 <1>  -0.5700 
  2 C        1.9340    -1.1230    -1.1120 C.2   1 <1>   0.5690 
  3 N        1.6310    -0.6220     0.1130 N.am  1 <1>  -0.4930 
  4 C        1.3730    -2.5060    -1.4480 C.3   1 <1>   0.1710 
  5 C        1.9630     0.5860     0.7190 C.2   1 <1>   0.3520 
  6 N        0.1940    -2.8990    -0.6130 N.3   1 <1>  -0.8100 
  7 N        1.5090     0.9110     1.8790 N.2   1 <1>  -0.4100 
  8 C        2.7890     1.5910     0.2130 C.2   1 <1>  -0.1500 
  9 C       -0.0050    -4.3630    -0.6710 C.3   1 <1>   0.1100 
 10 C       -1.0130    -2.1800    -1.0640 C.3   1 <1>   0.0300 
 11 O        2.0100     2.0910     2.1450 O.3   1 <1>  -0.0190 
 12 C        2.7750     2.5220     1.1750 C.2   1 <1>  -0.0400 
 13 C       -0.8620    -4.8590     0.5000 C.3   1 <1>   0.0200 
 14 C        3.4520     3.8710     1.2890 C.3   1 <1>  -0.0600 
 15 C       -0.9520    -6.3760     0.5290 C.2   1 <1>   0.0070 
 16 N       -0.6710    -7.1500    -0.4620 N.2   1 <1>  -0.5650 
 17 N       -1.3560    -7.0420     1.6410 N.pl3 1 <1>   0.0330 
 18 C       -0.8960    -8.4090     0.0110 C.ar  1 <1>   0.2270 
 19 C       -1.3250    -8.3600     1.3230 C.ar  1 <1>  -0.1520 
 20 C       -0.7550    -9.6380    -0.6290 C.ar  1 <1>  -0.1500 
 21 C       -1.6230    -9.5240     2.0330 C.ar  1 <1>  -0.1500 
 22 C       -1.0450   -10.7980     0.0570 C.ar  1 <1>   0.0820 
 23 C       -1.4810   -10.7370     1.3960 C.ar  1 <1>  -0.1500 
 24 O       -0.8870   -11.9670    -0.6230 O.3   1 <1>  -0.3620 
 25 C       -1.1630   -13.2080    -0.0130 C.3   1 <1>   0.0400 
 26 H        1.0030    -1.2190     0.6550 H     1 <1>   0.3700 
 27 H        2.1740    -3.2060    -1.2910 H     1 <1>   0.0800 
 28 H        1.1130    -2.5360    -2.4920 H     1 <1>   0.0800 
 29 H        3.2970     1.5770    -0.7320 H     1 <1>   0.1500 
 30 H        0.9480    -4.8600    -0.6040 H     1 <1>   0.0800 
 31 H       -0.4570    -4.6470    -1.6080 H     1 <1>   0.0800 
 32 H       -0.8440    -1.1160    -1.0540 H     1 <1>   0.0800 
 33 H       -1.8410    -2.3870    -0.4090 H     1 <1>   0.0800 
 34 H       -1.2780    -2.4770    -2.0650 H     1 <1>   0.0800 
 35 H       -1.8570    -4.4640     0.4210 H     1 <1>   0.0800 
 36 H       -0.4200    -4.5150     1.4170 H     1 <1>   0.0800 
 37 H        4.0380     4.0670     0.4090 H     1 <1>   0.0800 
 38 H        4.0960     3.8840     2.1490 H     1 <1>   0.0800 
 39 H        2.7100     4.6430     1.3940 H     1 <1>   0.0800 
 40 H       -1.6290    -6.6410     2.5410 H     1 <1>   0.2700 
 41 H       -0.4220    -9.6620    -1.6480 H     1 <1>   0.1500 
 42 H       -1.9550    -9.4670     3.0550 H     1 <1>   0.1500 
 43 H       -1.7090   -11.6350     1.9370 H     1 <1>   0.1500 
 44 H       -0.9710   -13.9830    -0.7330 H     1 <1>   0.0800 
 45 H       -2.1980   -13.2310     0.2810 H     1 <1>   0.0800 
 46 H       -0.5160   -13.3320     0.8370 H     1 <1>   0.0800 
@<TRIPOS>BOND
  1   1   2  2   
  2   2   3  am  
  3   2   4  1   
  4   3   5  1   
  5   3  26  1   
  6   4   6  1   
  7   4  27  1   
  8   4  28  1   
  9   5   7  2   
 10   5   8  1   
 11   6   9  1   
 12   6  10  1   
 13   7  11  1   
 14   8  12  2   
 15   8  29  1   
 16   9  13  1   
 17   9  30  1   
 18   9  31  1   
 19  10  32  1   
 20  10  33  1   
 21  10  34  1   
 22  11  12  1   
 23  12  14  1   
 24  13  15  1   
 25  13  35  1   
 26  13  36  1   
 27  14  37  1   
 28  14  38  1   
 29  14  39  1   
 30  15  16  2   
 31  15  17  1   
 32  16  18  1   
 33  17  19  1   
 34  17  40  1   
 35  18  19  ar  
 36  18  20  ar  
 37  19  21  ar  
 38  20  22  ar  
 39  20  41  1   
 40  21  23  ar  
 41  21  42  1   
 42  22  23  ar  
 43  22  24  1   
 44  23  43  1   
 45  24  25  1   
 46  25  44  1   
 47  25  45  1   
 48  25  46  1   
@<TRIPOS>SUBSTRUCTURE
  1 ****   9 GROUP 4 **** **** 0

# MOE 2024.06 (io_trps.svl 2023.06)
