@<TRIPOS>MOLECULE
NONAME
50 53 1 0 0 
SMALL
USER_CHARGES


@<TRIPOS>ATOM
  1 O       -1.6270     2.2090     2.2370 O.3   1 <1>  -0.0190 
  2 N       -0.8350     2.9690     1.5440 N.2   1 <1>  -0.4100 
  3 C       -1.9430     1.1180     1.5990 C.2   1 <1>  -0.0400 
  4 C       -0.6270     2.3630     0.4130 C.2   1 <1>   0.2350 
  5 C       -1.3310     1.1520     0.4090 C.2   1 <1>  -0.1500 
  6 C       -2.8660     0.1030     2.2510 C.3   1 <1>   0.2900 
  7 C        0.2040     2.8700    -0.6610 C.ar  1 <1>   0.0540 
  8 N       -2.8620    -1.1690     1.5040 N.3   1 <1>  -0.8100 
  9 C        0.2660     2.2880    -1.9200 C.ar  1 <1>  -0.1500 
 10 C        1.0080     3.9900    -0.5050 C.ar  1 <1>  -0.1500 
 11 C       -4.0810    -1.9570     1.7690 C.3   1 <1>   0.2900 
 12 C       -1.6360    -1.9450     1.7620 C.3   1 <1>   0.0300 
 13 C        1.0830     2.8200    -2.9000 C.ar  1 <1>   0.1600 
 14 C        1.7910     4.4460    -1.5480 C.ar  1 <1>   0.1600 
 15 C       -4.1680    -3.1810     0.8730 C.2   1 <1>  -0.0400 
 16 N        1.8500     3.8860    -2.7450 N.ar  1 <1>  -0.6200 
 17 O       -4.2790    -3.0420    -0.4210 O.3   1 <1>  -0.0190 
 18 C       -4.1600    -4.4950     1.1460 C.2   1 <1>  -0.1500 
 19 N       -4.3460    -4.1920    -1.0280 N.2   1 <1>  -0.4100 
 20 C       -4.2750    -5.0900    -0.1080 C.2   1 <1>   0.1080 
 21 C       -4.3100    -6.5960    -0.3490 C.3   1 <1>   0.1010 
 22 C       -3.1100    -7.0450    -1.1990 C.3   1 <1>  -0.1600 
 23 C       -5.6330    -7.0190    -1.0110 C.3   1 <1>  -0.1600 
 24 C       -3.1440    -8.5570    -1.4710 C.3   1 <1>  -0.1600 
 25 C       -5.6720    -8.5300    -1.2820 C.3   1 <1>  -0.1600 
 26 C       -4.4680    -8.9710    -2.1260 C.3   1 <1>  -0.1600 
 27 H       -1.3710     0.4190    -0.3730 H     1 <1>   0.1500 
 28 H       -3.8580     0.5230     2.2590 H     1 <1>   0.0800 
 29 H       -2.5610    -0.0660     3.2690 H     1 <1>   0.0800 
 30 H       -0.3220     1.4200    -2.1490 H     1 <1>   0.1500 
 31 H        1.0230     4.5090     0.4370 H     1 <1>   0.1500 
 32 H       -4.9480    -1.3470     1.5810 H     1 <1>   0.0800 
 33 H       -4.0980    -2.2640     2.8000 H     1 <1>   0.0800 
 34 H       -0.7640    -1.3410     1.5780 H     1 <1>   0.0800 
 35 H       -1.5910    -2.7950     1.1030 H     1 <1>   0.0800 
 36 H       -1.6120    -2.2880     2.7820 H     1 <1>   0.0800 
 37 H        1.1080     2.3450    -3.8660 H     1 <1>   0.1500 
 38 H        2.4030     5.3180    -1.3910 H     1 <1>   0.1500 
 39 H       -4.0840    -5.0020     2.0900 H     1 <1>   0.1500 
 40 H       -4.2440    -7.0860     0.6060 H     1 <1>   0.0800 
 41 H       -2.1960    -6.7890    -0.6930 H     1 <1>   0.0800 
 42 H       -3.1240    -6.5160    -2.1370 H     1 <1>   0.0800 
 43 H       -5.7470    -6.4880    -1.9420 H     1 <1>   0.0800 
 44 H       -6.4570    -6.7430    -0.3760 H     1 <1>   0.0800 
 45 H       -3.0210    -9.0910    -0.5450 H     1 <1>   0.0800 
 46 H       -2.3240    -8.8230    -2.1170 H     1 <1>   0.0800 
 47 H       -6.5830    -8.7790    -1.7990 H     1 <1>   0.0800 
 48 H       -5.6670    -9.0620    -0.3470 H     1 <1>   0.0800 
 49 H       -4.4890   -10.0400    -2.2540 H     1 <1>   0.0800 
 50 H       -4.5360    -8.5220    -3.1020 H     1 <1>   0.0800 
@<TRIPOS>BOND
  1   1   2  1   
  2   1   3  1   
  3   2   4  2   
  4   3   5  2   
  5   3   6  1   
  6   4   5  1   
  7   4   7  1   
  8   5  27  1   
  9   6   8  1   
 10   6  28  1   
 11   6  29  1   
 12   7   9  ar  
 13   7  10  ar  
 14   8  11  1   
 15   8  12  1   
 16   9  13  ar  
 17   9  30  1   
 18  10  14  ar  
 19  10  31  1   
 20  11  15  1   
 21  11  32  1   
 22  11  33  1   
 23  12  34  1   
 24  12  35  1   
 25  12  36  1   
 26  13  16  ar  
 27  13  37  1   
 28  14  16  ar  
 29  14  38  1   
 30  15  17  1   
 31  15  18  2   
 32  17  19  1   
 33  18  20  1   
 34  18  39  1   
 35  19  20  2   
 36  20  21  1   
 37  21  22  1   
 38  21  23  1   
 39  21  40  1   
 40  22  24  1   
 41  22  41  1   
 42  22  42  1   
 43  23  25  1   
 44  23  43  1   
 45  23  44  1   
 46  24  26  1   
 47  24  45  1   
 48  24  46  1   
 49  25  26  1   
 50  25  47  1   
 51  25  48  1   
 52  26  49  1   
 53  26  50  1   
@<TRIPOS>SUBSTRUCTURE
  1 ****   8 GROUP 4 **** **** 0

# MOE 2024.06 (io_trps.svl 2023.06)
