@<TRIPOS>MOLECULE
NONAME
50 52 1 0 0 
SMALL
USER_CHARGES


@<TRIPOS>ATOM
  1 O       -0.2630     0.0340    -2.4210 O.2   1 <1>  -0.5700 
  2 C       -0.9960     0.8180    -1.8630 C.2   1 <1>   0.5690 
  3 N       -2.0620     0.3830    -1.1180 N.am  1 <1>  -0.6600 
  4 C       -0.7220     2.3080    -2.0570 C.3   1 <1>   0.1810 
  5 C       -3.0210     1.2390    -0.3740 C.3   1 <1>   0.1400 
  6 C       -2.3300    -1.0520    -0.8620 C.3   1 <1>   0.1400 
  7 O       -0.6070     2.9870    -0.8150 O.3   1 <1>  -0.3620 
  8 C       -4.0530     0.2640     0.1900 C.3   1 <1>   0.2000 
  9 C       -3.3230    -1.0720     0.3000 C.3   1 <1>  -0.0800 
 10 C       -0.5170     4.3380    -0.7620 C.ar  1 <1>   0.0830 
 11 O       -4.5120     0.6660     1.4340 O.3   1 <1>  -0.6800 
 12 C       -4.2660    -2.2840     0.2850 C.3   1 <1>   0.0210 
 13 C       -0.6010     4.9200     0.4910 C.ar  1 <1>  -0.1500 
 14 C       -0.3540     5.1480    -1.8800 C.ar  1 <1>  -0.1500 
 15 C       -3.4820    -3.5820     0.2770 C.2   1 <1>   0.1080 
 16 C       -0.5330     6.2960     0.6480 C.ar  1 <1>  -0.1430 
 17 C       -0.2850     6.5210    -1.7290 C.ar  1 <1>  -0.1500 
 18 N       -2.6570    -3.9100     1.2220 N.2   1 <1>  -0.7070 
 19 C       -3.5430    -4.5440    -0.7250 C.2   1 <1>  -0.1500 
 20 C       -0.3740     7.1040    -0.4730 C.ar  1 <1>  -0.1430 
 21 C       -0.6330     6.8850     2.0480 C.3   1 <1>  -0.0970 
 22 N       -2.1630    -5.1030     0.8430 N.pl3 1 <1>   0.3000 
 23 C       -2.6840    -5.5080    -0.3340 C.2   1 <1>  -0.3320 
 24 C       -0.2940     8.6200    -0.3540 C.3   1 <1>  -0.0970 
 25 C       -2.3220    -6.8100    -1.0240 C.3   1 <1>  -0.0600 
 26 H       -1.5310     2.7440    -2.6110 H     1 <1>   0.0800 
 27 H        0.2010     2.4340    -2.5920 H     1 <1>   0.0800 
 28 H       -2.5010     1.7430     0.4220 H     1 <1>   0.0800 
 29 H       -3.4840     1.9550    -1.0300 H     1 <1>   0.0800 
 30 H       -2.7580    -1.4910    -1.7470 H     1 <1>   0.0800 
 31 H       -1.4220    -1.5760    -0.6100 H     1 <1>   0.0800 
 32 H       -4.8950     0.2000    -0.4780 H     1 <1>   0.0800 
 33 H       -2.7420    -1.0910     1.2060 H     1 <1>   0.0800 
 34 H       -3.7890     0.6150     2.0900 H     1 <1>   0.4000 
 35 H       -4.9030    -2.2480    -0.5800 H     1 <1>   0.0800 
 36 H       -4.8900    -2.2640     1.1610 H     1 <1>   0.0800 
 37 H       -0.7210     4.2780     1.3440 H     1 <1>   0.1500 
 38 H       -0.2740     4.7370    -2.8670 H     1 <1>   0.1500 
 39 H       -0.1590     7.1380    -2.6010 H     1 <1>   0.1500 
 40 H       -4.1510    -4.5020    -1.6110 H     1 <1>   0.1500 
 41 H       -0.7550     6.1120     2.7840 H     1 <1>   0.0800 
 42 H       -1.4780     7.5470     2.1100 H     1 <1>   0.0800 
 43 H        0.2620     7.4340     2.2800 H     1 <1>   0.0800 
 44 H       -1.4730    -5.6120     1.4080 H     1 <1>   0.2700 
 45 H       -0.1710     9.0780    -1.3190 H     1 <1>   0.0800 
 46 H        0.5440     8.8970     0.2600 H     1 <1>   0.0800 
 47 H       -1.1960     9.0030     0.0880 H     1 <1>   0.0800 
 48 H       -2.8690    -6.9050    -1.9450 H     1 <1>   0.0800 
 49 H       -2.5670    -7.6460    -0.3930 H     1 <1>   0.0800 
 50 H       -1.2700    -6.8330    -1.2460 H     1 <1>   0.0800 
@<TRIPOS>BOND
  1   1   2  2   
  2   2   3  am  
  3   2   4  1   
  4   3   5  1   
  5   3   6  1   
  6   4   7  1   
  7   4  26  1   
  8   4  27  1   
  9   5   8  1   
 10   5  28  1   
 11   5  29  1   
 12   6   9  1   
 13   6  30  1   
 14   6  31  1   
 15   7  10  1   
 16   8   9  1   
 17   8  11  1   
 18   8  32  1   
 19   9  12  1   
 20   9  33  1   
 21  10  13  ar  
 22  10  14  ar  
 23  11  34  1   
 24  12  15  1   
 25  12  35  1   
 26  12  36  1   
 27  13  16  ar  
 28  13  37  1   
 29  14  17  ar  
 30  14  38  1   
 31  15  18  2   
 32  15  19  1   
 33  16  20  ar  
 34  16  21  1   
 35  17  20  ar  
 36  17  39  1   
 37  18  22  1   
 38  19  23  2   
 39  19  40  1   
 40  20  24  1   
 41  21  41  1   
 42  21  42  1   
 43  21  43  1   
 44  22  23  1   
 45  22  44  1   
 46  23  25  1   
 47  24  45  1   
 48  24  46  1   
 49  24  47  1   
 50  25  48  1   
 51  25  49  1   
 52  25  50  1   
@<TRIPOS>SUBSTRUCTURE
  1 ****   3 GROUP 4 **** **** 0

# MOE 2024.06 (io_trps.svl 2023.06)
