@<TRIPOS>MOLECULE
NONAME
57 59 1 0 0 
SMALL
USER_CHARGES


@<TRIPOS>ATOM
  1 O        1.7220    -2.7680    -1.8450 O.3   1 <1>  -0.5600 
  2 C        1.8880    -2.4600    -0.4900 C.3   1 <1>   0.2800 
  3 C        1.2650    -1.7540    -2.6960 C.3   1 <1>   0.1200 
  4 C        0.7020    -1.5980     0.0250 C.3   1 <1>  -0.1600 
  5 C        3.2400    -1.7520    -0.3280 C.3   1 <1>  -0.1600 
  6 C        1.9630    -3.8230     0.2120 C.3   1 <1>  -0.1600 
  7 C       -0.1600    -1.3210    -2.3110 C.3   1 <1>  -0.1600 
  8 C       -0.5340    -1.6960    -0.8740 C.3   1 <1>   0.2800 
  9 C        3.6520    -1.6400     1.1380 C.3   1 <1>   0.3430 
 10 C        2.3810    -3.7070     1.6730 C.3   1 <1>   0.3430 
 11 O       -0.9350    -3.0050    -0.8860 O.3   1 <1>  -0.6800 
 12 C       -1.7110    -0.8810    -0.3460 C.3   1 <1>  -0.2400 
 13 N        3.6770    -2.9850     1.7790 N.4   1 <1>  -0.9590 
 14 C        4.1650    -2.9460     3.1940 C.3   1 <1>   0.3430 
 15 C        5.6630    -2.6140     3.2880 C.3   1 <1>   0.1200 
 16 O        6.3810    -3.4680     2.4200 O.3   1 <1>  -0.3630 
 17 C        6.8090    -2.9730     1.2310 C.ar  1 <1>   0.0820 
 18 C        6.3530    -3.5460     0.0440 C.ar  1 <1>   0.0820 
 19 C        7.7060    -1.9160     1.1970 C.ar  1 <1>  -0.1500 
 20 O        5.4620    -4.5730     0.1200 O.3   1 <1>  -0.3630 
 21 C        6.7900    -3.0370    -1.1730 C.ar  1 <1>  -0.1500 
 22 C        8.1350    -1.4150    -0.0200 C.ar  1 <1>  -0.1500 
 23 C        5.5350    -5.6080    -0.8360 C.3   1 <1>   0.1200 
 24 C        7.6770    -1.9740    -1.2020 C.ar  1 <1>  -0.1500 
 25 C        4.7920    -6.8200    -0.2810 C.3   1 <1>  -0.2400 
 26 H        1.2790    -2.1370    -3.7020 H     1 <1>   0.0800 
 27 H        1.9470    -0.9240    -2.6400 H     1 <1>   0.0800 
 28 H        0.9970    -0.5650     0.0500 H     1 <1>   0.0800 
 29 H        0.4320    -1.8580     1.0310 H     1 <1>   0.0800 
 30 H        3.1980    -0.7640    -0.7460 H     1 <1>   0.0800 
 31 H        3.9960    -2.2990    -0.8620 H     1 <1>   0.0800 
 32 H        2.6720    -4.4480    -0.3000 H     1 <1>   0.0800 
 33 H        1.0100    -4.3160     0.1710 H     1 <1>   0.0800 
 34 H       -0.8740    -1.7400    -2.9990 H     1 <1>   0.0800 
 35 H       -0.2130    -0.2540    -2.4290 H     1 <1>   0.0800 
 36 H        2.9560    -1.0020     1.6580 H     1 <1>   0.0800 
 37 H        4.6310    -1.1910     1.1920 H     1 <1>   0.0800 
 38 H        2.4790    -4.6960     2.0910 H     1 <1>   0.0800 
 39 H        1.6220    -3.1800     2.2260 H     1 <1>   0.0800 
 40 H       -0.2770    -3.5000    -1.4180 H     1 <1>   0.4000 
 41 H       -1.4560     0.1610    -0.3000 H     1 <1>   0.0800 
 42 H       -1.9830    -1.2110     0.6410 H     1 <1>   0.0800 
 43 H       -2.5600    -0.9950    -0.9970 H     1 <1>   0.0800 
 44 H        4.3840    -3.5520     1.2580 H     1 <1>   0.4500 
 45 H        4.0160    -3.9120     3.6470 H     1 <1>   0.0800 
 46 H        3.5980    -2.2260     3.7610 H     1 <1>   0.0800 
 47 H        6.0170    -2.7950     4.2880 H     1 <1>   0.0800 
 48 H        5.8520    -1.5860     3.0360 H     1 <1>   0.0800 
 49 H        8.0820    -1.4920     2.1110 H     1 <1>   0.1500 
 50 H        6.4470    -3.4520    -2.1030 H     1 <1>   0.1500 
 51 H        8.8340    -0.5950    -0.0500 H     1 <1>   0.1500 
 52 H        6.5720    -5.8500    -1.0040 H     1 <1>   0.0800 
 53 H        5.0820    -5.2660    -1.7510 H     1 <1>   0.0800 
 54 H        8.0190    -1.5830    -2.1460 H     1 <1>   0.1500 
 55 H        5.2410    -7.1370     0.6430 H     1 <1>   0.0800 
 56 H        4.8550    -7.6320    -0.9830 H     1 <1>   0.0800 
 57 H        3.7550    -6.5910    -0.1220 H     1 <1>   0.0800 
@<TRIPOS>BOND
  1   1   2  1   
  2   1   3  1   
  3   2   4  1   
  4   2   5  1   
  5   2   6  1   
  6   3   7  1   
  7   3  26  1   
  8   3  27  1   
  9   4   8  1   
 10   4  28  1   
 11   4  29  1   
 12   5   9  1   
 13   5  30  1   
 14   5  31  1   
 15   6  10  1   
 16   6  32  1   
 17   6  33  1   
 18   7   8  1   
 19   7  34  1   
 20   7  35  1   
 21   8  11  1   
 22   8  12  1   
 23   9  13  1   
 24   9  36  1   
 25   9  37  1   
 26  10  13  1   
 27  10  38  1   
 28  10  39  1   
 29  11  40  1   
 30  12  41  1   
 31  12  42  1   
 32  12  43  1   
 33  13  14  1   
 34  13  44  1   
 35  14  15  1   
 36  14  45  1   
 37  14  46  1   
 38  15  16  1   
 39  15  47  1   
 40  15  48  1   
 41  16  17  1   
 42  17  18  ar  
 43  17  19  ar  
 44  18  20  1   
 45  18  21  ar  
 46  19  22  ar  
 47  19  49  1   
 48  20  23  1   
 49  21  24  ar  
 50  21  50  1   
 51  22  24  ar  
 52  22  51  1   
 53  23  25  1   
 54  23  52  1   
 55  23  53  1   
 56  24  54  1   
 57  25  55  1   
 58  25  56  1   
 59  25  57  1   
@<TRIPOS>SUBSTRUCTURE
  1 ****   5 GROUP 4 **** **** 0

# MOE 2024.06 (io_trps.svl 2023.06)
