@<TRIPOS>MOLECULE
NONAME
48 50 1 0 0 
SMALL
USER_CHARGES


@<TRIPOS>ATOM
  1 O       -1.2970    -0.3030     1.6010 O.2   1 <1>  -0.5700 
  2 C       -1.7670     0.5780     0.9060 C.2   1 <1>   0.5440 
  3 N       -2.6610     0.2050    -0.0750 N.am  1 <1>  -0.6600 
  4 C       -1.4440     1.9650     1.1740 C.ar  1 <1>   0.0860 
  5 C       -2.7940    -1.2270    -0.4470 C.3   1 <1>   0.1400 
  6 C       -3.8810     1.0110    -0.3510 C.3   1 <1>   0.1400 
  7 C       -0.9870     2.8640     0.2090 C.ar  1 <1>  -0.1440 
  8 C       -1.6050     2.4470     2.4710 C.ar  1 <1>   0.1600 
  9 C       -3.9260    -1.8500     0.3980 C.3   1 <1>   0.4230 
 10 C       -5.0330     0.4200     0.4730 C.3   1 <1>  -0.1600 
 11 C       -0.7690     4.1650     0.6150 C.ar  1 <1>  -0.1500 
 12 C       -0.7160     2.4630    -1.2350 C.3   1 <1>  -0.0970 
 13 N       -1.4050     3.6910     2.8720 N.ar  1 <1>  -0.6200 
 14 N       -4.0330    -3.3630     0.2720 N.4   1 <1>  -0.9590 
 15 C       -5.2790    -1.0960     0.2080 C.3   1 <1>   0.0000 
 16 C       -0.9910     4.5240     1.9330 C.ar  1 <1>   0.1600 
 17 C       -5.3430    -3.9250     0.7370 C.3   1 <1>   0.3430 
 18 C       -3.6790    -3.9280    -1.0710 C.3   1 <1>   0.2630 
 19 C       -6.3100    -1.6240     1.2490 C.3   1 <1>  -0.1600 
 20 C       -5.8110    -1.3110    -1.2390 C.3   1 <1>   0.1200 
 21 C       -5.9810    -3.0270     1.7960 C.3   1 <1>  -0.1600 
 22 O       -6.8910    -0.4900    -1.5150 O.3   1 <1>  -0.6800 
 23 H       -2.9970    -1.2930    -1.4990 H     1 <1>   0.0800 
 24 H       -1.8660    -1.7360    -0.2490 H     1 <1>   0.0800 
 25 H       -3.7290     2.0410    -0.0760 H     1 <1>   0.0800 
 26 H       -4.1090     0.9820    -1.4040 H     1 <1>   0.0800 
 27 H       -1.9270     1.7480     3.2250 H     1 <1>   0.1500 
 28 H       -3.6390    -1.6560     1.4200 H     1 <1>   0.0800 
 29 H       -4.7930     0.5750     1.5120 H     1 <1>   0.0800 
 30 H       -5.9240     0.9920     0.2800 H     1 <1>   0.0800 
 31 H       -0.4230     4.9080    -0.0800 H     1 <1>   0.1500 
 32 H       -0.0750     3.1810    -1.7160 H     1 <1>   0.0800 
 33 H       -1.6380     2.4070    -1.7850 H     1 <1>   0.0800 
 34 H       -0.2280     1.5050    -1.2740 H     1 <1>   0.0800 
 35 H       -3.3250    -3.7150     0.9360 H     1 <1>   0.4500 
 36 H       -0.8160     5.5440     2.2290 H     1 <1>   0.1500 
 37 H       -6.0220    -4.0040    -0.0970 H     1 <1>   0.0800 
 38 H       -5.1960    -4.9150     1.1380 H     1 <1>   0.0800 
 39 H       -4.3550    -3.5620    -1.8260 H     1 <1>   0.0800 
 40 H       -3.7400    -5.0050    -1.0500 H     1 <1>   0.0800 
 41 H       -2.6730    -3.6540    -1.3440 H     1 <1>   0.0800 
 42 H       -6.3710    -0.9590     2.0940 H     1 <1>   0.0800 
 43 H       -7.2960    -1.6420     0.8160 H     1 <1>   0.0800 
 44 H       -6.1310    -2.3250    -1.3950 H     1 <1>   0.0800 
 45 H       -5.0620    -1.0750    -1.9730 H     1 <1>   0.0800 
 46 H       -6.8870    -3.4870     2.1520 H     1 <1>   0.0800 
 47 H       -5.3150    -2.9490     2.6390 H     1 <1>   0.0800 
 48 H       -7.6520    -0.6660    -0.9260 H     1 <1>   0.4000 
@<TRIPOS>BOND
  1   1   2  2   
  2   2   3  am  
  3   2   4  1   
  4   3   5  1   
  5   3   6  1   
  6   4   7  ar  
  7   4   8  ar  
  8   5   9  1   
  9   5  23  1   
 10   5  24  1   
 11   6  10  1   
 12   6  25  1   
 13   6  26  1   
 14   7  11  ar  
 15   7  12  1   
 16   8  13  ar  
 17   8  27  1   
 18   9  14  1   
 19   9  15  1   
 20   9  28  1   
 21  10  15  1   
 22  10  29  1   
 23  10  30  1   
 24  11  16  ar  
 25  11  31  1   
 26  12  32  1   
 27  12  33  1   
 28  12  34  1   
 29  13  16  ar  
 30  14  17  1   
 31  14  18  1   
 32  14  35  1   
 33  15  19  1   
 34  15  20  1   
 35  16  36  1   
 36  17  21  1   
 37  17  37  1   
 38  17  38  1   
 39  18  39  1   
 40  18  40  1   
 41  18  41  1   
 42  19  21  1   
 43  19  42  1   
 44  19  43  1   
 45  20  22  1   
 46  20  44  1   
 47  20  45  1   
 48  21  46  1   
 49  21  47  1   
 50  22  48  1   
@<TRIPOS>SUBSTRUCTURE
  1 ****   3 GROUP 4 **** **** 0

# MOE 2024.06 (io_trps.svl 2023.06)
