@<TRIPOS>MOLECULE
NONAME
52 54 1 0 0 
SMALL
USER_CHARGES


@<TRIPOS>ATOM
  1 O        1.2160    -0.3290    -3.0790 O.2   1 <1>  -0.5700 
  2 C        1.4950    -0.9480    -2.0800 C.2   1 <1>   0.5690 
  3 N        2.1750    -0.3340    -1.0510 N.am  1 <1>  -0.6600 
  4 C        1.0910    -2.4190    -2.0420 C.3   1 <1>   0.0440 
  5 C        2.7670    -1.0200     0.1420 C.3   1 <1>   0.1400 
  6 C        2.2670     1.1520    -1.0150 C.3   1 <1>   0.1400 
  7 C        0.2470    -2.8020    -0.8280 C.ar  1 <1>  -0.1440 
  8 C        4.3120    -1.0500     0.1140 C.3   1 <1>   0.3430 
  9 C        3.5320     1.6290    -1.7340 C.3   1 <1>  -0.1600 
 10 C       -0.7810    -1.9780    -0.3940 C.ar  1 <1>  -0.1500 
 11 C        0.5020    -3.9830    -0.1460 C.ar  1 <1>  -0.1500 
 12 N        4.9530     0.2670    -0.2190 N.4   1 <1>  -0.9590 
 13 C        4.7220     0.6760    -1.6360 C.3   1 <1>   0.3430 
 14 C       -1.5330    -2.3160     0.7170 C.ar  1 <1>  -0.1500 
 15 C       -0.2480    -4.3230     0.9650 C.ar  1 <1>  -0.1500 
 16 C        6.4000     0.3010     0.1200 C.3   1 <1>   0.5230 
 17 C       -1.2660    -3.4950     1.4070 C.ar  1 <1>   0.0820 
 18 C        6.8140     1.7570     0.1740 C.2   1 <1>  -0.0400 
 19 O       -1.9500    -3.9000     2.5060 O.3   1 <1>  -0.3630 
 20 O        6.0710     2.5850     0.8870 O.3   1 <1>  -0.2800 
 21 C        7.8390     2.4190    -0.4050 C.2   1 <1>  -0.1500 
 22 C       -3.0570    -3.1720     2.9900 C.3   1 <1>   0.0400 
 23 C        6.6030     3.7850     0.7850 C.2   1 <1>  -0.0400 
 24 C        7.6990     3.7520    -0.0020 C.2   1 <1>  -0.1500 
 25 C        5.9540     4.9400     1.5180 C.3   1 <1>  -0.0600 
 26 H        1.9820    -3.0150    -2.0830 H     1 <1>   0.0800 
 27 H        0.5200    -2.6380    -2.9270 H     1 <1>   0.0800 
 28 H        2.4190    -2.0330     0.2110 H     1 <1>   0.0800 
 29 H        2.4340    -0.5220     1.0360 H     1 <1>   0.0800 
 30 H        2.2730     1.4880     0.0070 H     1 <1>   0.0800 
 31 H        1.4000     1.5860    -1.4870 H     1 <1>   0.0800 
 32 H        4.6240    -1.7880    -0.6070 H     1 <1>   0.0800 
 33 H        4.6530    -1.3820     1.0810 H     1 <1>   0.0800 
 34 H        3.8090     2.6010    -1.3650 H     1 <1>   0.0800 
 35 H        3.2950     1.7510    -2.7760 H     1 <1>   0.0800 
 36 H       -1.0060    -1.0650    -0.9200 H     1 <1>   0.1500 
 37 H        1.2800    -4.6510    -0.4740 H     1 <1>   0.1500 
 38 H        4.5490     1.0130     0.3670 H     1 <1>   0.4500 
 39 H        5.5920     1.1760    -2.0320 H     1 <1>   0.0800 
 40 H        4.5300    -0.1950    -2.2420 H     1 <1>   0.0800 
 41 H       -2.3200    -1.6560     1.0270 H     1 <1>   0.1500 
 42 H       -0.0550    -5.2370     1.4970 H     1 <1>   0.1500 
 43 H        6.9830    -0.2330    -0.6130 H     1 <1>   0.0800 
 44 H        6.5630    -0.1390     1.0900 H     1 <1>   0.0800 
 45 H        8.6250     2.0540    -1.0460 H     1 <1>   0.1500 
 46 H       -3.4520    -3.6940     3.8430 H     1 <1>   0.0800 
 47 H       -3.8030    -3.1160     2.2180 H     1 <1>   0.0800 
 48 H       -2.7280    -2.1910     3.2820 H     1 <1>   0.0800 
 49 H        8.3540     4.5610    -0.2780 H     1 <1>   0.1500 
 50 H        5.9420     4.7410     2.5740 H     1 <1>   0.0800 
 51 H        4.9450     5.0730     1.1750 H     1 <1>   0.0800 
 52 H        6.5040     5.8470     1.3420 H     1 <1>   0.0800 
@<TRIPOS>BOND
  1   1   2  2   
  2   2   3  am  
  3   2   4  1   
  4   3   5  1   
  5   3   6  1   
  6   4   7  1   
  7   4  26  1   
  8   4  27  1   
  9   5   8  1   
 10   5  28  1   
 11   5  29  1   
 12   6   9  1   
 13   6  30  1   
 14   6  31  1   
 15   7  10  ar  
 16   7  11  ar  
 17   8  12  1   
 18   8  32  1   
 19   8  33  1   
 20   9  13  1   
 21   9  34  1   
 22   9  35  1   
 23  10  14  ar  
 24  10  36  1   
 25  11  15  ar  
 26  11  37  1   
 27  12  13  1   
 28  12  16  1   
 29  12  38  1   
 30  13  39  1   
 31  13  40  1   
 32  14  17  ar  
 33  14  41  1   
 34  15  17  ar  
 35  15  42  1   
 36  16  18  1   
 37  16  43  1   
 38  16  44  1   
 39  17  19  1   
 40  18  20  1   
 41  18  21  2   
 42  19  22  1   
 43  20  23  1   
 44  21  24  1   
 45  21  45  1   
 46  22  46  1   
 47  22  47  1   
 48  22  48  1   
 49  23  24  2   
 50  23  25  1   
 51  24  49  1   
 52  25  50  1   
 53  25  51  1   
 54  25  52  1   
@<TRIPOS>SUBSTRUCTURE
  1 ****   5 GROUP 4 **** **** 0

# MOE 2024.06 (io_trps.svl 2023.06)
