@<TRIPOS>MOLECULE
NONAME
36 37 1 0 0 
SMALL
USER_CHARGES


@<TRIPOS>ATOM
  1 CL       0.4240    -1.5720    -2.0050 Cl    1 <1>  -0.1770 
  2 C       -0.1310    -2.7360    -0.8220 C.ar  1 <1>   0.1770 
  3 C       -1.4440    -2.7320    -0.3590 C.ar  1 <1>  -0.1440 
  4 C        0.8000    -3.6510    -0.3720 C.ar  1 <1>  -0.1500 
  5 C       -1.8270    -3.6710     0.6090 C.ar  1 <1>  -0.0090 
  6 C       -2.4490    -1.7130    -0.9000 C.3   1 <1>  -0.0970 
  7 C        0.4250    -4.5880     0.5670 C.ar  1 <1>  -0.1500 
  8 S       -3.5110    -3.7800     1.3080 S.o2  1 <1>   1.4470 
  9 C       -0.8730    -4.5890     1.0440 C.ar  1 <1>  -0.1500 
 10 O       -4.0040    -2.4460     1.5840 O.2   1 <1>  -0.6500 
 11 O       -3.5230    -4.7370     2.3930 O.2   1 <1>  -0.6500 
 12 N       -4.4440    -4.3870     0.0240 N.am  1 <1>  -0.8490 
 13 C       -4.0090    -5.6780    -0.5470 C.3   1 <1>   0.1960 
 14 C       -5.8940    -4.3070     0.2260 C.3   1 <1>   0.1960 
 15 C       -4.5110    -6.8910     0.2440 C.3   1 <1>  -0.1860 
 16 C       -6.4300    -5.4770     1.0560 C.3   1 <1>  -0.1600 
 17 C       -4.1330    -8.1700    -0.4710 C.2   1 <1>   0.9060 
 18 C       -6.0250    -6.7990     0.4150 C.3   1 <1>   0.2000 
 19 O       -3.3730    -8.1210    -1.4420 O.co2 1 <1>  -0.9000 
 20 O       -4.6120    -9.2350    -0.0620 O.co2 1 <1>  -0.9000 
 21 O       -6.4470    -7.8280     1.2240 O.3   1 <1>  -0.6800 
 22 H        1.8030    -3.6270    -0.7570 H     1 <1>   0.1500 
 23 H       -3.3980    -2.1770    -1.0980 H     1 <1>   0.0800 
 24 H       -2.1270    -1.2690    -1.8220 H     1 <1>   0.0800 
 25 H       -2.5950    -0.9270    -0.1800 H     1 <1>   0.0800 
 26 H        1.1340    -5.3160     0.9250 H     1 <1>   0.1500 
 27 H       -1.1510    -5.3310     1.7760 H     1 <1>   0.1500 
 28 H       -4.3910    -5.7490    -1.5520 H     1 <1>   0.0800 
 29 H       -2.9350    -5.7180    -0.6230 H     1 <1>   0.0800 
 30 H       -6.1520    -3.3740     0.6980 H     1 <1>   0.0800 
 31 H       -6.3710    -4.3230    -0.7400 H     1 <1>   0.0800 
 32 H       -4.0360    -6.9150     1.2040 H     1 <1>   0.0800 
 33 H       -7.5020    -5.4180     1.1020 H     1 <1>   0.0800 
 34 H       -6.0440    -5.4200     2.0580 H     1 <1>   0.0800 
 35 H       -6.5070    -6.9200    -0.5420 H     1 <1>   0.0800 
 36 H       -5.9270    -8.6310     0.9260 H     1 <1>   0.4000 
@<TRIPOS>BOND
  1   1   2  1   
  2   2   3  ar  
  3   2   4  ar  
  4   3   5  ar  
  5   3   6  1   
  6   4   7  ar  
  7   4  22  1   
  8   5   8  1   
  9   5   9  ar  
 10   6  23  1   
 11   6  24  1   
 12   6  25  1   
 13   7   9  ar  
 14   7  26  1   
 15   8  10  2   
 16   8  11  2   
 17   8  12  am  
 18   9  27  1   
 19  12  13  1   
 20  12  14  1   
 21  13  15  1   
 22  13  28  1   
 23  13  29  1   
 24  14  16  1   
 25  14  30  1   
 26  14  31  1   
 27  15  17  1   
 28  15  18  1   
 29  15  32  1   
 30  16  18  1   
 31  16  33  1   
 32  16  34  1   
 33  17  19  ar  
 34  17  20  ar  
 35  18  21  1   
 36  18  35  1   
 37  21  36  1   
@<TRIPOS>SUBSTRUCTURE
  1 ****  13 GROUP 4 **** **** 0

# MOE 2024.06 (io_trps.svl 2023.06)
