@<TRIPOS>MOLECULE
NONAME
40 42 1 0 0 
SMALL
USER_CHARGES


@<TRIPOS>ATOM
  1 F       -0.4520    -0.8000     0.2910 F     1 <1>  -0.3400 
  2 C       -1.6990    -0.8330    -0.1540 C.3   1 <1>   0.2600 
  3 C       -2.6160    -0.4560     1.0090 C.3   1 <1>  -0.1600 
  4 C       -1.9670    -2.2460    -0.6720 C.3   1 <1>  -0.1600 
  5 C       -4.0800    -0.6350     0.6050 C.3   1 <1>   0.1400 
  6 C       -3.4400    -2.4010    -1.0540 C.3   1 <1>   0.1400 
  7 N       -4.2950    -2.0280     0.1110 N.am  1 <1>  -0.6600 
  8 C       -5.1240    -2.8990     0.7850 C.2   1 <1>   0.5690 
  9 O       -5.6640    -2.5650     1.8180 O.2   1 <1>  -0.5700 
 10 C       -5.4070    -4.3130     0.2430 C.3   1 <1>   0.2610 
 11 O       -4.2810    -5.1580     0.4330 O.3   1 <1>  -0.5600 
 12 C       -6.6880    -4.9260     0.8730 C.3   1 <1>   0.3640 
 13 C       -4.4000    -6.4460    -0.1330 C.3   1 <1>   0.1810 
 14 N       -6.7600    -6.3910     0.6530 N.am  1 <1>  -0.7300 
 15 C       -7.9370    -4.2820     0.2780 C.ar  1 <1>  -0.1440 
 16 C       -5.7240    -7.1350     0.2090 C.2   1 <1>   0.5690 
 17 C       -8.5940    -3.2770     0.9750 C.ar  1 <1>   0.1600 
 18 C       -8.4360    -4.6640    -0.9550 C.ar  1 <1>  -0.1500 
 19 O       -5.8440    -8.3230     0.0530 O.2   1 <1>  -0.5700 
 20 N       -9.6780    -2.6450     0.5530 N.ar  1 <1>  -0.6200 
 21 C       -9.5640    -4.0150    -1.4070 C.ar  1 <1>  -0.1500 
 22 C      -10.1380    -3.0280    -0.6250 C.ar  1 <1>   0.1600 
 23 H       -1.7590    -0.1080    -0.9470 H     1 <1>   0.0800 
 24 H       -2.4140    -1.0870     1.8560 H     1 <1>   0.0800 
 25 H       -2.4460     0.5670     1.2900 H     1 <1>   0.0800 
 26 H       -1.3520    -2.4390    -1.5320 H     1 <1>   0.0800 
 27 H       -1.7320    -2.9670     0.0920 H     1 <1>   0.0800 
 28 H       -4.3360     0.0580    -0.1780 H     1 <1>   0.0800 
 29 H       -4.7140    -0.4230     1.4490 H     1 <1>   0.0800 
 30 H       -3.6150    -3.4140    -1.3660 H     1 <1>   0.0800 
 31 H       -3.6740    -1.7520    -1.8820 H     1 <1>   0.0800 
 32 H       -5.5690    -4.2270    -0.8150 H     1 <1>   0.0800 
 33 H       -6.6720    -4.7600     1.9370 H     1 <1>   0.0800 
 34 H       -4.3080    -6.3580    -1.2000 H     1 <1>   0.0800 
 35 H       -3.5850    -7.0410     0.2370 H     1 <1>   0.0800 
 36 H       -7.6350    -6.8610     0.8950 H     1 <1>   0.3700 
 37 H       -8.2080    -2.9670     1.9330 H     1 <1>   0.1500 
 38 H       -7.9750    -5.4380    -1.5450 H     1 <1>   0.1500 
 39 H      -10.0000    -4.2700    -2.3570 H     1 <1>   0.1500 
 40 H      -11.0200    -2.5270    -0.9880 H     1 <1>   0.1500 
@<TRIPOS>BOND
  1   1   2  1   
  2   2   3  1   
  3   2   4  1   
  4   2  23  1   
  5   3   5  1   
  6   3  24  1   
  7   3  25  1   
  8   4   6  1   
  9   4  26  1   
 10   4  27  1   
 11   5   7  1   
 12   5  28  1   
 13   5  29  1   
 14   6   7  1   
 15   6  30  1   
 16   6  31  1   
 17   7   8  am  
 18   8   9  2   
 19   8  10  1   
 20  10  11  1   
 21  10  12  1   
 22  10  32  1   
 23  11  13  1   
 24  12  14  1   
 25  12  15  1   
 26  12  33  1   
 27  13  16  1   
 28  13  34  1   
 29  13  35  1   
 30  14  16  am  
 31  14  36  1   
 32  15  17  ar  
 33  15  18  ar  
 34  16  19  2   
 35  17  20  ar  
 36  17  37  1   
 37  18  21  ar  
 38  18  38  1   
 39  20  22  ar  
 40  21  22  ar  
 41  21  39  1   
 42  22  40  1   
@<TRIPOS>SUBSTRUCTURE
  1 ****  10 GROUP 4 **** **** 0

# MOE 2024.06 (io_trps.svl 2023.06)
