@<TRIPOS>MOLECULE
NONAME
51 53 1 0 0 
SMALL
USER_CHARGES


@<TRIPOS>ATOM
  1 F        0.8050     1.6980    -1.1380 F     1 <1>  -0.1900 
  2 C       -0.4440     2.0620    -1.2700 C.ar  1 <1>   0.1900 
  3 C       -0.8250     3.3500    -0.9260 C.ar  1 <1>  -0.1440 
  4 C       -1.3360     1.1300    -1.7690 C.ar  1 <1>  -0.1500 
  5 C       -2.1570     3.7010    -1.1060 C.ar  1 <1>  -0.1500 
  6 C        0.1800     4.3560    -0.3820 C.3   1 <1>   0.2540 
  7 C       -2.6600     1.4970    -1.9370 C.ar  1 <1>  -0.1500 
  8 C       -3.0660     2.7810    -1.6070 C.ar  1 <1>  -0.1500 
  9 N        0.3730     4.2060     1.0700 N.3   1 <1>  -0.8100 
 10 C        1.5330     5.0070     1.5620 C.3   1 <1>   0.1710 
 11 C       -0.8420     4.5260     1.8340 C.3   1 <1>   0.0300 
 12 C        1.4710     6.5310     1.3200 C.2   1 <1>   0.5690 
 13 O        0.9020     7.1910     2.1620 O.2   1 <1>  -0.5700 
 14 N        2.0230     7.1270     0.2030 N.am  1 <1>  -0.6600 
 15 C        1.9390     8.6050     0.0270 C.3   1 <1>   0.1400 
 16 C        2.8920     6.4260    -0.8000 C.3   1 <1>   0.1400 
 17 C        3.3260     9.2950     0.0580 C.3   1 <1>  -0.0800 
 18 C        4.0250     7.3190    -1.3370 C.3   1 <1>  -0.1600 
 19 C        4.5010     8.3340    -0.2910 C.3   1 <1>   0.2800 
 20 C        3.2410    10.5210    -0.8830 C.3   1 <1>  -0.1600 
 21 O        4.8470     7.6100     0.8370 O.3   1 <1>  -0.6800 
 22 C        5.8000     9.0590    -0.6950 C.3   1 <1>  -0.1600 
 23 C        4.5880    11.2070    -1.1140 C.3   1 <1>  -0.1600 
 24 C        5.5920    10.2070    -1.6860 C.3   1 <1>  -0.1600 
 25 H       -0.9960     0.1420    -2.0180 H     1 <1>   0.1500 
 26 H       -2.4900     4.6920    -0.8530 H     1 <1>   0.1500 
 27 H       -0.1490     5.3570    -0.6060 H     1 <1>   0.0800 
 28 H        1.1200     4.1970    -0.8790 H     1 <1>   0.0800 
 29 H       -3.3720     0.7880    -2.3230 H     1 <1>   0.1500 
 30 H       -4.0960     3.0660    -1.7390 H     1 <1>   0.1500 
 31 H        1.6130     4.8610     2.6240 H     1 <1>   0.0800 
 32 H        2.4320     4.6000     1.1460 H     1 <1>   0.0800 
 33 H       -1.6290     3.8350     1.5870 H     1 <1>   0.0800 
 34 H       -1.1720     5.5300     1.6230 H     1 <1>   0.0800 
 35 H       -0.6450     4.4410     2.8890 H     1 <1>   0.0800 
 36 H        1.4610     8.7780    -0.9210 H     1 <1>   0.0800 
 37 H        1.3080     9.0500     0.7770 H     1 <1>   0.0800 
 38 H        3.3570     5.5730    -0.3410 H     1 <1>   0.0800 
 39 H        2.2880     6.0800    -1.6200 H     1 <1>   0.0800 
 40 H        3.4930     9.6740     1.0510 H     1 <1>   0.0800 
 41 H        3.6770     7.8430    -2.2080 H     1 <1>   0.0800 
 42 H        4.8450     6.6990    -1.6510 H     1 <1>   0.0800 
 43 H        2.8610    10.2160    -1.8430 H     1 <1>   0.0800 
 44 H        2.5470    11.2370    -0.4740 H     1 <1>   0.0800 
 45 H        4.9070     8.2110     1.6020 H     1 <1>   0.4000 
 46 H        6.2570     9.4750     0.1860 H     1 <1>   0.0800 
 47 H        6.4930     8.3500    -1.1140 H     1 <1>   0.0800 
 48 H        4.4620    12.0250    -1.8030 H     1 <1>   0.0800 
 49 H        4.9580    11.6110    -0.1860 H     1 <1>   0.0800 
 50 H        6.5310    10.7010    -1.8660 H     1 <1>   0.0800 
 51 H        5.2350     9.8230    -2.6270 H     1 <1>   0.0800 
@<TRIPOS>BOND
  1   1   2  1   
  2   2   3  ar  
  3   2   4  ar  
  4   3   5  ar  
  5   3   6  1   
  6   4   7  ar  
  7   4  25  1   
  8   5   8  ar  
  9   5  26  1   
 10   6   9  1   
 11   6  27  1   
 12   6  28  1   
 13   7   8  ar  
 14   7  29  1   
 15   8  30  1   
 16   9  10  1   
 17   9  11  1   
 18  10  12  1   
 19  10  31  1   
 20  10  32  1   
 21  11  33  1   
 22  11  34  1   
 23  11  35  1   
 24  12  13  2   
 25  12  14  am  
 26  14  15  1   
 27  14  16  1   
 28  15  17  1   
 29  15  36  1   
 30  15  37  1   
 31  16  18  1   
 32  16  38  1   
 33  16  39  1   
 34  17  19  1   
 35  17  20  1   
 36  17  40  1   
 37  18  19  1   
 38  18  41  1   
 39  18  42  1   
 40  19  21  1   
 41  19  22  1   
 42  20  23  1   
 43  20  43  1   
 44  20  44  1   
 45  21  45  1   
 46  22  24  1   
 47  22  46  1   
 48  22  47  1   
 49  23  24  1   
 50  23  48  1   
 51  23  49  1   
 52  24  50  1   
 53  24  51  1   
@<TRIPOS>SUBSTRUCTURE
  1 ****  14 GROUP 4 **** **** 0

# MOE 2024.06 (io_trps.svl 2023.06)
