@<TRIPOS>MOLECULE
NONAME
41 44 1 0 0 
SMALL
USER_CHARGES


@<TRIPOS>ATOM
  1 O       -0.8980     0.3070    -1.0080 O.2   1 <1>  -0.5700 
  2 C       -1.6010     0.9320    -0.2330 C.2   1 <1>   0.7150 
  3 N       -2.6010     0.2470     0.4280 N.am  1 <1>  -0.6600 
  4 C       -1.4000     2.3510    -0.0200 C.2   1 <1>   0.0550 
  5 C       -2.6310    -1.2500     0.4660 C.3   1 <1>   0.1400 
  6 C       -3.9460     0.8500     0.6760 C.3   1 <1>   0.1400 
  7 O       -0.9510     3.1370    -0.9950 O.3   1 <1>  -0.2800 
  8 C       -1.5980     3.1200     1.0880 C.2   1 <1>  -0.1500 
  9 C       -3.7650    -1.8020    -0.4180 C.3   1 <1>   0.3440 
 10 C       -5.0170     0.1820    -0.2110 C.3   1 <1>   0.2950 
 11 C       -0.8620     4.3680    -0.5460 C.2   1 <1>  -0.0100 
 12 C       -1.2510     4.4270     0.7450 C.2   1 <1>  -0.1500 
 13 O       -4.9850    -1.2070    -0.0570 O.3   1 <1>  -0.5600 
 14 C       -3.8670    -3.3180    -0.2720 C.ar  1 <1>  -0.1440 
 15 C       -6.4260     0.6540     0.1600 C.3   1 <1>  -0.1950 
 16 C       -4.6730    -3.9030     0.6960 C.ar  1 <1>  -0.1500 
 17 C       -3.1280    -4.1360    -1.1150 C.ar  1 <1>  -0.1500 
 18 C       -7.5550     0.5630    -0.8170 C.3   1 <1>  -0.2000 
 19 C       -7.0010     1.9050    -0.4260 C.3   1 <1>  -0.2000 
 20 C       -4.7380    -5.2800     0.8190 C.ar  1 <1>  -0.1500 
 21 C       -3.1920    -5.5130    -0.9940 C.ar  1 <1>  -0.1500 
 22 C       -3.9970    -6.0860    -0.0260 C.ar  1 <1>  -0.1500 
 23 H       -1.6920    -1.6590     0.1350 H     1 <1>   0.0800 
 24 H       -2.7870    -1.5780     1.4780 H     1 <1>   0.0800 
 25 H       -4.2090     0.7190     1.7110 H     1 <1>   0.0800 
 26 H       -3.9390     1.9050     0.4650 H     1 <1>   0.0800 
 27 H       -1.9480     2.8020     2.0540 H     1 <1>   0.1500 
 28 H       -3.5690    -1.5590    -1.4490 H     1 <1>   0.0800 
 29 H       -4.8250     0.4080    -1.2470 H     1 <1>   0.0800 
 30 H       -0.5110     5.1410    -1.2070 H     1 <1>   0.1500 
 31 H       -1.2910     5.2840     1.3950 H     1 <1>   0.1500 
 32 H       -6.6590     0.4450     1.1900 H     1 <1>   0.1000 
 33 H       -5.2570    -3.2840     1.3550 H     1 <1>   0.1500 
 34 H       -2.4960    -3.7040    -1.8730 H     1 <1>   0.1500 
 35 H       -7.3540     0.1770    -1.8020 H     1 <1>   0.1000 
 36 H       -8.5230     0.2680    -0.4510 H     1 <1>   0.1000 
 37 H       -7.6020     2.5450     0.1980 H     1 <1>   0.1000 
 38 H       -6.4450     2.4570    -1.1650 H     1 <1>   0.1000 
 39 H       -5.3680    -5.7220     1.5710 H     1 <1>   0.1500 
 40 H       -2.6150    -6.1390    -1.6520 H     1 <1>   0.1500 
 41 H       -4.0480    -7.1570     0.0700 H     1 <1>   0.1500 
@<TRIPOS>BOND
  1   1   2  2   
  2   2   3  am  
  3   2   4  1   
  4   3   5  1   
  5   3   6  1   
  6   4   7  1   
  7   4   8  2   
  8   5   9  1   
  9   5  23  1   
 10   5  24  1   
 11   6  10  1   
 12   6  25  1   
 13   6  26  1   
 14   7  11  1   
 15   8  12  1   
 16   8  27  1   
 17   9  13  1   
 18   9  14  1   
 19   9  28  1   
 20  10  13  1   
 21  10  15  1   
 22  10  29  1   
 23  11  12  2   
 24  11  30  1   
 25  12  31  1   
 26  14  16  ar  
 27  14  17  ar  
 28  15  18  1   
 29  15  19  1   
 30  15  32  1   
 31  16  20  ar  
 32  16  33  1   
 33  17  21  ar  
 34  17  34  1   
 35  18  19  1   
 36  18  35  1   
 37  18  36  1   
 38  19  37  1   
 39  19  38  1   
 40  20  22  ar  
 41  20  39  1   
 42  21  22  ar  
 43  21  40  1   
 44  22  41  1   
@<TRIPOS>SUBSTRUCTURE
  1 ****   3 GROUP 4 **** **** 0

# MOE 2024.06 (io_trps.svl 2023.06)
