@<TRIPOS>MOLECULE
NONAME
51 53 1 0 0 
SMALL
USER_CHARGES


@<TRIPOS>ATOM
  1 F       -0.8160    -0.2210     1.2070 F     1 <1>  -0.1900 
  2 C       -1.9110    -0.9240     1.0700 C.ar  1 <1>   0.1900 
  3 C       -2.2350    -1.5600    -0.1330 C.ar  1 <1>   0.0820 
  4 C       -2.7340    -1.0000     2.1780 C.ar  1 <1>  -0.1500 
  5 O       -1.5120    -1.5630    -1.2870 O.3   1 <1>  -0.3630 
  6 C       -3.4230    -2.2730    -0.1850 C.ar  1 <1>  -0.1500 
  7 C       -3.9160    -1.7170     2.1000 C.ar  1 <1>  -0.1500 
  8 C       -0.2220    -0.9950    -1.3860 C.3   1 <1>   0.0400 
  9 C       -4.2680    -2.3510     0.9150 C.ar  1 <1>  -0.1430 
 10 C       -5.5730    -3.1180     0.8130 C.3   1 <1>   0.4870 
 11 N       -6.5100    -2.3480    -0.0500 N.4   1 <1>  -0.9590 
 12 C       -6.8310    -1.0120     0.5330 C.3   1 <1>   0.3430 
 13 C       -7.7340    -3.1310    -0.3700 C.3   1 <1>   0.3430 
 14 C       -7.6880    -0.2150    -0.4430 C.3   1 <1>  -0.1600 
 15 C       -8.5940    -2.3530    -1.3580 C.3   1 <1>  -0.1600 
 16 C       -8.9760    -0.9660    -0.8270 C.3   1 <1>   0.2800 
 17 O       -9.5220    -0.3220    -1.9310 O.3   1 <1>  -0.5600 
 18 C      -10.0050    -1.0870     0.3370 C.3   1 <1>  -0.1600 
 19 C      -10.1500     0.9320    -1.7910 C.3   1 <1>   0.1200 
 20 C      -11.2800    -0.2470     0.1640 C.3   1 <1>   0.2800 
 21 C      -10.9210     1.1160    -0.4670 C.3   1 <1>   0.2000 
 22 O      -12.1330    -0.9220    -0.6890 O.3   1 <1>  -0.6800 
 23 C      -12.0510    -0.1120     1.4820 C.3   1 <1>  -0.2400 
 24 O      -10.1330     1.8640     0.4190 O.3   1 <1>  -0.6800 
 25 H       -2.4470    -0.5010     3.0880 H     1 <1>   0.1500 
 26 H       -3.6650    -2.7680    -1.1100 H     1 <1>   0.1500 
 27 H       -4.5480    -1.7720     2.9710 H     1 <1>   0.1500 
 28 H        0.1550    -1.1890    -2.3740 H     1 <1>   0.0800 
 29 H        0.4210    -1.4540    -0.6550 H     1 <1>   0.0800 
 30 H       -0.2920     0.0660    -1.2260 H     1 <1>   0.0800 
 31 H       -5.9970    -3.2590     1.7940 H     1 <1>   0.0800 
 32 H       -5.3810    -4.0870     0.3800 H     1 <1>   0.0800 
 33 H       -6.0120    -2.1640    -0.9310 H     1 <1>   0.4500 
 34 H       -7.3600    -1.1340     1.4650 H     1 <1>   0.0800 
 35 H       -5.9230    -0.4640     0.7300 H     1 <1>   0.0800 
 36 H       -7.4640    -4.0810    -0.8050 H     1 <1>   0.0800 
 37 H       -8.2980    -3.3170     0.5310 H     1 <1>   0.0800 
 38 H       -7.1110    -0.0120    -1.3270 H     1 <1>   0.0800 
 39 H       -7.9230     0.7260     0.0130 H     1 <1>   0.0800 
 40 H       -9.4890    -2.9110    -1.5700 H     1 <1>   0.0800 
 41 H       -8.0550    -2.2510    -2.2840 H     1 <1>   0.0800 
 42 H      -10.2870    -2.1100     0.5070 H     1 <1>   0.0800 
 43 H       -9.5270    -0.7600     1.2410 H     1 <1>   0.0800 
 44 H       -9.4090     1.7010    -1.9180 H     1 <1>   0.0800 
 45 H      -10.8490     1.0010    -2.6060 H     1 <1>   0.0800 
 46 H      -11.8200     1.6830    -0.6380 H     1 <1>   0.0800 
 47 H      -12.5360    -1.6810    -0.2300 H     1 <1>   0.4000 
 48 H      -11.4560     0.4130     2.2080 H     1 <1>   0.0800 
 49 H      -12.2970    -1.0760     1.8870 H     1 <1>   0.0800 
 50 H      -12.9540     0.4520     1.3280 H     1 <1>   0.0800 
 51 H      -10.1320     2.8050     0.1560 H     1 <1>   0.4000 
@<TRIPOS>BOND
  1   1   2  1   
  2   2   3  ar  
  3   2   4  ar  
  4   3   5  1   
  5   3   6  ar  
  6   4   7  ar  
  7   4  25  1   
  8   5   8  1   
  9   6   9  ar  
 10   6  26  1   
 11   7   9  ar  
 12   7  27  1   
 13   8  28  1   
 14   8  29  1   
 15   8  30  1   
 16   9  10  1   
 17  10  11  1   
 18  10  31  1   
 19  10  32  1   
 20  11  12  1   
 21  11  13  1   
 22  11  33  1   
 23  12  14  1   
 24  12  34  1   
 25  12  35  1   
 26  13  15  1   
 27  13  36  1   
 28  13  37  1   
 29  14  16  1   
 30  14  38  1   
 31  14  39  1   
 32  15  16  1   
 33  15  40  1   
 34  15  41  1   
 35  16  17  1   
 36  16  18  1   
 37  17  19  1   
 38  18  20  1   
 39  18  42  1   
 40  18  43  1   
 41  19  21  1   
 42  19  44  1   
 43  19  45  1   
 44  20  21  1   
 45  20  22  1   
 46  20  23  1   
 47  21  24  1   
 48  21  46  1   
 49  22  47  1   
 50  23  48  1   
 51  23  49  1   
 52  23  50  1   
 53  24  51  1   
@<TRIPOS>SUBSTRUCTURE
  1 ****  12 GROUP 4 **** **** 0

# MOE 2024.06 (io_trps.svl 2023.06)
