@<TRIPOS>MOLECULE
NONAME
45 47 1 0 0 
SMALL
USER_CHARGES


@<TRIPOS>ATOM
  1 O       -0.1260    -1.5000     1.4090 O.3   1 <1>  -0.6800 
  2 C        0.6440    -2.5040     0.8440 C.3   1 <1>   0.2000 
  3 C        1.9080    -1.9790     0.1400 C.3   1 <1>   0.0000 
  4 C       -0.1530    -3.2490    -0.2240 C.3   1 <1>  -0.1600 
  5 C        3.0270    -1.7180     1.1690 C.3   1 <1>   0.2090 
  6 C        1.6560    -0.6870    -0.6900 C.3   1 <1>  -0.1600 
  7 C        2.2360    -3.1650    -0.7850 C.3   1 <1>  -0.1600 
  8 C        0.8850    -3.7240    -1.2510 C.3   1 <1>  -0.1600 
  9 N        4.2590    -1.2270     0.4800 N.pl3 1 <1>  -0.8380 
 10 C        2.9540    -0.1010    -1.2820 C.3   1 <1>  -0.1600 
 11 C        5.3700    -2.0240     0.2740 C.ar  1 <1>   0.7200 
 12 C        4.0460     0.0690    -0.2200 C.3   1 <1>   0.2090 
 13 N        5.4220    -3.1810     0.9350 N.ar  1 <1>  -0.6200 
 14 N        6.2970    -1.5750    -0.5710 N.ar  1 <1>  -0.6200 
 15 C        6.4790    -3.9260     0.7280 C.ar  1 <1>   0.1600 
 16 C        7.3420    -2.3420    -0.7580 C.ar  1 <1>   0.1600 
 17 C        7.4910    -3.5540    -0.1240 C.ar  1 <1>  -0.1440 
 18 C        8.7120    -4.4310    -0.3510 C.3   1 <1>  -0.0170 
 19 C        9.8140    -4.0890     0.6570 C.3   1 <1>  -0.1600 
 20 C       11.0560    -4.9610     0.4490 C.3   1 <1>  -0.2400 
 21 H       -0.9550    -1.8750     1.7600 H     1 <1>   0.4000 
 22 H        0.9230    -3.1920     1.6250 H     1 <1>   0.0800 
 23 H       -0.6830    -4.0820     0.2020 H     1 <1>   0.0800 
 24 H       -0.8470    -2.5830    -0.7070 H     1 <1>   0.0800 
 25 H        3.2210    -2.6100     1.7360 H     1 <1>   0.0800 
 26 H        2.6980    -0.9650     1.8640 H     1 <1>   0.0800 
 27 H        0.9520    -0.8750    -1.4800 H     1 <1>   0.0800 
 28 H        1.2270     0.0630    -0.0490 H     1 <1>   0.0800 
 29 H        2.8680    -2.8960    -1.6120 H     1 <1>   0.0800 
 30 H        2.7480    -3.9250    -0.2180 H     1 <1>   0.0800 
 31 H        0.9200    -4.7990    -1.3100 H     1 <1>   0.0800 
 32 H        0.6410    -3.3310    -2.2230 H     1 <1>   0.0800 
 33 H        2.7440     0.8550    -1.7240 H     1 <1>   0.0800 
 34 H        3.3330    -0.7380    -2.0600 H     1 <1>   0.0800 
 35 H        3.7360     0.8040     0.5030 H     1 <1>   0.0800 
 36 H        4.9500     0.4280    -0.6780 H     1 <1>   0.0800 
 37 H        6.5400    -4.8620     1.2570 H     1 <1>   0.1500 
 38 H        8.1010    -1.9930    -1.4350 H     1 <1>   0.1500 
 39 H        8.4350    -5.4660    -0.2510 H     1 <1>   0.0800 
 40 H        9.0780    -4.2870    -1.3530 H     1 <1>   0.0800 
 41 H       10.0860    -3.0520     0.5530 H     1 <1>   0.0800 
 42 H        9.4420    -4.2330     1.6570 H     1 <1>   0.0800 
 43 H       11.4610    -4.8130    -0.5380 H     1 <1>   0.0800 
 44 H       10.8140    -6.0020     0.5730 H     1 <1>   0.0800 
 45 H       11.8120    -4.6990     1.1690 H     1 <1>   0.0800 
@<TRIPOS>BOND
  1   1   2  1   
  2   1  21  1   
  3   2   3  1   
  4   2   4  1   
  5   2  22  1   
  6   3   5  1   
  7   3   6  1   
  8   3   7  1   
  9   4   8  1   
 10   4  23  1   
 11   4  24  1   
 12   5   9  1   
 13   5  25  1   
 14   5  26  1   
 15   6  10  1   
 16   6  27  1   
 17   6  28  1   
 18   7   8  1   
 19   7  29  1   
 20   7  30  1   
 21   8  31  1   
 22   8  32  1   
 23   9  11  1   
 24   9  12  1   
 25  10  12  1   
 26  10  33  1   
 27  10  34  1   
 28  11  13  ar  
 29  11  14  ar  
 30  12  35  1   
 31  12  36  1   
 32  13  15  ar  
 33  14  16  ar  
 34  15  17  ar  
 35  15  37  1   
 36  16  17  ar  
 37  16  38  1   
 38  17  18  1   
 39  18  19  1   
 40  18  39  1   
 41  18  40  1   
 42  19  20  1   
 43  19  41  1   
 44  19  42  1   
 45  20  43  1   
 46  20  44  1   
 47  20  45  1   
@<TRIPOS>SUBSTRUCTURE
  1 ****  11 GROUP 4 **** **** 0

# MOE 2024.06 (io_trps.svl 2023.06)
