@<TRIPOS>MOLECULE
NONAME
43 45 1 0 0 
SMALL
USER_CHARGES


@<TRIPOS>ATOM
  1 CL      -1.0290    -1.1150     0.3940 Cl    1 <1>  -0.1770 
  2 C        0.2410    -1.7100    -0.6500 C.ar  1 <1>   0.1770 
  3 C        1.5760    -1.5290    -0.3040 C.ar  1 <1>  -0.1440 
  4 C       -0.1440    -2.3560    -1.8130 C.ar  1 <1>  -0.1500 
  5 C        2.5090    -2.0410    -1.2030 C.ar  1 <1>   0.1900 
  6 C        1.8950    -0.8110     1.0200 C.3   1 <1>   0.0440 
  7 C        0.8140    -2.8520    -2.6800 C.ar  1 <1>  -0.1500 
  8 F        3.7890    -1.9120    -0.9800 F     1 <1>  -0.1900 
  9 C        2.1530    -2.6940    -2.3710 C.ar  1 <1>  -0.1500 
 10 C        3.3400    -0.4260     1.3110 C.2   1 <1>   0.5690 
 11 O        4.0050    -1.1780     1.9830 O.2   1 <1>  -0.5700 
 12 N        3.8930     0.7360     0.8320 N.am  1 <1>  -0.6600 
 13 C        5.2040     1.1960     1.4290 C.3   1 <1>   0.2200 
 14 C        3.3950     1.4190    -0.4000 C.3   1 <1>   0.1400 
 15 C        5.3690     2.7240     1.4610 C.3   1 <1>   0.1200 
 16 C        6.3930     0.5240     0.7070 C.3   1 <1>   0.3430 
 17 C        4.5120     1.9950    -1.2960 C.3   1 <1>  -0.0800 
 18 O        5.9130     3.1900     0.2620 O.3   1 <1>  -0.5600 
 19 N        6.0170    -0.0100    -0.6490 N.4   1 <1>  -0.9590 
 20 C        5.0170     3.3520    -0.7830 C.3   1 <1>   0.1200 
 21 C        5.6790     1.0450    -1.6610 C.3   1 <1>   0.3430 
 22 C        7.0460    -0.9590    -1.1560 C.3   1 <1>   0.2630 
 23 H       -1.1910    -2.4710    -2.0340 H     1 <1>   0.1500 
 24 H        1.5670    -1.4450     1.8240 H     1 <1>   0.0800 
 25 H        1.3110     0.0890     1.0830 H     1 <1>   0.0800 
 26 H        0.5180    -3.3600    -3.5830 H     1 <1>   0.1500 
 27 H        2.9120    -3.0780    -3.0300 H     1 <1>   0.1500 
 28 H        5.2280     0.8810     2.4590 H     1 <1>   0.0800 
 29 H        2.8250     0.7230    -0.9890 H     1 <1>   0.0800 
 30 H        2.7230     2.2100    -0.1100 H     1 <1>   0.0800 
 31 H        6.0730     2.9830     2.2330 H     1 <1>   0.0800 
 32 H        4.4410     3.2260     1.6740 H     1 <1>   0.0800 
 33 H        6.7240    -0.2950     1.3250 H     1 <1>   0.0800 
 34 H        7.2100     1.2220     0.6240 H     1 <1>   0.0800 
 35 H        4.0320     2.2340    -2.2290 H     1 <1>   0.0800 
 36 H        5.1440    -0.5400    -0.4660 H     1 <1>   0.4500 
 37 H        4.2080     3.9860    -0.4580 H     1 <1>   0.0800 
 38 H        5.5460     3.8660    -1.5670 H     1 <1>   0.0800 
 39 H        6.5560     1.6410    -1.8580 H     1 <1>   0.0800 
 40 H        5.4190     0.5480    -2.5810 H     1 <1>   0.0800 
 41 H        7.9780    -0.4450    -1.3270 H     1 <1>   0.0800 
 42 H        6.7180    -1.4060    -2.0800 H     1 <1>   0.0800 
 43 H        7.2100    -1.7460    -0.4370 H     1 <1>   0.0800 
@<TRIPOS>BOND
  1   1   2  1   
  2   2   3  ar  
  3   2   4  ar  
  4   3   5  ar  
  5   3   6  1   
  6   4   7  ar  
  7   4  23  1   
  8   5   8  1   
  9   5   9  ar  
 10   6  10  1   
 11   6  24  1   
 12   6  25  1   
 13   7   9  ar  
 14   7  26  1   
 15   9  27  1   
 16  10  11  2   
 17  10  12  am  
 18  12  13  1   
 19  12  14  1   
 20  13  15  1   
 21  13  16  1   
 22  13  28  1   
 23  14  17  1   
 24  14  29  1   
 25  14  30  1   
 26  15  18  1   
 27  15  31  1   
 28  15  32  1   
 29  16  19  1   
 30  16  33  1   
 31  16  34  1   
 32  17  20  1   
 33  17  21  1   
 34  17  35  1   
 35  18  20  1   
 36  19  21  1   
 37  19  22  1   
 38  19  36  1   
 39  20  37  1   
 40  20  38  1   
 41  21  39  1   
 42  21  40  1   
 43  22  41  1   
 44  22  42  1   
 45  22  43  1   
@<TRIPOS>SUBSTRUCTURE
  1 ****  12 GROUP 4 **** **** 0

# MOE 2024.06 (io_trps.svl 2023.06)
