@<TRIPOS>MOLECULE
NONAME
50 52 1 0 0 
SMALL
USER_CHARGES


@<TRIPOS>ATOM
  1 O        2.4490    -0.9900     2.5710 O.2   1 <1>  -0.5700 
  2 C        2.3340    -1.2730     1.3920 C.2   1 <1>   0.5440 
  3 N        2.5470    -0.2770     0.4510 N.am  1 <1>  -0.6600 
  4 C        2.0130    -2.6360     1.0220 C.ar  1 <1>   0.0860 
  5 C        2.7900     1.1230     0.9270 C.3   1 <1>   0.1400 
  6 C        2.8870    -0.6070    -0.9720 C.3   1 <1>   0.1400 
  7 C        0.9370    -2.9370     0.1900 C.ar  1 <1>  -0.1500 
  8 C        2.7840    -3.6990     1.4820 C.ar  1 <1>  -0.1500 
  9 C        4.2900     1.5180     0.9820 C.3   1 <1>   0.4230 
 10 C        4.2510    -0.0670    -1.4590 C.3   1 <1>  -0.0800 
 11 C        0.6450    -4.2320    -0.1950 C.ar  1 <1>   0.0830 
 12 C        2.5130    -5.0030     1.1100 C.ar  1 <1>  -0.1500 
 13 N        4.7920     2.1220    -0.3070 N.4   1 <1>  -0.9590 
 14 C        5.2500     0.3880     1.4490 C.3   1 <1>   0.1200 
 15 C        5.4880    -0.6560    -0.7460 C.3   1 <1>   0.1200 
 16 C        4.2620     1.4610    -1.5380 C.3   1 <1>   0.3430 
 17 O       -0.4340    -4.3530    -1.0170 O.3   1 <1>  -0.3630 
 18 C        1.4490    -5.2920     0.2580 C.ar  1 <1>   0.0830 
 19 C        4.5490     3.5970    -0.3550 C.3   1 <1>   0.2630 
 20 O        5.3150    -0.7560     0.6310 O.3   1 <1>  -0.5600 
 21 C       -1.2480    -5.5050    -0.9900 C.3   1 <1>   0.3200 
 22 O        1.1940    -6.5650    -0.1500 O.3   1 <1>  -0.3630 
 23 C       -2.5770    -5.1600    -1.5720 C.1   1 <1>  -0.2000 
 24 C        2.0210    -7.6540     0.1970 C.3   1 <1>   0.0400 
 25 C       -3.6380    -4.8890    -2.0370 C.1   1 <1>  -0.1770 
 26 H        2.2410     1.8110     0.3110 H     1 <1>   0.0800 
 27 H        2.3890     1.2320     1.9200 H     1 <1>   0.0800 
 28 H        2.9010    -1.6740    -1.1070 H     1 <1>   0.0800 
 29 H        2.1020    -0.2240    -1.6020 H     1 <1>   0.0800 
 30 H        0.3080    -2.1400    -0.1630 H     1 <1>   0.1500 
 31 H        3.6100    -3.4880     2.1410 H     1 <1>   0.1500 
 32 H        4.3620     2.2850     1.7350 H     1 <1>   0.0800 
 33 H        4.3260    -0.3920    -2.4810 H     1 <1>   0.0800 
 34 H        3.1480    -5.7760     1.4970 H     1 <1>   0.1500 
 35 H        5.8090     1.9620    -0.3000 H     1 <1>   0.4500 
 36 H        4.9290     0.0450     2.4180 H     1 <1>   0.0800 
 37 H        6.2480     0.7700     1.5580 H     1 <1>   0.0800 
 38 H        6.3840    -0.0960    -0.9480 H     1 <1>   0.0800 
 39 H        5.6440    -1.6620    -1.0970 H     1 <1>   0.0800 
 40 H        3.2580     1.8030    -1.7320 H     1 <1>   0.0800 
 41 H        4.8720     1.7570    -2.3760 H     1 <1>   0.0800 
 42 H        3.4910     3.8040    -0.3550 H     1 <1>   0.0800 
 43 H        4.9820     4.0200    -1.2470 H     1 <1>   0.0800 
 44 H        4.9950     4.0790     0.5010 H     1 <1>   0.0800 
 45 H       -0.7740    -6.2700    -1.5770 H     1 <1>   0.0800 
 46 H       -1.3570    -5.8280     0.0300 H     1 <1>   0.0800 
 47 H        1.6290    -8.5360    -0.2770 H     1 <1>   0.0800 
 48 H        2.0080    -7.7780     1.2650 H     1 <1>   0.0800 
 49 H        3.0190    -7.4630    -0.1590 H     1 <1>   0.0800 
 50 H       -4.5950    -4.6380    -2.4600 H     1 <1>   0.1770 
@<TRIPOS>BOND
  1   1   2  2   
  2   2   3  am  
  3   2   4  1   
  4   3   5  1   
  5   3   6  1   
  6   4   7  ar  
  7   4   8  ar  
  8   5   9  1   
  9   5  26  1   
 10   5  27  1   
 11   6  10  1   
 12   6  28  1   
 13   6  29  1   
 14   7  11  ar  
 15   7  30  1   
 16   8  12  ar  
 17   8  31  1   
 18   9  13  1   
 19   9  14  1   
 20   9  32  1   
 21  10  15  1   
 22  10  16  1   
 23  10  33  1   
 24  11  17  1   
 25  11  18  ar  
 26  12  18  ar  
 27  12  34  1   
 28  13  16  1   
 29  13  19  1   
 30  13  35  1   
 31  14  20  1   
 32  14  36  1   
 33  14  37  1   
 34  15  20  1   
 35  15  38  1   
 36  15  39  1   
 37  16  40  1   
 38  16  41  1   
 39  17  21  1   
 40  18  22  1   
 41  19  42  1   
 42  19  43  1   
 43  19  44  1   
 44  21  23  1   
 45  21  45  1   
 46  21  46  1   
 47  22  24  1   
 48  23  25  3   
 49  24  47  1   
 50  24  48  1   
 51  24  49  1   
 52  25  50  1   
@<TRIPOS>SUBSTRUCTURE
  1 ****   4 GROUP 4 **** **** 0

# MOE 2024.06 (io_trps.svl 2023.06)
