@<TRIPOS>MOLECULE
NONAME
55 57 1 0 0 
SMALL
USER_CHARGES


@<TRIPOS>ATOM
  1 S       -1.8630    -0.0090    -1.7330 S.o2  1 <1>   1.2040 
  2 O       -1.3020    -0.8030    -2.8030 O.2   1 <1>  -0.6500 
  3 O       -2.7810     1.0670    -2.0340 O.2   1 <1>  -0.6500 
  4 C       -2.5930    -1.0980    -0.4860 C.ar  1 <1>  -0.0090 
  5 C       -0.4960     0.7050    -0.8410 C.3   1 <1>  -0.1350 
  6 C       -3.6060    -0.6520     0.3530 C.ar  1 <1>  -0.1500 
  7 C       -2.1370    -2.3990    -0.3130 C.ar  1 <1>  -0.1500 
  8 C       -4.1460    -1.4720     1.3290 C.ar  1 <1>  -0.1500 
  9 C       -2.6710    -3.2250     0.6610 C.ar  1 <1>  -0.1500 
 10 C       -3.6850    -2.7680     1.4860 C.ar  1 <1>  -0.1430 
 11 C       -4.2920    -3.6810     2.5510 C.3   1 <1>   0.0440 
 12 C       -4.5770    -5.0990     2.0650 C.2   1 <1>   0.5690 
 13 O       -4.0240    -6.0000     2.6510 O.2   1 <1>  -0.5700 
 14 N       -5.4260    -5.3480     1.0140 N.am  1 <1>  -0.6600 
 15 C       -6.1210    -4.3060     0.1950 C.3   1 <1>   0.1400 
 16 C       -5.6330    -6.7340     0.4930 C.3   1 <1>   0.1400 
 17 C       -7.5770    -4.7080    -0.1270 C.3   1 <1>   0.2950 
 18 C       -7.1170    -6.9980     0.1590 C.3   1 <1>   0.2000 
 19 O       -7.6070    -5.9920    -0.6800 O.3   1 <1>  -0.5600 
 20 C       -8.2930    -3.7740    -1.1200 C.3   1 <1>  -0.1950 
 21 C       -7.3420    -8.3280    -0.5720 C.3   1 <1>  -0.1600 
 22 C       -7.6630    -3.2480    -2.3720 C.3   1 <1>  -0.2000 
 23 C       -7.9950    -2.3100    -1.2450 C.3   1 <1>  -0.2000 
 24 C       -6.9850    -9.5550     0.2830 C.3   1 <1>  -0.1600 
 25 C       -7.3180   -10.8550    -0.4580 C.3   1 <1>  -0.1600 
 26 C       -6.9610   -12.0790     0.3890 C.3   1 <1>  -0.2400 
 27 H        0.1830    -0.0610    -0.5200 H     1 <1>   0.0800 
 28 H       -0.8490     1.2400     0.0190 H     1 <1>   0.0800 
 29 H        0.0360     1.3890    -1.4730 H     1 <1>   0.0800 
 30 H       -3.9810     0.3530     0.2400 H     1 <1>   0.1500 
 31 H       -1.3550    -2.7760    -0.9510 H     1 <1>   0.1500 
 32 H       -4.9300    -1.0900     1.9620 H     1 <1>   0.1500 
 33 H       -2.2940    -4.2290     0.7680 H     1 <1>   0.1500 
 34 H       -5.2100    -3.2670     2.9220 H     1 <1>   0.0800 
 35 H       -3.6090    -3.7360     3.3790 H     1 <1>   0.0800 
 36 H       -6.1420    -3.3680     0.7150 H     1 <1>   0.0800 
 37 H       -5.5740    -4.1670    -0.7200 H     1 <1>   0.0800 
 38 H       -5.0410    -6.8660    -0.3950 H     1 <1>   0.0800 
 39 H       -5.3020    -7.4550     1.2200 H     1 <1>   0.0800 
 40 H       -8.1420    -4.7270     0.7890 H     1 <1>   0.0800 
 41 H       -7.6980    -6.9900     1.0660 H     1 <1>   0.0800 
 42 H       -9.3310    -4.0500    -1.1960 H     1 <1>   0.1000 
 43 H       -8.3820    -8.3870    -0.8450 H     1 <1>   0.0800 
 44 H       -6.7580    -8.3360    -1.4760 H     1 <1>   0.0800 
 45 H       -6.6320    -3.4720    -2.5830 H     1 <1>   0.1000 
 46 H       -8.2600    -3.2200    -3.2680 H     1 <1>   0.1000 
 47 H       -8.8160    -1.6260    -1.3760 H     1 <1>   0.1000 
 48 H       -7.1720    -1.8560    -0.7220 H     1 <1>   0.1000 
 49 H       -5.9350    -9.5470     0.5180 H     1 <1>   0.0800 
 50 H       -7.5370    -9.5210     1.2070 H     1 <1>   0.0800 
 51 H       -8.3690   -10.8810    -0.6910 H     1 <1>   0.0800 
 52 H       -6.7710   -10.8940    -1.3850 H     1 <1>   0.0800 
 53 H       -7.5130   -12.0720     1.3120 H     1 <1>   0.0800 
 54 H       -5.9090   -12.0870     0.6140 H     1 <1>   0.0800 
 55 H       -7.2020   -12.9800    -0.1470 H     1 <1>   0.0800 
@<TRIPOS>BOND
  1   1   2  2   
  2   1   3  2   
  3   1   4  1   
  4   1   5  1   
  5   4   6  ar  
  6   4   7  ar  
  7   5  27  1   
  8   5  28  1   
  9   5  29  1   
 10   6   8  ar  
 11   6  30  1   
 12   7   9  ar  
 13   7  31  1   
 14   8  10  ar  
 15   8  32  1   
 16   9  10  ar  
 17   9  33  1   
 18  10  11  1   
 19  11  12  1   
 20  11  34  1   
 21  11  35  1   
 22  12  13  2   
 23  12  14  am  
 24  14  15  1   
 25  14  16  1   
 26  15  17  1   
 27  15  36  1   
 28  15  37  1   
 29  16  18  1   
 30  16  38  1   
 31  16  39  1   
 32  17  19  1   
 33  17  20  1   
 34  17  40  1   
 35  18  19  1   
 36  18  21  1   
 37  18  41  1   
 38  20  22  1   
 39  20  23  1   
 40  20  42  1   
 41  21  24  1   
 42  21  43  1   
 43  21  44  1   
 44  22  23  1   
 45  22  45  1   
 46  22  46  1   
 47  23  47  1   
 48  23  48  1   
 49  24  25  1   
 50  24  49  1   
 51  24  50  1   
 52  25  26  1   
 53  25  51  1   
 54  25  52  1   
 55  26  53  1   
 56  26  54  1   
 57  26  55  1   
@<TRIPOS>SUBSTRUCTURE
  1 ****  15 GROUP 4 **** **** 0

# MOE 2024.06 (io_trps.svl 2023.06)
