@<TRIPOS>MOLECULE
NONAME
40 41 1 0 0 
SMALL
USER_CHARGES


@<TRIPOS>ATOM
  1 O       -0.2810    -0.6440     0.4790 O.2   1 <1>  -0.5700 
  2 C       -0.0950    -1.6640    -0.1530 C.2   1 <1>   0.5440 
  3 N       -1.1380    -2.0830    -0.9090 N.am  1 <1>  -0.8000 
  4 C        1.1770    -2.3510    -0.1180 C.ar  1 <1>   0.0860 
  5 C        1.2970    -3.7500    -0.2250 C.ar  1 <1>   0.4100 
  6 C        2.3490    -1.6230     0.0190 C.ar  1 <1>  -0.1500 
  7 N        2.4620    -4.3910    -0.2510 N.ar  1 <1>  -0.6200 
  8 N        0.1910    -4.5680    -0.3000 N.pl3 1 <1>  -0.8690 
  9 C        3.5590    -2.2830     0.0120 C.ar  1 <1>  -0.1430 
 10 C        3.5560    -3.6660    -0.1360 C.ar  1 <1>   0.1670 
 11 C        0.2510    -6.0560    -0.1510 C.3   1 <1>   0.2700 
 12 C        4.8430    -1.4770     0.1660 C.3   1 <1>  -0.0970 
 13 C        4.8540    -4.4510    -0.1670 C.3   1 <1>  -0.0970 
 14 C       -1.1190    -6.7040     0.1050 C.2   1 <1>   0.5690 
 15 O       -2.0720    -5.9880     0.3320 O.2   1 <1>  -0.5700 
 16 N       -1.2490    -8.0680     0.0800 N.am  1 <1>  -0.6600 
 17 C       -0.1660    -9.0470    -0.1630 C.3   1 <1>   0.1400 
 18 C       -2.5410    -8.7460     0.3110 C.3   1 <1>   0.1400 
 19 C       -0.7850   -10.3980     0.1770 C.3   1 <1>  -0.1600 
 20 C       -2.2830   -10.2050    -0.0460 C.3   1 <1>  -0.1600 
 21 H       -2.0180    -1.5680    -0.8910 H     1 <1>   0.3700 
 22 H       -1.0960    -2.9340    -1.4750 H     1 <1>   0.3700 
 23 H        2.2970    -0.5530     0.1260 H     1 <1>   0.1500 
 24 H       -0.6920    -4.2050     0.0870 H     1 <1>   0.4000 
 25 H        0.8970    -6.3000     0.6730 H     1 <1>   0.0800 
 26 H        0.6740    -6.4720    -1.0470 H     1 <1>   0.0800 
 27 H        4.6270    -0.4510     0.4020 H     1 <1>   0.0800 
 28 H        5.4050    -1.5020    -0.7510 H     1 <1>   0.0800 
 29 H        5.4450    -1.8830     0.9590 H     1 <1>   0.0800 
 30 H        4.6790    -5.4480    -0.5290 H     1 <1>   0.0800 
 31 H        5.2630    -4.5130     0.8240 H     1 <1>   0.0800 
 32 H        5.5650    -3.9800    -0.8200 H     1 <1>   0.0800 
 33 H        0.6930    -8.8430     0.4550 H     1 <1>   0.0800 
 34 H        0.1130    -9.0150    -1.2030 H     1 <1>   0.0800 
 35 H       -3.3160    -8.3150    -0.3010 H     1 <1>   0.0800 
 36 H       -2.8070    -8.6490     1.3500 H     1 <1>   0.0800 
 37 H       -0.5960   -10.6180     1.2140 H     1 <1>   0.0800 
 38 H       -0.3780   -11.1890    -0.4280 H     1 <1>   0.0800 
 39 H       -2.5210   -10.3570    -1.0840 H     1 <1>   0.0800 
 40 H       -2.8770   -10.8730     0.5510 H     1 <1>   0.0800 
@<TRIPOS>BOND
  1   1   2  2   
  2   2   3  am  
  3   2   4  1   
  4   3  21  1   
  5   3  22  1   
  6   4   5  ar  
  7   4   6  ar  
  8   5   7  ar  
  9   5   8  1   
 10   6   9  ar  
 11   6  23  1   
 12   7  10  ar  
 13   8  11  1   
 14   8  24  1   
 15   9  10  ar  
 16   9  12  1   
 17  10  13  1   
 18  11  14  1   
 19  11  25  1   
 20  11  26  1   
 21  12  27  1   
 22  12  28  1   
 23  12  29  1   
 24  13  30  1   
 25  13  31  1   
 26  13  32  1   
 27  14  15  2   
 28  14  16  am  
 29  16  17  1   
 30  16  18  1   
 31  17  19  1   
 32  17  33  1   
 33  17  34  1   
 34  18  20  1   
 35  18  35  1   
 36  18  36  1   
 37  19  20  1   
 38  19  37  1   
 39  19  38  1   
 40  20  39  1   
 41  20  40  1   
@<TRIPOS>SUBSTRUCTURE
  1 ****   8 GROUP 4 **** **** 0

# MOE 2024.06 (io_trps.svl 2023.06)
