@<TRIPOS>MOLECULE
NONAME
47 50 1 0 0 
SMALL
USER_CHARGES


@<TRIPOS>ATOM
  1 F       -4.5370    -0.1740    -2.3500 F     1 <1>  -0.1900 
  2 C       -3.9650     0.5060    -1.3890 C.ar  1 <1>   0.1900 
  3 C       -3.7080    -0.1430    -0.1600 C.ar  1 <1>   0.3100 
  4 C       -3.6500     1.8150    -1.6360 C.ar  1 <1>  -0.1500 
  5 N       -4.0380    -1.4470     0.0310 N.ar  1 <1>  -0.6200 
  6 C       -3.0980     0.6380     0.8470 C.ar  1 <1>   0.0000 
  7 C       -3.0420     2.5660    -0.6260 C.ar  1 <1>  -0.1500 
  8 C       -3.7940    -2.0230     1.1940 C.ar  1 <1>   0.3960 
  9 C       -2.8390     0.0230     2.0790 C.ar  1 <1>  -0.1500 
 10 C       -2.7740     1.9860     0.5860 C.ar  1 <1>  -0.1500 
 11 C       -4.1300    -3.4350     1.4470 C.2   1 <1>   0.5440 
 12 C       -3.1870    -1.2830     2.2360 C.ar  1 <1>  -0.1500 
 13 O       -3.5740    -4.0260     2.3610 O.2   1 <1>  -0.5700 
 14 N       -5.0550    -4.1630     0.7170 N.am  1 <1>  -0.6600 
 15 C       -5.8700    -3.6810    -0.4290 C.3   1 <1>   0.1400 
 16 C       -5.3830    -5.5770     1.0010 C.3   1 <1>   0.1400 
 17 C       -6.8060    -4.8400    -0.7990 C.3   1 <1>   0.2000 
 18 C       -6.0790    -6.0790    -0.2660 C.3   1 <1>  -0.0800 
 19 O       -8.0290    -4.7110    -0.1280 O.3   1 <1>  -0.5600 
 20 C       -6.9840    -7.3020    -0.0290 C.3   1 <1>   0.0200 
 21 C       -8.9560    -3.8710    -0.7400 C.3   1 <1>   0.0400 
 22 C       -6.2080    -8.5600     0.3250 C.2   1 <1>  -0.0400 
 23 O       -6.8730    -9.6440     0.6240 O.3   1 <1>  -0.0190 
 24 C       -4.8990    -8.8510     0.4060 C.2   1 <1>  -0.1500 
 25 N       -6.0830   -10.6410     0.9020 N.2   1 <1>  -0.4100 
 26 C       -4.8870   -10.1910     0.7800 C.2   1 <1>   0.1080 
 27 C       -3.6400   -11.0140     1.0140 C.3   1 <1>  -0.0590 
 28 H       -3.8640     2.2630    -2.5900 H     1 <1>   0.1500 
 29 H       -2.7900     3.5970    -0.8160 H     1 <1>   0.1500 
 30 H       -2.3760     0.5840     2.8720 H     1 <1>   0.1500 
 31 H       -2.3060     2.5620     1.3670 H     1 <1>   0.1500 
 32 H       -3.0010    -1.7820     3.1710 H     1 <1>   0.1500 
 33 H       -6.4140    -2.7920    -0.1670 H     1 <1>   0.0800 
 34 H       -5.2130    -3.4710    -1.2550 H     1 <1>   0.0800 
 35 H       -4.4950    -6.1400     1.2270 H     1 <1>   0.0800 
 36 H       -6.0550    -5.6120     1.8420 H     1 <1>   0.0800 
 37 H       -6.9880    -4.9040    -1.8580 H     1 <1>   0.0800 
 38 H       -5.3170    -6.3420    -0.9780 H     1 <1>   0.0800 
 39 H       -7.5570    -7.4970    -0.9170 H     1 <1>   0.0800 
 40 H       -7.6780    -7.0920     0.7670 H     1 <1>   0.0800 
 41 H       -9.8420    -3.8520    -0.1310 H     1 <1>   0.0800 
 42 H       -9.1970    -4.2570    -1.7150 H     1 <1>   0.0800 
 43 H       -8.5510    -2.8770    -0.8150 H     1 <1>   0.0800 
 44 H       -4.0360    -8.2360     0.2330 H     1 <1>   0.1500 
 45 H       -3.0380   -11.0260     0.1250 H     1 <1>   0.0800 
 46 H       -3.9100   -12.0240     1.2660 H     1 <1>   0.0800 
 47 H       -3.0730   -10.5930     1.8240 H     1 <1>   0.0800 
@<TRIPOS>BOND
  1   1   2  1   
  2   2   3  ar  
  3   2   4  ar  
  4   3   5  ar  
  5   3   6  ar  
  6   4   7  ar  
  7   4  28  1   
  8   5   8  ar  
  9   6   9  ar  
 10   6  10  ar  
 11   7  10  ar  
 12   7  29  1   
 13   8  11  1   
 14   8  12  ar  
 15   9  12  ar  
 16   9  30  1   
 17  10  31  1   
 18  11  13  2   
 19  11  14  am  
 20  12  32  1   
 21  14  15  1   
 22  14  16  1   
 23  15  17  1   
 24  15  33  1   
 25  15  34  1   
 26  16  18  1   
 27  16  35  1   
 28  16  36  1   
 29  17  18  1   
 30  17  19  1   
 31  17  37  1   
 32  18  20  1   
 33  18  38  1   
 34  19  21  1   
 35  20  22  1   
 36  20  39  1   
 37  20  40  1   
 38  21  41  1   
 39  21  42  1   
 40  21  43  1   
 41  22  23  1   
 42  22  24  2   
 43  23  25  1   
 44  24  26  1   
 45  24  44  1   
 46  25  26  2   
 47  26  27  1   
 48  27  45  1   
 49  27  46  1   
 50  27  47  1   
@<TRIPOS>SUBSTRUCTURE
  1 ****  14 GROUP 4 **** **** 0

# MOE 2024.06 (io_trps.svl 2023.06)
