@<TRIPOS>MOLECULE
NONAME
41 42 1 0 0 
SMALL
USER_CHARGES


@<TRIPOS>ATOM
  1 S        0.8440     0.4240    -0.2050 S.3   1 <1>  -0.2860 
  2 C       -0.0540    -1.1220    -0.3730 C.2   1 <1>   0.2420 
  3 C        0.4930     0.8990     1.5610 C.3   1 <1>   0.1310 
  4 N       -0.7700    -1.6350     0.5630 N.2   1 <1>  -0.3380 
  5 N       -0.0390    -1.8450    -1.4910 N.pl3 1 <1>   0.0480 
  6 C        1.0830     2.2560     1.9070 C.2   1 <1>   0.5690 
  7 N       -1.2700    -2.7670     0.0570 N.2   1 <1>  -0.3380 
  8 C       -0.8270    -2.8720    -1.1520 C.2   1 <1>   0.0360 
  9 C        0.6610    -1.5890    -2.7630 C.3   1 <1>   0.0160 
 10 O        1.2960     2.4960     3.0720 O.2   1 <1>  -0.5700 
 11 N        1.3380     3.1370     0.8980 N.am  1 <1>  -0.4930 
 12 C        1.8910     4.4420     0.9380 C.2   1 <1>   0.0630 
 13 C        1.6560     5.4920     1.8320 C.2   1 <1>   0.1080 
 14 C        2.7750     4.9420     0.0470 C.2   1 <1>  -0.3320 
 15 N        2.3340     6.5550     1.5280 N.2   1 <1>  -0.7070 
 16 C        0.7240     5.4710     3.0240 C.3   1 <1>  -0.0590 
 17 N        3.0300     6.2200     0.4290 N.pl3 1 <1>   0.3140 
 18 C        3.4130     4.2660    -1.1590 C.3   1 <1>  -0.0600 
 19 C        3.9410     7.1910    -0.2120 C.3   1 <1>   0.0960 
 20 C        3.2170     7.9850    -1.3090 C.3   1 <1>  -0.1600 
 21 C        4.1560     8.9880    -1.9870 C.3   1 <1>  -0.2400 
 22 H        0.9190     0.1350     2.1860 H     1 <1>   0.0800 
 23 H       -0.5730     0.9140     1.6840 H     1 <1>   0.0800 
 24 H       -1.0560    -3.6830    -1.8190 H     1 <1>   0.1500 
 25 H        0.3500    -0.6380    -3.1550 H     1 <1>   0.0800 
 26 H        0.4240    -2.3630    -3.4700 H     1 <1>   0.0800 
 27 H        1.7220    -1.5760    -2.5870 H     1 <1>   0.0800 
 28 H        1.2120     2.7700    -0.0440 H     1 <1>   0.3700 
 29 H       -0.1320     4.8580     2.8150 H     1 <1>   0.0800 
 30 H        0.3950     6.4680     3.2470 H     1 <1>   0.0800 
 31 H        1.2440     5.0750     3.8760 H     1 <1>   0.0800 
 32 H        3.0790     3.2490    -1.2460 H     1 <1>   0.0800 
 33 H        4.4830     4.2600    -1.0550 H     1 <1>   0.0800 
 34 H        3.1510     4.7900    -2.0610 H     1 <1>   0.0800 
 35 H        4.7810     6.6610    -0.6200 H     1 <1>   0.0800 
 36 H        4.2980     7.8610     0.5490 H     1 <1>   0.0800 
 37 H        2.3890     8.5150    -0.8680 H     1 <1>   0.0800 
 38 H        2.8280     7.3070    -2.0490 H     1 <1>   0.0800 
 39 H        4.5380     9.6910    -1.2670 H     1 <1>   0.0800 
 40 H        3.6240     9.5350    -2.7450 H     1 <1>   0.0800 
 41 H        4.9840     8.4800    -2.4500 H     1 <1>   0.0800 
@<TRIPOS>BOND
  1   1   2  1   
  2   1   3  1   
  3   2   4  2   
  4   2   5  1   
  5   3   6  1   
  6   3  22  1   
  7   3  23  1   
  8   4   7  1   
  9   5   8  1   
 10   5   9  1   
 11   6  10  2   
 12   6  11  am  
 13   7   8  2   
 14   8  24  1   
 15   9  25  1   
 16   9  26  1   
 17   9  27  1   
 18  11  12  1   
 19  11  28  1   
 20  12  13  1   
 21  12  14  2   
 22  13  15  2   
 23  13  16  1   
 24  14  17  1   
 25  14  18  1   
 26  15  17  1   
 27  16  29  1   
 28  16  30  1   
 29  16  31  1   
 30  17  19  1   
 31  18  32  1   
 32  18  33  1   
 33  18  34  1   
 34  19  20  1   
 35  19  35  1   
 36  19  36  1   
 37  20  21  1   
 38  20  37  1   
 39  20  38  1   
 40  21  39  1   
 41  21  40  1   
 42  21  41  1   
@<TRIPOS>SUBSTRUCTURE
  1 ****  11 GROUP 4 **** **** 0

# MOE 2024.06 (io_trps.svl 2023.06)
