@<TRIPOS>MOLECULE
NONAME
50 53 1 0 0 
SMALL
USER_CHARGES


@<TRIPOS>ATOM
  1 O       -3.0030     2.9250    -1.5240 O.2   1 <1>  -0.5700 
  2 C       -3.0420     2.0190    -0.7050 C.2   1 <1>   0.5440 
  3 N       -4.2880     1.5070    -0.3960 N.am  1 <1>  -0.6600 
  4 C       -1.8060     1.5210    -0.1070 C.ar  1 <1>   0.3960 
  5 C       -5.1310     0.9620    -1.4770 C.3   1 <1>   0.1400 
  6 C       -4.6790     1.0650     0.9700 C.3   1 <1>   0.1400 
  7 N       -1.6420     0.2090     0.0860 N.ar  1 <1>  -0.6200 
  8 C       -0.8190     2.4480     0.2350 C.ar  1 <1>   0.1600 
  9 C       -4.9920    -0.5590    -1.4490 C.3   1 <1>  -0.1600 
 10 C       -4.7080    -0.4620     1.0740 C.3   1 <1>  -0.1600 
 11 C       -0.4760    -0.1000     0.6560 C.ar  1 <1>   0.1390 
 12 N        0.3550     2.1660     0.8030 N.ar  1 <1>  -0.6200 
 13 C       -5.4320    -1.1470    -0.0960 C.3   1 <1>   0.4240 
 14 O       -0.2630    -1.3090     0.8870 O.3   1 <1>  -0.8290 
 15 C        0.4890     0.8750     0.9980 C.ar  1 <1>   0.1600 
 16 O       -6.7980    -0.8440     0.0880 O.3   1 <1>  -0.5600 
 17 C       -5.1740    -2.6680    -0.0560 C.ar  1 <1>  -0.1440 
 18 C       -7.7280    -1.6770    -0.5330 C.3   1 <1>   0.1200 
 19 C       -6.2170    -3.5810     0.0240 C.ar  1 <1>  -0.1440 
 20 C       -3.8700    -3.1480    -0.1080 C.ar  1 <1>  -0.1500 
 21 C       -7.6430    -3.0710     0.0840 C.3   1 <1>  -0.0170 
 22 C       -5.9590    -4.9430     0.0530 C.ar  1 <1>  -0.1500 
 23 C       -3.5960    -4.5100    -0.0680 C.ar  1 <1>   0.0820 
 24 C       -4.6520    -5.4200     0.0060 C.ar  1 <1>   0.0820 
 25 O       -2.3170    -4.9890    -0.0910 O.3   1 <1>  -0.3630 
 26 O       -4.3570    -6.7530     0.0340 O.3   1 <1>  -0.3630 
 27 C       -1.2250    -4.1310     0.1910 C.3   1 <1>   0.0400 
 28 C       -5.3510    -7.7280     0.2440 C.3   1 <1>   0.0400 
 29 H       -4.8030     1.3450    -2.4290 H     1 <1>   0.0800 
 30 H       -6.1550     1.2570    -1.3210 H     1 <1>   0.0800 
 31 H       -5.6600     1.4540     1.1850 H     1 <1>   0.0800 
 32 H       -3.9910     1.4630     1.6960 H     1 <1>   0.0800 
 33 H       -1.0150     3.4830     0.0280 H     1 <1>   0.1500 
 34 H       -3.9580    -0.8010    -1.6210 H     1 <1>   0.0800 
 35 H       -5.5520    -0.9990    -2.2500 H     1 <1>   0.0800 
 36 H       -5.1740    -0.7550     1.9960 H     1 <1>   0.0800 
 37 H       -3.6950    -0.8050     1.1340 H     1 <1>   0.0800 
 38 H        1.3880     0.5030     1.4500 H     1 <1>   0.1500 
 39 H       -7.5260    -1.7110    -1.5890 H     1 <1>   0.0800 
 40 H       -8.7040    -1.2550    -0.3750 H     1 <1>   0.0800 
 41 H       -3.0580    -2.4430    -0.1780 H     1 <1>   0.1500 
 42 H       -8.2980    -3.7350    -0.4490 H     1 <1>   0.0800 
 43 H       -7.9660    -3.0260     1.1090 H     1 <1>   0.0800 
 44 H       -6.7880    -5.6190     0.1140 H     1 <1>   0.1500 
 45 H       -0.3340    -4.7230     0.2660 H     1 <1>   0.0800 
 46 H       -1.4020    -3.6220     1.1230 H     1 <1>   0.0800 
 47 H       -1.1160    -3.4120    -0.6030 H     1 <1>   0.0800 
 48 H       -4.8700    -8.6890     0.2810 H     1 <1>   0.0800 
 49 H       -6.0470    -7.6990    -0.5750 H     1 <1>   0.0800 
 50 H       -5.8420    -7.5280     1.1800 H     1 <1>   0.0800 
@<TRIPOS>BOND
  1   1   2  2   
  2   2   3  am  
  3   2   4  1   
  4   3   5  1   
  5   3   6  1   
  6   4   7  ar  
  7   4   8  ar  
  8   5   9  1   
  9   5  29  1   
 10   5  30  1   
 11   6  10  1   
 12   6  31  1   
 13   6  32  1   
 14   7  11  ar  
 15   8  12  ar  
 16   8  33  1   
 17   9  13  1   
 18   9  34  1   
 19   9  35  1   
 20  10  13  1   
 21  10  36  1   
 22  10  37  1   
 23  11  14  1   
 24  11  15  ar  
 25  12  15  ar  
 26  13  16  1   
 27  13  17  1   
 28  15  38  1   
 29  16  18  1   
 30  17  19  ar  
 31  17  20  ar  
 32  18  21  1   
 33  18  39  1   
 34  18  40  1   
 35  19  21  1   
 36  19  22  ar  
 37  20  23  ar  
 38  20  41  1   
 39  21  42  1   
 40  21  43  1   
 41  22  24  ar  
 42  22  44  1   
 43  23  24  ar  
 44  23  25  1   
 45  24  26  1   
 46  25  27  1   
 47  26  28  1   
 48  27  45  1   
 49  27  46  1   
 50  27  47  1   
 51  28  48  1   
 52  28  49  1   
 53  28  50  1   
@<TRIPOS>SUBSTRUCTURE
  1 ****  20 GROUP 4 **** **** 0

# MOE 2024.06 (io_trps.svl 2023.06)
