@<TRIPOS>MOLECULE
F1900-3494
18 18 1 0 0 
SMALL
USER_CHARGES


@<TRIPOS>ATOM
  1 F       -5.5810     1.2660    -0.8050 F     1 <1>  -0.3400 
  2 C       -5.5240     0.5640     0.3290 C.3   1 <1>   0.2600 
  3 C       -4.2070    -0.2380     0.4160 C.3   1 <1>   0.2000 
  4 C       -6.6130    -0.5040     0.2480 C.3   1 <1>   0.1100 
  5 O       -3.2150     0.1600    -0.4960 O.3   1 <1>  -0.5600 
  6 C       -4.6210    -1.6840     0.0950 C.3   1 <1>   0.1100 
  7 N       -5.9990    -1.6560    -0.4100 N.3   1 <1>  -0.9000 
  8 C       -2.5560     1.3460    -0.1760 C.3   1 <1>   0.0400 
  9 H       -5.6690     1.2550     1.1380 H     1 <1>   0.0800 
 10 H       -3.7950    -0.2100     1.4090 H     1 <1>   0.0800 
 11 H       -7.4790    -0.1570    -0.2910 H     1 <1>   0.0800 
 12 H       -6.9090    -0.7930     1.2420 H     1 <1>   0.0800 
 13 H       -4.6010    -2.2680     0.9990 H     1 <1>   0.0800 
 14 H       -3.9600    -2.1330    -0.6270 H     1 <1>   0.0800 
 15 H       -5.9260    -1.4080    -1.4090 H     1 <1>   0.3600 
 16 H       -1.8180     1.5300    -0.9360 H     1 <1>   0.0800 
 17 H       -2.0730     1.2400     0.7800 H     1 <1>   0.0800 
 18 H       -3.2620     2.1580    -0.1590 H     1 <1>   0.0800 
@<TRIPOS>BOND
  1   1   2  1   
  2   2   3  1   
  3   2   4  1   
  4   2   9  1   
  5   3   5  1   
  6   3   6  1   
  7   3  10  1   
  8   4   7  1   
  9   4  11  1   
 10   4  12  1   
 11   5   8  1   
 12   6   7  1   
 13   6  13  1   
 14   6  14  1   
 15   7  15  1   
 16   8  16  1   
 17   8  17  1   
 18   8  18  1   
@<TRIPOS>SUBSTRUCTURE
  1 ****   3 GROUP 4 **** **** 0

# MOE 2024.06 (io_trps.svl 2023.06)
