@<TRIPOS>MOLECULE
NONAME
55 58 1 0 0 
SMALL
USER_CHARGES


@<TRIPOS>ATOM
  1 O       -0.6640     4.1200    -1.9580 O.2   1 <1>  -0.5700 
  2 C       -0.4780     3.6200    -0.8630 C.2   1 <1>   0.6160 
  3 N       -1.5600     3.1210    -0.1620 N.am  1 <1>  -0.6600 
  4 C        0.8630     3.5250    -0.3630 C.2   1 <1>   0.0290 
  5 C       -2.9680     3.3500    -0.6200 C.3   1 <1>   0.1400 
  6 C       -1.4650     2.5050     1.1900 C.3   1 <1>   0.1400 
  7 C        1.2540     4.5010     0.6060 C.2   1 <1>   0.6160 
  8 C        1.7760     2.5700    -0.7580 C.2   1 <1>  -0.1380 
  9 C       -3.7200     4.2640     0.3670 C.3   1 <1>   0.1440 
 10 C       -2.1900     3.3880     2.2130 C.3   1 <1>  -0.1600 
 11 O        0.5210     5.3720     1.0520 O.2   1 <1>  -0.5700 
 12 N        2.5280     4.4560     1.1040 N.am  1 <1>  -0.5390 
 13 C        3.0750     2.5750    -0.2010 C.2   1 <1>  -0.1500 
 14 C        1.4670     1.4870    -1.7850 C.3   1 <1>  -0.1020 
 15 C       -5.1480     4.4240    -0.1200 C.ar  1 <1>   0.1670 
 16 C       -3.6440     3.6700     1.7920 C.3   1 <1>  -0.1600 
 17 C       -3.1860     5.7210     0.3130 C.3   1 <1>  -0.1600 
 18 C        3.4370     3.5130     0.7180 C.2   1 <1>  -0.0290 
 19 N       -6.0870     3.5130    -0.0410 N.ar  1 <1>  -0.6200 
 20 C       -5.3500     5.6500    -0.6780 C.ar  1 <1>  -0.1430 
 21 C       -4.0990     6.4920    -0.6550 C.3   1 <1>  -0.0170 
 22 C        4.8130     3.5790     1.3480 C.3   1 <1>  -0.1020 
 23 C       -7.2740     3.8720    -0.5380 C.ar  1 <1>   0.7200 
 24 C       -6.6010     5.9300    -1.1660 C.ar  1 <1>   0.1600 
 25 N       -7.5710     5.0490    -1.1000 N.ar  1 <1>  -0.6200 
 26 N       -8.2900     2.9380    -0.4670 N.pl3 1 <1>  -0.8380 
 27 C       -8.0290     1.5070    -0.1510 C.3   1 <1>   0.1290 
 28 C       -9.7140     3.3010    -0.7040 C.3   1 <1>   0.1290 
 29 H       -3.4730     2.4020    -0.6800 H     1 <1>   0.0800 
 30 H       -2.9880     3.7890    -1.6020 H     1 <1>   0.0800 
 31 H       -0.4400     2.3730     1.4880 H     1 <1>   0.0800 
 32 H       -1.9270     1.5330     1.1600 H     1 <1>   0.0800 
 33 H       -1.6520     4.3140     2.3190 H     1 <1>   0.0800 
 34 H       -2.1840     2.8990     3.1710 H     1 <1>   0.0800 
 35 H        2.7470     5.1880     1.7790 H     1 <1>   0.3700 
 36 H        3.7740     1.8220    -0.5230 H     1 <1>   0.1500 
 37 H        1.6140     0.5150    -1.3500 H     1 <1>   0.0800 
 38 H        2.1230     1.5910    -2.6300 H     1 <1>   0.0800 
 39 H        0.4540     1.5450    -2.1420 H     1 <1>   0.0800 
 40 H       -4.1950     2.7460     1.8100 H     1 <1>   0.0800 
 41 H       -4.1130     4.3370     2.4940 H     1 <1>   0.0800 
 42 H       -2.1540     5.7770     0.0110 H     1 <1>   0.0800 
 43 H       -3.2730     6.1710     1.2850 H     1 <1>   0.0800 
 44 H       -3.6630     6.5230    -1.6390 H     1 <1>   0.0800 
 45 H       -4.2910     7.4910    -0.3060 H     1 <1>   0.0800 
 46 H        5.2750     4.5230     1.1230 H     1 <1>   0.0800 
 47 H        5.4410     2.7920     0.9710 H     1 <1>   0.0800 
 48 H        4.7340     3.4720     2.4150 H     1 <1>   0.0800 
 49 H       -6.8080     6.8850    -1.6160 H     1 <1>   0.1500 
 50 H       -7.0450     1.2210    -0.4810 H     1 <1>   0.0800 
 51 H       -8.7480     0.8800    -0.6480 H     1 <1>   0.0800 
 52 H       -8.0980     1.3560     0.9120 H     1 <1>   0.0800 
 53 H       -9.8940     4.3250    -0.4250 H     1 <1>   0.0800 
 54 H      -10.3600     2.6720    -0.1170 H     1 <1>   0.0800 
 55 H       -9.9460     3.1780    -1.7470 H     1 <1>   0.0800 
@<TRIPOS>BOND
  1   1   2  2   
  2   2   3  am  
  3   2   4  1   
  4   3   5  1   
  5   3   6  1   
  6   4   7  1   
  7   4   8  2   
  8   5   9  1   
  9   5  29  1   
 10   5  30  1   
 11   6  10  1   
 12   6  31  1   
 13   6  32  1   
 14   7  11  2   
 15   7  12  am  
 16   8  13  1   
 17   8  14  1   
 18   9  15  1   
 19   9  16  1   
 20   9  17  1   
 21  10  16  1   
 22  10  33  1   
 23  10  34  1   
 24  12  18  1   
 25  12  35  1   
 26  13  18  2   
 27  13  36  1   
 28  14  37  1   
 29  14  38  1   
 30  14  39  1   
 31  15  19  ar  
 32  15  20  ar  
 33  16  40  1   
 34  16  41  1   
 35  17  21  1   
 36  17  42  1   
 37  17  43  1   
 38  18  22  1   
 39  19  23  ar  
 40  20  21  1   
 41  20  24  ar  
 42  21  44  1   
 43  21  45  1   
 44  22  46  1   
 45  22  47  1   
 46  22  48  1   
 47  23  25  ar  
 48  23  26  1   
 49  24  25  ar  
 50  24  49  1   
 51  26  27  1   
 52  26  28  1   
 53  27  50  1   
 54  27  51  1   
 55  27  52  1   
 56  28  53  1   
 57  28  54  1   
 58  28  55  1   
@<TRIPOS>SUBSTRUCTURE
  1 ****   5 GROUP 4 **** **** 0

# MOE 2024.06 (io_trps.svl 2023.06)
