@<TRIPOS>MOLECULE
NONAME
43 46 1 0 0 
SMALL
USER_CHARGES


@<TRIPOS>ATOM
  1 S        0.7270    -0.3810    -0.0210 S.3   1 <1>  -0.3320 
  2 C       -1.0140    -0.7670     0.2490 C.ar  1 <1>   0.1020 
  3 C        0.9020     1.4430     0.1960 C.3   1 <1>   0.0700 
  4 C       -1.3910    -2.0900     0.1040 C.ar  1 <1>  -0.1500 
  5 C       -1.9420     0.2100     0.5860 C.ar  1 <1>  -0.1500 
  6 C        2.3730     1.7970    -0.0180 C.3   1 <1>  -0.0990 
  7 C       -2.7140    -2.4450     0.2950 C.ar  1 <1>   0.0830 
  8 C       -3.2670    -0.1480     0.7830 C.ar  1 <1>  -0.1500 
  9 C        2.5730     3.2950     0.0510 C.2   1 <1>   0.5690 
 10 O       -3.0750    -3.7430     0.1330 O.3   1 <1>  -0.3630 
 11 C       -3.6540    -1.4710     0.6450 C.ar  1 <1>   0.0830 
 12 O        2.1950     3.8820     1.0330 O.2   1 <1>  -0.5700 
 13 N        3.1530     3.9200    -1.0090 N.am  1 <1>  -0.4940 
 14 C       -4.4600    -4.0120     0.0200 C.3   1 <1>   0.1200 
 15 O       -4.9550    -1.7960     0.8600 O.3   1 <1>  -0.3630 
 16 C        3.3620     5.2830    -1.2520 C.2   1 <1>   0.2510 
 17 C       -5.2500    -3.1700     1.0310 C.3   1 <1>   0.1200 
 18 N        3.3510     5.7330    -2.4670 N.2   1 <1>  -0.3380 
 19 N        3.6060     6.2650    -0.3540 N.pl3 1 <1>   0.3340 
 20 N        3.5660     7.0450    -2.4120 N.2   1 <1>  -0.3380 
 21 C        3.7170     7.3610    -1.1600 C.2   1 <1>   0.3120 
 22 C        3.8490     6.4010     1.0090 C.2   1 <1>  -0.1810 
 23 N        3.9750     8.6260    -0.6760 N.2   1 <1>  -0.5760 
 24 C        4.1190     7.6400     1.4870 C.2   1 <1>  -0.1360 
 25 C        4.1610     8.7460     0.5920 C.2   1 <1>   0.3750 
 26 C        4.4450    10.1190     1.1620 C.3   1 <1>  -0.1790 
 27 H        0.5800     1.6870     1.1940 H     1 <1>   0.0800 
 28 H        0.2680     1.9170    -0.5330 H     1 <1>   0.0800 
 29 H       -0.6660    -2.8370    -0.1580 H     1 <1>   0.1500 
 30 H       -1.6600     1.2380     0.7000 H     1 <1>   0.1500 
 31 H        2.6960     1.4230    -0.9720 H     1 <1>   0.0800 
 32 H        2.9660     1.3350     0.7500 H     1 <1>   0.0800 
 33 H       -4.0020     0.5900     1.0470 H     1 <1>   0.1500 
 34 H        3.3050     3.3540    -1.8430 H     1 <1>   0.3700 
 35 H       -4.6080    -5.0620     0.1970 H     1 <1>   0.0800 
 36 H       -4.7650    -3.7760    -0.9840 H     1 <1>   0.0800 
 37 H       -4.9840    -3.4470     2.0360 H     1 <1>   0.0800 
 38 H       -6.3080    -3.3010     0.8950 H     1 <1>   0.0800 
 39 H        3.8110     5.5180     1.6180 H     1 <1>   0.1500 
 40 H        4.3070     7.8210     2.5300 H     1 <1>   0.1500 
 41 H        3.6900    10.3790     1.8810 H     1 <1>   0.0800 
 42 H        4.4410    10.8540     0.3780 H     1 <1>   0.0800 
 43 H        5.4080    10.1260     1.6370 H     1 <1>   0.0800 
@<TRIPOS>BOND
  1   1   2  1   
  2   1   3  1   
  3   2   4  ar  
  4   2   5  ar  
  5   3   6  1   
  6   3  27  1   
  7   3  28  1   
  8   4   7  ar  
  9   4  29  1   
 10   5   8  ar  
 11   5  30  1   
 12   6   9  1   
 13   6  31  1   
 14   6  32  1   
 15   7  10  1   
 16   7  11  ar  
 17   8  11  ar  
 18   8  33  1   
 19   9  12  2   
 20   9  13  am  
 21  10  14  1   
 22  11  15  1   
 23  13  16  1   
 24  13  34  1   
 25  14  17  1   
 26  14  35  1   
 27  14  36  1   
 28  15  17  1   
 29  16  18  2   
 30  16  19  1   
 31  17  37  1   
 32  17  38  1   
 33  18  20  1   
 34  19  21  1   
 35  19  22  1   
 36  20  21  2   
 37  21  23  1   
 38  22  24  2   
 39  22  39  1   
 40  23  25  2   
 41  24  25  1   
 42  24  40  1   
 43  25  26  1   
 44  26  41  1   
 45  26  42  1   
 46  26  43  1   
@<TRIPOS>SUBSTRUCTURE
  1 ****   3 GROUP 4 **** **** 0

# MOE 2024.06 (io_trps.svl 2023.06)
