@<TRIPOS>MOLECULE
NONAME
44 46 1 0 0 
SMALL
USER_CHARGES


@<TRIPOS>ATOM
  1 O       -0.5390     0.1400     1.4670 O.2   1 <1>  -0.5700 
  2 C       -1.3910     0.9010     1.0450 C.2   1 <1>   0.5440 
  3 N       -2.4440     0.3730     0.3140 N.am  1 <1>  -0.6600 
  4 C       -1.2780     2.3030     1.3580 C.ar  1 <1>   0.0860 
  5 C       -3.6130     1.2070    -0.1060 C.3   1 <1>   0.2200 
  6 C       -2.5080    -1.1030     0.0830 C.3   1 <1>   0.0600 
  7 C       -1.0450     3.2680     0.3610 C.ar  1 <1>   0.4100 
  8 C       -1.4030     2.7380     2.6700 C.ar  1 <1>  -0.1500 
  9 C       -4.9440     0.7400     0.4740 C.3   1 <1>  -0.1600 
 10 C       -3.8450     1.2310    -1.6150 C.3   1 <1>  -0.1600 
 11 N       -0.9820     4.5770     0.6030 N.ar  1 <1>  -0.6200 
 12 N       -0.8690     2.8940    -0.9540 N.pl3 1 <1>  -0.8690 
 13 C       -1.3190     4.0880     2.9180 C.ar  1 <1>  -0.1500 
 14 C       -5.9940     1.4070    -0.4230 C.3   1 <1>  -0.0800 
 15 C       -5.2960     1.7050    -1.7640 C.3   1 <1>  -0.0800 
 16 C       -1.1140     4.9530     1.8590 C.ar  1 <1>   0.1600 
 17 C       -0.3730     3.7990    -2.0220 C.3   1 <1>   0.1290 
 18 C       -6.4830     2.7580     0.1180 C.3   1 <1>  -0.1600 
 19 C       -5.4150     3.2190    -1.9900 C.3   1 <1>  -0.1600 
 20 C       -6.5720     3.6540    -1.1060 C.3   1 <1>   0.2000 
 21 O       -6.4200     4.9730    -0.7420 O.3   1 <1>  -0.6800 
 22 H       -3.4750     2.2260     0.2080 H     1 <1>   0.0800 
 23 H       -3.1860    -1.3500    -0.7120 H     1 <1>   0.0800 
 24 H       -2.8330    -1.5900     0.9850 H     1 <1>   0.0800 
 25 H       -1.5300    -1.4750    -0.1750 H     1 <1>   0.0800 
 26 H       -1.5590     2.0270     3.4630 H     1 <1>   0.1500 
 27 H       -5.0440    -0.3260     0.3810 H     1 <1>   0.0800 
 28 H       -5.0470     1.0170     1.5080 H     1 <1>   0.0800 
 29 H       -3.1500     1.8800    -2.1150 H     1 <1>   0.0800 
 30 H       -3.7620     0.2440    -2.0290 H     1 <1>   0.0800 
 31 H       -0.7420     1.8910    -1.1310 H     1 <1>   0.4000 
 32 H       -1.4100     4.4710     3.9190 H     1 <1>   0.1500 
 33 H       -6.8360     0.7520    -0.5780 H     1 <1>   0.0800 
 34 H       -5.7880     1.1780    -2.5650 H     1 <1>   0.0800 
 35 H       -1.0540     6.0100     2.0590 H     1 <1>   0.1500 
 36 H       -0.9150     4.7290    -2.0000 H     1 <1>   0.0800 
 37 H       -0.5100     3.3400    -2.9850 H     1 <1>   0.0800 
 38 H        0.6730     4.0010    -1.8680 H     1 <1>   0.0800 
 39 H       -5.7670     3.1640     0.8110 H     1 <1>   0.0800 
 40 H       -7.4390     2.6650     0.6020 H     1 <1>   0.0800 
 41 H       -5.6070     3.4480    -3.0230 H     1 <1>   0.0800 
 42 H       -4.5120     3.7140    -1.6750 H     1 <1>   0.0800 
 43 H       -7.5170     3.5330    -1.6100 H     1 <1>   0.0800 
 44 H       -5.5370     5.1060    -0.3470 H     1 <1>   0.4000 
@<TRIPOS>BOND
  1   1   2  2   
  2   2   3  am  
  3   2   4  1   
  4   3   5  1   
  5   3   6  1   
  6   4   7  ar  
  7   4   8  ar  
  8   5   9  1   
  9   5  10  1   
 10   5  22  1   
 11   6  23  1   
 12   6  24  1   
 13   6  25  1   
 14   7  11  ar  
 15   7  12  1   
 16   8  13  ar  
 17   8  26  1   
 18   9  14  1   
 19   9  27  1   
 20   9  28  1   
 21  10  15  1   
 22  10  29  1   
 23  10  30  1   
 24  11  16  ar  
 25  12  17  1   
 26  12  31  1   
 27  13  16  ar  
 28  13  32  1   
 29  14  15  1   
 30  14  18  1   
 31  14  33  1   
 32  15  19  1   
 33  15  34  1   
 34  16  35  1   
 35  17  36  1   
 36  17  37  1   
 37  17  38  1   
 38  18  20  1   
 39  18  39  1   
 40  18  40  1   
 41  19  20  1   
 42  19  41  1   
 43  19  42  1   
 44  20  21  1   
 45  20  43  1   
 46  21  44  1   
@<TRIPOS>SUBSTRUCTURE
  1 ****   5 GROUP 4 **** **** 0

# MOE 2024.06 (io_trps.svl 2023.06)
