@<TRIPOS>MOLECULE
NONAME
40 42 1 0 0 
SMALL
USER_CHARGES


@<TRIPOS>ATOM
  1 CL      -2.6180    -1.6070    -2.0820 Cl    1 <1>  -0.1770 
  2 C       -2.6840    -0.1490    -1.1210 C.ar  1 <1>   0.1770 
  3 C       -2.9910    -0.2170     0.2400 C.ar  1 <1>   0.0860 
  4 C       -2.4200     1.0490    -1.7570 C.ar  1 <1>  -0.1500 
  5 C       -3.2720    -1.4700     0.8980 C.2   1 <1>   0.5440 
  6 C       -3.0110     0.9800     0.9620 C.ar  1 <1>  -0.1500 
  7 C       -2.4610     2.2060    -1.0050 C.ar  1 <1>   0.1900 
  8 O       -2.4840    -1.9090     1.7120 O.2   1 <1>  -0.5700 
  9 N       -4.4290    -2.1680     0.6550 N.am  1 <1>  -0.6600 
 10 C       -2.7510     2.1940     0.3470 C.ar  1 <1>  -0.1500 
 11 F       -2.2180     3.3450    -1.5870 F     1 <1>  -0.1900 
 12 C       -5.5660    -1.7210    -0.1900 C.3   1 <1>   0.1400 
 13 C       -4.6870    -3.5250     1.2000 C.3   1 <1>   0.1400 
 14 C       -6.6790    -2.7300     0.0970 C.3   1 <1>   0.2000 
 15 C       -5.9400    -4.0190     0.4640 C.3   1 <1>  -0.0800 
 16 O       -7.3810    -2.2970     1.2110 O.3   1 <1>  -0.6800 
 17 C       -5.5700    -4.8190    -0.7990 C.3   1 <1>   0.0210 
 18 C       -4.8330    -6.0970    -0.4520 C.2   1 <1>   0.1080 
 19 N       -5.4060    -7.1020     0.1330 N.2   1 <1>  -0.7070 
 20 C       -3.4860    -6.3340    -0.7060 C.2   1 <1>  -0.1500 
 21 N       -4.4280    -8.0190     0.2690 N.pl3 1 <1>   0.3000 
 22 C       -3.2550    -7.5750    -0.2310 C.2   1 <1>  -0.3320 
 23 C       -1.9660    -8.3750    -0.2230 C.3   1 <1>  -0.0600 
 24 H       -2.1860     1.0840    -2.8050 H     1 <1>   0.1500 
 25 H       -3.2310     0.9460     2.0160 H     1 <1>   0.1500 
 26 H       -2.7680     3.1160     0.9020 H     1 <1>   0.1500 
 27 H       -5.8700    -0.7150     0.0450 H     1 <1>   0.0800 
 28 H       -5.2820    -1.7810    -1.2260 H     1 <1>   0.0800 
 29 H       -3.8330    -4.1650     1.0530 H     1 <1>   0.0800 
 30 H       -4.8790    -3.4460     2.2560 H     1 <1>   0.0800 
 31 H       -7.3750    -2.8410    -0.7170 H     1 <1>   0.0800 
 32 H       -6.5390    -4.6490     1.0990 H     1 <1>   0.0800 
 33 H       -6.7520    -2.1590     1.9470 H     1 <1>   0.4000 
 34 H       -4.9560    -4.2290    -1.4550 H     1 <1>   0.0800 
 35 H       -6.4660    -5.0870    -1.3300 H     1 <1>   0.0800 
 36 H       -2.8000    -5.6520    -1.1770 H     1 <1>   0.1500 
 37 H       -4.5940    -8.9320     0.7060 H     1 <1>   0.2700 
 38 H       -1.1740    -7.8030    -0.6740 H     1 <1>   0.0800 
 39 H       -2.0900    -9.2870    -0.7790 H     1 <1>   0.0800 
 40 H       -1.6830    -8.6140     0.7870 H     1 <1>   0.0800 
@<TRIPOS>BOND
  1   1   2  1   
  2   2   3  ar  
  3   2   4  ar  
  4   3   5  1   
  5   3   6  ar  
  6   4   7  ar  
  7   4  24  1   
  8   5   8  2   
  9   5   9  am  
 10   6  10  ar  
 11   6  25  1   
 12   7  10  ar  
 13   7  11  1   
 14   9  12  1   
 15   9  13  1   
 16  10  26  1   
 17  12  14  1   
 18  12  27  1   
 19  12  28  1   
 20  13  15  1   
 21  13  29  1   
 22  13  30  1   
 23  14  15  1   
 24  14  16  1   
 25  14  31  1   
 26  15  17  1   
 27  15  32  1   
 28  16  33  1   
 29  17  18  1   
 30  17  34  1   
 31  17  35  1   
 32  18  19  2   
 33  18  20  1   
 34  19  21  1   
 35  20  22  2   
 36  20  36  1   
 37  21  22  1   
 38  21  37  1   
 39  22  23  1   
 40  23  38  1   
 41  23  39  1   
 42  23  40  1   
@<TRIPOS>SUBSTRUCTURE
  1 ****   9 GROUP 4 **** **** 0

# MOE 2024.06 (io_trps.svl 2023.06)
