@<TRIPOS>MOLECULE
NONAME
44 46 1 0 0 
SMALL
USER_CHARGES


@<TRIPOS>ATOM
  1 S       -0.4740    -0.5150     0.4470 S.3   1 <1>  -0.0800 
  2 C       -1.5900     0.6390    -0.2540 C.2   1 <1>   0.1980 
  3 C        0.5560     0.7970     0.9130 C.2   1 <1>  -0.1100 
  4 N       -1.2170     1.8510    -0.1420 N.2   1 <1>  -0.5650 
  5 C       -2.8620     0.1120    -0.9130 C.3   1 <1>   0.1000 
  6 C        0.0170     1.9730     0.5250 C.2   1 <1>   0.1410 
  7 C       -3.7510    -0.6330     0.0900 C.3   1 <1>  -0.2400 
  8 C       -2.5410    -0.7810    -2.1190 C.3   1 <1>  -0.2400 
  9 C        0.5970     3.2870     0.7400 C.2   1 <1>   0.7160 
 10 O        1.6550     3.4230     1.3290 O.2   1 <1>  -0.5700 
 11 N       -0.0810     4.3790     0.2630 N.am  1 <1>  -0.4940 
 12 C        0.1310     5.7650     0.4480 C.2   1 <1>  -0.0880 
 13 N        1.3000     6.4550     0.2940 N.pl3 1 <1>   0.3140 
 14 C       -0.8090     6.6730     0.8020 C.2   1 <1>  -0.1810 
 15 N        1.1150     7.7780     0.5530 N.2   1 <1>  -0.7070 
 16 C        2.6120     5.9210    -0.1830 C.3   1 <1>   0.1760 
 17 C       -0.1390     7.8880     0.8540 C.2   1 <1>   0.1390 
 18 C       -2.2820     6.4660     1.1020 C.3   1 <1>  -0.0590 
 19 C        3.7170     6.0180     0.8820 C.3   1 <1>  -0.1600 
 20 C        3.1550     6.6590    -1.4150 C.3   1 <1>  -0.1600 
 21 C        4.9480     6.6140     0.1890 C.3   1 <1>  -0.1600 
 22 C        4.6690     6.5120    -1.3090 C.3   1 <1>  -0.1600 
 23 H        1.4700     0.5730     1.4330 H     1 <1>   0.1500 
 24 H       -3.4110     0.9660    -1.2720 H     1 <1>   0.0800 
 25 H       -3.2620    -1.5200     0.4510 H     1 <1>   0.0800 
 26 H       -4.6790    -0.9170    -0.3730 H     1 <1>   0.0800 
 27 H       -3.9700     0.0040     0.9300 H     1 <1>   0.0800 
 28 H       -2.0220    -1.6710    -1.8080 H     1 <1>   0.0800 
 29 H       -1.9190    -0.2470    -2.8160 H     1 <1>   0.0800 
 30 H       -3.4470    -1.0690    -2.6210 H     1 <1>   0.0800 
 31 H       -0.9880     4.1090    -0.1280 H     1 <1>   0.3700 
 32 H        2.4890     4.8910    -0.4550 H     1 <1>   0.0800 
 33 H       -0.5990     8.8270     1.1140 H     1 <1>   0.1500 
 34 H       -2.5300     5.4200     1.0900 H     1 <1>   0.0800 
 35 H       -2.8800     6.9740     0.3660 H     1 <1>   0.0800 
 36 H       -2.5150     6.8620     2.0740 H     1 <1>   0.0800 
 37 H        3.9390     5.0320     1.2520 H     1 <1>   0.0800 
 38 H        3.4160     6.6410     1.7070 H     1 <1>   0.0800 
 39 H        2.9050     7.7050    -1.3650 H     1 <1>   0.0800 
 40 H        2.7740     6.2410    -2.3290 H     1 <1>   0.0800 
 41 H        5.8550     6.1040     0.4650 H     1 <1>   0.0800 
 42 H        5.0330     7.6530     0.4610 H     1 <1>   0.0800 
 43 H        5.1900     7.2690    -1.8690 H     1 <1>   0.0800 
 44 H        4.9650     5.5390    -1.6650 H     1 <1>   0.0800 
@<TRIPOS>BOND
  1   1   2  1   
  2   1   3  1   
  3   2   4  2   
  4   2   5  1   
  5   3   6  2   
  6   3  23  1   
  7   4   6  1   
  8   5   7  1   
  9   5   8  1   
 10   5  24  1   
 11   6   9  1   
 12   7  25  1   
 13   7  26  1   
 14   7  27  1   
 15   8  28  1   
 16   8  29  1   
 17   8  30  1   
 18   9  10  2   
 19   9  11  am  
 20  11  12  1   
 21  11  31  1   
 22  12  13  1   
 23  12  14  2   
 24  13  15  1   
 25  13  16  1   
 26  14  17  1   
 27  14  18  1   
 28  15  17  2   
 29  16  19  1   
 30  16  20  1   
 31  16  32  1   
 32  17  33  1   
 33  18  34  1   
 34  18  35  1   
 35  18  36  1   
 36  19  21  1   
 37  19  37  1   
 38  19  38  1   
 39  20  22  1   
 40  20  39  1   
 41  20  40  1   
 42  21  22  1   
 43  21  41  1   
 44  21  42  1   
 45  22  43  1   
 46  22  44  1   
@<TRIPOS>SUBSTRUCTURE
  1 ****  11 GROUP 4 **** **** 0

# MOE 2024.06 (io_trps.svl 2023.06)
