@<TRIPOS>MOLECULE
NONAME
42 44 1 0 0 
SMALL
USER_CHARGES


@<TRIPOS>ATOM
  1 CL      -1.1610    -0.4770    -0.9000 Cl    1 <1>  -0.1770 
  2 C       -2.0730     0.6570     0.0740 C.ar  1 <1>   0.1770 
  3 C       -2.9310     0.1600     1.0510 C.ar  1 <1>   0.0860 
  4 C       -1.9230     2.0190    -0.1640 C.ar  1 <1>  -0.1440 
  5 C       -3.6470     1.1060     1.7750 C.ar  1 <1>   0.1900 
  6 C       -3.0750    -1.2500     1.2970 C.2   1 <1>   0.5440 
  7 C       -2.6550     2.9240     0.5930 C.ar  1 <1>  -0.1500 
  8 C       -0.9700     2.5300    -1.2360 C.3   1 <1>  -0.0970 
  9 F       -4.4900     0.7070     2.6870 F     1 <1>  -0.1900 
 10 C       -3.5240     2.4670     1.5680 C.ar  1 <1>  -0.1500 
 11 O       -2.4690    -1.7730     2.2110 O.2   1 <1>  -0.5700 
 12 N       -3.8890    -2.0300     0.5130 N.am  1 <1>  -0.6600 
 13 C       -4.6930    -1.5710    -0.6460 C.3   1 <1>   0.1400 
 14 C       -4.0400    -3.4910     0.7080 C.3   1 <1>   0.1400 
 15 C       -5.6850    -2.7070    -0.8830 C.3   1 <1>   0.2000 
 16 C       -4.9080    -3.9610    -0.4660 C.3   1 <1>  -0.0800 
 17 O       -6.7610    -2.5210    -0.0280 O.3   1 <1>  -0.6800 
 18 C       -5.7810    -5.1890    -0.1450 C.3   1 <1>   0.0200 
 19 C       -4.9690    -6.4470     0.1170 C.2   1 <1>  -0.0400 
 20 O       -5.5940    -7.5260     0.5080 O.3   1 <1>  -0.0190 
 21 C       -3.6610    -6.7430     0.0330 C.2   1 <1>  -0.1500 
 22 N       -4.7780    -8.5230     0.6940 N.2   1 <1>  -0.4100 
 23 C       -3.6060    -8.0800     0.4160 C.2   1 <1>   0.1080 
 24 C       -2.3420    -8.9070     0.4970 C.3   1 <1>  -0.0590 
 25 H       -2.5530     3.9840     0.4280 H     1 <1>   0.1500 
 26 H       -0.9660     3.6050    -1.2730 H     1 <1>   0.0800 
 27 H       -1.2650     2.1580    -2.2010 H     1 <1>   0.0800 
 28 H        0.0310     2.1960    -1.0280 H     1 <1>   0.0800 
 29 H       -4.1010     3.1550     2.1610 H     1 <1>   0.1500 
 30 H       -5.1930    -0.6380    -0.4500 H     1 <1>   0.0800 
 31 H       -4.0450    -1.4650    -1.5000 H     1 <1>   0.0800 
 32 H       -3.0760    -3.9710     0.7150 H     1 <1>   0.0800 
 33 H       -4.5290    -3.6690     1.6510 H     1 <1>   0.0800 
 34 H       -6.0540    -2.7450    -1.8940 H     1 <1>   0.0800 
 35 H       -4.2490    -4.2150    -1.2770 H     1 <1>   0.0800 
 36 H       -6.4200    -2.3320     0.8710 H     1 <1>   0.4000 
 37 H       -6.4450    -5.3800    -0.9700 H     1 <1>   0.0800 
 38 H       -6.3890    -4.9930     0.7210 H     1 <1>   0.0800 
 39 H       -2.8240    -6.1360    -0.2540 H     1 <1>   0.1500 
 40 H       -1.8640    -8.9370    -0.4640 H     1 <1>   0.0800 
 41 H       -2.5800    -9.9100     0.8010 H     1 <1>   0.0800 
 42 H       -1.6710    -8.4750     1.2160 H     1 <1>   0.0800 
@<TRIPOS>BOND
  1   1   2  1   
  2   2   3  ar  
  3   2   4  ar  
  4   3   5  ar  
  5   3   6  1   
  6   4   7  ar  
  7   4   8  1   
  8   5   9  1   
  9   5  10  ar  
 10   6  11  2   
 11   6  12  am  
 12   7  10  ar  
 13   7  25  1   
 14   8  26  1   
 15   8  27  1   
 16   8  28  1   
 17  10  29  1   
 18  12  13  1   
 19  12  14  1   
 20  13  15  1   
 21  13  30  1   
 22  13  31  1   
 23  14  16  1   
 24  14  32  1   
 25  14  33  1   
 26  15  16  1   
 27  15  17  1   
 28  15  34  1   
 29  16  18  1   
 30  16  35  1   
 31  17  36  1   
 32  18  19  1   
 33  18  37  1   
 34  18  38  1   
 35  19  20  1   
 36  19  21  2   
 37  20  22  1   
 38  21  23  1   
 39  21  39  1   
 40  22  23  2   
 41  23  24  1   
 42  24  40  1   
 43  24  41  1   
 44  24  42  1   
@<TRIPOS>SUBSTRUCTURE
  1 ****  12 GROUP 4 **** **** 0

# MOE 2024.06 (io_trps.svl 2023.06)
