@<TRIPOS>MOLECULE
NONAME
51 54 1 0 0 
SMALL
USER_CHARGES


@<TRIPOS>ATOM
  1 O       -0.9580     0.6730    -0.0910 O.2   1 <1>  -0.5700 
  2 C       -0.6700     1.8030     0.2100 C.2   1 <1>   0.5690 
  3 N       -1.6290     2.6980     0.5250 N.am  1 <1>  -0.7300 
  4 C        0.7950     2.2500     0.1960 C.3   1 <1>   0.1810 
  5 C       -1.3560     4.1010     0.9130 C.3   1 <1>   0.3640 
  6 O        1.0280     3.4520     0.9030 O.3   1 <1>  -0.5600 
  7 C       -2.3030     5.0130     0.1340 C.ar  1 <1>  -0.1440 
  8 C        0.1160     4.5070     0.6310 C.3   1 <1>   0.2610 
  9 C       -2.5090     4.8450    -1.2300 C.ar  1 <1>  -0.1500 
 10 C       -2.9640     6.0420     0.7900 C.ar  1 <1>  -0.1500 
 11 C        0.5240     5.7770     1.4060 C.2   1 <1>   0.5690 
 12 C       -3.3540     5.6940    -1.9240 C.ar  1 <1>  -0.1500 
 13 C       -3.8090     6.8910     0.0980 C.ar  1 <1>  -0.1500 
 14 O       -0.1950     6.1790     2.2920 O.2   1 <1>  -0.5700 
 15 N        1.6830     6.4650     1.1050 N.am  1 <1>  -0.6600 
 16 C       -4.0040     6.7190    -1.2610 C.ar  1 <1>  -0.1500 
 17 C        2.7070     6.0300     0.1050 C.3   1 <1>   0.1400 
 18 C        2.0740     7.6790     1.8910 C.3   1 <1>   0.1400 
 19 C        3.1210     7.2030    -0.8080 C.3   1 <1>   0.3430 
 20 C        2.4780     8.8340     0.9590 C.3   1 <1>   0.3430 
 21 N        3.5400     8.4210    -0.0290 N.4   1 <1>  -0.9590 
 22 C        3.9080     9.5360    -0.9430 C.3   1 <1>   0.4380 
 23 C        4.6200    10.6330    -0.1510 C.3   1 <1>  -0.1950 
 24 C        3.8870    11.7440     0.5400 C.3   1 <1>  -0.2000 
 25 C        4.6840    12.0240    -0.7010 C.3   1 <1>  -0.2000 
 26 H       -2.6050     2.4000     0.5220 H     1 <1>   0.3700 
 27 H        1.1110     2.3870    -0.8210 H     1 <1>   0.0800 
 28 H        1.4000     1.4830     0.6460 H     1 <1>   0.0800 
 29 H       -1.5570     4.1900     1.9670 H     1 <1>   0.0800 
 30 H        0.1950     4.7270    -0.4170 H     1 <1>   0.0800 
 31 H       -2.0190     4.0490    -1.7640 H     1 <1>   0.1500 
 32 H       -2.8220     6.1940     1.8480 H     1 <1>   0.1500 
 33 H       -3.5110     5.5550    -2.9800 H     1 <1>   0.1500 
 34 H       -4.3170     7.6860     0.6170 H     1 <1>   0.1500 
 35 H       -4.6620     7.3780    -1.7990 H     1 <1>   0.1500 
 36 H        3.5700     5.6560     0.6290 H     1 <1>   0.0800 
 37 H        2.3340     5.2300    -0.5080 H     1 <1>   0.0800 
 38 H        1.2600     8.0120     2.5120 H     1 <1>   0.0800 
 39 H        2.8930     7.4310     2.5430 H     1 <1>   0.0800 
 40 H        2.2830     7.4520    -1.4380 H     1 <1>   0.0800 
 41 H        3.9280     6.8810    -1.4460 H     1 <1>   0.0800 
 42 H        2.8340     9.6540     1.5610 H     1 <1>   0.0800 
 43 H        1.6000     9.1690     0.4320 H     1 <1>   0.0800 
 44 H        4.3820     8.1840     0.5120 H     1 <1>   0.4500 
 45 H        4.5710     9.1770    -1.7140 H     1 <1>   0.0800 
 46 H        3.0250     9.9380    -1.4150 H     1 <1>   0.0800 
 47 H        5.5370    10.2810     0.2910 H     1 <1>   0.1000 
 48 H        2.8170    11.8410     0.4650 H     1 <1>   0.1000 
 49 H        4.2650    12.1260     1.4750 H     1 <1>   0.1000 
 50 H        5.5980    12.5860    -0.6020 H     1 <1>   0.1000 
 51 H        4.1460    12.2820    -1.5980 H     1 <1>   0.1000 
@<TRIPOS>BOND
  1   1   2  2   
  2   2   3  am  
  3   2   4  1   
  4   3   5  1   
  5   3  26  1   
  6   4   6  1   
  7   4  27  1   
  8   4  28  1   
  9   5   7  1   
 10   5   8  1   
 11   5  29  1   
 12   6   8  1   
 13   7   9  ar  
 14   7  10  ar  
 15   8  11  1   
 16   8  30  1   
 17   9  12  ar  
 18   9  31  1   
 19  10  13  ar  
 20  10  32  1   
 21  11  14  2   
 22  11  15  am  
 23  12  16  ar  
 24  12  33  1   
 25  13  16  ar  
 26  13  34  1   
 27  15  17  1   
 28  15  18  1   
 29  16  35  1   
 30  17  19  1   
 31  17  36  1   
 32  17  37  1   
 33  18  20  1   
 34  18  38  1   
 35  18  39  1   
 36  19  21  1   
 37  19  40  1   
 38  19  41  1   
 39  20  21  1   
 40  20  42  1   
 41  20  43  1   
 42  21  22  1   
 43  21  44  1   
 44  22  23  1   
 45  22  45  1   
 46  22  46  1   
 47  23  24  1   
 48  23  25  1   
 49  23  47  1   
 50  24  25  1   
 51  24  48  1   
 52  24  49  1   
 53  25  50  1   
 54  25  51  1   
@<TRIPOS>SUBSTRUCTURE
  1 ****  11 GROUP 4 **** **** 0

# MOE 2024.06 (io_trps.svl 2023.06)
