@<TRIPOS>MOLECULE
NONAME
45 47 1 0 0 
SMALL
USER_CHARGES


@<TRIPOS>ATOM
  1 O       -2.4820     0.8380    -2.0090 O.2   1 <1>  -0.5700 
  2 C       -2.1460     0.8400    -0.8410 C.2   1 <1>   0.5440 
  3 N       -1.9920    -0.3570    -0.2070 N.am  1 <1>  -0.7300 
  4 C       -1.9190     2.0770    -0.1150 C.ar  1 <1>   0.0860 
  5 C       -2.1010    -1.6910    -0.8430 C.3   1 <1>   0.2200 
  6 C       -2.9870     2.9120     0.2390 C.ar  1 <1>  -0.1440 
  7 C       -0.6240     2.4580     0.2660 C.ar  1 <1>  -0.1430 
  8 C       -3.3500    -2.4260    -0.3760 C.3   1 <1>  -0.0800 
  9 C       -1.0150    -2.5960    -0.2790 C.3   1 <1>   0.1200 
 10 C       -2.7630     4.0720     0.9610 C.ar  1 <1>  -0.1500 
 11 C       -4.4160     2.5660    -0.1640 C.3   1 <1>  -0.0970 
 12 C       -0.4180     3.6200     0.9900 C.ar  1 <1>  -0.1500 
 13 C        0.5890     1.6140    -0.1140 C.3   1 <1>  -0.0970 
 14 C       -2.8970    -3.0850     0.9320 C.3   1 <1>   0.1200 
 15 C       -4.6210    -1.5680    -0.2450 C.3   1 <1>  -0.0170 
 16 O       -1.5000    -3.0190     0.9590 O.3   1 <1>  -0.5600 
 17 C       -1.4830     4.4260     1.3390 C.ar  1 <1>  -0.1500 
 18 C       -5.8250    -2.4280     0.1030 C.ar  1 <1>  -0.1430 
 19 C       -6.2840    -2.5600     1.3980 C.ar  1 <1>  -0.1500 
 20 C       -6.5220    -3.1230    -0.8640 C.ar  1 <1>  -0.1500 
 21 C       -7.3830    -3.3630     1.6560 C.ar  1 <1>   0.1600 
 22 C       -7.6100    -3.8990    -0.5000 C.ar  1 <1>   0.1600 
 23 N       -8.0560    -4.0370     0.7380 N.ar  1 <1>  -0.6200 
 24 H       -1.7350    -0.3790     0.7830 H     1 <1>   0.3700 
 25 H       -2.0450    -1.6080    -1.9150 H     1 <1>   0.0800 
 26 H       -3.5480    -3.2140    -1.0810 H     1 <1>   0.0800 
 27 H       -0.0750    -2.0900    -0.1500 H     1 <1>   0.0800 
 28 H       -0.8840    -3.4660    -0.8980 H     1 <1>   0.0800 
 29 H       -3.5840     4.7130     1.2330 H     1 <1>   0.1500 
 30 H       -5.1080     3.3160     0.1720 H     1 <1>   0.0800 
 31 H       -4.7040     1.6230     0.2640 H     1 <1>   0.0800 
 32 H       -4.4890     2.4980    -1.2350 H     1 <1>   0.0800 
 33 H        0.5750     3.9110     1.2850 H     1 <1>   0.1500 
 34 H        1.5030     2.1510     0.0620 H     1 <1>   0.0800 
 35 H        0.5510     1.3580    -1.1580 H     1 <1>   0.0800 
 36 H        0.6080     0.7100     0.4670 H     1 <1>   0.0800 
 37 H       -3.2000    -4.1170     0.9840 H     1 <1>   0.0800 
 38 H       -3.2630    -2.5550     1.7940 H     1 <1>   0.0800 
 39 H       -4.8030    -1.0560    -1.1750 H     1 <1>   0.0800 
 40 H       -4.4880    -0.8180     0.5140 H     1 <1>   0.0800 
 41 H       -1.3160     5.3290     1.9010 H     1 <1>   0.1500 
 42 H       -5.8000    -2.0480     2.2090 H     1 <1>   0.1500 
 43 H       -6.2300    -3.0680    -1.8970 H     1 <1>   0.1500 
 44 H       -7.7270    -3.4550     2.6720 H     1 <1>   0.1500 
 45 H       -8.1410    -4.4340    -1.2680 H     1 <1>   0.1500 
@<TRIPOS>BOND
  1   1   2  2   
  2   2   3  am  
  3   2   4  1   
  4   3   5  1   
  5   3  24  1   
  6   4   6  ar  
  7   4   7  ar  
  8   5   8  1   
  9   5   9  1   
 10   5  25  1   
 11   6  10  ar  
 12   6  11  1   
 13   7  12  ar  
 14   7  13  1   
 15   8  14  1   
 16   8  15  1   
 17   8  26  1   
 18   9  16  1   
 19   9  27  1   
 20   9  28  1   
 21  10  17  ar  
 22  10  29  1   
 23  11  30  1   
 24  11  31  1   
 25  11  32  1   
 26  12  17  ar  
 27  12  33  1   
 28  13  34  1   
 29  13  35  1   
 30  13  36  1   
 31  14  16  1   
 32  14  37  1   
 33  14  38  1   
 34  15  18  1   
 35  15  39  1   
 36  15  40  1   
 37  17  41  1   
 38  18  19  ar  
 39  18  20  ar  
 40  19  21  ar  
 41  19  42  1   
 42  20  22  ar  
 43  20  43  1   
 44  21  23  ar  
 45  21  44  1   
 46  22  23  ar  
 47  22  45  1   
@<TRIPOS>SUBSTRUCTURE
  1 ****   3 GROUP 4 **** **** 0

# MOE 2024.06 (io_trps.svl 2023.06)
