@<TRIPOS>MOLECULE
NONAME
57 59 1 0 0 
SMALL
USER_CHARGES


@<TRIPOS>ATOM
  1 O        5.2440     0.2020     0.9240 O.2   1 <1>  -0.5700 
  2 C        4.1980    -0.0410     1.4800 C.2   1 <1>   0.5690 
  3 N        3.0050    -0.2820     0.8850 N.am  1 <1>  -0.6600 
  4 C        4.0630    -0.0520     2.9770 C.3   1 <1>  -0.0990 
  5 C        1.9220    -0.4790     1.8670 C.3   1 <1>   0.1400 
  6 C        2.7530    -0.6530    -0.5330 C.3   1 <1>   0.1400 
  7 C        2.5430    -0.0570     3.2040 C.3   1 <1>  -0.1600 
  8 C        2.5890     0.5970    -1.4070 C.3   1 <1>  -0.1600 
  9 C        3.9120     0.9870    -2.0900 C.3   1 <1>  -0.0990 
 10 C        3.9770     2.4450    -2.5120 C.2   1 <1>   0.5690 
 11 O        3.8130     2.6990    -3.6790 O.2   1 <1>  -0.5700 
 12 N        4.2940     3.4270    -1.6050 N.am  1 <1>  -0.6600 
 13 C        4.5910     3.1840    -0.1630 C.3   1 <1>   0.1400 
 14 C        4.5420     4.8200    -2.0530 C.3   1 <1>   0.1400 
 15 C        6.0830     2.8840     0.0690 C.3   1 <1>   0.3430 
 16 C        5.9900     4.9760    -2.5370 C.3   1 <1>  -0.1600 
 17 N        7.0070     3.9240    -0.5070 N.4   1 <1>  -0.9590 
 18 C        6.9920     3.9480    -1.9980 C.3   1 <1>   0.3430 
 19 C        8.3890     3.7730     0.0390 C.3   1 <1>   0.3430 
 20 C        8.4590     4.3210     1.4770 C.3   1 <1>   0.2000 
 21 O        7.5910     5.4290     1.5740 O.3   1 <1>  -0.5600 
 22 C        9.8930     4.7370     1.8570 C.3   1 <1>   0.1200 
 23 C        7.6120     6.0480     2.8350 C.3   1 <1>   0.1200 
 24 O        9.8890     5.3220     3.1210 O.3   1 <1>  -0.5600 
 25 C        9.0500     6.4370     3.2230 C.3   1 <1>   0.1200 
 26 H        4.5310     0.8090     3.4170 H     1 <1>   0.0800 
 27 H        4.5120    -0.9510     3.3590 H     1 <1>   0.0800 
 28 H        1.6410    -1.5190     1.8890 H     1 <1>   0.0800 
 29 H        1.0660     0.1270     1.6200 H     1 <1>   0.0800 
 30 H        1.8530    -1.2410    -0.5830 H     1 <1>   0.0800 
 31 H        3.5620    -1.2660    -0.8950 H     1 <1>   0.0800 
 32 H        2.2070     0.9360     3.4450 H     1 <1>   0.0800 
 33 H        2.2540    -0.7210     4.0000 H     1 <1>   0.0800 
 34 H        2.1970     1.4060    -0.8160 H     1 <1>   0.0800 
 35 H        1.8690     0.3920    -2.1800 H     1 <1>   0.0800 
 36 H        4.0400     0.3750    -2.9650 H     1 <1>   0.0800 
 37 H        4.7460     0.7770    -1.4530 H     1 <1>   0.0800 
 38 H        4.0050     2.3600     0.1980 H     1 <1>   0.0800 
 39 H        4.3040     4.0420     0.4180 H     1 <1>   0.0800 
 40 H        4.3480     5.5000    -1.2410 H     1 <1>   0.0800 
 41 H        3.8620     5.0730    -2.8510 H     1 <1>   0.0800 
 42 H        6.3120     1.9200    -0.3560 H     1 <1>   0.0800 
 43 H        6.2410     2.8060     1.1320 H     1 <1>   0.0800 
 44 H        6.3330     5.9730    -2.3270 H     1 <1>   0.0800 
 45 H        5.9800     4.8780    -3.6090 H     1 <1>   0.0800 
 46 H        6.7010     4.8450    -0.1470 H     1 <1>   0.4500 
 47 H        7.9700     4.2010    -2.3720 H     1 <1>   0.0800 
 48 H        6.7360     2.9710    -2.3750 H     1 <1>   0.0800 
 49 H        9.0730     4.3440    -0.5660 H     1 <1>   0.0800 
 50 H        8.7030     2.7420     0.0140 H     1 <1>   0.0800 
 51 H        8.1190     3.5660     2.1640 H     1 <1>   0.0800 
 52 H       10.2950     5.4450     1.1530 H     1 <1>   0.0800 
 53 H       10.5410     3.8790     1.8990 H     1 <1>   0.0800 
 54 H        7.2020     5.3700     3.5630 H     1 <1>   0.0800 
 55 H        6.9890     6.9240     2.7890 H     1 <1>   0.0800 
 56 H        9.0840     6.7840     4.2410 H     1 <1>   0.0800 
 57 H        9.4250     7.2150     2.5810 H     1 <1>   0.0800 
@<TRIPOS>BOND
  1   1   2  2   
  2   2   3  am  
  3   2   4  1   
  4   3   5  1   
  5   3   6  1   
  6   4   7  1   
  7   4  26  1   
  8   4  27  1   
  9   5   7  1   
 10   5  28  1   
 11   5  29  1   
 12   6   8  1   
 13   6  30  1   
 14   6  31  1   
 15   7  32  1   
 16   7  33  1   
 17   8   9  1   
 18   8  34  1   
 19   8  35  1   
 20   9  10  1   
 21   9  36  1   
 22   9  37  1   
 23  10  11  2   
 24  10  12  am  
 25  12  13  1   
 26  12  14  1   
 27  13  15  1   
 28  13  38  1   
 29  13  39  1   
 30  14  16  1   
 31  14  40  1   
 32  14  41  1   
 33  15  17  1   
 34  15  42  1   
 35  15  43  1   
 36  16  18  1   
 37  16  44  1   
 38  16  45  1   
 39  17  18  1   
 40  17  19  1   
 41  17  46  1   
 42  18  47  1   
 43  18  48  1   
 44  19  20  1   
 45  19  49  1   
 46  19  50  1   
 47  20  21  1   
 48  20  22  1   
 49  20  51  1   
 50  21  23  1   
 51  22  24  1   
 52  22  52  1   
 53  22  53  1   
 54  23  25  1   
 55  23  54  1   
 56  23  55  1   
 57  24  25  1   
 58  25  56  1   
 59  25  57  1   
@<TRIPOS>SUBSTRUCTURE
  1 ****  15 GROUP 4 **** **** 0

# MOE 2024.06 (io_trps.svl 2023.06)
