@<TRIPOS>MOLECULE
NONAME
53 56 1 0 0 
SMALL
USER_CHARGES


@<TRIPOS>ATOM
  1 S       -0.3780    -0.3960     1.1440 S.3   1 <1>  -0.0800 
  2 C        0.8710    -1.1940     0.2100 C.2   1 <1>  -0.0450 
  3 C        0.3030     1.1590     0.7360 C.2   1 <1>   0.1980 
  4 C        1.6660    -0.2200    -0.2930 C.2   1 <1>   0.0460 
  5 C        0.9020    -2.6340     0.1340 C.2   1 <1>   0.7150 
  6 N        1.3380     1.0860    -0.0030 N.2   1 <1>  -0.5650 
  7 C       -0.4020     2.3920     1.2950 C.3   1 <1>   0.1000 
  8 C        2.8970    -0.4120    -1.1550 C.3   1 <1>  -0.0590 
  9 O        1.9700    -3.2170     0.1710 O.2   1 <1>  -0.5700 
 10 N       -0.2410    -3.3910    -0.0080 N.am  1 <1>  -0.6600 
 11 C       -1.6570     2.7140     0.4730 C.3   1 <1>  -0.2400 
 12 C        0.5290     3.6130     1.3290 C.3   1 <1>  -0.2400 
 13 C       -1.5120    -2.8940    -0.5940 C.3   1 <1>   0.1400 
 14 C       -0.2010    -4.8740    -0.0370 C.3   1 <1>   0.1400 
 15 C       -2.1620    -4.1250    -1.2240 C.3   1 <1>   0.2000 
 16 C       -1.6060    -5.3160    -0.4490 C.3   1 <1>  -0.0800 
 17 O       -3.5430    -4.0870    -1.1130 O.3   1 <1>  -0.6800 
 18 C       -1.6230    -6.6210    -1.2630 C.3   1 <1>  -0.0170 
 19 C       -1.0750    -7.7840    -0.4430 C.ar  1 <1>  -0.1430 
 20 C       -1.8430    -8.4400     0.5480 C.ar  1 <1>   0.0000 
 21 C        0.2020    -8.2220    -0.6430 C.ar  1 <1>  -0.1500 
 22 C       -1.2240    -9.4890     1.2720 C.ar  1 <1>   0.3100 
 23 C       -3.1850    -8.1210     0.8620 C.ar  1 <1>  -0.1500 
 24 C        0.7150    -9.2750     0.1230 C.ar  1 <1>   0.1600 
 25 N        0.0510    -9.8930     1.0470 N.ar  1 <1>  -0.6200 
 26 C       -1.9570   -10.1490     2.2720 C.ar  1 <1>  -0.1500 
 27 C       -3.8720    -8.7860     1.8410 C.ar  1 <1>  -0.1500 
 28 C       -3.2520    -9.8120     2.5580 C.ar  1 <1>  -0.1500 
 29 H       -0.6980     2.1730     2.3060 H     1 <1>   0.0800 
 30 H        3.0680    -1.4500    -1.3700 H     1 <1>   0.0800 
 31 H        3.7570    -0.0200    -0.6430 H     1 <1>   0.0800 
 32 H        2.7750     0.1190    -2.0810 H     1 <1>   0.0800 
 33 H       -1.3860     2.9190    -0.5480 H     1 <1>   0.0800 
 34 H       -2.1610     3.5730     0.8780 H     1 <1>   0.0800 
 35 H       -2.3360     1.8810     0.4870 H     1 <1>   0.0800 
 36 H        0.8400     3.8730     0.3320 H     1 <1>   0.0800 
 37 H        1.4060     3.3880     1.9100 H     1 <1>   0.0800 
 38 H        0.0300     4.4580     1.7700 H     1 <1>   0.0800 
 39 H       -2.1320    -2.5000     0.1930 H     1 <1>   0.0800 
 40 H       -1.3240    -2.1370    -1.3350 H     1 <1>   0.0800 
 41 H        0.5300    -5.1900    -0.7620 H     1 <1>   0.0800 
 42 H        0.0680    -5.2660     0.9300 H     1 <1>   0.0800 
 43 H       -1.9050    -4.1790    -2.2680 H     1 <1>   0.0800 
 44 H       -2.1710    -5.4450     0.4570 H     1 <1>   0.0800 
 45 H       -3.8100    -4.0370    -0.1750 H     1 <1>   0.4000 
 46 H       -1.0290    -6.4940    -2.1510 H     1 <1>   0.0800 
 47 H       -2.6240    -6.8410    -1.5900 H     1 <1>   0.0800 
 48 H        0.8440    -7.7760    -1.3810 H     1 <1>   0.1500 
 49 H       -3.6840    -7.3400     0.3210 H     1 <1>   0.1500 
 50 H        1.7280    -9.5880    -0.0670 H     1 <1>   0.1500 
 51 H       -1.4600   -10.9360     2.8080 H     1 <1>   0.1500 
 52 H       -4.8930    -8.5330     2.0710 H     1 <1>   0.1500 
 53 H       -3.8010   -10.3280     3.3270 H     1 <1>   0.1500 
@<TRIPOS>BOND
  1   1   2  1   
  2   1   3  1   
  3   2   4  2   
  4   2   5  1   
  5   3   6  2   
  6   3   7  1   
  7   4   6  1   
  8   4   8  1   
  9   5   9  2   
 10   5  10  am  
 11   7  11  1   
 12   7  12  1   
 13   7  29  1   
 14   8  30  1   
 15   8  31  1   
 16   8  32  1   
 17  10  13  1   
 18  10  14  1   
 19  11  33  1   
 20  11  34  1   
 21  11  35  1   
 22  12  36  1   
 23  12  37  1   
 24  12  38  1   
 25  13  15  1   
 26  13  39  1   
 27  13  40  1   
 28  14  16  1   
 29  14  41  1   
 30  14  42  1   
 31  15  16  1   
 32  15  17  1   
 33  15  43  1   
 34  16  18  1   
 35  16  44  1   
 36  17  45  1   
 37  18  19  1   
 38  18  46  1   
 39  18  47  1   
 40  19  20  ar  
 41  19  21  ar  
 42  20  22  ar  
 43  20  23  ar  
 44  21  24  ar  
 45  21  48  1   
 46  22  25  ar  
 47  22  26  ar  
 48  23  27  ar  
 49  23  49  1   
 50  24  25  ar  
 51  24  50  1   
 52  26  28  ar  
 53  26  51  1   
 54  27  28  ar  
 55  27  52  1   
 56  28  53  1   
@<TRIPOS>SUBSTRUCTURE
  1 ****  14 GROUP 4 **** **** 0

# MOE 2024.06 (io_trps.svl 2023.06)
