@<TRIPOS>MOLECULE
NONAME
46 49 1 0 0 
SMALL
USER_CHARGES


@<TRIPOS>ATOM
  1 CL      -0.6580    -1.2370     1.9480 Cl    1 <1>  -0.1770 
  2 C       -1.9610    -2.3500     1.6050 C.ar  1 <1>   0.1770 
  3 C       -2.5760    -2.3170     0.3770 C.ar  1 <1>  -0.1500 
  4 C       -2.3420    -3.2530     2.6040 C.ar  1 <1>  -0.1500 
  5 C       -3.6110    -3.2180     0.1350 C.ar  1 <1>   0.2270 
  6 C       -3.3650    -4.1460     2.3690 C.ar  1 <1>  -0.1500 
  7 N       -4.3670    -3.3860    -0.9860 N.2   1 <1>  -0.5650 
  8 C       -3.9930    -4.1130     1.1200 C.ar  1 <1>  -0.1520 
  9 C       -5.1740    -4.3470    -0.6800 C.2   1 <1>   0.0060 
 10 N       -5.0050    -4.8300     0.5720 N.pl3 1 <1>   0.0330 
 11 C       -6.2400    -4.9490    -1.5830 C.3   1 <1>   0.3890 
 12 N       -6.1040    -6.4400    -1.6410 N.pl3 1 <1>  -0.8380 
 13 C       -6.8450    -7.2610    -0.8170 C.ar  1 <1>   0.4100 
 14 C       -4.9030    -6.9350    -2.3710 C.3   1 <1>   0.1290 
 15 N       -7.1990    -6.7710     0.3680 N.ar  1 <1>  -0.6200 
 16 C       -7.1890    -8.5490    -1.2240 C.ar  1 <1>  -0.1500 
 17 C       -7.9050    -7.5740     1.1470 C.ar  1 <1>   0.1600 
 18 C       -7.9210    -9.3680    -0.4000 C.ar  1 <1>  -0.1500 
 19 C       -8.3140    -8.8670     0.8370 C.ar  1 <1>   0.0860 
 20 C       -9.0950    -9.6240     1.7840 C.2   1 <1>   0.5440 
 21 O       -8.7340    -9.6700     2.9450 O.2   1 <1>  -0.5700 
 22 N      -10.2510   -10.2800     1.4190 N.am  1 <1>  -0.6600 
 23 C      -11.0390    -9.9810     0.2000 C.3   1 <1>   0.1400 
 24 C      -11.0600   -11.0570     2.3870 C.3   1 <1>   0.1400 
 25 C      -12.3400   -10.7590     0.3650 C.3   1 <1>  -0.1600 
 26 C      -12.4900   -10.9550     1.8700 C.3   1 <1>  -0.1600 
 27 H       -2.2840    -1.6250    -0.3890 H     1 <1>   0.1500 
 28 H       -1.8250    -3.2360     3.5470 H     1 <1>   0.1500 
 29 H       -3.6810    -4.8520     3.1160 H     1 <1>   0.1500 
 30 H       -5.5460    -5.6160     0.9580 H     1 <1>   0.2700 
 31 H       -6.1430    -4.5410    -2.5730 H     1 <1>   0.0800 
 32 H       -7.2140    -4.6850    -1.2090 H     1 <1>   0.0800 
 33 H       -4.0470    -6.3250    -2.1340 H     1 <1>   0.0800 
 34 H       -5.0800    -6.8920    -3.4310 H     1 <1>   0.0800 
 35 H       -4.6810    -7.9500    -2.0900 H     1 <1>   0.0800 
 36 H       -6.8770    -8.8890    -2.1930 H     1 <1>   0.1500 
 37 H       -8.1910    -7.1900     2.1120 H     1 <1>   0.1500 
 38 H       -8.1850   -10.3690    -0.6910 H     1 <1>   0.1500 
 39 H      -10.5190   -10.2910    -0.6890 H     1 <1>   0.0800 
 40 H      -11.2380    -8.9230     0.1570 H     1 <1>   0.0800 
 41 H      -10.9740   -10.6580     3.3850 H     1 <1>   0.0800 
 42 H      -10.7250   -12.0800     2.3790 H     1 <1>   0.0800 
 43 H      -12.2380   -11.7160    -0.1170 H     1 <1>   0.0800 
 44 H      -13.1760   -10.2380    -0.0660 H     1 <1>   0.0800 
 45 H      -12.9560   -10.0900     2.3080 H     1 <1>   0.0800 
 46 H      -13.0670   -11.8280     2.1180 H     1 <1>   0.0800 
@<TRIPOS>BOND
  1   1   2  1   
  2   2   3  ar  
  3   2   4  ar  
  4   3   5  ar  
  5   3  27  1   
  6   4   6  ar  
  7   4  28  1   
  8   5   7  1   
  9   5   8  ar  
 10   6   8  ar  
 11   6  29  1   
 12   7   9  2   
 13   8  10  1   
 14   9  10  1   
 15   9  11  1   
 16  10  30  1   
 17  11  12  1   
 18  11  31  1   
 19  11  32  1   
 20  12  13  1   
 21  12  14  1   
 22  13  15  ar  
 23  13  16  ar  
 24  14  33  1   
 25  14  34  1   
 26  14  35  1   
 27  15  17  ar  
 28  16  18  ar  
 29  16  36  1   
 30  17  19  ar  
 31  17  37  1   
 32  18  19  ar  
 33  18  38  1   
 34  19  20  1   
 35  20  21  2   
 36  20  22  am  
 37  22  23  1   
 38  22  24  1   
 39  23  25  1   
 40  23  39  1   
 41  23  40  1   
 42  24  26  1   
 43  24  41  1   
 44  24  42  1   
 45  25  26  1   
 46  25  43  1   
 47  25  44  1   
 48  26  45  1   
 49  26  46  1   
@<TRIPOS>SUBSTRUCTURE
  1 ****  15 GROUP 4 **** **** 0

# MOE 2024.06 (io_trps.svl 2023.06)
