@<TRIPOS>MOLECULE
NONAME
43 44 1 0 0 
SMALL
USER_CHARGES


@<TRIPOS>ATOM
  1 CL      -0.1320     0.3310    -0.8130 Cl    1 <1>  -0.1770 
  2 C        1.2360    -0.6330    -0.2640 C.ar  1 <1>   0.1770 
  3 C        1.1150    -2.0390    -0.0480 C.ar  1 <1>   0.4100 
  4 C        2.4400    -0.0230    -0.0740 C.ar  1 <1>   0.2170 
  5 N        2.1770    -2.7530     0.3010 N.ar  1 <1>  -0.6200 
  6 N       -0.0430    -2.7560    -0.1730 N.pl3 1 <1>  -0.8380 
  7 N        3.4790    -0.8130     0.3020 N.ar  1 <1>  -0.1790 
  8 C        2.7290     1.4640    -0.2570 C.3   1 <1>  -0.0970 
  9 C        3.3250    -2.1370     0.4670 C.ar  1 <1>   0.7710 
 10 C       -1.4480    -2.2550    -0.0690 C.3   1 <1>   0.2090 
 11 C       -0.0760    -4.2460    -0.3190 C.3   1 <1>   0.2090 
 12 N        4.3610    -2.8940     0.8140 N.pl3 1 <1>  -0.9000 
 13 C       -2.2650    -3.4770     0.3450 C.3   1 <1>   0.2000 
 14 C       -1.5610    -4.6280    -0.3720 C.3   1 <1>  -0.0800 
 15 O       -2.1300    -3.6470     1.7150 O.3   1 <1>  -0.6800 
 16 C       -1.8810    -6.0250     0.1990 C.3   1 <1>  -0.0550 
 17 S       -1.0760    -7.3480    -0.7000 S.o2  1 <1>   1.3330 
 18 O        0.3430    -7.3000    -0.4220 O.2   1 <1>  -0.6500 
 19 O       -1.5360    -7.2860    -2.0680 O.2   1 <1>  -0.6500 
 20 N       -1.7080    -8.7500     0.0180 N.am  1 <1>  -0.8490 
 21 C       -1.0430    -9.1140     1.2730 C.3   1 <1>   0.1160 
 22 C       -1.7000    -9.8920    -0.9000 C.3   1 <1>   0.1160 
 23 H        4.4080    -0.4350     0.4600 H     1 <1>   0.4570 
 24 H        1.8480     2.0150    -0.5300 H     1 <1>   0.0800 
 25 H        3.4590     1.6100    -1.0350 H     1 <1>   0.0800 
 26 H        3.1060     1.8880     0.6570 H     1 <1>   0.0800 
 27 H       -1.5480    -1.4610     0.6520 H     1 <1>   0.0800 
 28 H       -1.7760    -1.9150    -1.0360 H     1 <1>   0.0800 
 29 H        0.4400    -4.5540    -1.2140 H     1 <1>   0.0800 
 30 H        0.4000    -4.6990     0.5350 H     1 <1>   0.0800 
 31 H        5.3310    -2.6280     0.9880 H     1 <1>   0.4000 
 32 H        4.1890    -3.9010     0.9160 H     1 <1>   0.4000 
 33 H       -3.3120    -3.3930     0.1060 H     1 <1>   0.0800 
 34 H       -1.8610    -4.6070    -1.4050 H     1 <1>   0.0800 
 35 H       -1.1870    -3.5230     1.9490 H     1 <1>   0.4000 
 36 H       -2.9420    -6.1760     0.1570 H     1 <1>   0.0800 
 37 H       -1.5880    -6.0720     1.2290 H     1 <1>   0.0800 
 38 H       -1.5380    -9.9570     1.7230 H     1 <1>   0.0800 
 39 H       -1.0800    -8.2910     1.9660 H     1 <1>   0.0800 
 40 H       -0.0110    -9.3680     1.0930 H     1 <1>   0.0800 
 41 H       -2.1250   -10.7580    -0.4230 H     1 <1>   0.0800 
 42 H       -0.6930   -10.1160    -1.2110 H     1 <1>   0.0800 
 43 H       -2.2900    -9.6670    -1.7740 H     1 <1>   0.0800 
@<TRIPOS>BOND
  1   1   2  1   
  2   2   3  ar  
  3   2   4  ar  
  4   3   5  ar  
  5   3   6  1   
  6   4   7  ar  
  7   4   8  1   
  8   5   9  ar  
  9   6  10  1   
 10   6  11  1   
 11   7   9  ar  
 12   7  23  1   
 13   8  24  1   
 14   8  25  1   
 15   8  26  1   
 16   9  12  1   
 17  10  13  1   
 18  10  27  1   
 19  10  28  1   
 20  11  14  1   
 21  11  29  1   
 22  11  30  1   
 23  12  31  1   
 24  12  32  1   
 25  13  14  1   
 26  13  15  1   
 27  13  33  1   
 28  14  16  1   
 29  14  34  1   
 30  15  35  1   
 31  16  17  1   
 32  16  36  1   
 33  16  37  1   
 34  17  18  2   
 35  17  19  2   
 36  17  20  am  
 37  20  21  1   
 38  20  22  1   
 39  21  38  1   
 40  21  39  1   
 41  21  40  1   
 42  22  41  1   
 43  22  42  1   
 44  22  43  1   
@<TRIPOS>SUBSTRUCTURE
  1 ****  11 GROUP 4 **** **** 0

# MOE 2024.06 (io_trps.svl 2023.06)
