@<TRIPOS>MOLECULE
NONAME
49 51 1 0 0 
SMALL
USER_CHARGES


@<TRIPOS>ATOM
  1 O       -1.8520    -4.3530    -0.1640 O.2   1 <1>  -0.5700 
  2 C       -0.6600    -4.3030    -0.3180 C.2   1 <1>   0.5690 
  3 N       -0.0290    -5.0850    -1.2190 N.am  1 <1>  -0.7300 
  4 C        0.1920    -3.3650     0.5090 C.3   1 <1>  -0.0990 
  5 C        1.4320    -5.0550    -1.4330 C.3   1 <1>   0.1400 
  6 C        1.2520    -2.6690    -0.3690 C.3   1 <1>  -0.0800 
  7 C        1.9320    -3.5980    -1.4080 C.3   1 <1>  -0.0800 
  8 C        2.3820    -2.0240     0.4450 C.3   1 <1>  -0.1600 
  9 C        3.4400    -3.4920    -1.1490 C.3   1 <1>  -0.1600 
 10 C        3.6130    -2.1480    -0.4520 C.3   1 <1>   0.2200 
 11 N        4.9230    -2.0420     0.2580 N.am  1 <1>  -0.6600 
 12 C        5.9790    -1.3930    -0.3540 C.2   1 <1>   0.5440 
 13 C        5.0980    -2.7810     1.5460 C.3   1 <1>   0.0600 
 14 O        5.9090    -1.1420    -1.5440 O.2   1 <1>  -0.5700 
 15 C        7.1740    -1.0140     0.3780 C.ar  1 <1>   0.0860 
 16 C        8.4390    -1.3630    -0.0910 C.ar  1 <1>  -0.1500 
 17 C        7.1040    -0.2910     1.5680 C.ar  1 <1>  -0.1500 
 18 C        9.5970    -1.0280     0.5950 C.ar  1 <1>  -0.1440 
 19 C        8.2470     0.0510     2.2650 C.ar  1 <1>  -0.1500 
 20 C        9.4890    -0.3190     1.7820 C.ar  1 <1>  -0.1500 
 21 C       10.9740    -1.4220     0.0650 C.3   1 <1>   0.0630 
 22 C       11.2390    -0.7750    -1.2980 C.3   1 <1>  -0.2400 
 23 C       11.1110    -2.9460    -0.0200 C.3   1 <1>  -0.2400 
 24 H       -0.5980    -5.7400    -1.7590 H     1 <1>   0.3700 
 25 H       -0.4360    -2.6320     0.9830 H     1 <1>   0.0800 
 26 H        0.6630    -3.9510     1.2760 H     1 <1>   0.0800 
 27 H        1.9000    -5.6250    -0.6480 H     1 <1>   0.0800 
 28 H        1.6740    -5.5110    -2.3780 H     1 <1>   0.0800 
 29 H        0.7520    -1.8920    -0.9240 H     1 <1>   0.0800 
 30 H        1.7400    -3.1780    -2.3820 H     1 <1>   0.0800 
 31 H        2.5170    -2.5690     1.3590 H     1 <1>   0.0800 
 32 H        2.1680    -0.9940     0.6700 H     1 <1>   0.0800 
 33 H        4.0050    -3.5230    -2.0650 H     1 <1>   0.0800 
 34 H        3.7630    -4.2850    -0.5010 H     1 <1>   0.0800 
 35 H        3.5470    -1.3740    -1.1990 H     1 <1>   0.0800 
 36 H        4.5890    -3.7270     1.5090 H     1 <1>   0.0800 
 37 H        4.6980    -2.1970     2.3560 H     1 <1>   0.0800 
 38 H        6.1400    -2.9730     1.7360 H     1 <1>   0.0800 
 39 H        8.4990    -1.9060    -1.0180 H     1 <1>   0.1500 
 40 H        6.1410     0.0060     1.9410 H     1 <1>   0.1500 
 41 H        8.1730     0.6080     3.1830 H     1 <1>   0.1500 
 42 H       10.3720    -0.0460     2.3340 H     1 <1>   0.1500 
 43 H       11.7240    -1.0640     0.7500 H     1 <1>   0.0800 
 44 H       10.5460    -1.1360    -2.0360 H     1 <1>   0.0800 
 45 H       12.2390    -0.9960    -1.6280 H     1 <1>   0.0800 
 46 H       11.1310     0.2920    -1.2220 H     1 <1>   0.0800 
 47 H       10.4170    -3.3540    -0.7320 H     1 <1>   0.0800 
 48 H       10.9140    -3.3850     0.9410 H     1 <1>   0.0800 
 49 H       12.1080    -3.2130    -0.3210 H     1 <1>   0.0800 
@<TRIPOS>BOND
  1   1   2  2   
  2   2   3  am  
  3   2   4  1   
  4   3   5  1   
  5   3  24  1   
  6   4   6  1   
  7   4  25  1   
  8   4  26  1   
  9   5   7  1   
 10   5  27  1   
 11   5  28  1   
 12   6   7  1   
 13   6   8  1   
 14   6  29  1   
 15   7   9  1   
 16   7  30  1   
 17   8  10  1   
 18   8  31  1   
 19   8  32  1   
 20   9  10  1   
 21   9  33  1   
 22   9  34  1   
 23  10  11  1   
 24  10  35  1   
 25  11  12  am  
 26  11  13  1   
 27  12  14  2   
 28  12  15  1   
 29  13  36  1   
 30  13  37  1   
 31  13  38  1   
 32  15  16  ar  
 33  15  17  ar  
 34  16  18  ar  
 35  16  39  1   
 36  17  19  ar  
 37  17  40  1   
 38  18  20  ar  
 39  18  21  1   
 40  19  20  ar  
 41  19  41  1   
 42  20  42  1   
 43  21  22  1   
 44  21  23  1   
 45  21  43  1   
 46  22  44  1   
 47  22  45  1   
 48  22  46  1   
 49  23  47  1   
 50  23  48  1   
 51  23  49  1   
@<TRIPOS>SUBSTRUCTURE
  1 ****  11 GROUP 4 **** **** 0

# MOE 2024.06 (io_trps.svl 2023.06)
