@<TRIPOS>MOLECULE
NONAME
51 54 1 0 0 
SMALL
USER_CHARGES


@<TRIPOS>ATOM
  1 O       -0.5730     0.3920     0.1160 O.2   1 <1>  -0.5700 
  2 C       -1.6410     0.9830     0.0710 C.2   1 <1>   0.7160 
  3 N       -2.7730     0.2160    -0.1500 N.am  1 <1>  -0.6600 
  4 C       -1.6640     2.4370     0.2480 C.2   1 <1>   0.2030 
  5 C       -4.1640     0.7220    -0.2430 C.3   1 <1>   0.1400 
  6 C       -2.7420    -1.2590    -0.2930 C.3   1 <1>   0.1400 
  7 N       -2.7150     3.2460     0.2730 N.2   1 <1>  -0.7070 
  8 C       -0.4940     3.1910     0.4270 C.2   1 <1>  -0.1500 
  9 C       -5.0260    -0.5180    -0.4880 C.3   1 <1>   0.2000 
 10 C       -4.1810    -1.7070    -0.0340 C.3   1 <1>  -0.0800 
 11 N       -2.2210     4.4770     0.4600 N.pl3 1 <1>   0.3000 
 12 C       -0.8780     4.4750     0.5570 C.2   1 <1>  -0.3320 
 13 O       -6.2060    -0.4740     0.2400 O.3   1 <1>  -0.6800 
 14 C       -4.5630    -3.0150    -0.7440 C.3   1 <1>  -0.0170 
 15 C       -0.0330     5.7180     0.7740 C.3   1 <1>   0.0200 
 16 C       -3.6860    -4.1660    -0.2850 C.ar  1 <1>   0.1670 
 17 C       -0.1040     6.6420    -0.4460 C.3   1 <1>  -0.1600 
 18 N       -2.5830    -4.3740    -0.9360 N.ar  1 <1>  -0.6200 
 19 C       -4.0950    -4.9350     0.8170 C.ar  1 <1>  -0.1500 
 20 C        0.7680     7.8890    -0.2590 C.3   1 <1>  -0.2400 
 21 C       -1.7820    -5.3860    -0.5180 C.ar  1 <1>   0.3100 
 22 C       -3.3130    -5.9600     1.2550 C.ar  1 <1>  -0.1500 
 23 C       -2.1080    -6.2130     0.5800 C.ar  1 <1>   0.0000 
 24 C       -0.5770    -5.6240    -1.1990 C.ar  1 <1>  -0.1500 
 25 C       -1.2190    -7.2410     0.9500 C.ar  1 <1>  -0.1500 
 26 C        0.2740    -6.6290    -0.8230 C.ar  1 <1>  -0.1500 
 27 C       -0.0520    -7.4460     0.2640 C.ar  1 <1>  -0.1500 
 28 H       -4.4290     1.2040     0.6820 H     1 <1>   0.0800 
 29 H       -4.2530     1.4170    -1.0600 H     1 <1>   0.0800 
 30 H       -2.4340    -1.5090    -1.2940 H     1 <1>   0.0800 
 31 H       -2.0570    -1.7060     0.4090 H     1 <1>   0.0800 
 32 H        0.5000     2.7790     0.4490 H     1 <1>   0.1500 
 33 H       -5.2730    -0.5890    -1.5340 H     1 <1>   0.0800 
 34 H       -4.2840    -1.8350     1.0300 H     1 <1>   0.0800 
 35 H       -2.8200     5.3100     0.5180 H     1 <1>   0.2700 
 36 H       -6.0110    -0.3440     1.1880 H     1 <1>   0.4000 
 37 H       -4.4580    -2.8980    -1.8090 H     1 <1>   0.0800 
 38 H       -5.5950    -3.2450    -0.5440 H     1 <1>   0.0800 
 39 H       -0.3730     6.2370     1.6530 H     1 <1>   0.0800 
 40 H        0.9890     5.4220     0.9390 H     1 <1>   0.0800 
 41 H        0.2310     6.1030    -1.3170 H     1 <1>   0.0800 
 42 H       -1.1220     6.9460    -0.6160 H     1 <1>   0.0800 
 43 H       -5.0240    -4.7020     1.3040 H     1 <1>   0.1500 
 44 H        1.7980     7.6100    -0.1160 H     1 <1>   0.0800 
 45 H        0.4400     8.4550     0.5950 H     1 <1>   0.0800 
 46 H        0.7030     8.5170    -1.1300 H     1 <1>   0.0800 
 47 H       -3.5930    -6.5710     2.0940 H     1 <1>   0.1500 
 48 H       -0.3450    -4.9840    -2.0300 H     1 <1>   0.1500 
 49 H       -1.4740    -7.8660     1.7870 H     1 <1>   0.1500 
 50 H        1.1950    -6.8000    -1.3530 H     1 <1>   0.1500 
 51 H        0.6260    -8.2320     0.5500 H     1 <1>   0.1500 
@<TRIPOS>BOND
  1   1   2  2   
  2   2   3  am  
  3   2   4  1   
  4   3   5  1   
  5   3   6  1   
  6   4   7  2   
  7   4   8  1   
  8   5   9  1   
  9   5  28  1   
 10   5  29  1   
 11   6  10  1   
 12   6  30  1   
 13   6  31  1   
 14   7  11  1   
 15   8  12  2   
 16   8  32  1   
 17   9  10  1   
 18   9  13  1   
 19   9  33  1   
 20  10  14  1   
 21  10  34  1   
 22  11  12  1   
 23  11  35  1   
 24  12  15  1   
 25  13  36  1   
 26  14  16  1   
 27  14  37  1   
 28  14  38  1   
 29  15  17  1   
 30  15  39  1   
 31  15  40  1   
 32  16  18  ar  
 33  16  19  ar  
 34  17  20  1   
 35  17  41  1   
 36  17  42  1   
 37  18  21  ar  
 38  19  22  ar  
 39  19  43  1   
 40  20  44  1   
 41  20  45  1   
 42  20  46  1   
 43  21  23  ar  
 44  21  24  ar  
 45  22  23  ar  
 46  22  47  1   
 47  23  25  ar  
 48  24  26  ar  
 49  24  48  1   
 50  25  27  ar  
 51  25  49  1   
 52  26  27  ar  
 53  26  50  1   
 54  27  51  1   
@<TRIPOS>SUBSTRUCTURE
  1 ****   6 GROUP 4 **** **** 0

# MOE 2024.06 (io_trps.svl 2023.06)
