@<TRIPOS>MOLECULE
NONAME
49 52 1 0 0 
SMALL
USER_CHARGES


@<TRIPOS>ATOM
  1 O        0.2080     1.5350    -0.0310 O.co2 1 <1>  -0.9000 
  2 C        1.1290     0.7890     0.2990 C.2   1 <1>   0.9060 
  3 O        0.9910    -0.0470     1.2090 O.co2 1 <1>  -0.9000 
  4 C        2.4710     0.8570    -0.4580 C.3   1 <1>  -0.1060 
  5 C        3.6100     0.4010     0.4750 C.3   1 <1>   0.4230 
  6 C        2.7770     2.3130    -0.9030 C.3   1 <1>  -0.1600 
  7 C        2.4360    -0.0580    -1.7040 C.3   1 <1>  -0.1600 
  8 N        3.4050    -1.0310     0.8770 N.4   1 <1>  -0.9590 
  9 C        3.7600     1.3870     1.6640 C.3   1 <1>   0.1100 
 10 C        2.9720     3.2520     0.3000 C.3   1 <1>   0.1100 
 11 C        2.3370    -1.5390    -1.3050 C.3   1 <1>  -0.1600 
 12 C        3.4110    -1.9480    -0.2920 C.3   1 <1>   0.3430 
 13 C        4.2420    -1.5240     2.0020 C.3   1 <1>   0.2630 
 14 N        4.0320     2.7670     1.2110 N.3   1 <1>  -0.8100 
 15 C        5.4030     2.9610     0.6870 C.3   1 <1>   0.2900 
 16 C        5.8060     4.4240     0.6380 C.2   1 <1>  -0.0400 
 17 O        6.8810     4.7420    -0.0550 O.3   1 <1>  -0.2800 
 18 C        5.2680     5.5300     1.1940 C.2   1 <1>  -0.1500 
 19 C        7.0710     6.0550     0.0220 C.2   1 <1>   0.1410 
 20 C        6.0870     6.5890     0.7940 C.2   1 <1>  -0.1500 
 21 C        8.1860     6.6840    -0.6560 C.2   1 <1>   0.2880 
 22 N        9.0670     6.0650    -1.4070 N.2   1 <1>  -0.7070 
 23 C        8.4730     8.0530    -0.6000 C.2   1 <1>  -0.1500 
 24 N        9.9120     7.0180    -1.8290 N.pl3 1 <1>   0.3000 
 25 C        9.5740     8.2310    -1.3550 C.2   1 <1>  -0.3020 
 26 H        4.5270     0.4530    -0.0840 H     1 <1>   0.0800 
 27 H        1.9530     2.6850    -1.4890 H     1 <1>   0.0800 
 28 H        3.6460     2.3500    -1.5320 H     1 <1>   0.0800 
 29 H        1.5870     0.2060    -2.3140 H     1 <1>   0.0800 
 30 H        3.3240     0.0910    -2.2940 H     1 <1>   0.0800 
 31 H        2.4010    -0.9900     1.2060 H     1 <1>   0.4500 
 32 H        4.5630     1.0800     2.3090 H     1 <1>   0.0800 
 33 H        2.8530     1.3930     2.2450 H     1 <1>   0.0800 
 34 H        2.0450     3.3190     0.8480 H     1 <1>   0.0800 
 35 H        3.2030     4.2430    -0.0500 H     1 <1>   0.0800 
 36 H        2.4260    -2.1530    -2.1830 H     1 <1>   0.0800 
 37 H        1.3660    -1.7340    -0.8800 H     1 <1>   0.0800 
 38 H        4.3790    -1.9220    -0.7660 H     1 <1>   0.0800 
 39 H        3.2180    -2.9570     0.0350 H     1 <1>   0.0800 
 40 H        5.2860    -1.4810     1.7390 H     1 <1>   0.0800 
 41 H        3.9800    -2.5420     2.2380 H     1 <1>   0.0800 
 42 H        4.0730    -0.9210     2.8790 H     1 <1>   0.0800 
 43 H        6.1070     2.4560     1.3240 H     1 <1>   0.0800 
 44 H        5.4900     2.5430    -0.3000 H     1 <1>   0.0800 
 45 H        4.3930     5.5970     1.8180 H     1 <1>   0.1500 
 46 H        5.9390     7.6180     1.0630 H     1 <1>   0.1500 
 47 H        7.9080     8.7860    -0.0540 H     1 <1>   0.1500 
 48 H       10.7100     6.8070    -2.4410 H     1 <1>   0.2700 
 49 H       10.1250     9.1270    -1.5780 H     1 <1>   0.1500 
@<TRIPOS>BOND
  1   1   2  ar  
  2   2   3  ar  
  3   2   4  1   
  4   4   5  1   
  5   4   6  1   
  6   4   7  1   
  7   5   8  1   
  8   5   9  1   
  9   5  26  1   
 10   6  10  1   
 11   6  27  1   
 12   6  28  1   
 13   7  11  1   
 14   7  29  1   
 15   7  30  1   
 16   8  12  1   
 17   8  13  1   
 18   8  31  1   
 19   9  14  1   
 20   9  32  1   
 21   9  33  1   
 22  10  14  1   
 23  10  34  1   
 24  10  35  1   
 25  11  12  1   
 26  11  36  1   
 27  11  37  1   
 28  12  38  1   
 29  12  39  1   
 30  13  40  1   
 31  13  41  1   
 32  13  42  1   
 33  14  15  1   
 34  15  16  1   
 35  15  43  1   
 36  15  44  1   
 37  16  17  1   
 38  16  18  2   
 39  17  19  1   
 40  18  20  1   
 41  18  45  1   
 42  19  20  2   
 43  19  21  1   
 44  20  46  1   
 45  21  22  2   
 46  21  23  1   
 47  22  24  1   
 48  23  25  2   
 49  23  47  1   
 50  24  25  1   
 51  24  48  1   
 52  25  49  1   
@<TRIPOS>SUBSTRUCTURE
  1 ****  15 GROUP 4 **** **** 0

# MOE 2024.06 (io_trps.svl 2023.06)
