@<TRIPOS>MOLECULE
NONAME
55 57 1 0 0 
SMALL
USER_CHARGES


@<TRIPOS>ATOM
  1 O       -0.2190     0.6310     0.0740 O.2   1 <1>  -0.5700 
  2 C       -0.3060     1.8330    -0.0250 C.2   1 <1>   0.5690 
  3 N       -1.2830     2.5750     0.5910 N.am  1 <1>  -0.5090 
  4 C        0.7450     2.5370    -0.8800 C.3   1 <1>   0.1810 
  5 C       -1.2750     4.0760     0.5050 C.3   1 <1>   0.3640 
  6 C       -2.0780     2.0080     1.7150 C.3   1 <1>   0.0490 
  7 O        0.9800     3.8560    -0.4580 O.3   1 <1>  -0.5600 
  8 C       -2.6260     4.6050     0.0190 C.ar  1 <1>  -0.1440 
  9 C       -0.1850     4.6530    -0.4380 C.3   1 <1>   0.2610 
 10 C       -2.8760     0.7610     1.4890 C.3   1 <1>  -0.2000 
 11 C       -3.5760     2.0600     1.7150 C.3   1 <1>  -0.2000 
 12 C       -3.2560     4.0590    -1.0930 C.ar  1 <1>  -0.1500 
 13 C       -3.2270     5.6670     0.6790 C.ar  1 <1>  -0.1500 
 14 C        0.1480     6.1160    -0.0920 C.2   1 <1>   0.5690 
 15 C       -4.4640     4.5680    -1.5320 C.ar  1 <1>  -0.1500 
 16 C       -4.4360     6.1780     0.2410 C.ar  1 <1>  -0.1500 
 17 O       -0.0670     6.5160     1.0320 O.2   1 <1>  -0.5700 
 18 N        0.6680     6.9640    -1.0460 N.am  1 <1>  -0.6600 
 19 C       -5.0630     5.6280    -0.8740 C.ar  1 <1>   0.0830 
 20 C        0.8400     8.4180    -0.7510 C.3   1 <1>   0.1400 
 21 C        1.1420     6.5410    -2.3940 C.3   1 <1>   0.0600 
 22 O       -6.2440     6.0700    -1.3720 O.3   1 <1>  -0.3630 
 23 C        2.1300     8.6570     0.0340 C.3   1 <1>   0.1200 
 24 C       -6.9370     7.1420    -0.7730 C.3   1 <1>   0.0400 
 25 O        2.3550    10.0300     0.1030 O.3   1 <1>  -0.5600 
 26 C        3.4540    10.3790     0.8740 C.3   1 <1>   0.1200 
 27 C        3.5730    11.8970     0.8420 C.3   1 <1>  -0.2400 
 28 H        0.4310     2.5510    -1.9070 H     1 <1>   0.0800 
 29 H        1.6750     2.0030    -0.8070 H     1 <1>   0.0800 
 30 H       -1.0990     4.4380     1.5030 H     1 <1>   0.0800 
 31 H       -1.5670     2.1050     2.6580 H     1 <1>   0.1000 
 32 H       -0.5800     4.6510    -1.4370 H     1 <1>   0.0800 
 33 H       -2.8860     0.3290     0.5040 H     1 <1>   0.1000 
 34 H       -2.8970     0.0190     2.2670 H     1 <1>   0.1000 
 35 H       -4.0870     2.2040     2.6510 H     1 <1>   0.1000 
 36 H       -4.1210     2.4710     0.8860 H     1 <1>   0.1000 
 37 H       -2.8150     3.2290    -1.6170 H     1 <1>   0.1500 
 38 H       -2.7510     6.1100     1.5390 H     1 <1>   0.1500 
 39 H       -4.9550     4.1430    -2.3900 H     1 <1>   0.1500 
 40 H       -4.8700     7.0010     0.7760 H     1 <1>   0.1500 
 41 H        0.8700     8.9740    -1.6720 H     1 <1>   0.0800 
 42 H        0.0050     8.7680    -0.1680 H     1 <1>   0.0800 
 43 H        2.0420     7.0760    -2.6480 H     1 <1>   0.0800 
 44 H        0.3870     6.7610    -3.1280 H     1 <1>   0.0800 
 45 H        1.3650     5.4900    -2.4150 H     1 <1>   0.0800 
 46 H        2.9650     8.2010    -0.4670 H     1 <1>   0.0800 
 47 H        2.0300     8.2670     1.0320 H     1 <1>   0.0800 
 48 H       -7.8380     7.3120    -1.3340 H     1 <1>   0.0800 
 49 H       -6.3160     8.0200    -0.8040 H     1 <1>   0.0800 
 50 H       -7.1810     6.8770     0.2410 H     1 <1>   0.0800 
 51 H        3.2970    10.0310     1.8820 H     1 <1>   0.0800 
 52 H        4.3340     9.9190     0.4560 H     1 <1>   0.0800 
 53 H        2.6840    12.3440     1.2480 H     1 <1>   0.0800 
 54 H        3.7150    12.2340    -0.1700 H     1 <1>   0.0800 
 55 H        4.4160    12.2100     1.4310 H     1 <1>   0.0800 
@<TRIPOS>BOND
  1   1   2  2   
  2   2   3  am  
  3   2   4  1   
  4   3   5  1   
  5   3   6  1   
  6   4   7  1   
  7   4  28  1   
  8   4  29  1   
  9   5   8  1   
 10   5   9  1   
 11   5  30  1   
 12   6  10  1   
 13   6  11  1   
 14   6  31  1   
 15   7   9  1   
 16   8  12  ar  
 17   8  13  ar  
 18   9  14  1   
 19   9  32  1   
 20  10  11  1   
 21  10  33  1   
 22  10  34  1   
 23  11  35  1   
 24  11  36  1   
 25  12  15  ar  
 26  12  37  1   
 27  13  16  ar  
 28  13  38  1   
 29  14  17  2   
 30  14  18  am  
 31  15  19  ar  
 32  15  39  1   
 33  16  19  ar  
 34  16  40  1   
 35  18  20  1   
 36  18  21  1   
 37  19  22  1   
 38  20  23  1   
 39  20  41  1   
 40  20  42  1   
 41  21  43  1   
 42  21  44  1   
 43  21  45  1   
 44  22  24  1   
 45  23  25  1   
 46  23  46  1   
 47  23  47  1   
 48  24  48  1   
 49  24  49  1   
 50  24  50  1   
 51  25  26  1   
 52  26  27  1   
 53  26  51  1   
 54  26  52  1   
 55  27  53  1   
 56  27  54  1   
 57  27  55  1   
@<TRIPOS>SUBSTRUCTURE
  1 ****   9 GROUP 4 **** **** 0

# MOE 2024.06 (io_trps.svl 2023.06)
