@<TRIPOS>MOLECULE
NONAME
49 52 1 0 0 
SMALL
USER_CHARGES


@<TRIPOS>ATOM
  1 O       -0.9330     1.0470    -1.6920 O.2   1 <1>  -0.5700 
  2 C       -0.7300     2.1840    -1.3320 C.2   1 <1>   0.5690 
  3 N       -1.4090     2.7860    -0.3070 N.am  1 <1>  -0.5090 
  4 C        0.3200     2.9940    -2.0850 C.3   1 <1>   0.1810 
  5 C       -1.2710     4.2540    -0.0420 C.3   1 <1>   0.3640 
  6 C       -2.4270     2.0840     0.5090 C.3   1 <1>   0.0490 
  7 O        0.8680     4.0070    -1.2810 O.3   1 <1>  -0.5600 
  8 C       -2.5810     4.9650    -0.3980 C.ar  1 <1>  -0.1440 
  9 C       -0.0860     4.9340    -0.7820 C.3   1 <1>   0.2610 
 10 C       -2.2280     2.0100     1.9920 C.3   1 <1>  -0.2000 
 11 C       -2.0890     0.7780     1.1560 C.3   1 <1>  -0.2000 
 12 C       -3.2710     4.6720    -1.5680 C.ar  1 <1>  -0.1500 
 13 C       -3.0960     5.9290     0.4590 C.ar  1 <1>  -0.1500 
 14 C        0.5990     5.9330     0.1600 C.2   1 <1>   0.5690 
 15 C       -4.4490     5.3300    -1.8720 C.ar  1 <1>  -0.1500 
 16 C       -4.2750     6.5890     0.1570 C.ar  1 <1>  -0.1500 
 17 O       -0.0320     6.8470     0.6370 O.2   1 <1>  -0.5700 
 18 N        1.9190     5.7770     0.4450 N.am  1 <1>  -0.7300 
 19 C       -4.9610     6.2900    -1.0160 C.ar  1 <1>   0.0830 
 20 C        2.7300     6.6330     1.3630 C.3   1 <1>   0.2010 
 21 O       -6.1210     6.8860    -1.3870 O.3   1 <1>  -0.3630 
 22 C        3.0120     8.0220     0.7920 C.2   1 <1>   0.4490 
 23 C       -6.7160     7.8880    -0.5930 C.3   1 <1>   0.0400 
 24 N        4.1670     8.5380     0.5980 N.2   1 <1>  -0.5120 
 25 N        1.9920     8.8660     0.4330 N.am  1 <1>  -0.4900 
 26 N        3.8920     9.7880     0.0780 N.am  1 <1>  -0.3680 
 27 C        2.5640     9.9790    -0.0270 C.2   1 <1>   0.6900 
 28 O        1.9910    10.9670    -0.4630 O.2   1 <1>  -0.5700 
 29 H       -0.1170     3.4400    -2.9600 H     1 <1>   0.0800 
 30 H        1.1210     2.3440    -2.3860 H     1 <1>   0.0800 
 31 H       -1.1070     4.3690     1.0150 H     1 <1>   0.0800 
 32 H       -3.4280     2.2170     0.1290 H     1 <1>   0.1000 
 33 H       -0.4630     5.4870    -1.6240 H     1 <1>   0.0800 
 34 H       -1.3350     2.4110     2.4370 H     1 <1>   0.1000 
 35 H       -3.0860     2.0890     2.6350 H     1 <1>   0.1000 
 36 H       -2.8540     0.0250     1.2150 H     1 <1>   0.1000 
 37 H       -1.1120     0.3600     0.9850 H     1 <1>   0.1000 
 38 H       -2.9060     3.9260    -2.2530 H     1 <1>   0.1500 
 39 H       -2.5780     6.1790     1.3700 H     1 <1>   0.1500 
 40 H       -4.9840     5.1010    -2.7760 H     1 <1>   0.1500 
 41 H       -4.6400     7.3290     0.8430 H     1 <1>   0.1500 
 42 H        2.4160     5.0260    -0.0500 H     1 <1>   0.3700 
 43 H        2.2020     6.7480     2.2920 H     1 <1>   0.0800 
 44 H        3.6660     6.1450     1.5680 H     1 <1>   0.0800 
 45 H       -7.6170     8.2120    -1.0840 H     1 <1>   0.0800 
 46 H       -6.0320     8.7130    -0.5010 H     1 <1>   0.0800 
 47 H       -6.9540     7.4740     0.3710 H     1 <1>   0.0800 
 48 H        0.9960     8.6400     0.4360 H     1 <1>   0.3700 
 49 H        4.5870    10.4830    -0.2060 H     1 <1>   0.3700 
@<TRIPOS>BOND
  1   1   2  2   
  2   2   3  am  
  3   2   4  1   
  4   3   5  1   
  5   3   6  1   
  6   4   7  1   
  7   4  29  1   
  8   4  30  1   
  9   5   8  1   
 10   5   9  1   
 11   5  31  1   
 12   6  10  1   
 13   6  11  1   
 14   6  32  1   
 15   7   9  1   
 16   8  12  ar  
 17   8  13  ar  
 18   9  14  1   
 19   9  33  1   
 20  10  11  1   
 21  10  34  1   
 22  10  35  1   
 23  11  36  1   
 24  11  37  1   
 25  12  15  ar  
 26  12  38  1   
 27  13  16  ar  
 28  13  39  1   
 29  14  17  2   
 30  14  18  am  
 31  15  19  ar  
 32  15  40  1   
 33  16  19  ar  
 34  16  41  1   
 35  18  20  1   
 36  18  42  1   
 37  19  21  1   
 38  20  22  1   
 39  20  43  1   
 40  20  44  1   
 41  21  23  1   
 42  22  24  2   
 43  22  25  1   
 44  23  45  1   
 45  23  46  1   
 46  23  47  1   
 47  24  26  1   
 48  25  27  am  
 49  25  48  1   
 50  26  27  am  
 51  26  49  1   
 52  27  28  2   
@<TRIPOS>SUBSTRUCTURE
  1 ****   9 GROUP 4 **** **** 0

# MOE 2024.06 (io_trps.svl 2023.06)
