@<TRIPOS>MOLECULE
NONAME
37 38 1 0 0 
SMALL
USER_CHARGES


@<TRIPOS>ATOM
  1 O       -1.7310     1.1390     2.2820 O.2   1 <1>  -0.5700 
  2 C       -2.1220     1.2590     1.1350 C.2   1 <1>   0.5440 
  3 N       -1.5980     2.2760     0.3570 N.am  1 <1>  -0.6600 
  4 C       -3.1040     0.3300     0.6300 C.ar  1 <1>   0.0860 
  5 C       -1.5940     2.2570    -1.1320 C.3   1 <1>   0.0600 
  6 C       -0.7950     3.3760     0.9610 C.3   1 <1>   0.0600 
  7 C       -2.9800    -1.0330     0.8870 C.ar  1 <1>   0.1600 
  8 C       -4.2110     0.7270    -0.1150 C.ar  1 <1>  -0.1500 
  9 N       -3.7980    -1.9830     0.4650 N.ar  1 <1>  -0.6200 
 10 C       -5.0750    -0.2450    -0.5580 C.ar  1 <1>  -0.1500 
 11 C       -4.8390    -1.5830    -0.2550 C.ar  1 <1>   0.4100 
 12 N       -5.7060    -2.5370    -0.7080 N.pl3 1 <1>  -0.8690 
 13 C       -5.6550    -3.9540    -0.3320 C.3   1 <1>   0.4270 
 14 C       -6.3290    -4.7290    -1.4480 C.2   1 <1>  -0.2880 
 15 C       -6.3980    -4.1420     0.9990 C.3   1 <1>  -0.1600 
 16 C       -7.2660    -5.6650    -1.2600 C.2   1 <1>  -0.2880 
 17 C       -6.8140    -5.6060     1.2220 C.3   1 <1>  -0.1600 
 18 C       -7.7600    -6.0940     0.1120 C.3   1 <1>  -0.0220 
 19 H       -1.8890     1.2920    -1.5060 H     1 <1>   0.0800 
 20 H       -0.6030     2.4690    -1.4960 H     1 <1>   0.0800 
 21 H       -2.2720     3.0040    -1.5060 H     1 <1>   0.0800 
 22 H       -0.9940     3.4530     2.0170 H     1 <1>   0.0800 
 23 H       -1.0490     4.3130     0.4980 H     1 <1>   0.0800 
 24 H        0.2530     3.1790     0.8210 H     1 <1>   0.0800 
 25 H       -2.1400    -1.3480     1.4820 H     1 <1>   0.1500 
 26 H       -4.3770     1.7680    -0.3290 H     1 <1>   0.1500 
 27 H       -5.9390     0.0130    -1.1390 H     1 <1>   0.1500 
 28 H       -6.6120    -2.2570    -1.0770 H     1 <1>   0.4000 
 29 H       -4.6320    -4.2810    -0.2420 H     1 <1>   0.0800 
 30 H       -5.9650    -4.4440    -2.4190 H     1 <1>   0.1500 
 31 H       -7.2820    -3.5300     1.0040 H     1 <1>   0.0800 
 32 H       -5.7570    -3.8180     1.8000 H     1 <1>   0.0800 
 33 H       -7.7430    -6.1900    -2.0710 H     1 <1>   0.1500 
 34 H       -7.2960    -5.7100     2.1780 H     1 <1>   0.0800 
 35 H       -5.9310    -6.2220     1.2260 H     1 <1>   0.0800 
 36 H       -7.8260    -7.1680     0.1540 H     1 <1>   0.0800 
 37 H       -8.7460    -5.6920     0.2680 H     1 <1>   0.0800 
@<TRIPOS>BOND
  1   1   2  2   
  2   2   3  am  
  3   2   4  1   
  4   3   5  1   
  5   3   6  1   
  6   4   7  ar  
  7   4   8  ar  
  8   5  19  1   
  9   5  20  1   
 10   5  21  1   
 11   6  22  1   
 12   6  23  1   
 13   6  24  1   
 14   7   9  ar  
 15   7  25  1   
 16   8  10  ar  
 17   8  26  1   
 18   9  11  ar  
 19  10  11  ar  
 20  10  27  1   
 21  11  12  1   
 22  12  13  1   
 23  12  28  1   
 24  13  14  1   
 25  13  15  1   
 26  13  29  1   
 27  14  16  2   
 28  14  30  1   
 29  15  17  1   
 30  15  31  1   
 31  15  32  1   
 32  16  18  1   
 33  16  33  1   
 34  17  18  1   
 35  17  34  1   
 36  17  35  1   
 37  18  36  1   
 38  18  37  1   
@<TRIPOS>SUBSTRUCTURE
  1 ****  11 GROUP 4 **** **** 0

# MOE 2024.06 (io_trps.svl 2023.06)
