@<TRIPOS>MOLECULE
NONAME
51 54 1 0 0 
SMALL
USER_CHARGES


@<TRIPOS>ATOM
  1 O       -0.1620     0.7590     1.1450 O.2   1 <1>  -0.5700 
  2 C       -1.0370     1.0530     0.3560 C.2   1 <1>   0.6160 
  3 N       -1.9110     0.0920    -0.0440 N.am  1 <1>  -0.7300 
  4 C       -1.1540     2.3880    -0.1560 C.2   1 <1>  -0.1360 
  5 C       -1.9200    -1.2950     0.4500 C.3   1 <1>   0.3640 
  6 C       -0.3670     3.4460     0.1560 C.2   1 <1>  -0.1780 
  7 C       -3.3580    -1.7800     0.5260 C.ar  1 <1>  -0.1430 
  8 C       -1.0830    -2.1470    -0.5030 C.3   1 <1>  -0.1600 
  9 C       -0.4360     4.8030    -0.3250 C.ar  1 <1>   0.0280 
 10 C       -3.7100    -3.0090    -0.0240 C.ar  1 <1>   0.0830 
 11 C       -4.3370    -1.0170     1.1500 C.ar  1 <1>  -0.1500 
 12 C       -1.4110    -3.6430    -0.3880 C.3   1 <1>   0.2800 
 13 C        0.4430     5.7770     0.1290 C.ar  1 <1>   0.1600 
 14 C       -1.3580     5.2550    -1.2600 C.ar  1 <1>   0.1600 
 15 O       -2.7980    -3.8170    -0.6150 O.3   1 <1>  -0.3630 
 16 C       -5.0230    -3.4470     0.0230 C.ar  1 <1>  -0.1500 
 17 C       -5.6480    -1.4600     1.2020 C.ar  1 <1>  -0.1500 
 18 C       -1.0890    -4.2500     1.0060 C.3   1 <1>  -0.1600 
 19 C       -0.6940    -4.4100    -1.5220 C.3   1 <1>  -0.1600 
 20 N        0.4200     7.0230    -0.2760 N.ar  1 <1>  -0.6200 
 21 N       -1.4110     6.4930    -1.6880 N.ar  1 <1>  -0.6200 
 22 C       -5.9930    -2.6740     0.6340 C.ar  1 <1>  -0.1500 
 23 C        0.2420    -5.0170     1.0310 C.3   1 <1>  -0.1600 
 24 C       -0.6000    -5.9140    -1.2310 C.3   1 <1>  -0.1600 
 25 C       -0.5170     7.3110    -1.1620 C.ar  1 <1>   0.7200 
 26 C        0.2360    -6.1900     0.0330 C.3   1 <1>  -0.1600 
 27 N       -0.5550     8.5720    -1.5850 N.pl3 1 <1>  -0.9000 
 28 H       -2.6690     0.3010    -0.6910 H     1 <1>   0.3700 
 29 H       -1.9620     2.5030    -0.8510 H     1 <1>   0.1500 
 30 H       -1.4940    -1.3280     1.4390 H     1 <1>   0.0800 
 31 H        0.4300     3.2760     0.8630 H     1 <1>   0.1500 
 32 H       -0.0420    -1.9850    -0.2930 H     1 <1>   0.0800 
 33 H       -1.2740    -1.8420    -1.5170 H     1 <1>   0.0800 
 34 H       -4.0810    -0.0730     1.6010 H     1 <1>   0.1500 
 35 H        1.1900     5.5060     0.8540 H     1 <1>   0.1500 
 36 H       -2.0760     4.5680    -1.6690 H     1 <1>   0.1500 
 37 H       -5.2750    -4.3950    -0.4180 H     1 <1>   0.1500 
 38 H       -6.4000    -0.8620     1.6860 H     1 <1>   0.1500 
 39 H       -1.0610    -3.4900     1.7640 H     1 <1>   0.0800 
 40 H       -1.8680    -4.9410     1.2770 H     1 <1>   0.0800 
 41 H       -1.2090    -4.2430    -2.4520 H     1 <1>   0.0800 
 42 H        0.3070    -4.0310    -1.6380 H     1 <1>   0.0800 
 43 H       -7.0120    -3.0180     0.6710 H     1 <1>   0.1500 
 44 H        1.0390    -4.3380     0.7800 H     1 <1>   0.0800 
 45 H        0.4340    -5.3900     2.0220 H     1 <1>   0.0800 
 46 H       -1.5970    -6.2980    -1.0900 H     1 <1>   0.0800 
 47 H       -0.1690    -6.4290    -2.0710 H     1 <1>   0.0800 
 48 H       -0.1560    -7.0690     0.5150 H     1 <1>   0.0800 
 49 H        1.2520    -6.4040    -0.2480 H     1 <1>   0.0800 
 50 H       -1.1100     8.7840    -2.4080 H     1 <1>   0.4000 
 51 H        0.2350     9.1730    -1.3660 H     1 <1>   0.4000 
@<TRIPOS>BOND
  1   1   2  2   
  2   2   3  am  
  3   2   4  1   
  4   3   5  1   
  5   3  28  1   
  6   4   6  2   
  7   4  29  1   
  8   5   7  1   
  9   5   8  1   
 10   5  30  1   
 11   6   9  1   
 12   6  31  1   
 13   7  10  ar  
 14   7  11  ar  
 15   8  12  1   
 16   8  32  1   
 17   8  33  1   
 18   9  13  ar  
 19   9  14  ar  
 20  10  15  1   
 21  10  16  ar  
 22  11  17  ar  
 23  11  34  1   
 24  12  15  1   
 25  12  18  1   
 26  12  19  1   
 27  13  20  ar  
 28  13  35  1   
 29  14  21  ar  
 30  14  36  1   
 31  16  22  ar  
 32  16  37  1   
 33  17  22  ar  
 34  17  38  1   
 35  18  23  1   
 36  18  39  1   
 37  18  40  1   
 38  19  24  1   
 39  19  41  1   
 40  19  42  1   
 41  20  25  ar  
 42  21  25  ar  
 43  22  43  1   
 44  23  26  1   
 45  23  44  1   
 46  23  45  1   
 47  24  26  1   
 48  24  46  1   
 49  24  47  1   
 50  25  27  1   
 51  26  48  1   
 52  26  49  1   
 53  27  50  1   
 54  27  51  1   
@<TRIPOS>SUBSTRUCTURE
  1 ****   3 GROUP 4 **** **** 0

# MOE 2024.06 (io_trps.svl 2023.06)
