@<TRIPOS>MOLECULE
NONAME
18 18 1 0 0 
SMALL
USER_CHARGES


@<TRIPOS>ATOM
  1 S       -0.1590    -0.0630    -0.8350 S.3   1 <1>  -0.0800 
  2 C        0.4190    -1.4020     0.0980 C.2   1 <1>   0.4620 
  3 C        1.0810     0.8910    -0.0850 C.2   1 <1>   0.1980 
  4 N       -0.1950    -2.6090    -0.0320 N.pl3 1 <1>  -0.8840 
  5 N        1.4130    -1.0940     0.8470 N.2   1 <1>  -0.3380 
  6 N        1.7840     0.2170     0.7360 N.2   1 <1>  -0.3380 
  7 C        1.1760     2.3610    -0.4840 C.3   1 <1>   0.1000 
  8 C        2.5570     2.9490    -0.1600 C.3   1 <1>  -0.2400 
  9 C        0.0830     3.1810     0.2140 C.3   1 <1>  -0.2400 
 10 H        0.1320    -3.4090     0.5130 H     1 <1>   0.4000 
 11 H       -0.9880    -2.7610    -0.6560 H     1 <1>   0.4000 
 12 H        1.0290     2.4250    -1.5480 H     1 <1>   0.0800 
 13 H        2.7400     2.9160     0.9000 H     1 <1>   0.0800 
 14 H        2.6200     3.9700    -0.4920 H     1 <1>   0.0800 
 15 H        3.3240     2.3800    -0.6550 H     1 <1>   0.0800 
 16 H        0.1980     3.1190     1.2820 H     1 <1>   0.0800 
 17 H       -0.8900     2.8070    -0.0480 H     1 <1>   0.0800 
 18 H        0.1420     4.2140    -0.0820 H     1 <1>   0.0800 
@<TRIPOS>BOND
  1   1   2  1   
  2   1   3  1   
  3   2   4  1   
  4   2   5  2   
  5   3   6  2   
  6   3   7  1   
  7   4  10  1   
  8   4  11  1   
  9   5   6  1   
 10   7   8  1   
 11   7   9  1   
 12   7  12  1   
 13   8  13  1   
 14   8  14  1   
 15   8  15  1   
 16   9  16  1   
 17   9  17  1   
 18   9  18  1   
@<TRIPOS>SUBSTRUCTURE
  1 ****   3 GROUP 4 **** **** 0

# MOE 2024.06 (io_trps.svl 2023.06)
