@<TRIPOS>MOLECULE
NONAME
50 51 1 0 0 
SMALL
USER_CHARGES


@<TRIPOS>ATOM
  1 CL       1.0210    -0.8680    -1.1560 Cl    1 <1>  -0.1770 
  2 C        0.5030    -2.4940    -0.7860 C.ar  1 <1>   0.1770 
  3 C       -0.8320    -2.8270    -0.9280 C.ar  1 <1>  -0.1500 
  4 C        1.4330    -3.4220    -0.3590 C.ar  1 <1>  -0.1500 
  5 C       -1.2470    -4.1160    -0.6350 C.ar  1 <1>  -0.1500 
  6 C        1.0160    -4.7090    -0.0670 C.ar  1 <1>  -0.1500 
  7 C       -0.3190    -5.0640    -0.2020 C.ar  1 <1>   0.0830 
  8 O       -0.6390    -6.3460     0.1050 O.3   1 <1>  -0.3630 
  9 C       -1.9570    -6.8200     0.0030 C.3   1 <1>   0.1200 
 10 C       -1.9410    -8.2900     0.4210 C.3   1 <1>  -0.1600 
 11 C       -3.3450    -8.8880     0.3650 C.3   1 <1>   0.3430 
 12 N       -3.2950   -10.3460     0.6480 N.4   1 <1>  -0.9590 
 13 C       -4.5490   -11.0570     0.2460 C.3   1 <1>   0.4860 
 14 C       -2.8940   -10.7010     2.0450 C.3   1 <1>   0.2630 
 15 C       -4.2110   -12.5160    -0.0610 C.ar  1 <1>   0.1670 
 16 N       -3.0810   -12.6810    -0.7420 N.ar  1 <1>  -0.6200 
 17 C       -5.0350   -13.5520     0.3680 C.ar  1 <1>  -0.1430 
 18 C       -2.7460   -13.9340    -1.0110 C.ar  1 <1>   0.1600 
 19 C       -4.6590   -14.8510     0.0540 C.ar  1 <1>   0.0830 
 20 C       -6.3150   -13.2780     1.1630 C.3   1 <1>  -0.0970 
 21 C       -3.4770   -15.0470    -0.6390 C.ar  1 <1>  -0.1430 
 22 O       -5.4090   -15.9020     0.4330 O.3   1 <1>  -0.3630 
 23 C       -2.9710   -16.4420    -0.9860 C.3   1 <1>  -0.0970 
 24 C       -6.3510   -16.3870    -0.4990 C.3   1 <1>   0.0400 
 25 H       -1.5320    -2.0830    -1.2620 H     1 <1>   0.1500 
 26 H        2.4650    -3.1380    -0.2570 H     1 <1>   0.1500 
 27 H       -2.2860    -4.3560    -0.7510 H     1 <1>   0.1500 
 28 H        1.7250    -5.4460     0.2670 H     1 <1>   0.1500 
 29 H       -2.2760    -6.7080    -1.0200 H     1 <1>   0.0800 
 30 H       -2.5770    -6.2330     0.6590 H     1 <1>   0.0800 
 31 H       -1.5520    -8.3490     1.4210 H     1 <1>   0.0800 
 32 H       -1.2930    -8.8270    -0.2500 H     1 <1>   0.0800 
 33 H       -3.7500    -8.7290    -0.6220 H     1 <1>   0.0800 
 34 H       -3.9850    -8.3930     1.0790 H     1 <1>   0.0800 
 35 H       -2.6020   -10.7940     0.0140 H     1 <1>   0.4500 
 36 H       -4.9450   -10.6150    -0.6520 H     1 <1>   0.0800 
 37 H       -5.2900   -10.9840     1.0230 H     1 <1>   0.0800 
 38 H       -3.5990   -10.3010     2.7550 H     1 <1>   0.0800 
 39 H       -1.9160   -10.3060     2.2670 H     1 <1>   0.0800 
 40 H       -2.8560   -11.7740     2.1580 H     1 <1>   0.0800 
 41 H       -1.8310   -14.0820    -1.5600 H     1 <1>   0.1500 
 42 H       -6.0960   -12.7060     2.0460 H     1 <1>   0.0800 
 43 H       -6.7860   -14.1880     1.4880 H     1 <1>   0.0800 
 44 H       -7.0230   -12.7430     0.5560 H     1 <1>   0.0800 
 45 H       -1.9140   -16.4310    -1.1790 H     1 <1>   0.0800 
 46 H       -3.4760   -16.8100    -1.8600 H     1 <1>   0.0800 
 47 H       -3.1550   -17.1190    -0.1690 H     1 <1>   0.0800 
 48 H       -6.8720   -17.2140    -0.0520 H     1 <1>   0.0800 
 49 H       -5.8350   -16.7130    -1.3840 H     1 <1>   0.0800 
 50 H       -7.0430   -15.5990    -0.7390 H     1 <1>   0.0800 
@<TRIPOS>BOND
  1   1   2  1   
  2   2   3  ar  
  3   2   4  ar  
  4   3   5  ar  
  5   3  25  1   
  6   4   6  ar  
  7   4  26  1   
  8   5   7  ar  
  9   5  27  1   
 10   6   7  ar  
 11   6  28  1   
 12   7   8  1   
 13   8   9  1   
 14   9  10  1   
 15   9  29  1   
 16   9  30  1   
 17  10  11  1   
 18  10  31  1   
 19  10  32  1   
 20  11  12  1   
 21  11  33  1   
 22  11  34  1   
 23  12  13  1   
 24  12  14  1   
 25  12  35  1   
 26  13  15  1   
 27  13  36  1   
 28  13  37  1   
 29  14  38  1   
 30  14  39  1   
 31  14  40  1   
 32  15  16  ar  
 33  15  17  ar  
 34  16  18  ar  
 35  17  19  ar  
 36  17  20  1   
 37  18  21  ar  
 38  18  41  1   
 39  19  21  ar  
 40  19  22  1   
 41  20  42  1   
 42  20  43  1   
 43  20  44  1   
 44  21  23  1   
 45  22  24  1   
 46  23  45  1   
 47  23  46  1   
 48  23  47  1   
 49  24  48  1   
 50  24  49  1   
 51  24  50  1   
@<TRIPOS>SUBSTRUCTURE
  1 ****  11 GROUP 4 **** **** 0

# MOE 2024.06 (io_trps.svl 2023.06)
