@<TRIPOS>MOLECULE
NONAME
50 53 1 0 0 
SMALL
USER_CHARGES


@<TRIPOS>ATOM
  1 O       -0.8400     0.1920    -1.8050 O.2   1 <1>  -0.5700 
  2 C       -1.8090     0.9000    -1.5860 C.2   1 <1>   0.5440 
  3 N       -3.0710     0.3520    -1.6800 N.am  1 <1>  -0.6600 
  4 C       -1.6200     2.2790    -1.2170 C.ar  1 <1>   0.0860 
  5 C       -4.2450     0.8950    -0.9290 C.3   1 <1>   0.1400 
  6 C       -3.2930    -1.0470    -2.1560 C.3   1 <1>   0.1400 
  7 C       -0.9360     2.6170    -0.0370 C.ar  1 <1>   0.4100 
  8 C       -2.1270     3.3080    -1.9980 C.ar  1 <1>  -0.1500 
  9 C       -4.6350    -0.0530     0.2210 C.3   1 <1>   0.1900 
 10 C       -3.7230    -1.9540    -0.9910 C.3   1 <1>   0.1100 
 11 N       -0.7730     3.8690     0.3880 N.ar  1 <1>  -0.6200 
 12 N       -0.3950     1.6290     0.7560 N.pl3 1 <1>  -0.8690 
 13 C       -1.9450     4.6010    -1.5640 C.ar  1 <1>  -0.1500 
 14 N       -4.9160    -1.4160    -0.2970 N.3   1 <1>  -0.8100 
 15 C       -5.8530     0.5000     0.9870 C.3   1 <1>   0.1200 
 16 C       -1.2700     4.8210    -0.3760 C.ar  1 <1>   0.1600 
 17 C        0.5160     1.8940     1.8970 C.3   1 <1>   0.1290 
 18 C       -5.3500    -2.2950     0.8160 C.3   1 <1>   0.3330 
 19 O       -6.2160    -0.3640     2.0250 O.3   1 <1>  -0.5600 
 20 C       -5.7670    -3.6710     0.2990 C.ar  1 <1>  -0.1430 
 21 C       -6.5280    -1.6590     1.5840 C.3   1 <1>   0.1200 
 22 C       -5.3010    -4.8200     0.9240 C.ar  1 <1>  -0.1500 
 23 C       -6.6160    -3.7950    -0.7920 C.ar  1 <1>  -0.1500 
 24 C       -5.6780    -6.0700     0.4660 C.ar  1 <1>  -0.1500 
 25 C       -6.9940    -5.0440    -1.2520 C.ar  1 <1>  -0.1500 
 26 C       -6.5260    -6.1830    -0.6220 C.ar  1 <1>  -0.1500 
 27 H       -4.0240     1.8650    -0.5220 H     1 <1>   0.0800 
 28 H       -5.0770     0.9980    -1.6040 H     1 <1>   0.0800 
 29 H       -4.0640    -1.0480    -2.9050 H     1 <1>   0.0800 
 30 H       -2.3990    -1.4430    -2.6060 H     1 <1>   0.0800 
 31 H       -2.6470     3.0900    -2.9150 H     1 <1>   0.1500 
 32 H       -3.8060    -0.0930     0.9080 H     1 <1>   0.0800 
 33 H       -2.9030    -2.0490    -0.2990 H     1 <1>   0.0800 
 34 H       -3.9390    -2.9320    -1.3860 H     1 <1>   0.0800 
 35 H       -0.2180     0.7430     0.2590 H     1 <1>   0.4000 
 36 H       -2.3180     5.4330    -2.1340 H     1 <1>   0.1500 
 37 H       -6.6950     0.6180     0.3270 H     1 <1>   0.0800 
 38 H       -5.6170     1.4530     1.4260 H     1 <1>   0.0800 
 39 H       -1.1340     5.8350    -0.0390 H     1 <1>   0.1500 
 40 H        0.0820     2.6320     2.5500 H     1 <1>   0.0800 
 41 H        1.4590     2.2630     1.5300 H     1 <1>   0.0800 
 42 H        0.6790     0.9880     2.4530 H     1 <1>   0.0800 
 43 H       -4.5320    -2.4130     1.5060 H     1 <1>   0.0800 
 44 H       -6.7650    -2.2530     2.4480 H     1 <1>   0.0800 
 45 H       -7.3980    -1.6070     0.9540 H     1 <1>   0.0800 
 46 H       -4.6420    -4.7480     1.7720 H     1 <1>   0.1500 
 47 H       -6.9770    -2.9110    -1.2880 H     1 <1>   0.1500 
 48 H       -5.3130    -6.9560     0.9560 H     1 <1>   0.1500 
 49 H       -7.6520    -5.1280    -2.0990 H     1 <1>   0.1500 
 50 H       -6.8190    -7.1550    -0.9790 H     1 <1>   0.1500 
@<TRIPOS>BOND
  1   1   2  2   
  2   2   3  am  
  3   2   4  1   
  4   3   5  1   
  5   3   6  1   
  6   4   7  ar  
  7   4   8  ar  
  8   5   9  1   
  9   5  27  1   
 10   5  28  1   
 11   6  10  1   
 12   6  29  1   
 13   6  30  1   
 14   7  11  ar  
 15   7  12  1   
 16   8  13  ar  
 17   8  31  1   
 18   9  14  1   
 19   9  15  1   
 20   9  32  1   
 21  10  14  1   
 22  10  33  1   
 23  10  34  1   
 24  11  16  ar  
 25  12  17  1   
 26  12  35  1   
 27  13  16  ar  
 28  13  36  1   
 29  14  18  1   
 30  15  19  1   
 31  15  37  1   
 32  15  38  1   
 33  16  39  1   
 34  17  40  1   
 35  17  41  1   
 36  17  42  1   
 37  18  20  1   
 38  18  21  1   
 39  18  43  1   
 40  19  21  1   
 41  20  22  ar  
 42  20  23  ar  
 43  21  44  1   
 44  21  45  1   
 45  22  24  ar  
 46  22  46  1   
 47  23  25  ar  
 48  23  47  1   
 49  24  26  ar  
 50  24  48  1   
 51  25  26  ar  
 52  25  49  1   
 53  26  50  1   
@<TRIPOS>SUBSTRUCTURE
  1 ****   9 GROUP 4 **** **** 0

# MOE 2024.06 (io_trps.svl 2023.06)
