@<TRIPOS>MOLECULE
NONAME
48 50 1 0 0 
SMALL
USER_CHARGES


@<TRIPOS>ATOM
  1 F        1.4190    -0.3260     2.4640 F     1 <1>  -0.1900 
  2 C        1.8770     0.6200     1.6680 C.ar  1 <1>   0.1900 
  3 C        2.8050     0.3500     0.6620 C.ar  1 <1>   0.4100 
  4 C        1.4370     1.9010     1.8460 C.ar  1 <1>   0.1600 
  5 N        3.2460     1.3400    -0.0930 N.ar  1 <1>  -0.6200 
  6 N        3.3120    -0.9210     0.3920 N.pl3 1 <1>  -0.8380 
  7 N        1.8680     2.8910     1.0890 N.ar  1 <1>  -0.6200 
  8 C        2.7490     2.5400     0.1560 C.ar  1 <1>   0.7200 
  9 C        2.4070    -2.0980     0.2990 C.3   1 <1>   0.1290 
 10 C        4.6270    -1.0820    -0.2900 C.3   1 <1>   0.1290 
 11 N        3.2310     3.5060    -0.6610 N.pl3 1 <1>  -0.8690 
 12 C        3.2850     4.9340    -0.3170 C.3   1 <1>   0.2890 
 13 C        3.2510     5.7500    -1.6070 C.3   1 <1>  -0.1600 
 14 C        4.5600     5.2160     0.4780 C.3   1 <1>  -0.1600 
 15 C        3.3860     7.2390    -1.2970 C.3   1 <1>   0.2090 
 16 C        4.6840     6.7100     0.7690 C.3   1 <1>   0.2090 
 17 N        4.6230     7.4620    -0.5090 N.pl3 1 <1>  -0.8380 
 18 C        5.1010     8.7670    -0.4760 C.ar  1 <1>   0.1000 
 19 C        4.4320     9.7710     0.2150 C.ar  1 <1>  -0.1500 
 20 C        6.2730     9.0840    -1.1460 C.ar  1 <1>  -0.1500 
 21 C        4.9200    11.0670     0.2390 C.ar  1 <1>  -0.1430 
 22 C        6.7690    10.3740    -1.1290 C.ar  1 <1>  -0.1500 
 23 C        6.0930    11.3650    -0.4370 C.ar  1 <1>  -0.1500 
 24 C        4.1870    12.1620     0.9940 C.3   1 <1>  -0.0970 
 25 H        0.7230     2.1200     2.6200 H     1 <1>   0.1500 
 26 H        1.3770    -1.7890     0.3500 H     1 <1>   0.0800 
 27 H        2.6110    -2.7740     1.1110 H     1 <1>   0.0800 
 28 H        2.5610    -2.6100    -0.6350 H     1 <1>   0.0800 
 29 H        5.2950    -0.2910     0.0050 H     1 <1>   0.0800 
 30 H        4.4900    -1.0420    -1.3560 H     1 <1>   0.0800 
 31 H        5.0700    -2.0240    -0.0190 H     1 <1>   0.0800 
 32 H        4.0040     3.1660    -1.2270 H     1 <1>   0.4000 
 33 H        2.4280     5.2000     0.2810 H     1 <1>   0.0800 
 34 H        2.3210     5.5760    -2.1180 H     1 <1>   0.0800 
 35 H        4.0600     5.4590    -2.2520 H     1 <1>   0.0800 
 36 H        5.4230     4.9010    -0.0810 H     1 <1>   0.0800 
 37 H        4.5320     4.6760     1.4070 H     1 <1>   0.0800 
 38 H        2.5340     7.5810    -0.7330 H     1 <1>   0.0800 
 39 H        3.4380     7.8030    -2.2130 H     1 <1>   0.0800 
 40 H        5.6210     6.9120     1.2590 H     1 <1>   0.0800 
 41 H        3.8840     7.0310     1.4140 H     1 <1>   0.0800 
 42 H        3.5250     9.5230     0.7320 H     1 <1>   0.1500 
 43 H        6.7870     8.3050    -1.6780 H     1 <1>   0.1500 
 44 H        7.6790    10.6070    -1.6520 H     1 <1>   0.1500 
 45 H        6.4830    12.3680    -0.4260 H     1 <1>   0.1500 
 46 H        3.3170    11.7700     1.4890 H     1 <1>   0.0800 
 47 H        3.8780    12.9320     0.3110 H     1 <1>   0.0800 
 48 H        4.8370    12.5930     1.7340 H     1 <1>   0.0800 
@<TRIPOS>BOND
  1   1   2  1   
  2   2   3  ar  
  3   2   4  ar  
  4   3   5  ar  
  5   3   6  1   
  6   4   7  ar  
  7   4  25  1   
  8   5   8  ar  
  9   6   9  1   
 10   6  10  1   
 11   7   8  ar  
 12   8  11  1   
 13   9  26  1   
 14   9  27  1   
 15   9  28  1   
 16  10  29  1   
 17  10  30  1   
 18  10  31  1   
 19  11  12  1   
 20  11  32  1   
 21  12  13  1   
 22  12  14  1   
 23  12  33  1   
 24  13  15  1   
 25  13  34  1   
 26  13  35  1   
 27  14  16  1   
 28  14  36  1   
 29  14  37  1   
 30  15  17  1   
 31  15  38  1   
 32  15  39  1   
 33  16  17  1   
 34  16  40  1   
 35  16  41  1   
 36  17  18  1   
 37  18  19  ar  
 38  18  20  ar  
 39  19  21  ar  
 40  19  42  1   
 41  20  22  ar  
 42  20  43  1   
 43  21  23  ar  
 44  21  24  1   
 45  22  23  ar  
 46  22  44  1   
 47  23  45  1   
 48  24  46  1   
 49  24  47  1   
 50  24  48  1   
@<TRIPOS>SUBSTRUCTURE
  1 ****  12 GROUP 4 **** **** 0

# MOE 2024.06 (io_trps.svl 2023.06)
