@<TRIPOS>MOLECULE
NONAME
42 43 1 0 0 
SMALL
USER_CHARGES


@<TRIPOS>ATOM
  1 O        2.6330    -0.2530     3.0010 O.2   1 <1>  -0.5700 
  2 C        2.0500    -0.8390     2.1220 C.2   1 <1>   0.5690 
  3 N        1.9090    -0.3450     0.8600 N.am  1 <1>  -0.4930 
  4 C        1.4560    -2.1970     2.4630 C.3   1 <1>  -0.0990 
  5 C        2.3750     0.8770     0.3140 C.2   1 <1>   0.0630 
  6 C        0.5420    -2.8060     1.3820 C.3   1 <1>  -0.1600 
  7 C        2.1870     1.3110    -0.9520 C.2   1 <1>  -0.3320 
  8 C        3.1150     1.8880     0.9290 C.2   1 <1>   0.1390 
  9 C       -0.0400    -4.1450     1.8260 C.3   1 <1>   0.1200 
 10 N        2.8000     2.5190    -1.0390 N.pl3 1 <1>   0.3140 
 11 C        1.4520     0.6480    -2.1090 C.3   1 <1>  -0.0600 
 12 N        3.3720     2.8740     0.1220 N.2   1 <1>  -0.7070 
 13 O       -0.8220    -4.6100     0.7800 O.3   1 <1>  -0.5600 
 14 C        2.8760     3.3960    -2.2150 C.3   1 <1>   0.0160 
 15 C       -1.4250    -5.8440     1.0150 C.3   1 <1>   0.2630 
 16 C       -2.2380    -6.2370    -0.2090 C.ar  1 <1>  -0.1440 
 17 C       -1.9910    -7.4330    -0.8670 C.ar  1 <1>  -0.1500 
 18 C       -3.2420    -5.4020    -0.6750 C.ar  1 <1>  -0.1500 
 19 C       -2.7410    -7.7900    -1.9740 C.ar  1 <1>  -0.1500 
 20 C       -3.9930    -5.7570    -1.7820 C.ar  1 <1>  -0.1500 
 21 C       -3.7440    -6.9530    -2.4320 C.ar  1 <1>  -0.1500 
 22 H        1.3900    -0.9240     0.2050 H     1 <1>   0.3700 
 23 H        0.8980    -2.0850     3.3760 H     1 <1>   0.0800 
 24 H        2.2720    -2.8680     2.6620 H     1 <1>   0.0800 
 25 H        1.1060    -2.9670     0.4790 H     1 <1>   0.0800 
 26 H       -0.2710    -2.1320     1.1750 H     1 <1>   0.0800 
 27 H        3.4390     1.8590     1.9560 H     1 <1>   0.1500 
 28 H       -0.6600    -4.0250     2.6990 H     1 <1>   0.0800 
 29 H        0.7440    -4.8590     2.0190 H     1 <1>   0.0800 
 30 H        1.0450    -0.3010    -1.8100 H     1 <1>   0.0800 
 31 H        2.1270     0.4830    -2.9300 H     1 <1>   0.0800 
 32 H        0.6440     1.2740    -2.4410 H     1 <1>   0.0800 
 33 H        1.8830     3.6680    -2.5170 H     1 <1>   0.0800 
 34 H        3.3760     2.8770    -3.0100 H     1 <1>   0.0800 
 35 H        3.4290     4.2800    -1.9580 H     1 <1>   0.0800 
 36 H       -2.0700    -5.7570     1.8720 H     1 <1>   0.0800 
 37 H       -0.6560    -6.5720     1.2100 H     1 <1>   0.0800 
 38 H       -1.2140    -8.0920    -0.5230 H     1 <1>   0.1500 
 39 H       -3.4340    -4.4680    -0.1760 H     1 <1>   0.1500 
 40 H       -2.5450    -8.7190    -2.4800 H     1 <1>   0.1500 
 41 H       -4.7700    -5.1030    -2.1370 H     1 <1>   0.1500 
 42 H       -4.3270    -7.2300    -3.2920 H     1 <1>   0.1500 
@<TRIPOS>BOND
  1   1   2  2   
  2   2   3  am  
  3   2   4  1   
  4   3   5  1   
  5   3  22  1   
  6   4   6  1   
  7   4  23  1   
  8   4  24  1   
  9   5   7  2   
 10   5   8  1   
 11   6   9  1   
 12   6  25  1   
 13   6  26  1   
 14   7  10  1   
 15   7  11  1   
 16   8  12  2   
 17   8  27  1   
 18   9  13  1   
 19   9  28  1   
 20   9  29  1   
 21  10  12  1   
 22  10  14  1   
 23  11  30  1   
 24  11  31  1   
 25  11  32  1   
 26  13  15  1   
 27  14  33  1   
 28  14  34  1   
 29  14  35  1   
 30  15  16  1   
 31  15  36  1   
 32  15  37  1   
 33  16  17  ar  
 34  16  18  ar  
 35  17  19  ar  
 36  17  38  1   
 37  18  20  ar  
 38  18  39  1   
 39  19  21  ar  
 40  19  40  1   
 41  20  21  ar  
 42  20  41  1   
 43  21  42  1   
@<TRIPOS>SUBSTRUCTURE
  1 ****   6 GROUP 4 **** **** 0

# MOE 2024.06 (io_trps.svl 2023.06)
