@<TRIPOS>MOLECULE
NONAME
42 43 1 0 0 
SMALL
USER_CHARGES


@<TRIPOS>ATOM
  1 F       -1.1910    -0.5430    -1.9580 F     1 <1>  -0.3400 
  2 C       -0.6680    -1.6350    -2.5010 C.3   1 <1>   1.1640 
  3 F       -0.2500    -1.2900    -3.7110 F     1 <1>  -0.3400 
  4 F       -1.6780    -2.4800    -2.6790 F     1 <1>  -0.3400 
  5 C        0.4630    -2.2410    -1.6520 C.ar  1 <1>  -0.1440 
  6 C        0.7400    -3.6000    -1.7140 C.ar  1 <1>  -0.1500 
  7 C        1.2390    -1.4450    -0.8140 C.ar  1 <1>  -0.1500 
  8 C        1.7500    -4.1820    -0.9540 C.ar  1 <1>   0.0860 
  9 C        2.2670    -1.9860    -0.0480 C.ar  1 <1>  -0.1440 
 10 C        2.0090    -5.6060    -1.0120 C.2   1 <1>   0.5440 
 11 C        2.5090    -3.3510    -0.1350 C.ar  1 <1>  -0.1500 
 12 C        3.1200    -1.0880     0.8660 C.3   1 <1>   1.1630 
 13 O        3.0280    -5.9950    -1.5480 O.2   1 <1>  -0.5700 
 14 N        1.1430    -6.5240    -0.4580 N.am  1 <1>  -0.6600 
 15 F        4.1170    -0.5160     0.2060 F     1 <1>  -0.3400 
 16 F        2.4160    -0.1020     1.4080 F     1 <1>  -0.3400 
 17 F        3.6680    -1.7510     1.8770 F     1 <1>  -0.3400 
 18 C        1.3990    -7.9820    -0.6490 C.3   1 <1>   0.3200 
 19 C        0.1460    -6.1350     0.5910 C.3   1 <1>   0.1400 
 20 C        0.1000    -8.7440    -0.8190 C.2   1 <1>  -0.3320 
 21 C       -1.2600    -5.9380     0.0110 C.3   1 <1>   0.1200 
 22 N       -0.5690    -9.3530     0.1790 N.pl3 1 <1>   0.0330 
 23 C       -0.6190    -8.9600    -1.9420 C.2   1 <1>   0.0770 
 24 O       -2.1040    -5.5470     1.0390 O.3   1 <1>  -0.6800 
 25 C       -1.6630    -9.8890    -0.4030 C.2   1 <1>   0.0060 
 26 N       -1.7290    -9.6730    -1.6750 N.2   1 <1>  -0.5650 
 27 C       -2.7070   -10.6640     0.3710 C.3   1 <1>  -0.0600 
 28 H        0.1700    -4.2420    -2.3660 H     1 <1>   0.1500 
 29 H        1.0430    -0.3840    -0.7600 H     1 <1>   0.1500 
 30 H        3.3040    -3.8030     0.4360 H     1 <1>   0.1500 
 31 H        1.9540    -8.3630     0.1900 H     1 <1>   0.0800 
 32 H        1.9960    -8.1370    -1.5330 H     1 <1>   0.0800 
 33 H        0.4570    -5.2180     1.0610 H     1 <1>   0.0800 
 34 H        0.1130    -6.8940     1.3500 H     1 <1>   0.0800 
 35 H       -1.6470    -6.8490    -0.4080 H     1 <1>   0.0800 
 36 H       -1.2660    -5.1650    -0.7360 H     1 <1>   0.0800 
 37 H       -0.3190    -9.4050     1.1700 H     1 <1>   0.2700 
 38 H       -0.3960    -8.6300    -2.9430 H     1 <1>   0.1500 
 39 H       -3.0210    -5.4540     0.7100 H     1 <1>   0.4000 
 40 H       -3.1420   -10.0400     1.1300 H     1 <1>   0.0800 
 41 H       -2.2620   -11.5290     0.8270 H     1 <1>   0.0800 
 42 H       -3.4860   -10.9880    -0.2960 H     1 <1>   0.0800 
@<TRIPOS>BOND
  1   1   2  1   
  2   2   3  1   
  3   2   4  1   
  4   2   5  1   
  5   5   6  ar  
  6   5   7  ar  
  7   6   8  ar  
  8   6  28  1   
  9   7   9  ar  
 10   7  29  1   
 11   8  10  1   
 12   8  11  ar  
 13   9  11  ar  
 14   9  12  1   
 15  10  13  2   
 16  10  14  am  
 17  11  30  1   
 18  12  15  1   
 19  12  16  1   
 20  12  17  1   
 21  14  18  1   
 22  14  19  1   
 23  18  20  1   
 24  18  31  1   
 25  18  32  1   
 26  19  21  1   
 27  19  33  1   
 28  19  34  1   
 29  20  22  1   
 30  20  23  2   
 31  21  24  1   
 32  21  35  1   
 33  21  36  1   
 34  22  25  1   
 35  22  37  1   
 36  23  26  1   
 37  23  38  1   
 38  24  39  1   
 39  25  26  2   
 40  25  27  1   
 41  27  40  1   
 42  27  41  1   
 43  27  42  1   
@<TRIPOS>SUBSTRUCTURE
  1 ****   8 GROUP 4 **** **** 0

# MOE 2024.06 (io_trps.svl 2023.06)
