@<TRIPOS>MOLECULE
NONAME
56 58 1 0 0 
SMALL
USER_CHARGES


@<TRIPOS>ATOM
  1 O       -0.0160     1.7140    -0.8180 O.2   1 <1>  -0.5700 
  2 C       -0.4320     2.8390    -0.9690 C.2   1 <1>   0.5690 
  3 N       -1.3360     3.4410    -0.1320 N.am  1 <1>  -0.6600 
  4 C        0.0750     3.6310    -2.1690 C.3   1 <1>   0.1810 
  5 C       -1.8060     4.8390    -0.4150 C.3   1 <1>   0.3640 
  6 C       -1.8760     2.8420     1.1180 C.3   1 <1>   0.2200 
  7 O        0.2500     4.9830    -1.8400 O.3   1 <1>  -0.5600 
  8 C       -3.2590     4.8110    -0.8950 C.ar  1 <1>  -0.1440 
  9 C       -0.9370     5.6490    -1.4230 C.3   1 <1>   0.2610 
 10 C       -0.7510     2.6560     2.1340 C.3   1 <1>  -0.2400 
 11 C       -2.6180     1.5340     0.8370 C.3   1 <1>  -0.2400 
 12 C       -3.7280     3.8360    -1.7680 C.ar  1 <1>  -0.1500 
 13 C       -4.1360     5.7960    -0.4610 C.ar  1 <1>  -0.1500 
 14 C       -0.5890     6.9940    -0.7790 C.2   1 <1>   0.5690 
 15 C       -5.0460     3.8430    -2.1910 C.ar  1 <1>  -0.1500 
 16 C       -5.4530     5.8050    -0.8830 C.ar  1 <1>  -0.1500 
 17 O       -1.4840     7.7540    -0.4910 O.2   1 <1>  -0.5700 
 18 N        0.7180     7.2560    -0.5100 N.am  1 <1>  -0.7300 
 19 C       -5.9100     4.8270    -1.7480 C.ar  1 <1>  -0.1500 
 20 C        1.3240     8.3120     0.3130 C.3   1 <1>   0.3000 
 21 C        2.8380     8.0370     0.3580 C.3   1 <1>  -0.1600 
 22 C        0.7530     8.2630     1.7430 C.3   1 <1>  -0.1600 
 23 C        1.0600     9.6660    -0.3480 C.3   1 <1>  -0.2400 
 24 C        3.1950     6.7280     1.0880 C.3   1 <1>  -0.1600 
 25 C        1.0830     6.9510     2.4760 C.3   1 <1>  -0.1600 
 26 C        2.5970     6.7000     2.5010 C.3   1 <1>  -0.1600 
 27 H       -0.6200     3.5560    -2.9850 H     1 <1>   0.0800 
 28 H        1.0270     3.2420    -2.4790 H     1 <1>   0.0800 
 29 H       -1.7880     5.3680     0.5230 H     1 <1>   0.0800 
 30 H       -2.5930     3.5250     1.5440 H     1 <1>   0.0800 
 31 H       -1.5140     5.8530    -2.3070 H     1 <1>   0.0800 
 32 H       -0.0380     1.9310     1.7850 H     1 <1>   0.0800 
 33 H       -1.1560     2.3070     3.0660 H     1 <1>   0.0800 
 34 H       -0.2500     3.5900     2.3090 H     1 <1>   0.0800 
 35 H       -1.9480     0.7720     0.4860 H     1 <1>   0.0800 
 36 H       -3.3890     1.6950     0.1060 H     1 <1>   0.0800 
 37 H       -3.0800     1.1800     1.7400 H     1 <1>   0.0800 
 38 H       -3.0750     3.0580    -2.1210 H     1 <1>   0.1500 
 39 H       -3.7980     6.5720     0.2070 H     1 <1>   0.1500 
 40 H       -5.3990     3.0800    -2.8630 H     1 <1>   0.1500 
 41 H       -6.1220     6.5750    -0.5400 H     1 <1>   0.1500 
 42 H        1.3810     6.5350    -0.8040 H     1 <1>   0.3700 
 43 H       -6.9350     4.8340    -2.0770 H     1 <1>   0.1500 
 44 H        3.2340     8.0170    -0.6420 H     1 <1>   0.0800 
 45 H        3.3190     8.8500     0.8730 H     1 <1>   0.0800 
 46 H        1.1700     9.0800     2.3060 H     1 <1>   0.0800 
 47 H       -0.3120     8.4120     1.7210 H     1 <1>   0.0800 
 48 H        1.5530    10.4490     0.1990 H     1 <1>   0.0800 
 49 H        0.0070     9.8810    -0.3590 H     1 <1>   0.0800 
 50 H        1.4280     9.6690    -1.3570 H     1 <1>   0.0800 
 51 H        2.8270     5.8830     0.5310 H     1 <1>   0.0800 
 52 H        4.2650     6.6330     1.1510 H     1 <1>   0.0800 
 53 H        0.7100     6.9990     3.4840 H     1 <1>   0.0800 
 54 H        0.5930     6.1290     1.9840 H     1 <1>   0.0800 
 55 H        3.0710     7.4570     3.1020 H     1 <1>   0.0800 
 56 H        2.7970     5.7460     2.9580 H     1 <1>   0.0800 
@<TRIPOS>BOND
  1   1   2  2   
  2   2   3  am  
  3   2   4  1   
  4   3   5  1   
  5   3   6  1   
  6   4   7  1   
  7   4  27  1   
  8   4  28  1   
  9   5   8  1   
 10   5   9  1   
 11   5  29  1   
 12   6  10  1   
 13   6  11  1   
 14   6  30  1   
 15   7   9  1   
 16   8  12  ar  
 17   8  13  ar  
 18   9  14  1   
 19   9  31  1   
 20  10  32  1   
 21  10  33  1   
 22  10  34  1   
 23  11  35  1   
 24  11  36  1   
 25  11  37  1   
 26  12  15  ar  
 27  12  38  1   
 28  13  16  ar  
 29  13  39  1   
 30  14  17  2   
 31  14  18  am  
 32  15  19  ar  
 33  15  40  1   
 34  16  19  ar  
 35  16  41  1   
 36  18  20  1   
 37  18  42  1   
 38  19  43  1   
 39  20  21  1   
 40  20  22  1   
 41  20  23  1   
 42  21  24  1   
 43  21  44  1   
 44  21  45  1   
 45  22  25  1   
 46  22  46  1   
 47  22  47  1   
 48  23  48  1   
 49  23  49  1   
 50  23  50  1   
 51  24  26  1   
 52  24  51  1   
 53  24  52  1   
 54  25  26  1   
 55  25  53  1   
 56  25  54  1   
 57  26  55  1   
 58  26  56  1   
@<TRIPOS>SUBSTRUCTURE
  1 ****   5 GROUP 4 **** **** 0

# MOE 2024.06 (io_trps.svl 2023.06)
