@<TRIPOS>MOLECULE
NONAME
47 49 1 0 0 
SMALL
USER_CHARGES


@<TRIPOS>ATOM
  1 S        0.0560    -0.9280    -0.0160 S.3   1 <1>  -0.4600 
  2 C       -1.3430     0.2390     0.0180 C.3   1 <1>   0.2510 
  3 C       -0.8780    -2.4860    -0.0790 C.3   1 <1>   0.2510 
  4 C       -2.5480    -0.6710     0.0030 C.2   1 <1>   0.1080 
  5 C       -2.3180    -2.0300    -0.0430 C.2   1 <1>  -0.1810 
  6 N       -3.8060    -0.3700     0.0300 N.2   1 <1>  -0.7070 
  7 C       -3.5420    -2.6070    -0.0500 C.2   1 <1>  -0.0880 
  8 N       -4.4370    -1.5710    -0.0070 N.pl3 1 <1>   0.3140 
  9 N       -3.8010    -4.0000    -0.0760 N.am  1 <1>  -0.4940 
 10 C       -5.9030    -1.6150     0.0870 C.3   1 <1>   0.0160 
 11 C       -4.8300    -4.7160    -0.6220 C.2   1 <1>   0.5690 
 12 O       -5.7810    -4.2230    -1.1740 O.2   1 <1>  -0.5700 
 13 C       -4.7760    -6.2240    -0.5180 C.3   1 <1>  -0.0990 
 14 C       -5.6570    -6.7310     0.6340 C.3   1 <1>  -0.0990 
 15 C       -5.5640    -8.2350     0.7600 C.2   1 <1>   0.5690 
 16 O       -4.6120    -8.6870     1.3440 O.2   1 <1>  -0.5700 
 17 N       -6.5580    -8.9830     0.1940 N.am  1 <1>  -0.5470 
 18 C       -6.7590   -10.3740     0.1260 C.ar  1 <1>   0.1170 
 19 C       -8.0500   -10.8820    -0.0670 C.ar  1 <1>  -0.1430 
 20 C       -5.6910   -11.2630     0.2240 C.ar  1 <1>  -0.1500 
 21 C       -8.2290   -12.2580    -0.1560 C.ar  1 <1>  -0.1500 
 22 C       -9.2350    -9.9110    -0.1720 C.3   1 <1>  -0.0170 
 23 C       -5.8850   -12.6270     0.1380 C.ar  1 <1>  -0.1500 
 24 C       -7.1570   -13.1260    -0.0540 C.ar  1 <1>  -0.1500 
 25 C      -10.6280   -10.5500    -0.2450 C.3   1 <1>  -0.2400 
 26 H       -1.2950     0.8580    -0.8590 H     1 <1>   0.0800 
 27 H       -1.2850     0.8190     0.9200 H     1 <1>   0.0800 
 28 H       -0.6080    -3.0710     0.7810 H     1 <1>   0.0800 
 29 H       -0.6300    -2.9870    -0.9980 H     1 <1>   0.0800 
 30 H       -3.0510    -4.5690     0.3140 H     1 <1>   0.3700 
 31 H       -6.2560    -0.6990     0.5200 H     1 <1>   0.0800 
 32 H       -6.1970    -2.4430     0.7020 H     1 <1>   0.0800 
 33 H       -6.3120    -1.7270    -0.9000 H     1 <1>   0.0800 
 34 H       -3.7610    -6.5450    -0.3690 H     1 <1>   0.0800 
 35 H       -5.1200    -6.6420    -1.4480 H     1 <1>   0.0800 
 36 H       -6.6780    -6.4360     0.4720 H     1 <1>   0.0800 
 37 H       -5.3300    -6.2930     1.5600 H     1 <1>   0.0800 
 38 H       -7.3140    -8.4460    -0.2210 H     1 <1>   0.3700 
 39 H       -4.6930   -10.8930     0.3660 H     1 <1>   0.1500 
 40 H       -9.2010   -12.6880    -0.3060 H     1 <1>   0.1500 
 41 H       -9.1020    -9.3010    -1.0490 H     1 <1>   0.0800 
 42 H       -9.2200    -9.2630     0.6870 H     1 <1>   0.0800 
 43 H       -5.0470   -13.2980     0.2200 H     1 <1>   0.1500 
 44 H       -7.3140   -14.1880    -0.1230 H     1 <1>   0.1500 
 45 H      -10.7220   -11.1500    -1.1330 H     1 <1>   0.0800 
 46 H      -11.3810    -9.7830    -0.2770 H     1 <1>   0.0800 
 47 H      -10.8050   -11.1630     0.6210 H     1 <1>   0.0800 
@<TRIPOS>BOND
  1   1   2  1   
  2   1   3  1   
  3   2   4  1   
  4   2  26  1   
  5   2  27  1   
  6   3   5  1   
  7   3  28  1   
  8   3  29  1   
  9   4   5  1   
 10   4   6  2   
 11   5   7  2   
 12   6   8  1   
 13   7   8  1   
 14   7   9  1   
 15   8  10  1   
 16   9  11  am  
 17   9  30  1   
 18  10  31  1   
 19  10  32  1   
 20  10  33  1   
 21  11  12  2   
 22  11  13  1   
 23  13  14  1   
 24  13  34  1   
 25  13  35  1   
 26  14  15  1   
 27  14  36  1   
 28  14  37  1   
 29  15  16  2   
 30  15  17  am  
 31  17  18  1   
 32  17  38  1   
 33  18  19  ar  
 34  18  20  ar  
 35  19  21  ar  
 36  19  22  1   
 37  20  23  ar  
 38  20  39  1   
 39  21  24  ar  
 40  21  40  1   
 41  22  25  1   
 42  22  41  1   
 43  22  42  1   
 44  23  24  ar  
 45  23  43  1   
 46  24  44  1   
 47  25  45  1   
 48  25  46  1   
 49  25  47  1   
@<TRIPOS>SUBSTRUCTURE
  1 ****  13 GROUP 4 **** **** 0

# MOE 2024.06 (io_trps.svl 2023.06)
