@<TRIPOS>MOLECULE
NONAME
54 56 1 0 0 
SMALL
USER_CHARGES


@<TRIPOS>ATOM
  1 O       -0.6110     0.0850    -0.4210 O.2   1 <1>  -0.5700 
  2 C       -1.4290     0.7390     0.1960 C.2   1 <1>   0.5440 
  3 N       -2.5770     0.1180     0.6370 N.am  1 <1>  -0.6600 
  4 C       -1.1900     2.1470     0.4280 C.ar  1 <1>   0.0860 
  5 C       -2.7180    -1.3720     0.6310 C.3   1 <1>   0.1400 
  6 C       -3.8950     0.8160     0.7520 C.3   1 <1>   0.1400 
  7 C       -1.4450     2.7210     1.6680 C.ar  1 <1>   0.1600 
  8 C       -0.7030     2.9860    -0.5630 C.ar  1 <1>  -0.1500 
  9 C       -3.7740    -1.8190    -0.3920 C.3   1 <1>   0.3440 
 10 C       -4.9000     0.2610    -0.2860 C.3   1 <1>   0.2000 
 11 N       -1.2990     3.9980     1.9740 N.ar  1 <1>  -0.6200 
 12 C       -0.5270     4.3240    -0.2720 C.ar  1 <1>  -0.1440 
 13 O       -4.9800    -1.1370    -0.1630 O.3   1 <1>  -0.5600 
 14 C       -4.0110    -3.3240    -0.2970 C.ar  1 <1>  -0.1430 
 15 C       -6.3330     0.8670    -0.1930 C.3   1 <1>   0.0000 
 16 C       -0.8470     4.7790     1.0060 C.ar  1 <1>   0.1670 
 17 C        0.0150     5.2460    -1.3570 C.3   1 <1>  -0.0970 
 18 C       -4.9660    -3.8560     0.5590 C.ar  1 <1>  -0.1500 
 19 C       -3.2450    -4.1850    -1.0700 C.ar  1 <1>  -0.1500 
 20 C       -6.2950     2.3970    -0.3650 C.3   1 <1>  -0.2400 
 21 C       -7.0140     0.5450     1.1510 C.3   1 <1>  -0.2400 
 22 C       -7.2060     0.2940    -1.3250 C.3   1 <1>  -0.2400 
 23 C       -0.6850     6.2390     1.3880 C.3   1 <1>  -0.0970 
 24 C       -5.1530    -5.2250     0.6410 C.ar  1 <1>  -0.1500 
 25 C       -3.4300    -5.5550    -0.9890 C.ar  1 <1>  -0.1500 
 26 C       -4.3840    -6.0760    -0.1330 C.ar  1 <1>  -0.1500 
 27 H       -1.7790    -1.8440     0.4010 H     1 <1>   0.0800 
 28 H       -3.0160    -1.7050     1.6100 H     1 <1>   0.0800 
 29 H       -4.2800     0.6710     1.7450 H     1 <1>   0.0800 
 30 H       -3.7720     1.8710     0.5910 H     1 <1>   0.0800 
 31 H       -1.7960     2.0760     2.4550 H     1 <1>   0.1500 
 32 H       -0.4700     2.5800    -1.5320 H     1 <1>   0.1500 
 33 H       -3.4390    -1.5750    -1.3860 H     1 <1>   0.0800 
 34 H       -4.5160     0.4740    -1.2700 H     1 <1>   0.0800 
 35 H        0.3480     4.6830    -2.2100 H     1 <1>   0.0800 
 36 H        0.8500     5.8100    -0.9830 H     1 <1>   0.0800 
 37 H       -0.7530     5.9270    -1.6790 H     1 <1>   0.0800 
 38 H       -5.5710    -3.2020     1.1630 H     1 <1>   0.1500 
 39 H       -2.4980    -3.7940    -1.7390 H     1 <1>   0.1500 
 40 H       -7.2950     2.7950    -0.4020 H     1 <1>   0.0800 
 41 H       -5.7950     2.6630    -1.2790 H     1 <1>   0.0800 
 42 H       -5.7880     2.8720     0.4560 H     1 <1>   0.0800 
 43 H       -8.0230     0.9190     1.1610 H     1 <1>   0.0800 
 44 H       -6.4880     0.9910     1.9740 H     1 <1>   0.0800 
 45 H       -7.0510    -0.5190     1.3070 H     1 <1>   0.0800 
 46 H       -8.1930     0.7210    -1.3020 H     1 <1>   0.0800 
 47 H       -7.3020    -0.7730    -1.2240 H     1 <1>   0.0800 
 48 H       -6.7680     0.5030    -2.2840 H     1 <1>   0.0800 
 49 H       -0.9970     6.8840     0.5890 H     1 <1>   0.0800 
 50 H        0.3440     6.4360     1.6260 H     1 <1>   0.0800 
 51 H       -1.2850     6.4650     2.2520 H     1 <1>   0.0800 
 52 H       -5.8970    -5.6270     1.3060 H     1 <1>   0.1500 
 53 H       -2.8320    -6.2150    -1.5930 H     1 <1>   0.1500 
 54 H       -4.5290    -7.1400    -0.0710 H     1 <1>   0.1500 
@<TRIPOS>BOND
  1   1   2  2   
  2   2   3  am  
  3   2   4  1   
  4   3   5  1   
  5   3   6  1   
  6   4   7  ar  
  7   4   8  ar  
  8   5   9  1   
  9   5  27  1   
 10   5  28  1   
 11   6  10  1   
 12   6  29  1   
 13   6  30  1   
 14   7  11  ar  
 15   7  31  1   
 16   8  12  ar  
 17   8  32  1   
 18   9  13  1   
 19   9  14  1   
 20   9  33  1   
 21  10  13  1   
 22  10  15  1   
 23  10  34  1   
 24  11  16  ar  
 25  12  16  ar  
 26  12  17  1   
 27  14  18  ar  
 28  14  19  ar  
 29  15  20  1   
 30  15  21  1   
 31  15  22  1   
 32  16  23  1   
 33  17  35  1   
 34  17  36  1   
 35  17  37  1   
 36  18  24  ar  
 37  18  38  1   
 38  19  25  ar  
 39  19  39  1   
 40  20  40  1   
 41  20  41  1   
 42  20  42  1   
 43  21  43  1   
 44  21  44  1   
 45  21  45  1   
 46  22  46  1   
 47  22  47  1   
 48  22  48  1   
 49  23  49  1   
 50  23  50  1   
 51  23  51  1   
 52  24  26  ar  
 53  24  52  1   
 54  25  26  ar  
 55  25  53  1   
 56  26  54  1   
@<TRIPOS>SUBSTRUCTURE
  1 ****   3 GROUP 4 **** **** 0

# MOE 2024.06 (io_trps.svl 2023.06)
