@<TRIPOS>MOLECULE
NONAME
38 40 1 0 0 
SMALL
USER_CHARGES


@<TRIPOS>ATOM
  1 S        0.5790    -3.8980    -3.0080 S.3   1 <1>  -0.0800 
  2 C        0.0100    -4.8300    -1.6370 C.2   1 <1>  -0.1100 
  3 C       -0.0330    -2.4120    -2.3070 C.2   1 <1>  -0.1100 
  4 C       -0.5970    -4.0340    -0.7350 C.2   1 <1>  -0.1810 
  5 C       -0.6180    -2.6510    -1.1200 C.2   1 <1>  -0.1500 
  6 C       -1.2250    -4.4930     0.5640 C.3   1 <1>   0.5240 
  7 N       -2.4290    -5.2910     0.2320 N.4   1 <1>  -0.9590 
  8 C       -3.4380    -4.5750    -0.6090 C.3   1 <1>   0.3430 
  9 C       -3.1600    -5.8890     1.3790 C.3   1 <1>   0.3430 
 10 C       -4.8080    -5.1590    -0.2250 C.3   1 <1>   0.2000 
 11 C       -4.5470    -6.2440     0.8300 C.3   1 <1>  -0.0800 
 12 O       -5.5900    -4.1610     0.3420 O.3   1 <1>  -0.6800 
 13 C       -4.6160    -7.6790     0.2520 C.3   1 <1>   0.0200 
 14 C       -3.3820    -8.0630    -0.5470 C.2   1 <1>  -0.0400 
 15 O       -3.0650    -7.3900    -1.6190 O.3   1 <1>  -0.0190 
 16 C       -2.4420    -9.0010    -0.3560 C.2   1 <1>  -0.1500 
 17 N       -1.9320    -7.7800    -2.1160 N.2   1 <1>  -0.4100 
 18 C       -1.5450    -8.7720    -1.3970 C.2   1 <1>   0.1080 
 19 C       -0.2840    -9.5690    -1.6520 C.3   1 <1>  -0.0590 
 20 H        0.1970    -5.8900    -1.6710 H     1 <1>   0.1500 
 21 H        0.1180    -1.5050    -2.8680 H     1 <1>   0.1500 
 22 H       -1.0630    -1.8900    -0.5000 H     1 <1>   0.1500 
 23 H       -1.4890    -3.6410     1.1690 H     1 <1>   0.0800 
 24 H       -0.5180    -5.1000     1.1070 H     1 <1>   0.0800 
 25 H       -2.1000    -6.0700    -0.3700 H     1 <1>   0.4500 
 26 H       -3.4250    -3.5150    -0.4160 H     1 <1>   0.0800 
 27 H       -3.2330    -4.7480    -1.6540 H     1 <1>   0.0800 
 28 H       -2.6510    -6.7570     1.7650 H     1 <1>   0.0800 
 29 H       -3.2630    -5.1570     2.1640 H     1 <1>   0.0800 
 30 H       -5.3320    -5.5280    -1.0910 H     1 <1>   0.0800 
 31 H       -5.2810    -6.1850     1.6170 H     1 <1>   0.0800 
 32 H       -5.2730    -3.8610     1.2160 H     1 <1>   0.4000 
 33 H       -5.4920    -7.7900    -0.3650 H     1 <1>   0.0800 
 34 H       -4.7140    -8.3770     1.0650 H     1 <1>   0.0800 
 35 H       -2.3540    -9.7570     0.4040 H     1 <1>   0.1500 
 36 H        0.3520    -9.5470    -0.7860 H     1 <1>   0.0800 
 37 H        0.2510    -9.1580    -2.4890 H     1 <1>   0.0800 
 38 H       -0.5390   -10.5890    -1.8750 H     1 <1>   0.0800 
@<TRIPOS>BOND
  1   1   2  1   
  2   1   3  1   
  3   2   4  2   
  4   2  20  1   
  5   3   5  2   
  6   3  21  1   
  7   4   5  1   
  8   4   6  1   
  9   5  22  1   
 10   6   7  1   
 11   6  23  1   
 12   6  24  1   
 13   7   8  1   
 14   7   9  1   
 15   7  25  1   
 16   8  10  1   
 17   8  26  1   
 18   8  27  1   
 19   9  11  1   
 20   9  28  1   
 21   9  29  1   
 22  10  11  1   
 23  10  12  1   
 24  10  30  1   
 25  11  13  1   
 26  11  31  1   
 27  12  32  1   
 28  13  14  1   
 29  13  33  1   
 30  13  34  1   
 31  14  15  1   
 32  14  16  2   
 33  15  17  1   
 34  16  18  1   
 35  16  35  1   
 36  17  18  2   
 37  18  19  1   
 38  19  36  1   
 39  19  37  1   
 40  19  38  1   
@<TRIPOS>SUBSTRUCTURE
  1 ****   7 GROUP 4 **** **** 0

# MOE 2024.06 (io_trps.svl 2023.06)
