@<TRIPOS>MOLECULE
NONAME
51 53 1 0 0 
SMALL
USER_CHARGES


@<TRIPOS>ATOM
  1 CL       0.8760    -0.8930    -3.9600 Cl    1 <1>  -0.1770 
  2 C        1.7140    -1.4940    -2.5440 C.ar  1 <1>   0.1770 
  3 C        2.2280    -0.6120    -1.6010 C.ar  1 <1>   0.0820 
  4 C        1.8420    -2.8610    -2.3960 C.ar  1 <1>  -0.1500 
  5 O        2.0620     0.7220    -1.8130 O.3   1 <1>  -0.3630 
  6 C        2.8820    -1.1330    -0.4880 C.ar  1 <1>  -0.1500 
  7 C        2.4920    -3.3800    -1.2870 C.ar  1 <1>  -0.1430 
  8 C        2.5660     1.6910    -0.9210 C.3   1 <1>   0.0400 
  9 C        3.0140    -2.5120    -0.3280 C.ar  1 <1>   0.0830 
 10 C        2.6090    -4.8910    -1.1450 C.3   1 <1>   0.2540 
 11 O        3.6380    -3.0670     0.7460 O.3   1 <1>  -0.3630 
 12 N        1.2970    -5.4410    -0.7740 N.3   1 <1>  -0.6890 
 13 C        4.3710    -2.2870     1.6660 C.3   1 <1>   0.0400 
 14 C        0.9250    -5.0780     0.6230 C.3   1 <1>   0.2100 
 15 C        1.3670    -6.8480    -0.3000 C.3   1 <1>   0.2100 
 16 C        0.2010    -6.4590     0.6700 C.3   1 <1>   0.4720 
 17 N       -1.1920    -6.4170     0.0720 N.4   1 <1>  -0.9280 
 18 C       -2.2770    -6.1330     1.0620 C.3   1 <1>   0.4230 
 19 C       -1.4850    -7.6520    -0.7160 C.3   1 <1>   0.3430 
 20 C       -3.6150    -5.9670     0.3260 C.3   1 <1>  -0.1600 
 21 C       -2.0040    -4.8750     1.8860 C.3   1 <1>  -0.2400 
 22 C       -2.8030    -7.5040    -1.4760 C.3   1 <1>  -0.1600 
 23 C       -3.9630    -7.1880    -0.5310 C.3   1 <1>  -0.1600 
 24 H        1.4290    -3.5100    -3.1460 H     1 <1>   0.1500 
 25 H        3.2810    -0.4690     0.2500 H     1 <1>   0.1500 
 26 H        2.3140     2.6620    -1.3090 H     1 <1>   0.0800 
 27 H        3.6350     1.5890    -0.8610 H     1 <1>   0.0800 
 28 H        2.1060     1.5530     0.0420 H     1 <1>   0.0800 
 29 H        3.3570    -5.1530    -0.4160 H     1 <1>   0.0800 
 30 H        2.9130    -5.3110    -2.0880 H     1 <1>   0.0800 
 31 H        4.8410    -2.9500     2.3700 H     1 <1>   0.0800 
 32 H        3.6970    -1.6270     2.1840 H     1 <1>   0.0800 
 33 H        5.1230    -1.7310     1.1330 H     1 <1>   0.0800 
 34 H        0.2920    -4.2110     0.6550 H     1 <1>   0.0000 
 35 H        1.7770    -5.0220     1.2810 H     1 <1>   0.0000 
 36 H        2.2900    -7.0650     0.2130 H     1 <1>   0.0000 
 37 H        1.1360    -7.5560    -1.0730 H     1 <1>   0.0000 
 38 H        0.2320    -6.9590     1.6210 H     1 <1>   0.0000 
 39 H       -1.1470    -5.6360    -0.5980 H     1 <1>   0.4500 
 40 H       -2.3620    -6.9710     1.7350 H     1 <1>   0.0800 
 41 H       -1.5450    -8.5010    -0.0540 H     1 <1>   0.0800 
 42 H       -0.7040    -7.8350    -1.4340 H     1 <1>   0.0800 
 43 H       -3.5800    -5.0880    -0.2940 H     1 <1>   0.0800 
 44 H       -4.4010    -5.8180     1.0470 H     1 <1>   0.0800 
 45 H       -1.8780    -4.0150     1.2530 H     1 <1>   0.0800 
 46 H       -1.1450    -4.9970     2.5210 H     1 <1>   0.0800 
 47 H       -2.8410    -4.6830     2.5340 H     1 <1>   0.0800 
 48 H       -3.0110    -8.4210    -2.0010 H     1 <1>   0.0800 
 49 H       -2.7040    -6.7270    -2.2140 H     1 <1>   0.0800 
 50 H       -4.8580    -6.9940    -1.0990 H     1 <1>   0.0800 
 51 H       -4.1540    -8.0350     0.1060 H     1 <1>   0.0800 
@<TRIPOS>BOND
  1   1   2  1   
  2   2   3  ar  
  3   2   4  ar  
  4   3   5  1   
  5   3   6  ar  
  6   4   7  ar  
  7   4  24  1   
  8   5   8  1   
  9   6   9  ar  
 10   6  25  1   
 11   7   9  ar  
 12   7  10  1   
 13   8  26  1   
 14   8  27  1   
 15   8  28  1   
 16   9  11  1   
 17  10  12  1   
 18  10  29  1   
 19  10  30  1   
 20  11  13  1   
 21  12  14  1   
 22  12  15  1   
 23  13  31  1   
 24  13  32  1   
 25  13  33  1   
 26  14  16  1   
 27  14  34  1   
 28  14  35  1   
 29  15  16  1   
 30  15  36  1   
 31  15  37  1   
 32  16  17  1   
 33  16  38  1   
 34  17  18  1   
 35  17  19  1   
 36  17  39  1   
 37  18  20  1   
 38  18  21  1   
 39  18  40  1   
 40  19  22  1   
 41  19  41  1   
 42  19  42  1   
 43  20  23  1   
 44  20  43  1   
 45  20  44  1   
 46  21  45  1   
 47  21  46  1   
 48  21  47  1   
 49  22  23  1   
 50  22  48  1   
 51  22  49  1   
 52  23  50  1   
 53  23  51  1   
@<TRIPOS>SUBSTRUCTURE
  1 ****  12 GROUP 4 **** **** 0

# MOE 2024.06 (io_trps.svl 2023.06)
