@<TRIPOS>MOLECULE
NONAME
56 59 1 0 0 
SMALL
USER_CHARGES


@<TRIPOS>ATOM
  1 S       -1.2440     0.0310    -0.9010 S.3   1 <1>  -0.3320 
  2 C       -0.9190     1.7100    -0.3320 C.ar  1 <1>   0.1010 
  3 C       -1.9430    -0.8970     0.5330 C.3   1 <1>   0.1500 
  4 C       -0.9350     2.7110    -1.2860 C.ar  1 <1>  -0.1500 
  5 C       -0.6610     1.9970     0.9980 C.ar  1 <1>  -0.1500 
  6 C       -2.0600    -2.3650     0.1180 C.3   1 <1>  -0.1600 
  7 C       -3.3090    -0.2880     0.8710 C.3   1 <1>  -0.1600 
  8 C       -0.7090     4.0260    -0.9100 C.ar  1 <1>  -0.1440 
  9 C       -0.4340     3.3100     1.3730 C.ar  1 <1>  -0.1500 
 10 C       -2.8280    -3.1740     1.1640 C.3   1 <1>   0.2090 
 11 C       -4.0380    -1.1440     1.9060 C.3   1 <1>   0.2090 
 12 C       -0.4610     4.3180     0.4220 C.ar  1 <1>  -0.1500 
 13 C       -0.7270     5.1350    -1.9460 C.3   1 <1>  -0.0960 
 14 N       -4.1720    -2.5370     1.3780 N.pl3 1 <1>  -0.8380 
 15 C       -5.3270    -3.2040     1.0990 C.ar  1 <1>   0.7710 
 16 N       -5.2860    -4.4980     0.8170 N.ar  1 <1>  -0.6200 
 17 N       -6.4900    -2.5270     1.1060 N.ar  1 <1>  -0.1790 
 18 C       -6.4120    -5.1380     0.5670 C.ar  1 <1>   0.4100 
 19 C       -7.6700    -3.1340     0.8330 C.ar  1 <1>   0.2110 
 20 N       -6.3410    -6.4720     0.3160 N.pl3 1 <1>  -0.8380 
 21 C       -7.6450    -4.4580     0.5560 C.ar  1 <1>  -0.1500 
 22 C       -7.4200    -7.4620     0.6440 C.3   1 <1>   0.2090 
 23 C       -5.1110    -7.1210    -0.2370 C.3   1 <1>   0.2090 
 24 C       -7.8080    -8.2640    -0.6100 C.3   1 <1>   0.2000 
 25 C       -5.4740    -7.9150    -1.5000 C.3   1 <1>  -0.1600 
 26 O       -8.7270    -9.2420    -0.2730 O.3   1 <1>  -0.6800 
 27 C       -6.5900    -8.9430    -1.2460 C.3   1 <1>  -0.1600 
 28 H       -1.2540    -0.8010     1.3530 H     1 <1>   0.0800 
 29 H       -1.1250     2.4560    -2.3130 H     1 <1>   0.1500 
 30 H       -0.6210     1.2250     1.7390 H     1 <1>   0.1500 
 31 H       -1.0760    -2.7810    -0.0060 H     1 <1>   0.0800 
 32 H       -2.5720    -2.4410    -0.8250 H     1 <1>   0.0800 
 33 H       -3.9040    -0.2200    -0.0220 H     1 <1>   0.0800 
 34 H       -3.1770     0.7060     1.2590 H     1 <1>   0.0800 
 35 H       -0.2310     3.5520     2.4020 H     1 <1>   0.1500 
 36 H       -2.2840    -3.1840     2.0940 H     1 <1>   0.0800 
 37 H       -2.9070    -4.1940     0.8260 H     1 <1>   0.0800 
 38 H       -4.9900    -0.7030     2.1380 H     1 <1>   0.0800 
 39 H       -3.4630    -1.1680     2.8190 H     1 <1>   0.0800 
 40 H       -0.2820     5.3350     0.7250 H     1 <1>   0.1500 
 41 H       -1.3080     4.8440    -2.8020 H     1 <1>   0.0800 
 42 H        0.2770     5.3500    -2.2650 H     1 <1>   0.0800 
 43 H       -1.1590     6.0280    -1.5300 H     1 <1>   0.0800 
 44 H       -6.4170    -1.5360     1.2920 H     1 <1>   0.4570 
 45 H       -8.5790    -2.5540     0.8370 H     1 <1>   0.1500 
 46 H       -8.5430    -4.9940     0.3120 H     1 <1>   0.1500 
 47 H       -8.2900    -6.9760     1.0440 H     1 <1>   0.0800 
 48 H       -7.0430    -8.1370     1.3920 H     1 <1>   0.0800 
 49 H       -4.6930    -7.7780     0.5060 H     1 <1>   0.0800 
 50 H       -4.3660    -6.3860    -0.4890 H     1 <1>   0.0800 
 51 H       -8.2820    -7.6060    -1.3180 H     1 <1>   0.0800 
 52 H       -4.5960    -8.4200    -1.8620 H     1 <1>   0.0800 
 53 H       -5.7860    -7.2220    -2.2610 H     1 <1>   0.0800 
 54 H       -8.2860    -9.9840     0.1830 H     1 <1>   0.4000 
 55 H       -6.8770    -9.3990    -2.1780 H     1 <1>   0.0800 
 56 H       -6.2130    -9.7060    -0.5880 H     1 <1>   0.0800 
@<TRIPOS>BOND
  1   1   2  1   
  2   1   3  1   
  3   2   4  ar  
  4   2   5  ar  
  5   3   6  1   
  6   3   7  1   
  7   3  28  1   
  8   4   8  ar  
  9   4  29  1   
 10   5   9  ar  
 11   5  30  1   
 12   6  10  1   
 13   6  31  1   
 14   6  32  1   
 15   7  11  1   
 16   7  33  1   
 17   7  34  1   
 18   8  12  ar  
 19   8  13  1   
 20   9  12  ar  
 21   9  35  1   
 22  10  14  1   
 23  10  36  1   
 24  10  37  1   
 25  11  14  1   
 26  11  38  1   
 27  11  39  1   
 28  12  40  1   
 29  13  41  1   
 30  13  42  1   
 31  13  43  1   
 32  14  15  1   
 33  15  16  ar  
 34  15  17  ar  
 35  16  18  ar  
 36  17  19  ar  
 37  17  44  1   
 38  18  20  1   
 39  18  21  ar  
 40  19  21  ar  
 41  19  45  1   
 42  20  22  1   
 43  20  23  1   
 44  21  46  1   
 45  22  24  1   
 46  22  47  1   
 47  22  48  1   
 48  23  25  1   
 49  23  49  1   
 50  23  50  1   
 51  24  26  1   
 52  24  27  1   
 53  24  51  1   
 54  25  27  1   
 55  25  52  1   
 56  25  53  1   
 57  26  54  1   
 58  27  55  1   
 59  27  56  1   
@<TRIPOS>SUBSTRUCTURE
  1 ****  14 GROUP 4 **** **** 0

# MOE 2024.06 (io_trps.svl 2023.06)
