@<TRIPOS>MOLECULE
NONAME
50 52 1 0 0 
SMALL
USER_CHARGES


@<TRIPOS>ATOM
  1 F       -1.2400     0.4890     0.3650 F     1 <1>  -0.3400 
  2 C       -1.5930     1.2610    -0.6480 C.3   1 <1>   1.1640 
  3 F       -0.4790     1.8660    -1.0600 F     1 <1>  -0.3400 
  4 F       -1.9450     0.4540    -1.6370 F     1 <1>  -0.3400 
  5 C       -2.6720     2.2940    -0.2480 C.ar  1 <1>  -0.1440 
  6 C       -2.4330     3.4730     0.4900 C.ar  1 <1>  -0.1440 
  7 C       -3.9800     2.0180    -0.6480 C.ar  1 <1>  -0.1500 
  8 C       -3.5050     4.3120     0.7800 C.ar  1 <1>  -0.1500 
  9 C       -1.0960     3.9840     1.0370 C.3   1 <1>   0.5660 
 10 C       -5.0250     2.8680    -0.3510 C.ar  1 <1>  -0.1500 
 11 C       -4.7880     4.0190     0.3650 C.ar  1 <1>  -0.1500 
 12 N       -0.2700     4.4400    -0.0980 N.4   1 <1>  -0.9060 
 13 C       -0.3330     3.0050     1.9240 C.3   1 <1>  -0.2400 
 14 C        0.9620     5.1950     0.2250 C.3   1 <1>   0.4230 
 15 C        0.6190     6.5850     0.7690 C.3   1 <1>  -0.1600 
 16 C        1.8070     5.3120    -1.0470 C.3   1 <1>  -0.1600 
 17 C        1.8820     7.4220     0.9870 C.3   1 <1>   0.3430 
 18 C        3.0610     6.1570    -0.8100 C.3   1 <1>   0.3430 
 19 N        2.6720     7.4900    -0.2770 N.4   1 <1>  -0.9590 
 20 C        3.8630     8.3840    -0.1060 C.3   1 <1>   0.5230 
 21 C        3.4250     9.8210    -0.3210 C.2   1 <1>  -0.0400 
 22 O        2.4690    10.3250     0.4370 O.3   1 <1>  -0.2800 
 23 C        3.8570    10.7430    -1.2100 C.2   1 <1>  -0.1500 
 24 C        2.2750    11.5730     0.0580 C.2   1 <1>  -0.0100 
 25 C        3.1010    11.8940    -0.9590 C.2   1 <1>  -0.1500 
 26 H       -4.2170     1.1240    -1.2050 H     1 <1>   0.1500 
 27 H       -3.3710     5.2190     1.3470 H     1 <1>   0.1500 
 28 H       -1.3280     4.8390     1.6530 H     1 <1>   0.0800 
 29 H       -6.0260     2.6310    -0.6750 H     1 <1>   0.1500 
 30 H       -5.6050     4.6810     0.6010 H     1 <1>   0.1500 
 31 H       -0.8900     4.9790    -0.7150 H     1 <1>   0.4500 
 32 H       -0.0260     3.5930    -0.6300 H     1 <1>   0.4500 
 33 H        0.2170     2.2730     1.3650 H     1 <1>   0.0800 
 34 H       -1.0270     2.4910     2.5670 H     1 <1>   0.0800 
 35 H        0.3520     3.5350     2.5600 H     1 <1>   0.0800 
 36 H        1.5320     4.6540     0.9660 H     1 <1>   0.0800 
 37 H        0.1160     6.5000     1.7160 H     1 <1>   0.0800 
 38 H       -0.0290     7.1130     0.0900 H     1 <1>   0.0800 
 39 H        1.2370     5.7570    -1.8440 H     1 <1>   0.0800 
 40 H        2.1190     4.3320    -1.3650 H     1 <1>   0.0800 
 41 H        2.4830     6.9830     1.7690 H     1 <1>   0.0800 
 42 H        1.6010     8.4140     1.3060 H     1 <1>   0.0800 
 43 H        3.5970     6.2730    -1.7400 H     1 <1>   0.0800 
 44 H        3.7120     5.6580    -0.1090 H     1 <1>   0.0800 
 45 H        2.1030     7.9950    -0.9760 H     1 <1>   0.4500 
 46 H        4.6200     8.1450    -0.8360 H     1 <1>   0.0800 
 47 H        4.2880     8.2720     0.8780 H     1 <1>   0.0800 
 48 H        4.6190    10.6700    -1.9680 H     1 <1>   0.1500 
 49 H        1.5330    12.1690     0.5640 H     1 <1>   0.1500 
 50 H        3.1880    12.8300    -1.4850 H     1 <1>   0.1500 
@<TRIPOS>BOND
  1   1   2  1   
  2   2   3  1   
  3   2   4  1   
  4   2   5  1   
  5   5   6  ar  
  6   5   7  ar  
  7   6   8  ar  
  8   6   9  1   
  9   7  10  ar  
 10   7  26  1   
 11   8  11  ar  
 12   8  27  1   
 13   9  12  1   
 14   9  13  1   
 15   9  28  1   
 16  10  11  ar  
 17  10  29  1   
 18  11  30  1   
 19  12  14  1   
 20  12  31  1   
 21  12  32  1   
 22  13  33  1   
 23  13  34  1   
 24  13  35  1   
 25  14  15  1   
 26  14  16  1   
 27  14  36  1   
 28  15  17  1   
 29  15  37  1   
 30  15  38  1   
 31  16  18  1   
 32  16  39  1   
 33  16  40  1   
 34  17  19  1   
 35  17  41  1   
 36  17  42  1   
 37  18  19  1   
 38  18  43  1   
 39  18  44  1   
 40  19  20  1   
 41  19  45  1   
 42  20  21  1   
 43  20  46  1   
 44  20  47  1   
 45  21  22  1   
 46  21  23  2   
 47  22  24  1   
 48  23  25  1   
 49  23  48  1   
 50  24  25  2   
 51  24  49  1   
 52  25  50  1   
@<TRIPOS>SUBSTRUCTURE
  1 ****  14 GROUP 4 **** **** 0

# MOE 2024.06 (io_trps.svl 2023.06)
