@<TRIPOS>MOLECULE
NONAME
50 53 1 0 0 
SMALL
USER_CHARGES


@<TRIPOS>ATOM
  1 O       -1.2090    -1.1440    -2.5190 O.2   1 <1>  -0.5700 
  2 C       -1.6950    -1.3420    -1.4400 C.2   1 <1>   0.5690 
  3 N       -1.8080    -0.3400    -0.5510 N.am  1 <1>  -0.7300 
  4 C       -2.2190    -2.7100    -1.0970 C.3   1 <1>  -0.0190 
  5 C       -2.4000    -0.4460     0.8020 C.3   1 <1>   0.2200 
  6 C       -1.4830    -3.3130     0.1200 C.3   1 <1>   0.1200 
  7 C       -3.7500    -2.6390    -1.0150 C.3   1 <1>   0.3430 
  8 C       -1.6150    -1.4740     1.6550 C.3   1 <1>   0.1200 
  9 C       -3.9230    -0.7480     0.7050 C.3   1 <1>   0.3430 
 10 O       -1.9380    -2.8080     1.3490 O.3   1 <1>  -0.5600 
 11 N       -4.2690    -2.1620     0.3130 N.4   1 <1>  -0.9590 
 12 C       -5.7040    -2.4860     0.5200 C.3   1 <1>   0.4860 
 13 C       -5.8630    -3.9940     0.4700 C.ar  1 <1>  -0.1440 
 14 C       -6.5970    -4.5870    -0.5480 C.ar  1 <1>  -0.1500 
 15 C       -5.2630    -4.7940     1.4340 C.ar  1 <1>  -0.1500 
 16 C       -6.7230    -5.9640    -0.6100 C.ar  1 <1>  -0.1500 
 17 C       -5.3880    -6.1690     1.3690 C.ar  1 <1>  -0.1500 
 18 C       -6.1130    -6.7640     0.3510 C.ar  1 <1>   0.0820 
 19 O       -6.1800    -8.1160     0.3660 O.3   1 <1>  -0.3620 
 20 C       -6.9800    -8.8290    -0.5640 C.3   1 <1>   0.2640 
 21 C       -6.9320   -10.3370    -0.3320 C.ar  1 <1>   0.1670 
 22 N       -7.5840   -11.0610    -1.2330 N.ar  1 <1>  -0.6200 
 23 C       -6.2520   -10.8890     0.7480 C.ar  1 <1>  -0.1500 
 24 C       -7.5580   -12.3720    -1.0530 C.ar  1 <1>   0.1600 
 25 C       -6.2330   -12.2560     0.9220 C.ar  1 <1>  -0.1500 
 26 C       -6.9090   -13.0110    -0.0110 C.ar  1 <1>  -0.1500 
 27 H       -1.3820     0.5530    -0.8260 H     1 <1>   0.3700 
 28 H       -1.9810    -3.3330    -1.9410 H     1 <1>   0.0800 
 29 H       -2.2860     0.5180     1.2680 H     1 <1>   0.0800 
 30 H       -0.4200    -3.1470     0.0490 H     1 <1>   0.0800 
 31 H       -1.6480    -4.3770     0.1440 H     1 <1>   0.0800 
 32 H       -4.1250    -3.6330    -1.1960 H     1 <1>   0.0800 
 33 H       -4.1200    -2.0040    -1.8050 H     1 <1>   0.0800 
 34 H       -1.8600    -1.3310     2.6940 H     1 <1>   0.0800 
 35 H       -0.5520    -1.3350     1.5460 H     1 <1>   0.0800 
 36 H       -4.3690    -0.0570     0.0090 H     1 <1>   0.0800 
 37 H       -4.3510    -0.5520     1.6740 H     1 <1>   0.0800 
 38 H       -3.7360    -2.7490     0.9860 H     1 <1>   0.4500 
 39 H       -6.0320    -2.1300     1.4820 H     1 <1>   0.0800 
 40 H       -6.3060    -2.0220    -0.2440 H     1 <1>   0.0800 
 41 H       -7.0800    -3.9890    -1.3020 H     1 <1>   0.1500 
 42 H       -4.6960    -4.3660     2.2430 H     1 <1>   0.1500 
 43 H       -7.2970    -6.3940    -1.4110 H     1 <1>   0.1500 
 44 H       -4.9240    -6.7950     2.1120 H     1 <1>   0.1500 
 45 H       -7.9940    -8.4880    -0.4680 H     1 <1>   0.0800 
 46 H       -6.6160    -8.6150    -1.5530 H     1 <1>   0.0800 
 47 H       -5.7380   -10.2610     1.4530 H     1 <1>   0.1500 
 48 H       -8.0830   -12.9720    -1.7770 H     1 <1>   0.1500 
 49 H       -5.7150   -12.7100     1.7490 H     1 <1>   0.1500 
 50 H       -6.9340   -14.0820     0.0660 H     1 <1>   0.1500 
@<TRIPOS>BOND
  1   1   2  2   
  2   2   3  am  
  3   2   4  1   
  4   3   5  1   
  5   3  27  1   
  6   4   6  1   
  7   4   7  1   
  8   4  28  1   
  9   5   8  1   
 10   5   9  1   
 11   5  29  1   
 12   6  10  1   
 13   6  30  1   
 14   6  31  1   
 15   7  11  1   
 16   7  32  1   
 17   7  33  1   
 18   8  10  1   
 19   8  34  1   
 20   8  35  1   
 21   9  11  1   
 22   9  36  1   
 23   9  37  1   
 24  11  12  1   
 25  11  38  1   
 26  12  13  1   
 27  12  39  1   
 28  12  40  1   
 29  13  14  ar  
 30  13  15  ar  
 31  14  16  ar  
 32  14  41  1   
 33  15  17  ar  
 34  15  42  1   
 35  16  18  ar  
 36  16  43  1   
 37  17  18  ar  
 38  17  44  1   
 39  18  19  1   
 40  19  20  1   
 41  20  21  1   
 42  20  45  1   
 43  20  46  1   
 44  21  22  ar  
 45  21  23  ar  
 46  22  24  ar  
 47  23  25  ar  
 48  23  47  1   
 49  24  26  ar  
 50  24  48  1   
 51  25  26  ar  
 52  25  49  1   
 53  26  50  1   
@<TRIPOS>SUBSTRUCTURE
  1 ****  15 GROUP 4 **** **** 0

# MOE 2024.06 (io_trps.svl 2023.06)
