@<TRIPOS>MOLECULE
NONAME
48 51 1 0 0 
SMALL
USER_CHARGES


@<TRIPOS>ATOM
  1 O       -2.0440    -0.0940    -1.5320 O.2   1 <1>  -0.5700 
  2 C       -2.2890     0.8230    -0.7670 C.2   1 <1>   0.6160 
  3 N       -1.9590     2.0910    -1.1270 N.am  1 <1>  -0.5470 
  4 C       -2.9640     0.6230     0.4780 C.2   1 <1>  -0.1240 
  5 C       -2.2790     3.2040    -0.3570 C.ar  1 <1>   0.1170 
  6 C       -3.2850     1.6830     1.2640 C.2   1 <1>  -0.1780 
  7 C       -3.2790    -0.8090     0.8690 C.3   1 <1>   0.4810 
  8 C       -2.9570     3.0180     0.8600 C.ar  1 <1>   0.0280 
  9 C       -1.9440     4.4900    -0.7740 C.ar  1 <1>  -0.1500 
 10 N       -3.9880    -1.5560    -0.2170 N.4   1 <1>  -0.9590 
 11 C       -3.2800     4.1390     1.6260 C.ar  1 <1>  -0.1500 
 12 C       -2.2730     5.5830    -0.0020 C.ar  1 <1>  -0.1500 
 13 C       -5.4530    -1.2810    -0.3190 C.3   1 <1>   0.4230 
 14 C       -3.6800    -3.0150    -0.0950 C.3   1 <1>   0.2630 
 15 C       -2.9430     5.4060     1.2010 C.ar  1 <1>  -0.1500 
 16 C       -6.1080    -2.0930    -1.4380 C.3   1 <1>  -0.1600 
 17 C       -5.7730     0.1630    -0.7000 C.3   1 <1>  -0.1600 
 18 C       -7.3830    -1.3260    -1.8030 C.3   1 <1>  -0.0800 
 19 C       -7.1690     0.1190    -1.3310 C.3   1 <1>  -0.0800 
 20 C       -8.6420    -1.8350    -1.0840 C.3   1 <1>  -0.1600 
 21 C       -8.3050     0.4280    -0.3440 C.3   1 <1>  -0.1600 
 22 C       -9.3950    -0.5720    -0.6970 C.3   1 <1>   0.2000 
 23 O      -10.2010    -0.8090     0.3930 O.3   1 <1>  -0.6800 
 24 H       -1.4610     2.1980    -2.0110 H     1 <1>   0.3700 
 25 H       -3.7870     1.5750     2.2100 H     1 <1>   0.1500 
 26 H       -3.8670    -0.8230     1.7710 H     1 <1>   0.0800 
 27 H       -2.3410    -1.2990     1.0770 H     1 <1>   0.0800 
 28 H       -1.4240     4.6290    -1.7050 H     1 <1>   0.1500 
 29 H       -3.5380    -1.2230    -1.0940 H     1 <1>   0.4500 
 30 H       -3.7980     4.0140     2.5610 H     1 <1>   0.1500 
 31 H       -2.0130     6.5770    -0.3260 H     1 <1>   0.1500 
 32 H       -5.9460    -1.5150     0.6110 H     1 <1>   0.0800 
 33 H       -4.1230    -3.4210     0.8000 H     1 <1>   0.0800 
 34 H       -2.6130    -3.1690    -0.0570 H     1 <1>   0.0800 
 35 H       -4.0650    -3.5530    -0.9460 H     1 <1>   0.0800 
 36 H       -3.1970     6.2660     1.7990 H     1 <1>   0.1500 
 37 H       -5.4650    -2.1050    -2.3010 H     1 <1>   0.0800 
 38 H       -6.3260    -3.1030    -1.1400 H     1 <1>   0.0800 
 39 H       -5.7480     0.8280     0.1440 H     1 <1>   0.0800 
 40 H       -5.0820     0.5060    -1.4510 H     1 <1>   0.0800 
 41 H       -7.5480    -1.3460    -2.8690 H     1 <1>   0.0800 
 42 H       -7.2290     0.7950    -2.1690 H     1 <1>   0.0800 
 43 H       -8.3770    -2.3860    -0.1990 H     1 <1>   0.0800 
 44 H       -9.2380    -2.4560    -1.7290 H     1 <1>   0.0800 
 45 H       -8.6590     1.4380    -0.4570 H     1 <1>   0.0800 
 46 H       -7.9820     0.2710     0.6690 H     1 <1>   0.0800 
 47 H      -10.0030    -0.2150    -1.5130 H     1 <1>   0.0800 
 48 H       -9.6790    -1.1320     1.1490 H     1 <1>   0.4000 
@<TRIPOS>BOND
  1   1   2  2   
  2   2   3  am  
  3   2   4  1   
  4   3   5  1   
  5   3  24  1   
  6   4   6  2   
  7   4   7  1   
  8   5   8  ar  
  9   5   9  ar  
 10   6   8  1   
 11   6  25  1   
 12   7  10  1   
 13   7  26  1   
 14   7  27  1   
 15   8  11  ar  
 16   9  12  ar  
 17   9  28  1   
 18  10  13  1   
 19  10  14  1   
 20  10  29  1   
 21  11  15  ar  
 22  11  30  1   
 23  12  15  ar  
 24  12  31  1   
 25  13  16  1   
 26  13  17  1   
 27  13  32  1   
 28  14  33  1   
 29  14  34  1   
 30  14  35  1   
 31  15  36  1   
 32  16  18  1   
 33  16  37  1   
 34  16  38  1   
 35  17  19  1   
 36  17  39  1   
 37  17  40  1   
 38  18  19  1   
 39  18  20  1   
 40  18  41  1   
 41  19  21  1   
 42  19  42  1   
 43  20  22  1   
 44  20  43  1   
 45  20  44  1   
 46  21  22  1   
 47  21  45  1   
 48  21  46  1   
 49  22  23  1   
 50  22  47  1   
 51  23  48  1   
@<TRIPOS>SUBSTRUCTURE
  1 ****  17 GROUP 4 **** **** 0

# MOE 2024.06 (io_trps.svl 2023.06)
