@<TRIPOS>MOLECULE
NONAME
48 51 1 0 0 
SMALL
USER_CHARGES


@<TRIPOS>ATOM
  1 O        0.2230    -0.1800    -0.7750 O.2   1 <1>  -0.5700 
  2 C        1.3090    -0.5860    -0.4190 C.2   1 <1>   0.5440 
  3 N        2.3340     0.2980    -0.1760 N.am  1 <1>  -0.4940 
  4 C        1.5290    -2.0050    -0.2800 C.ar  1 <1>   0.0860 
  5 C        2.3760     1.7090    -0.1210 C.2   1 <1>  -0.0880 
  6 C        0.8010    -2.9280    -1.0060 C.ar  1 <1>   0.1600 
  7 C        2.4670    -2.5470     0.5810 C.ar  1 <1>   0.1600 
  8 N        1.3940     2.5860     0.2290 N.pl3 1 <1>   0.3140 
  9 C        3.4870     2.4520    -0.3840 C.2   1 <1>  -0.0540 
 10 N        0.9850    -4.2280    -0.9140 N.ar  1 <1>  -0.6200 
 11 N        2.6800    -3.8390     0.6970 N.ar  1 <1>  -0.6200 
 12 N        1.8410     3.8600     0.2020 N.2   1 <1>  -0.7070 
 13 C        0.0230     2.3170     0.6820 C.3   1 <1>   0.0160 
 14 C        4.7830     1.9840    -0.8110 C.ar  1 <1>   0.0540 
 15 C        3.0780     3.7700    -0.1600 C.2   1 <1>   0.1080 
 16 C        1.9200    -4.6160    -0.0600 C.ar  1 <1>   0.5880 
 17 C        5.9200     2.0680     0.0030 C.ar  1 <1>   0.0830 
 18 C        4.9150     1.4200    -2.0760 C.ar  1 <1>  -0.1500 
 19 C        3.9630     4.9860    -0.3120 C.3   1 <1>  -0.0590 
 20 C        2.1520    -6.1170     0.0580 C.3   1 <1>  -0.0680 
 21 O        5.7660     2.6110     1.2420 O.3   1 <1>  -0.3630 
 22 C        7.1460     1.5970    -0.4590 C.ar  1 <1>  -0.1500 
 23 C        6.1330     0.9520    -2.5310 C.ar  1 <1>  -0.1500 
 24 C        1.0230    -7.0550     0.3790 C.3   1 <1>  -0.2000 
 25 C        2.1000    -6.8120     1.3890 C.3   1 <1>  -0.2000 
 26 C        6.8550     2.8060     2.1160 C.3   1 <1>   0.0400 
 27 C        7.2510     1.0410    -1.7210 C.ar  1 <1>  -0.1500 
 28 H        3.2690    -0.1120    -0.1690 H     1 <1>   0.3700 
 29 H        0.0430    -2.5760    -1.6870 H     1 <1>   0.1500 
 30 H        3.0600    -1.8960     1.2010 H     1 <1>   0.1500 
 31 H        0.0140     1.4330     1.2890 H     1 <1>   0.0800 
 32 H       -0.6070     2.1800    -0.1760 H     1 <1>   0.0800 
 33 H       -0.3280     3.1530     1.2570 H     1 <1>   0.0800 
 34 H        4.0470     1.3570    -2.7090 H     1 <1>   0.1500 
 35 H        4.6470     4.8480    -1.1280 H     1 <1>   0.0800 
 36 H        4.5190     5.1370     0.5950 H     1 <1>   0.0800 
 37 H        3.3600     5.8540    -0.5030 H     1 <1>   0.0800 
 38 H        2.8880    -6.4550    -0.6480 H     1 <1>   0.1000 
 39 H        8.0300     1.6520     0.1460 H     1 <1>   0.1500 
 40 H        6.2130     0.5210    -3.5150 H     1 <1>   0.1500 
 41 H        0.9850    -8.0020    -0.1300 H     1 <1>   0.1000 
 42 H        0.0450    -6.6380     0.5490 H     1 <1>   0.1000 
 43 H        1.8700    -6.2270     2.2630 H     1 <1>   0.1000 
 44 H        2.8160    -7.5890     1.5880 H     1 <1>   0.1000 
 45 H        6.4830     3.2720     3.0110 H     1 <1>   0.0800 
 46 H        7.5740     3.4490     1.6400 H     1 <1>   0.0800 
 47 H        7.2880     1.8510     2.3550 H     1 <1>   0.0800 
 48 H        8.2010     0.6790    -2.0750 H     1 <1>   0.1500 
@<TRIPOS>BOND
  1   1   2  2   
  2   2   3  am  
  3   2   4  1   
  4   3   5  1   
  5   3  28  1   
  6   4   6  ar  
  7   4   7  ar  
  8   5   8  1   
  9   5   9  2   
 10   6  10  ar  
 11   6  29  1   
 12   7  11  ar  
 13   7  30  1   
 14   8  12  1   
 15   8  13  1   
 16   9  14  1   
 17   9  15  1   
 18  10  16  ar  
 19  11  16  ar  
 20  12  15  2   
 21  13  31  1   
 22  13  32  1   
 23  13  33  1   
 24  14  17  ar  
 25  14  18  ar  
 26  15  19  1   
 27  16  20  1   
 28  17  21  1   
 29  17  22  ar  
 30  18  23  ar  
 31  18  34  1   
 32  19  35  1   
 33  19  36  1   
 34  19  37  1   
 35  20  24  1   
 36  20  25  1   
 37  20  38  1   
 38  21  26  1   
 39  22  27  ar  
 40  22  39  1   
 41  23  27  ar  
 42  23  40  1   
 43  24  25  1   
 44  24  41  1   
 45  24  42  1   
 46  25  43  1   
 47  25  44  1   
 48  26  45  1   
 49  26  46  1   
 50  26  47  1   
 51  27  48  1   
@<TRIPOS>SUBSTRUCTURE
  1 ****   3 GROUP 4 **** **** 0

# MOE 2024.06 (io_trps.svl 2023.06)
