@<TRIPOS>MOLECULE
NONAME
39 41 1 0 0 
SMALL
USER_CHARGES


@<TRIPOS>ATOM
  1 O       -0.5600     0.3780     0.3870 O.2   1 <1>  -0.5700 
  2 C       -1.5980     0.9650     0.1200 C.2   1 <1>   0.7160 
  3 N       -2.7430     0.1920     0.0370 N.am  1 <1>  -0.6600 
  4 C       -1.5720     2.4140    -0.0870 C.2   1 <1>   0.2030 
  5 C       -4.1280     0.6850    -0.1770 C.3   1 <1>   0.1400 
  6 C       -2.7260    -1.2930     0.0650 C.3   1 <1>   0.1400 
  7 N       -2.5630     3.2040    -0.4740 N.2   1 <1>  -0.7070 
  8 C       -0.4080     3.1760     0.1080 C.2   1 <1>  -0.1500 
  9 C       -5.0160    -0.5090     0.1710 C.3   1 <1>   0.2000 
 10 C       -4.1680    -1.7170    -0.2370 C.3   1 <1>  -0.0800 
 11 N       -2.0320     4.4450    -0.5150 N.pl3 1 <1>   0.3000 
 12 C       -0.7220     4.4560    -0.1770 C.2   1 <1>  -0.0680 
 13 O       -5.2050    -0.5180     1.5460 O.3   1 <1>  -0.6800 
 14 C       -4.5690    -3.0570     0.4040 C.3   1 <1>   0.0210 
 15 N        0.1020     5.5870    -0.1330 N.pl3 1 <1>  -0.8840 
 16 C       -3.6610    -4.1760    -0.0690 C.2   1 <1>   0.1080 
 17 N       -3.6270    -4.5830    -1.3000 N.2   1 <1>  -0.7070 
 18 C       -2.7710    -4.8740     0.7400 C.2   1 <1>  -0.1500 
 19 N       -2.7060    -5.5640    -1.3090 N.pl3 1 <1>   0.3000 
 20 C       -2.1720    -5.7580    -0.0850 C.2   1 <1>  -0.3320 
 21 C       -1.1060    -6.7920     0.2260 C.3   1 <1>  -0.0600 
 22 H       -4.3530     1.5380     0.4410 H     1 <1>   0.0800 
 23 H       -4.2480     0.9500    -1.2130 H     1 <1>   0.0800 
 24 H       -2.0420    -1.6850    -0.6700 H     1 <1>   0.0800 
 25 H       -2.4220    -1.6230     1.0430 H     1 <1>   0.0800 
 26 H        0.5380     2.7770     0.4240 H     1 <1>   0.1500 
 27 H       -5.9790    -0.4780    -0.3100 H     1 <1>   0.0800 
 28 H       -4.2470    -1.8250    -1.3050 H     1 <1>   0.0800 
 29 H       -2.5760     5.2810    -0.7530 H     1 <1>   0.2700 
 30 H       -4.3420    -0.3490     1.9760 H     1 <1>   0.4000 
 31 H       -5.5810    -3.2970     0.1310 H     1 <1>   0.0800 
 32 H       -4.5200    -2.9970     1.4760 H     1 <1>   0.0800 
 33 H        0.0650     6.1990    -0.9560 H     1 <1>   0.4000 
 34 H        1.0820     5.3780     0.0930 H     1 <1>   0.4000 
 35 H       -2.6160    -4.7200     1.7920 H     1 <1>   0.1500 
 36 H       -2.4660    -6.0810    -2.1630 H     1 <1>   0.2700 
 37 H       -0.8440    -6.7520     1.2690 H     1 <1>   0.0800 
 38 H       -0.2210    -6.6020    -0.3550 H     1 <1>   0.0800 
 39 H       -1.4680    -7.7800     0.0030 H     1 <1>   0.0800 
@<TRIPOS>BOND
  1   1   2  2   
  2   2   3  am  
  3   2   4  1   
  4   3   5  1   
  5   3   6  1   
  6   4   7  2   
  7   4   8  1   
  8   5   9  1   
  9   5  22  1   
 10   5  23  1   
 11   6  10  1   
 12   6  24  1   
 13   6  25  1   
 14   7  11  1   
 15   8  12  2   
 16   8  26  1   
 17   9  10  1   
 18   9  13  1   
 19   9  27  1   
 20  10  14  1   
 21  10  28  1   
 22  11  12  1   
 23  11  29  1   
 24  12  15  1   
 25  13  30  1   
 26  14  16  1   
 27  14  31  1   
 28  14  32  1   
 29  15  33  1   
 30  15  34  1   
 31  16  17  2   
 32  16  18  1   
 33  17  19  1   
 34  18  20  2   
 35  18  35  1   
 36  19  20  1   
 37  19  36  1   
 38  20  21  1   
 39  21  37  1   
 40  21  38  1   
 41  21  39  1   
@<TRIPOS>SUBSTRUCTURE
  1 ****   6 GROUP 4 **** **** 0

# MOE 2024.06 (io_trps.svl 2023.06)
