@<TRIPOS>MOLECULE
NONAME
50 52 1 0 0 
SMALL
USER_CHARGES


@<TRIPOS>ATOM
  1 O       -2.1040    -4.0640     0.0370 O.co2 1 <1>  -0.9000 
  2 C       -2.9780    -3.2580    -0.2720 C.2   1 <1>   0.9060 
  3 O       -3.9270    -3.5270    -1.0260 O.co2 1 <1>  -0.9000 
  4 C       -2.9570    -1.8510     0.3450 C.3   1 <1>   0.2370 
  5 N       -4.2840    -1.1270     0.2030 N.4   1 <1>  -0.9590 
  6 C       -5.3620    -1.8240     0.9760 C.3   1 <1>   0.3430 
  7 C       -4.2470     0.3500     0.3550 C.3   1 <1>   0.3430 
  8 C       -6.7530    -1.5590     0.3630 C.3   1 <1>   0.2200 
  9 C       -5.5260     1.0600    -0.1440 C.3   1 <1>  -0.0800 
 10 N       -6.6420    -1.0650    -1.0650 N.am  1 <1>  -0.6600 
 11 C       -7.5770    -0.6210     1.2570 C.3   1 <1>   0.1200 
 12 C       -6.4800     1.4520     0.9950 C.3   1 <1>   0.1200 
 13 C       -6.2640     0.3650    -1.3050 C.3   1 <1>   0.1400 
 14 C       -6.8150    -1.8960    -2.1560 C.2   1 <1>   0.5690 
 15 O       -6.7710     0.3750     1.8200 O.3   1 <1>  -0.5600 
 16 O       -6.7460    -1.4490    -3.2790 O.2   1 <1>  -0.5700 
 17 C       -7.0700    -3.3960    -2.0090 C.3   1 <1>   0.1810 
 18 O       -8.3420    -3.6290    -1.4170 O.3   1 <1>  -0.3630 
 19 C       -8.4790    -4.6750    -0.5610 C.ar  1 <1>   0.0830 
 20 C       -9.1890    -4.4890     0.6280 C.ar  1 <1>   0.0830 
 21 C       -7.9270    -5.9150    -0.8530 C.ar  1 <1>  -0.1500 
 22 O       -9.7010    -3.2580     0.9050 O.3   1 <1>  -0.3620 
 23 C       -9.3340    -5.5530     1.5110 C.ar  1 <1>  -0.1500 
 24 C       -8.0760    -6.9670     0.0350 C.ar  1 <1>  -0.1500 
 25 C      -10.9630    -3.1670     1.5310 C.3   1 <1>   0.0400 
 26 C       -8.7790    -6.7860     1.2130 C.ar  1 <1>  -0.1500 
 27 H       -2.1830    -1.3020    -0.1590 H     1 <1>   0.0800 
 28 H       -2.6890    -1.9460     1.3810 H     1 <1>   0.0800 
 29 H       -4.5680    -1.3500    -0.7740 H     1 <1>   0.4500 
 30 H       -5.1920    -2.8880     0.9380 H     1 <1>   0.0800 
 31 H       -5.3440    -1.5250     2.0100 H     1 <1>   0.0800 
 32 H       -4.0760     0.6030     1.3890 H     1 <1>   0.0800 
 33 H       -3.4140     0.7230    -0.2170 H     1 <1>   0.0800 
 34 H       -7.2760    -2.4900     0.3810 H     1 <1>   0.0800 
 35 H       -5.1940     2.0010    -0.5440 H     1 <1>   0.0800 
 36 H       -7.9790    -1.1900     2.0770 H     1 <1>   0.0800 
 37 H       -8.4000    -0.1820     0.7190 H     1 <1>   0.0800 
 38 H       -7.4030     1.8620     0.6170 H     1 <1>   0.0800 
 39 H       -6.0160     2.1990     1.6170 H     1 <1>   0.0800 
 40 H       -5.6320     0.4100    -2.1760 H     1 <1>   0.0800 
 41 H       -7.1600     0.9130    -1.5430 H     1 <1>   0.0800 
 42 H       -6.3060    -3.8330    -1.3950 H     1 <1>   0.0800 
 43 H       -7.0590    -3.8660    -2.9750 H     1 <1>   0.0800 
 44 H       -7.3840    -6.0690    -1.7680 H     1 <1>   0.1500 
 45 H       -9.8660    -5.4310     2.4360 H     1 <1>   0.1500 
 46 H       -7.6430    -7.9260    -0.1940 H     1 <1>   0.1500 
 47 H      -11.3130    -2.1550     1.4340 H     1 <1>   0.0800 
 48 H      -10.8600    -3.4190     2.5710 H     1 <1>   0.0800 
 49 H      -11.6460    -3.8380     1.0400 H     1 <1>   0.0800 
 50 H       -8.8910    -7.6070     1.9010 H     1 <1>   0.1500 
@<TRIPOS>BOND
  1   1   2  ar  
  2   2   3  ar  
  3   2   4  1   
  4   4   5  1   
  5   4  27  1   
  6   4  28  1   
  7   5   6  1   
  8   5   7  1   
  9   5  29  1   
 10   6   8  1   
 11   6  30  1   
 12   6  31  1   
 13   7   9  1   
 14   7  32  1   
 15   7  33  1   
 16   8  10  1   
 17   8  11  1   
 18   8  34  1   
 19   9  12  1   
 20   9  13  1   
 21   9  35  1   
 22  10  13  1   
 23  10  14  am  
 24  11  15  1   
 25  11  36  1   
 26  11  37  1   
 27  12  15  1   
 28  12  38  1   
 29  12  39  1   
 30  13  40  1   
 31  13  41  1   
 32  14  16  2   
 33  14  17  1   
 34  17  18  1   
 35  17  42  1   
 36  17  43  1   
 37  18  19  1   
 38  19  20  ar  
 39  19  21  ar  
 40  20  22  1   
 41  20  23  ar  
 42  21  24  ar  
 43  21  44  1   
 44  22  25  1   
 45  23  26  ar  
 46  23  45  1   
 47  24  26  ar  
 48  24  46  1   
 49  25  47  1   
 50  25  48  1   
 51  25  49  1   
 52  26  50  1   
@<TRIPOS>SUBSTRUCTURE
  1 ****   8 GROUP 4 **** **** 0

# MOE 2024.06 (io_trps.svl 2023.06)
