@<TRIPOS>MOLECULE
NONAME
43 46 1 0 0 
SMALL
USER_CHARGES


@<TRIPOS>ATOM
  1 CL      -1.0400    -1.8480    -1.9090 Cl    1 <1>  -0.1400 
  2 C       -2.1650    -0.8400    -1.0230 C.2   1 <1>   0.1540 
  3 C       -1.7280    -0.2360     0.1970 C.2   1 <1>   0.6160 
  4 C       -3.4230    -0.6500    -1.5020 C.2   1 <1>  -0.1500 
  5 O       -0.6230    -0.3640     0.6990 O.2   1 <1>  -0.5700 
  6 N       -2.6390     0.5520     0.8520 N.am  1 <1>  -0.5390 
  7 C       -4.3540     0.1670    -0.7870 C.2   1 <1>   0.0140 
  8 C       -3.9110     0.7550     0.3750 C.2   1 <1>  -0.0410 
  9 C       -5.6860     0.3540    -1.3150 C.2   1 <1>   0.6160 
 10 O       -5.8210     0.5770    -2.5040 O.2   1 <1>  -0.5700 
 11 N       -6.8160     0.2810    -0.5240 N.am  1 <1>  -0.6600 
 12 C       -8.1560     0.6530    -1.1000 C.3   1 <1>   0.1400 
 13 C       -6.8250    -0.3990     0.8090 C.3   1 <1>   0.1400 
 14 C       -9.1550     1.0610     0.0000 C.3   1 <1>   0.1430 
 15 C       -8.1740    -1.0760     1.0770 C.3   1 <1>  -0.1600 
 16 C      -10.4880     1.4830    -0.5970 C.ar  1 <1>   0.1670 
 17 C       -9.3690    -0.1030     1.0000 C.3   1 <1>  -0.1600 
 18 C       -8.6990     2.3590     0.7240 C.3   1 <1>  -0.1600 
 19 N      -11.1660     0.8090    -1.4960 N.ar  1 <1>  -0.6200 
 20 C      -10.9200     2.6690    -0.0790 C.ar  1 <1>  -0.1440 
 21 C       -9.9540     3.2240     0.9360 C.3   1 <1>  -0.0160 
 22 C      -12.3080     1.3780    -1.8490 C.ar  1 <1>   0.7200 
 23 C      -12.1170     3.1680    -0.5310 C.ar  1 <1>   0.1600 
 24 N      -12.8270     2.5250    -1.4310 N.ar  1 <1>  -0.6200 
 25 N      -13.0200     0.7240    -2.7670 N.pl3 1 <1>  -0.9000 
 26 H       -3.7450    -1.1020    -2.4250 H     1 <1>   0.1500 
 27 H       -2.2790     0.9830     1.7080 H     1 <1>   0.3700 
 28 H       -4.5560     1.4070     0.9430 H     1 <1>   0.1500 
 29 H       -8.5480    -0.1900    -1.6420 H     1 <1>   0.0800 
 30 H       -8.0420     1.4640    -1.8000 H     1 <1>   0.0800 
 31 H       -6.6310     0.3280     1.5770 H     1 <1>   0.0800 
 32 H       -6.0480    -1.1440     0.8430 H     1 <1>   0.0800 
 33 H       -8.1570    -1.5480     2.0430 H     1 <1>   0.0800 
 34 H       -8.3060    -1.8550     0.3460 H     1 <1>   0.0800 
 35 H      -10.2330    -0.6730     0.7030 H     1 <1>   0.0800 
 36 H       -9.5840     0.2930     1.9770 H     1 <1>   0.0800 
 37 H       -8.0250     2.9030     0.0850 H     1 <1>   0.0800 
 38 H       -8.1920     2.1620     1.6510 H     1 <1>   0.0800 
 39 H       -9.7500     4.2670     0.7660 H     1 <1>   0.0800 
 40 H      -10.3510     3.0840     1.9260 H     1 <1>   0.0800 
 41 H      -12.4970     4.1010    -0.1530 H     1 <1>   0.1500 
 42 H      -13.7060     1.2880    -3.2590 H     1 <1>   0.4000 
 43 H      -12.4950     0.0510    -3.3180 H     1 <1>   0.4000 
@<TRIPOS>BOND
  1   1   2  1   
  2   2   3  1   
  3   2   4  2   
  4   3   5  2   
  5   3   6  am  
  6   4   7  1   
  7   4  26  1   
  8   6   8  1   
  9   6  27  1   
 10   7   8  2   
 11   7   9  1   
 12   8  28  1   
 13   9  10  2   
 14   9  11  am  
 15  11  12  1   
 16  11  13  1   
 17  12  14  1   
 18  12  29  1   
 19  12  30  1   
 20  13  15  1   
 21  13  31  1   
 22  13  32  1   
 23  14  16  1   
 24  14  17  1   
 25  14  18  1   
 26  15  17  1   
 27  15  33  1   
 28  15  34  1   
 29  16  19  ar  
 30  16  20  ar  
 31  17  35  1   
 32  17  36  1   
 33  18  21  1   
 34  18  37  1   
 35  18  38  1   
 36  19  22  ar  
 37  20  21  1   
 38  20  23  ar  
 39  21  39  1   
 40  21  40  1   
 41  22  24  ar  
 42  22  25  1   
 43  23  24  ar  
 44  23  41  1   
 45  25  42  1   
 46  25  43  1   
@<TRIPOS>SUBSTRUCTURE
  1 ****  11 GROUP 4 **** **** 0

# MOE 2024.06 (io_trps.svl 2023.06)
