@<TRIPOS>MOLECULE
NONAME
43 44 1 0 0 
SMALL
USER_CHARGES


@<TRIPOS>ATOM
  1 F        0.1190    -0.0210    -0.6400 F     1 <1>  -0.1900 
  2 C        1.2170    -0.7440    -0.7190 C.ar  1 <1>   0.1900 
  3 C        1.1740    -2.1350    -0.5840 C.ar  1 <1>   0.4100 
  4 C        2.4190    -0.1190    -0.9510 C.ar  1 <1>   0.1660 
  5 N        2.2980    -2.8230    -0.7060 N.ar  1 <1>  -0.6200 
  6 N        0.0280    -2.8790    -0.3250 N.pl3 1 <1>  -0.8380 
  7 N        3.5380    -0.8190    -1.0550 N.ar  1 <1>  -0.6200 
  8 C        2.5440     1.3930    -1.1040 C.3   1 <1>  -0.0170 
  9 C        3.3980    -2.1300    -0.9280 C.ar  1 <1>   0.4700 
 10 C       -0.2740    -4.1180    -1.1220 C.3   1 <1>   0.2090 
 11 C       -1.0990    -2.3730     0.4960 C.3   1 <1>   0.2090 
 12 C        2.9630     2.0540     0.2150 C.3   1 <1>  -0.2400 
 13 C       -0.8090    -5.2880    -0.2650 C.3   1 <1>  -0.1060 
 14 C       -1.6050    -3.4680     1.4300 C.3   1 <1>  -0.1600 
 15 C       -1.4890    -6.2820    -1.2160 C.2   1 <1>   0.9060 
 16 C       -1.9330    -4.7410     0.6480 C.3   1 <1>   0.2000 
 17 C        0.3530    -6.0700     0.4340 C.3   1 <1>  -0.1600 
 18 O       -1.3000    -6.2130    -2.4360 O.co2 1 <1>  -0.9000 
 19 O       -2.2360    -7.1480    -0.7320 O.co2 1 <1>  -0.9000 
 20 O       -2.3400    -5.7170     1.5350 O.3   1 <1>  -0.6800 
 21 C        1.0920    -5.4080     1.6080 C.3   1 <1>  -0.1600 
 22 C        2.3370    -6.2100     1.9960 C.3   1 <1>  -0.2400 
 23 H        3.2790     1.6060    -1.8600 H     1 <1>   0.0800 
 24 H        1.6120     1.8140    -1.4350 H     1 <1>   0.0800 
 25 H        4.3020    -2.7090    -1.0170 H     1 <1>   0.1500 
 26 H       -1.0160    -3.8530    -1.8550 H     1 <1>   0.0800 
 27 H        0.5960    -4.4430    -1.6660 H     1 <1>   0.0800 
 28 H       -0.7800    -1.5340     1.0880 H     1 <1>   0.0800 
 29 H       -1.8930    -2.0530    -0.1570 H     1 <1>   0.0800 
 30 H        3.9100     1.6600     0.5400 H     1 <1>   0.0800 
 31 H        2.2280     1.8620     0.9770 H     1 <1>   0.0800 
 32 H        3.0570     3.1170     0.0830 H     1 <1>   0.0800 
 33 H       -2.4950    -3.1220     1.9220 H     1 <1>   0.0800 
 34 H       -0.8650    -3.6510     2.1810 H     1 <1>   0.0800 
 35 H       -2.7850    -4.5270     0.0240 H     1 <1>   0.0800 
 36 H       -0.0410    -7.0060     0.7920 H     1 <1>   0.0800 
 37 H        1.0740    -6.3160    -0.3260 H     1 <1>   0.0800 
 38 H       -2.4570    -6.5330     0.9710 H     1 <1>   0.4000 
 39 H        1.3870    -4.4090     1.3480 H     1 <1>   0.0800 
 40 H        0.4350    -5.3660     2.4580 H     1 <1>   0.0800 
 41 H        3.0260    -6.2450     1.1710 H     1 <1>   0.0800 
 42 H        2.0640    -7.2140     2.2670 H     1 <1>   0.0800 
 43 H        2.8250    -5.7450     2.8330 H     1 <1>   0.0800 
@<TRIPOS>BOND
  1   1   2  1   
  2   2   3  ar  
  3   2   4  ar  
  4   3   5  ar  
  5   3   6  1   
  6   4   7  ar  
  7   4   8  1   
  8   5   9  ar  
  9   6  10  1   
 10   6  11  1   
 11   7   9  ar  
 12   8  12  1   
 13   8  23  1   
 14   8  24  1   
 15   9  25  1   
 16  10  13  1   
 17  10  26  1   
 18  10  27  1   
 19  11  14  1   
 20  11  28  1   
 21  11  29  1   
 22  12  30  1   
 23  12  31  1   
 24  12  32  1   
 25  13  15  1   
 26  13  16  1   
 27  13  17  1   
 28  14  16  1   
 29  14  33  1   
 30  14  34  1   
 31  15  18  ar  
 32  15  19  ar  
 33  16  20  1   
 34  16  35  1   
 35  17  21  1   
 36  17  36  1   
 37  17  37  1   
 38  20  38  1   
 39  21  22  1   
 40  21  39  1   
 41  21  40  1   
 42  22  41  1   
 43  22  42  1   
 44  22  43  1   
@<TRIPOS>SUBSTRUCTURE
  1 ****   6 GROUP 4 **** **** 0

# MOE 2024.06 (io_trps.svl 2023.06)
