@<TRIPOS>MOLECULE
NONAME
42 43 1 0 0 
SMALL
USER_CHARGES


@<TRIPOS>ATOM
  1 S        0.3070     0.5720    -1.8000 S.o2  1 <1>   1.3330 
  2 O       -0.4650     1.5690    -2.5070 O.2   1 <1>  -0.6500 
  3 O        0.5740    -0.7040    -2.4260 O.2   1 <1>  -0.6500 
  4 N       -0.4900     0.2710    -0.3290 N.am  1 <1>  -0.8490 
  5 C        1.8760     1.2840    -1.3000 C.3   1 <1>  -0.0550 
  6 C       -1.4500    -0.8320    -0.4370 C.3   1 <1>   0.1160 
  7 C       -1.1590     1.4560     0.2200 C.3   1 <1>   0.1160 
  8 C        2.8180     0.2980    -0.5740 C.3   1 <1>  -0.0800 
  9 C        4.2230     0.8240    -0.3230 C.3   1 <1>   0.2200 
 10 C        2.3620    -0.1340     0.8260 C.3   1 <1>   0.1200 
 11 N        4.1850     2.2260     0.1590 N.am  1 <1>  -0.7300 
 12 C        4.6480    -0.0720     0.8300 C.3   1 <1>   0.1200 
 13 O        3.5090    -0.1820     1.6270 O.3   1 <1>  -0.5600 
 14 C        4.4590     3.3300    -0.5940 C.2   1 <1>   0.5440 
 15 O        4.6670     3.1690    -1.7790 O.2   1 <1>  -0.5700 
 16 C        4.4920     4.6610    -0.0060 C.ar  1 <1>   0.0860 
 17 C        5.0840     5.7250    -0.6890 C.ar  1 <1>  -0.1500 
 18 C        3.9430     4.9390     1.2480 C.ar  1 <1>  -0.1500 
 19 C        5.1420     7.0100    -0.1670 C.ar  1 <1>   0.0730 
 20 C        3.9900     6.2100     1.7890 C.ar  1 <1>  -0.1500 
 21 C        5.7610     8.0770    -0.9010 C.1   1 <1>   0.4840 
 22 C        4.5870     7.2390     1.0850 C.ar  1 <1>  -0.1500 
 23 N        6.2530     8.9300    -1.4760 N.1   1 <1>  -0.5570 
 24 H        2.3800     1.6320    -2.1820 H     1 <1>   0.0800 
 25 H        1.6960     2.1400    -0.6800 H     1 <1>   0.0800 
 26 H       -1.9310    -1.0040     0.5110 H     1 <1>   0.0800 
 27 H       -0.9420    -1.7370    -0.7240 H     1 <1>   0.0800 
 28 H       -2.1980    -0.6060    -1.1800 H     1 <1>   0.0800 
 29 H       -1.5680     1.2330     1.1910 H     1 <1>   0.0800 
 30 H       -1.9580     1.7740    -0.4300 H     1 <1>   0.0800 
 31 H       -0.4580     2.2650     0.3250 H     1 <1>   0.0800 
 32 H        2.9040    -0.5900    -1.1760 H     1 <1>   0.0800 
 33 H        4.8680     0.7270    -1.1810 H     1 <1>   0.0800 
 34 H        1.9020    -1.1080     0.8120 H     1 <1>   0.0800 
 35 H        1.6880     0.5790     1.2690 H     1 <1>   0.0800 
 36 H        4.0150     2.3000     1.1640 H     1 <1>   0.3700 
 37 H        5.4590     0.3390     1.4050 H     1 <1>   0.0800 
 38 H        4.9060    -1.0560     0.4790 H     1 <1>   0.0800 
 39 H        5.5110     5.5380    -1.6610 H     1 <1>   0.1500 
 40 H        3.4660     4.1580     1.8120 H     1 <1>   0.1500 
 41 H        3.5610     6.4010     2.7590 H     1 <1>   0.1500 
 42 H        4.6210     8.2280     1.5130 H     1 <1>   0.1500 
@<TRIPOS>BOND
  1   1   2  2   
  2   1   3  2   
  3   1   4  am  
  4   1   5  1   
  5   4   6  1   
  6   4   7  1   
  7   5   8  1   
  8   5  24  1   
  9   5  25  1   
 10   6  26  1   
 11   6  27  1   
 12   6  28  1   
 13   7  29  1   
 14   7  30  1   
 15   7  31  1   
 16   8   9  1   
 17   8  10  1   
 18   8  32  1   
 19   9  11  1   
 20   9  12  1   
 21   9  33  1   
 22  10  13  1   
 23  10  34  1   
 24  10  35  1   
 25  11  14  am  
 26  11  36  1   
 27  12  13  1   
 28  12  37  1   
 29  12  38  1   
 30  14  15  2   
 31  14  16  1   
 32  16  17  ar  
 33  16  18  ar  
 34  17  19  ar  
 35  17  39  1   
 36  18  20  ar  
 37  18  40  1   
 38  19  21  1   
 39  19  22  ar  
 40  20  22  ar  
 41  20  41  1   
 42  21  23  3   
 43  22  42  1   
@<TRIPOS>SUBSTRUCTURE
  1 ****  11 GROUP 4 **** **** 0

# MOE 2024.06 (io_trps.svl 2023.06)
