@<TRIPOS>MOLECULE
NONAME
52 56 1 0 0 
SMALL
USER_CHARGES


@<TRIPOS>ATOM
  1 O       -0.6420     0.1310    -0.3430 O.2   1 <1>  -0.5700 
  2 C       -1.6370     0.8330    -0.2330 C.2   1 <1>   0.7160 
  3 N       -2.8440     0.1660    -0.0930 N.am  1 <1>  -0.6600 
  4 C       -1.5140     2.2970    -0.2460 C.2   1 <1>   0.2030 
  5 C       -4.1610     0.8000     0.1630 C.3   1 <1>   0.1400 
  6 C       -2.9600    -1.3080    -0.0370 C.3   1 <1>   0.1400 
  7 N       -2.5060     3.1730    -0.3540 N.2   1 <1>  -0.7070 
  8 C       -0.2950     2.9970    -0.1480 C.2   1 <1>  -0.1810 
  9 C       -5.1250    -0.3620     0.4070 C.3   1 <1>   0.2000 
 10 C       -4.2480    -1.5680     0.7480 C.3   1 <1>  -0.0800 
 11 N       -1.9340     4.3850    -0.3370 N.pl3 1 <1>   0.3000 
 12 C       -0.6000     4.3020    -0.2170 C.2   1 <1>  -0.3320 
 13 C        1.1300     2.4860     0.0000 C.3   1 <1>   0.0210 
 14 O       -5.9940    -0.0970     1.4540 O.3   1 <1>  -0.6800 
 15 C       -4.9310    -2.9040     0.4060 C.3   1 <1>  -0.0170 
 16 C        0.3870     5.4530    -0.1630 C.3   1 <1>   0.0200 
 17 C        2.0750     3.6280     0.4200 C.3   1 <1>  -0.1600 
 18 C       -4.1290    -4.1770     0.7090 C.ar  1 <1>  -0.1440 
 19 C        1.8140     4.9200    -0.3800 C.3   1 <1>  -0.1600 
 20 C       -4.5220    -5.4160     0.1430 C.ar  1 <1>   0.0000 
 21 C       -3.0320    -4.1920     1.5260 C.ar  1 <1>  -0.1500 
 22 C       -3.7320    -6.5580     0.4280 C.ar  1 <1>   0.3100 
 23 C       -5.6580    -5.5950    -0.6820 C.ar  1 <1>  -0.1500 
 24 C       -2.3270    -5.3800     1.7500 C.ar  1 <1>   0.1600 
 25 N       -2.6400    -6.5220     1.2310 N.ar  1 <1>  -0.6200 
 26 C       -4.0890    -7.7940    -0.1340 C.ar  1 <1>  -0.1500 
 27 C       -5.9810    -6.8150    -1.2110 C.ar  1 <1>  -0.1500 
 28 C       -5.1870    -7.9300    -0.9390 C.ar  1 <1>  -0.1500 
 29 H       -4.0900     1.4390     1.0270 H     1 <1>   0.0800 
 30 H       -4.4680     1.3740    -0.6940 H     1 <1>   0.0800 
 31 H       -3.0370    -1.6890    -1.0410 H     1 <1>   0.0800 
 32 H       -2.1020    -1.7460     0.4430 H     1 <1>   0.0800 
 33 H       -5.7090    -0.5380    -0.4810 H     1 <1>   0.0800 
 34 H       -4.0090    -1.5330     1.7960 H     1 <1>   0.0800 
 35 H       -2.4770     5.2540    -0.4120 H     1 <1>   0.2700 
 36 H        1.1680     1.7020     0.7350 H     1 <1>   0.0800 
 37 H        1.4460     2.0780    -0.9440 H     1 <1>   0.0800 
 38 H       -5.4930     0.1100     2.2660 H     1 <1>   0.4000 
 39 H       -5.1570    -2.8840    -0.6460 H     1 <1>   0.0800 
 40 H       -5.8640    -2.9610     0.9380 H     1 <1>   0.0800 
 41 H        0.1560     6.1830    -0.9190 H     1 <1>   0.0800 
 42 H        0.3200     5.9260     0.8020 H     1 <1>   0.0800 
 43 H        1.9280     3.8320     1.4670 H     1 <1>   0.0800 
 44 H        3.0950     3.3130     0.2850 H     1 <1>   0.0800 
 45 H        1.9500     4.7090    -1.4270 H     1 <1>   0.0800 
 46 H        2.5260     5.6760    -0.1000 H     1 <1>   0.0800 
 47 H       -2.6660    -3.3160     2.0260 H     1 <1>   0.1500 
 48 H       -6.2940    -4.7580    -0.9000 H     1 <1>   0.1500 
 49 H       -1.4670    -5.3390     2.3970 H     1 <1>   0.1500 
 50 H       -3.4640    -8.6370     0.0940 H     1 <1>   0.1500 
 51 H       -6.8480    -6.9320    -1.8390 H     1 <1>   0.1500 
 52 H       -5.4490    -8.8840    -1.3630 H     1 <1>   0.1500 
@<TRIPOS>BOND
  1   1   2  2   
  2   2   3  am  
  3   2   4  1   
  4   3   5  1   
  5   3   6  1   
  6   4   7  2   
  7   4   8  1   
  8   5   9  1   
  9   5  29  1   
 10   5  30  1   
 11   6  10  1   
 12   6  31  1   
 13   6  32  1   
 14   7  11  1   
 15   8  12  2   
 16   8  13  1   
 17   9  10  1   
 18   9  14  1   
 19   9  33  1   
 20  10  15  1   
 21  10  34  1   
 22  11  12  1   
 23  11  35  1   
 24  12  16  1   
 25  13  17  1   
 26  13  36  1   
 27  13  37  1   
 28  14  38  1   
 29  15  18  1   
 30  15  39  1   
 31  15  40  1   
 32  16  19  1   
 33  16  41  1   
 34  16  42  1   
 35  17  19  1   
 36  17  43  1   
 37  17  44  1   
 38  18  20  ar  
 39  18  21  ar  
 40  19  45  1   
 41  19  46  1   
 42  20  22  ar  
 43  20  23  ar  
 44  21  24  ar  
 45  21  47  1   
 46  22  25  ar  
 47  22  26  ar  
 48  23  27  ar  
 49  23  48  1   
 50  24  25  ar  
 51  24  49  1   
 52  26  28  ar  
 53  26  50  1   
 54  27  28  ar  
 55  27  51  1   
 56  28  52  1   
@<TRIPOS>SUBSTRUCTURE
  1 ****   6 GROUP 4 **** **** 0

# MOE 2024.06 (io_trps.svl 2023.06)
