@<TRIPOS>MOLECULE
NONAME
51 54 1 0 0 
SMALL
USER_CHARGES


@<TRIPOS>ATOM
  1 O        0.4360     4.2290     2.2870 O.2   1 <1>  -0.5700 
  2 C        0.1580     3.7380     1.2100 C.2   1 <1>   0.7800 
  3 O       -0.2440     2.4740     1.0740 O.3   1 <1>  -0.2320 
  4 N        0.1530     4.3850     0.0090 N.am  1 <1>  -0.4770 
  5 C       -0.5530     2.3030    -0.2270 C.ar  1 <1>   0.0830 
  6 C       -0.3140     3.4710    -0.9160 C.ar  1 <1>   0.1170 
  7 C        0.2470     5.8630    -0.1640 C.3   1 <1>   0.2010 
  8 C       -1.0550     1.1740    -0.8470 C.ar  1 <1>  -0.1500 
  9 C       -0.5660     3.5390    -2.2790 C.ar  1 <1>  -0.1500 
 10 C       -0.9730     6.4580    -0.8670 C.2   1 <1>   0.5690 
 11 C       -1.3110     1.2410    -2.2080 C.ar  1 <1>  -0.1500 
 12 C       -1.0670     2.4150    -2.9180 C.ar  1 <1>  -0.1500 
 13 O       -0.7930     6.9180    -1.9730 O.2   1 <1>  -0.5700 
 14 N       -2.2220     6.4440    -0.2900 N.am  1 <1>  -0.6600 
 15 C       -2.5390     5.9970     1.0940 C.3   1 <1>   0.1400 
 16 C       -3.4410     6.7410    -1.0820 C.3   1 <1>   0.1400 
 17 C       -3.3660     4.7090     1.0280 C.3   1 <1>  -0.1600 
 18 C       -4.2520     5.4490    -1.2160 C.3   1 <1>  -0.1600 
 19 C       -4.6300     4.8520     0.1590 C.3   1 <1>   0.2800 
 20 O       -5.4320     5.8250     0.7950 O.3   1 <1>  -0.5600 
 21 C       -5.3550     3.4700     0.0480 C.3   1 <1>   0.2000 
 22 C       -6.7610     5.5300     1.1180 C.3   1 <1>   0.1200 
 23 O       -4.5940     2.5510    -0.6960 O.3   1 <1>  -0.6800 
 24 C       -6.8320     3.5690    -0.4560 C.3   1 <1>   0.2800 
 25 C       -7.4530     4.9300    -0.1050 C.3   1 <1>  -0.1600 
 26 O       -7.5670     2.6200     0.2280 O.3   1 <1>  -0.6800 
 27 C       -7.0410     3.2500    -1.9440 C.3   1 <1>  -0.2400 
 28 H        0.3660     6.3370     0.7920 H     1 <1>   0.0800 
 29 H        1.1200     6.0820    -0.7510 H     1 <1>   0.0800 
 30 H       -1.2420     0.2790    -0.2810 H     1 <1>   0.1500 
 31 H       -0.3770     4.4470    -2.8250 H     1 <1>   0.1500 
 32 H       -1.7040     0.3790    -2.7190 H     1 <1>   0.1500 
 33 H       -1.2690     2.4480    -3.9740 H     1 <1>   0.1500 
 34 H       -1.6470     5.8350     1.6700 H     1 <1>   0.0800 
 35 H       -3.1110     6.7660     1.5860 H     1 <1>   0.0800 
 36 H       -4.0190     7.4970    -0.5790 H     1 <1>   0.0800 
 37 H       -3.1830     7.1130    -2.0590 H     1 <1>   0.0800 
 38 H       -3.6450     4.4130     2.0220 H     1 <1>   0.0800 
 39 H       -2.7490     3.9280     0.6270 H     1 <1>   0.0800 
 40 H       -3.6580     4.7470    -1.7720 H     1 <1>   0.0800 
 41 H       -5.1350     5.6560    -1.7870 H     1 <1>   0.0800 
 42 H       -5.3870     3.0680     1.0460 H     1 <1>   0.0800 
 43 H       -6.7730     4.8480     1.9520 H     1 <1>   0.0800 
 44 H       -7.2350     6.4490     1.4120 H     1 <1>   0.0800 
 45 H       -4.5610     2.8160    -1.6330 H     1 <1>   0.4000 
 46 H       -7.3360     5.6220    -0.9190 H     1 <1>   0.0800 
 47 H       -8.5070     4.8320     0.0810 H     1 <1>   0.0800 
 48 H       -8.4300     2.4930    -0.2060 H     1 <1>   0.4000 
 49 H       -6.4550     3.9070    -2.5570 H     1 <1>   0.0800 
 50 H       -8.0730     3.3770    -2.2170 H     1 <1>   0.0800 
 51 H       -6.7480     2.2370    -2.1570 H     1 <1>   0.0800 
@<TRIPOS>BOND
  1   1   2  2   
  2   2   3  1   
  3   2   4  am  
  4   3   5  1   
  5   4   6  1   
  6   4   7  1   
  7   5   6  ar  
  8   5   8  ar  
  9   6   9  ar  
 10   7  10  1   
 11   7  28  1   
 12   7  29  1   
 13   8  11  ar  
 14   8  30  1   
 15   9  12  ar  
 16   9  31  1   
 17  10  13  2   
 18  10  14  am  
 19  11  12  ar  
 20  11  32  1   
 21  12  33  1   
 22  14  15  1   
 23  14  16  1   
 24  15  17  1   
 25  15  34  1   
 26  15  35  1   
 27  16  18  1   
 28  16  36  1   
 29  16  37  1   
 30  17  19  1   
 31  17  38  1   
 32  17  39  1   
 33  18  19  1   
 34  18  40  1   
 35  18  41  1   
 36  19  20  1   
 37  19  21  1   
 38  20  22  1   
 39  21  23  1   
 40  21  24  1   
 41  21  42  1   
 42  22  25  1   
 43  22  43  1   
 44  22  44  1   
 45  23  45  1   
 46  24  25  1   
 47  24  26  1   
 48  24  27  1   
 49  25  46  1   
 50  25  47  1   
 51  26  48  1   
 52  27  49  1   
 53  27  50  1   
 54  27  51  1   
@<TRIPOS>SUBSTRUCTURE
  1 ****  17 GROUP 4 **** **** 0

# MOE 2024.06 (io_trps.svl 2023.06)
