@<TRIPOS>MOLECULE
NONAME
29 30 1 0 0 
SMALL
USER_CHARGES


@<TRIPOS>ATOM
  1 CL      -0.0160    -0.0210     0.7110 Cl    1 <1>  -0.1770 
  2 C       -0.0440    -1.7380     0.3990 C.ar  1 <1>   0.1770 
  3 C       -0.6280    -2.2240    -0.7590 C.ar  1 <1>   0.1600 
  4 C        0.5150    -2.6060     1.3090 C.ar  1 <1>  -0.1500 
  5 N       -0.6960    -3.5120    -1.0770 N.ar  1 <1>  -0.6200 
  6 C        0.4540    -3.9470     0.9880 C.ar  1 <1>  -0.1500 
  7 C       -0.1480    -4.3480    -0.1990 C.ar  1 <1>   0.1660 
  8 C       -0.1960    -5.8370    -0.5440 C.3   1 <1>   0.2540 
  9 N       -1.3140    -6.5570     0.1230 N.3   1 <1>  -0.8100 
 10 C       -2.6240    -5.9660    -0.2380 C.3   1 <1>   0.1100 
 11 C       -1.2630    -8.0000    -0.1820 C.3   1 <1>   0.1100 
 12 C       -3.7900    -6.7050     0.4470 C.3   1 <1>   0.3430 
 13 C       -2.4100    -8.7630     0.5140 C.3   1 <1>   0.3430 
 14 N       -3.7470    -8.1790     0.1680 N.4   1 <1>  -0.9060 
 15 H       -1.0540    -1.5170    -1.4490 H     1 <1>   0.1500 
 16 H        0.9710    -2.2480     2.2140 H     1 <1>   0.1500 
 17 H        0.8700    -4.6790     1.6560 H     1 <1>   0.1500 
 18 H        0.7380    -6.2810    -0.2450 H     1 <1>   0.0800 
 19 H       -0.2780    -5.9400    -1.6130 H     1 <1>   0.0800 
 20 H       -2.7560    -5.9800    -1.3070 H     1 <1>   0.0800 
 21 H       -2.6560    -4.9370     0.0800 H     1 <1>   0.0800 
 22 H       -0.3240    -8.4010     0.1620 H     1 <1>   0.0800 
 23 H       -1.3180    -8.1550    -1.2470 H     1 <1>   0.0800 
 24 H       -4.7240    -6.2890     0.1070 H     1 <1>   0.0800 
 25 H       -3.7170    -6.5350     1.5090 H     1 <1>   0.0800 
 26 H       -2.2540    -8.7070     1.5790 H     1 <1>   0.0800 
 27 H       -2.3740    -9.8020     0.2270 H     1 <1>   0.0800 
 28 H       -3.9280    -8.3290    -0.8310 H     1 <1>   0.4500 
 29 H       -4.4890    -8.6570     0.6950 H     1 <1>   0.4500 
@<TRIPOS>BOND
  1   1   2  1   
  2   2   3  ar  
  3   2   4  ar  
  4   3   5  ar  
  5   3  15  1   
  6   4   6  ar  
  7   4  16  1   
  8   5   7  ar  
  9   6   7  ar  
 10   6  17  1   
 11   7   8  1   
 12   8   9  1   
 13   8  18  1   
 14   8  19  1   
 15   9  10  1   
 16   9  11  1   
 17  10  12  1   
 18  10  20  1   
 19  10  21  1   
 20  11  13  1   
 21  11  22  1   
 22  11  23  1   
 23  12  14  1   
 24  12  24  1   
 25  12  25  1   
 26  13  14  1   
 27  13  26  1   
 28  13  27  1   
 29  14  28  1   
 30  14  29  1   
@<TRIPOS>SUBSTRUCTURE
  1 ****   7 GROUP 4 **** **** 0

# MOE 2024.06 (io_trps.svl 2023.06)
