@<TRIPOS>MOLECULE
NONAME
48 51 1 0 0 
SMALL
USER_CHARGES


@<TRIPOS>ATOM
  1 O        0.0320    -0.0840     1.1840 O.2   1 <1>  -0.5700 
  2 C        0.7370    -0.6420     0.3800 C.2   1 <1>   0.5690 
  3 N        1.7230    -0.0180    -0.3300 N.am  1 <1>  -0.4940 
  4 C        0.5340    -2.1230     0.1500 C.3   1 <1>  -0.0990 
  5 C        2.1160     1.3420    -0.2870 C.2   1 <1>  -0.0880 
  6 C        0.1150    -2.8330     1.4440 C.3   1 <1>   0.0960 
  7 N        3.4040     1.7770    -0.1900 N.pl3 1 <1>   0.3140 
  8 C        1.3410     2.4530    -0.3400 C.2   1 <1>  -0.1810 
  9 N        0.0910    -4.2900     1.2280 N.pl3 1 <1>   0.0480 
 10 N        3.4650     3.1310    -0.1950 N.2   1 <1>  -0.7070 
 11 C        4.6170     0.9210    -0.0480 C.3   1 <1>   0.1760 
 12 C        2.2320     3.5180    -0.2770 C.2   1 <1>   0.1390 
 13 C       -0.1670     2.5760    -0.4480 C.3   1 <1>  -0.0590 
 14 C       -0.8540    -5.0040     0.5630 C.ar  1 <1>  -0.1520 
 15 C        1.0740    -5.1790     1.5230 C.2   1 <1>   0.0360 
 16 C        5.4690     1.2640     1.1740 C.3   1 <1>  -0.1600 
 17 C        5.5890     1.0550    -1.2220 C.3   1 <1>  -0.1600 
 18 C       -0.3640    -6.2960     0.5010 C.ar  1 <1>   0.2270 
 19 C       -2.0900    -4.6740    -0.0010 C.ar  1 <1>  -0.1500 
 20 N        0.8500    -6.3770     1.1120 N.2   1 <1>  -0.5650 
 21 C        6.8430     0.6690     0.8610 C.3   1 <1>  -0.1600 
 22 C        6.9540     0.6280    -0.6700 C.3   1 <1>  -0.1600 
 23 C       -1.1040    -7.2930    -0.1320 C.ar  1 <1>  -0.1500 
 24 C       -2.8140    -5.6650    -0.6250 C.ar  1 <1>  -0.1500 
 25 C       -2.3230    -6.9750    -0.6920 C.ar  1 <1>  -0.1500 
 26 H        2.2420    -0.6020    -0.9860 H     1 <1>   0.3700 
 27 H        1.4480    -2.5560    -0.2130 H     1 <1>   0.0800 
 28 H       -0.2310    -2.2480    -0.5950 H     1 <1>   0.0800 
 29 H       -0.8640    -2.5070     1.7520 H     1 <1>   0.0800 
 30 H        0.8100    -2.6090     2.2330 H     1 <1>   0.0800 
 31 H        4.3140    -0.1060     0.0340 H     1 <1>   0.0800 
 32 H        1.9400     4.5540    -0.2950 H     1 <1>   0.1500 
 33 H       -0.5870     1.6790    -0.8660 H     1 <1>   0.0800 
 34 H       -0.4290     3.4050    -1.0800 H     1 <1>   0.0800 
 35 H       -0.5880     2.7290     0.5290 H     1 <1>   0.0800 
 36 H        1.9620    -4.8820     2.0540 H     1 <1>   0.1500 
 37 H        5.0530     0.8630     2.0810 H     1 <1>   0.0800 
 38 H        5.5640     2.3340     1.2640 H     1 <1>   0.0800 
 39 H        5.6440     2.0870    -1.5260 H     1 <1>   0.0800 
 40 H        5.2900     0.4510    -2.0600 H     1 <1>   0.0800 
 41 H       -2.4650    -3.6680     0.0580 H     1 <1>   0.1500 
 42 H        6.9030    -0.3320     1.2520 H     1 <1>   0.0800 
 43 H        7.6300     1.2600     1.2990 H     1 <1>   0.0800 
 44 H        7.7220     1.2990    -1.0170 H     1 <1>   0.0800 
 45 H        7.1970    -0.3700    -0.9930 H     1 <1>   0.0800 
 46 H       -0.7020    -8.2880    -0.1660 H     1 <1>   0.1500 
 47 H       -3.7700    -5.4430    -1.0680 H     1 <1>   0.1500 
 48 H       -2.9070    -7.7330    -1.1840 H     1 <1>   0.1500 
@<TRIPOS>BOND
  1   1   2  2   
  2   2   3  am  
  3   2   4  1   
  4   3   5  1   
  5   3  26  1   
  6   4   6  1   
  7   4  27  1   
  8   4  28  1   
  9   5   7  1   
 10   5   8  2   
 11   6   9  1   
 12   6  29  1   
 13   6  30  1   
 14   7  10  1   
 15   7  11  1   
 16   8  12  1   
 17   8  13  1   
 18   9  14  1   
 19   9  15  1   
 20  10  12  2   
 21  11  16  1   
 22  11  17  1   
 23  11  31  1   
 24  12  32  1   
 25  13  33  1   
 26  13  34  1   
 27  13  35  1   
 28  14  18  ar  
 29  14  19  ar  
 30  15  20  2   
 31  15  36  1   
 32  16  21  1   
 33  16  37  1   
 34  16  38  1   
 35  17  22  1   
 36  17  39  1   
 37  17  40  1   
 38  18  20  1   
 39  18  23  ar  
 40  19  24  ar  
 41  19  41  1   
 42  21  22  1   
 43  21  42  1   
 44  21  43  1   
 45  22  44  1   
 46  22  45  1   
 47  23  25  ar  
 48  23  46  1   
 49  24  25  ar  
 50  24  47  1   
 51  25  48  1   
@<TRIPOS>SUBSTRUCTURE
  1 ****   4 GROUP 4 **** **** 0

# MOE 2024.06 (io_trps.svl 2023.06)
