@<TRIPOS>MOLECULE
NONAME
61 64 1 0 0 
SMALL
USER_CHARGES


@<TRIPOS>ATOM
  1 O       -0.4490     0.9650     1.1720 O.3   1 <1>  -0.3630 
  2 C       -0.7950    -0.2490     0.7580 C.ar  1 <1>   0.3920 
  3 C       -1.3540     1.9350     0.6650 C.3   1 <1>   0.2000 
  4 N       -0.0320    -1.2940     0.9490 N.ar  1 <1>  -0.6200 
  5 C       -1.9920    -0.2690     0.1110 C.ar  1 <1>  -0.1440 
  6 C       -2.5420     1.1300     0.0900 C.3   1 <1>  -0.0160 
  7 C       -0.6620     2.8210    -0.4080 C.3   1 <1>   0.1100 
  8 C       -0.5470    -2.4070     0.4550 C.ar  1 <1>   0.4770 
  9 C       -2.4280    -1.4790    -0.3630 C.ar  1 <1>   0.1660 
 10 N        0.7460     3.2330    -0.1460 N.3   1 <1>  -0.8100 
 11 N       -1.6980    -2.5630    -0.1900 N.ar  1 <1>  -0.6200 
 12 C        0.2700    -3.6610     0.6480 C.3   1 <1>  -0.0970 
 13 C       -3.7420    -1.6460    -1.0960 C.3   1 <1>  -0.0970 
 14 C        0.9100     3.8520     1.1980 C.3   1 <1>   0.1100 
 15 C        1.6960     2.1200    -0.3770 C.3   1 <1>   0.1100 
 16 C        2.2980     4.4920     1.3960 C.3   1 <1>   0.3430 
 17 C        2.9400     2.6240    -1.1170 C.3   1 <1>  -0.1600 
 18 N        2.8980     4.7760     0.0600 N.4   1 <1>  -0.9590 
 19 C        3.7740     3.6600    -0.3610 C.3   1 <1>   0.3430 
 20 C        3.5170     6.1160    -0.0900 C.3   1 <1>   0.3430 
 21 C        2.4390     7.1970    -0.0420 C.3   1 <1>  -0.1600 
 22 C        3.0250     8.5840    -0.3250 C.3   1 <1>  -0.0170 
 23 C        1.9260     9.6270    -0.2310 C.ar  1 <1>  -0.1430 
 24 C        1.6850    10.2850     0.9660 C.ar  1 <1>  -0.1500 
 25 C        1.1480     9.9240    -1.3390 C.ar  1 <1>  -0.1500 
 26 C        0.6750    11.2270     1.0540 C.ar  1 <1>  -0.1500 
 27 C        0.1370    10.8660    -1.2510 C.ar  1 <1>  -0.1500 
 28 C       -0.1000    11.5180    -0.0540 C.ar  1 <1>  -0.1500 
 29 H       -1.6790     2.5410     1.4920 H     1 <1>   0.0800 
 30 H       -2.8110     1.4430    -0.9030 H     1 <1>   0.0800 
 31 H       -3.3970     1.2080     0.7370 H     1 <1>   0.0800 
 32 H       -1.2570     3.7100    -0.5310 H     1 <1>   0.0800 
 33 H       -0.6950     2.3090    -1.3550 H     1 <1>   0.0800 
 34 H        1.2990    -3.4130     0.8350 H     1 <1>   0.0800 
 35 H        0.2140    -4.2730    -0.2330 H     1 <1>   0.0800 
 36 H       -0.1180    -4.2100     1.4840 H     1 <1>   0.0800 
 37 H       -4.2720    -0.7150    -1.1690 H     1 <1>   0.0800 
 38 H       -4.3560    -2.3550    -0.5710 H     1 <1>   0.0800 
 39 H       -3.5540    -2.0200    -2.0860 H     1 <1>   0.0800 
 40 H        0.7460     3.1240     1.9750 H     1 <1>   0.0800 
 41 H        0.1690     4.6240     1.3160 H     1 <1>   0.0800 
 42 H        1.2340     1.3610    -0.9880 H     1 <1>   0.0800 
 43 H        1.9680     1.6490     0.5550 H     1 <1>   0.0800 
 44 H        2.9290     3.8160     1.9490 H     1 <1>   0.0800 
 45 H        2.1930     5.3940     1.9740 H     1 <1>   0.0800 
 46 H        2.6410     3.0270    -2.0680 H     1 <1>   0.0800 
 47 H        3.5700     1.7780    -1.3240 H     1 <1>   0.0800 
 48 H        2.0700     4.6840    -0.5650 H     1 <1>   0.4500 
 49 H        4.5510     4.0240    -1.0150 H     1 <1>   0.0800 
 50 H        4.2400     3.2070     0.4990 H     1 <1>   0.0800 
 51 H        4.0210     6.1720    -1.0410 H     1 <1>   0.0800 
 52 H        4.2440     6.2790     0.6900 H     1 <1>   0.0800 
 53 H        1.9730     7.2200     0.9270 H     1 <1>   0.0800 
 54 H        1.6840     6.9880    -0.7800 H     1 <1>   0.0800 
 55 H        3.4620     8.6140    -1.3090 H     1 <1>   0.0800 
 56 H        3.8000     8.8170     0.3860 H     1 <1>   0.0800 
 57 H        2.2800    10.0730     1.8360 H     1 <1>   0.1500 
 58 H        1.3210     9.4270    -2.2770 H     1 <1>   0.1500 
 59 H        0.4920    11.7360     1.9850 H     1 <1>   0.1500 
 60 H       -0.4640    11.0930    -2.1140 H     1 <1>   0.1500 
 61 H       -0.8850    12.2500     0.0140 H     1 <1>   0.1500 
@<TRIPOS>BOND
  1   1   2  1   
  2   1   3  1   
  3   2   4  ar  
  4   2   5  ar  
  5   3   6  1   
  6   3   7  1   
  7   3  29  1   
  8   4   8  ar  
  9   5   6  1   
 10   5   9  ar  
 11   6  30  1   
 12   6  31  1   
 13   7  10  1   
 14   7  32  1   
 15   7  33  1   
 16   8  11  ar  
 17   8  12  1   
 18   9  11  ar  
 19   9  13  1   
 20  10  14  1   
 21  10  15  1   
 22  12  34  1   
 23  12  35  1   
 24  12  36  1   
 25  13  37  1   
 26  13  38  1   
 27  13  39  1   
 28  14  16  1   
 29  14  40  1   
 30  14  41  1   
 31  15  17  1   
 32  15  42  1   
 33  15  43  1   
 34  16  18  1   
 35  16  44  1   
 36  16  45  1   
 37  17  19  1   
 38  17  46  1   
 39  17  47  1   
 40  18  19  1   
 41  18  20  1   
 42  18  48  1   
 43  19  49  1   
 44  19  50  1   
 45  20  21  1   
 46  20  51  1   
 47  20  52  1   
 48  21  22  1   
 49  21  53  1   
 50  21  54  1   
 51  22  23  1   
 52  22  55  1   
 53  22  56  1   
 54  23  24  ar  
 55  23  25  ar  
 56  24  26  ar  
 57  24  57  1   
 58  25  27  ar  
 59  25  58  1   
 60  26  28  ar  
 61  26  59  1   
 62  27  28  ar  
 63  27  60  1   
 64  28  61  1   
@<TRIPOS>SUBSTRUCTURE
  1 ****  10 GROUP 4 **** **** 0

# MOE 2024.06 (io_trps.svl 2023.06)
