@<TRIPOS>MOLECULE
NONAME
52 54 1 0 0 
SMALL
USER_CHARGES


@<TRIPOS>ATOM
  1 O       -1.3350    -0.1190     0.2570 O.2   1 <1>  -0.5700 
  2 C       -2.0140     0.6840    -0.3630 C.2   1 <1>   0.5440 
  3 N       -3.1930     0.2210    -0.9100 N.am  1 <1>  -0.6600 
  4 C       -1.6130     2.0780    -0.4700 C.ar  1 <1>   0.0860 
  5 C       -3.3640    -1.2340    -1.1240 C.3   1 <1>   0.1400 
  6 C       -4.4780     0.9130    -0.6030 C.3   1 <1>   0.1400 
  7 C       -0.8630     2.6920     0.5300 C.ar  1 <1>  -0.1500 
  8 C       -1.9610     2.8560    -1.5730 C.ar  1 <1>  -0.1500 
  9 C       -4.0780    -1.7190     0.1450 C.3   1 <1>   0.4230 
 10 C       -5.2840     0.1320     0.4730 C.3   1 <1>  -0.1600 
 11 C       -0.4850     4.0230     0.4560 C.ar  1 <1>  -0.1440 
 12 C       -1.5930     4.1840    -1.6600 C.ar  1 <1>  -0.1500 
 13 N       -3.6330    -3.0400     0.7190 N.4   1 <1>  -0.9590 
 14 C       -5.6400    -1.3950     0.0470 C.3   1 <1>   0.0000 
 15 C       -0.8560     4.7800    -0.6490 C.ar  1 <1>  -0.1430 
 16 C        0.3330     4.6250     1.5910 C.3   1 <1>  -0.0970 
 17 C       -3.7940    -4.1700    -0.2060 C.3   1 <1>   0.3430 
 18 C       -2.2310    -2.9390     1.2380 C.3   1 <1>   0.2630 
 19 C       -6.0190    -2.8860    -0.4500 C.3   1 <1>  -0.1600 
 20 C       -7.2000    -1.0240     0.0370 C.3   1 <1>   0.1200 
 21 C       -0.4680     6.2460    -0.7800 C.3   1 <1>  -0.0970 
 22 C       -5.0190    -3.9040    -1.0580 C.3   1 <1>  -0.1600 
 23 O       -7.6370    -0.9890     1.3600 O.3   1 <1>  -0.6800 
 24 H       -3.9610    -1.3980    -2.0030 H     1 <1>   0.0800 
 25 H       -2.4060    -1.7060    -1.2510 H     1 <1>   0.0800 
 26 H       -4.2840     1.9110    -0.2460 H     1 <1>   0.0800 
 27 H       -5.0570     0.9950    -1.5090 H     1 <1>   0.0800 
 28 H       -0.5720     2.1030     1.3830 H     1 <1>   0.1500 
 29 H       -2.5240     2.4140    -2.3750 H     1 <1>   0.1500 
 30 H       -3.6470    -1.0700     0.8840 H     1 <1>   0.0800 
 31 H       -4.7700     0.1810     1.4210 H     1 <1>   0.0800 
 32 H       -6.0930     0.8090     0.6970 H     1 <1>   0.0800 
 33 H       -1.8810     4.7540    -2.5260 H     1 <1>   0.1500 
 34 H       -4.2650    -3.2030     1.5160 H     1 <1>   0.4500 
 35 H        0.5350     3.8950     2.3530 H     1 <1>   0.0800 
 36 H       -0.2020     5.4420     2.0390 H     1 <1>   0.0800 
 37 H        1.2740     4.9860     1.2150 H     1 <1>   0.0800 
 38 H       -2.9280    -4.2700    -0.8400 H     1 <1>   0.0800 
 39 H       -3.9200    -5.0830     0.3540 H     1 <1>   0.0800 
 40 H       -1.5420    -2.7460     0.4320 H     1 <1>   0.0800 
 41 H       -1.9420    -3.8530     1.7310 H     1 <1>   0.0800 
 42 H       -2.1510    -2.1270     1.9430 H     1 <1>   0.0800 
 43 H       -6.5230    -3.3910     0.3610 H     1 <1>   0.0800 
 44 H       -6.7020    -2.8510    -1.2840 H     1 <1>   0.0800 
 45 H       -7.9100    -1.6750    -0.4440 H     1 <1>   0.0800 
 46 H       -7.4170    -0.0780    -0.4340 H     1 <1>   0.0800 
 47 H       -0.8490     6.6670    -1.6920 H     1 <1>   0.0800 
 48 H        0.6030     6.3430    -0.7850 H     1 <1>   0.0800 
 49 H       -0.8680     6.8080     0.0440 H     1 <1>   0.0800 
 50 H       -4.6950    -3.5610    -2.0250 H     1 <1>   0.0800 
 51 H       -5.5200    -4.8410    -1.2310 H     1 <1>   0.0800 
 52 H       -8.5850    -0.7490     1.4150 H     1 <1>   0.4000 
@<TRIPOS>BOND
  1   1   2  2   
  2   2   3  am  
  3   2   4  1   
  4   3   5  1   
  5   3   6  1   
  6   4   7  ar  
  7   4   8  ar  
  8   5   9  1   
  9   5  24  1   
 10   5  25  1   
 11   6  10  1   
 12   6  26  1   
 13   6  27  1   
 14   7  11  ar  
 15   7  28  1   
 16   8  12  ar  
 17   8  29  1   
 18   9  13  1   
 19   9  14  1   
 20   9  30  1   
 21  10  14  1   
 22  10  31  1   
 23  10  32  1   
 24  11  15  ar  
 25  11  16  1   
 26  12  15  ar  
 27  12  33  1   
 28  13  17  1   
 29  13  18  1   
 30  13  34  1   
 31  14  19  1   
 32  14  20  1   
 33  15  21  1   
 34  16  35  1   
 35  16  36  1   
 36  16  37  1   
 37  17  22  1   
 38  17  38  1   
 39  17  39  1   
 40  18  40  1   
 41  18  41  1   
 42  18  42  1   
 43  19  22  1   
 44  19  43  1   
 45  19  44  1   
 46  20  23  1   
 47  20  45  1   
 48  20  46  1   
 49  21  47  1   
 50  21  48  1   
 51  21  49  1   
 52  22  50  1   
 53  22  51  1   
 54  23  52  1   
@<TRIPOS>SUBSTRUCTURE
  1 ****   3 GROUP 4 **** **** 0

# MOE 2024.06 (io_trps.svl 2023.06)
