@<TRIPOS>MOLECULE
NONAME
49 51 1 0 0 
SMALL
USER_CHARGES


@<TRIPOS>ATOM
  1 S       -1.7640    -0.6430     1.4320 S.o2  1 <1>   1.0900 
  2 O       -1.7140    -1.1000     2.8010 O.2   1 <1>  -0.6500 
  3 O       -1.7510     0.7590     1.0920 O.2   1 <1>  -0.6500 
  4 C       -3.1220    -1.4650     0.6490 C.3   1 <1>  -0.0550 
  5 C       -0.5140    -1.5280     0.5120 C.3   1 <1>  -0.0550 
  6 C       -2.6060    -2.8800     0.4030 C.3   1 <1>   0.1760 
  7 C       -1.1710    -2.7550    -0.1480 C.3   1 <1>  -0.1600 
  8 N       -3.4870    -3.6280    -0.5280 N.pl3 1 <1>   0.3140 
  9 N       -3.8820    -3.0870    -1.6950 N.2   1 <1>  -0.7070 
 10 C       -3.9660    -4.8890    -0.3780 C.2   1 <1>  -0.3320 
 11 C       -4.5970    -4.0060    -2.2670 C.2   1 <1>   0.1080 
 12 C       -4.6820    -5.1650    -1.4900 C.2   1 <1>   0.0630 
 13 C       -3.7000    -5.7790     0.8310 C.3   1 <1>  -0.0600 
 14 C       -5.2450    -3.7700    -3.6130 C.3   1 <1>  -0.0590 
 15 N       -5.3610    -6.3860    -1.7280 N.am  1 <1>  -0.4930 
 16 C       -5.5090    -7.1180    -2.8680 C.2   1 <1>   0.5690 
 17 O       -5.1260    -6.7560    -3.9540 O.2   1 <1>  -0.5700 
 18 C       -6.1850    -8.4760    -2.7640 C.3   1 <1>   0.0440 
 19 C       -6.3000    -8.9580    -1.3190 C.ar  1 <1>  -0.1440 
 20 C       -7.4840    -8.8030    -0.6140 C.ar  1 <1>  -0.1500 
 21 C       -5.2030    -9.5270    -0.6910 C.ar  1 <1>  -0.1500 
 22 C       -7.5720    -9.2070     0.7070 C.ar  1 <1>  -0.1500 
 23 C       -5.2880    -9.9300     0.6300 C.ar  1 <1>  -0.1500 
 24 C       -6.4680    -9.7720     1.3380 C.ar  1 <1>   0.0820 
 25 O       -6.4650   -10.1880     2.6280 O.3   1 <1>  -0.3620 
 26 C       -7.6370   -10.1560     3.4130 C.3   1 <1>   0.0400 
 27 H       -3.3410    -0.9850    -0.2860 H     1 <1>   0.0800 
 28 H       -3.9950    -1.4650     1.2720 H     1 <1>   0.0800 
 29 H        0.2780    -1.8310     1.1700 H     1 <1>   0.0800 
 30 H       -0.0980    -0.8940    -0.2490 H     1 <1>   0.0800 
 31 H       -2.5760    -3.3970     1.3460 H     1 <1>   0.0800 
 32 H       -0.6060    -3.6490     0.0500 H     1 <1>   0.0800 
 33 H       -1.2060    -2.5940    -1.2130 H     1 <1>   0.0800 
 34 H       -4.1060    -5.3300     1.7200 H     1 <1>   0.0800 
 35 H       -2.6420    -5.9230     0.9600 H     1 <1>   0.0800 
 36 H       -4.1550    -6.7450     0.7040 H     1 <1>   0.0800 
 37 H       -5.3930    -2.7180    -3.7700 H     1 <1>   0.0800 
 38 H       -6.1960    -4.2660    -3.6580 H     1 <1>   0.0800 
 39 H       -4.6090    -4.1540    -4.3890 H     1 <1>   0.0800 
 40 H       -5.6560    -6.8680    -0.8780 H     1 <1>   0.3700 
 41 H       -5.6150    -9.1850    -3.3350 H     1 <1>   0.0800 
 42 H       -7.1590    -8.4060    -3.2120 H     1 <1>   0.0800 
 43 H       -8.3460    -8.3650    -1.0880 H     1 <1>   0.1500 
 44 H       -4.2750    -9.6570    -1.2230 H     1 <1>   0.1500 
 45 H       -8.5020    -9.0740     1.2270 H     1 <1>   0.1500 
 46 H       -4.4400   -10.3720     1.1210 H     1 <1>   0.1500 
 47 H       -7.4030   -10.5630     4.3800 H     1 <1>   0.0800 
 48 H       -8.3920   -10.7560     2.9370 H     1 <1>   0.0800 
 49 H       -7.9610    -9.1360     3.5150 H     1 <1>   0.0800 
@<TRIPOS>BOND
  1   1   2  2   
  2   1   3  2   
  3   1   4  1   
  4   1   5  1   
  5   4   6  1   
  6   4  27  1   
  7   4  28  1   
  8   5   7  1   
  9   5  29  1   
 10   5  30  1   
 11   6   7  1   
 12   6   8  1   
 13   6  31  1   
 14   7  32  1   
 15   7  33  1   
 16   8   9  1   
 17   8  10  1   
 18   9  11  2   
 19  10  12  2   
 20  10  13  1   
 21  11  12  1   
 22  11  14  1   
 23  12  15  1   
 24  13  34  1   
 25  13  35  1   
 26  13  36  1   
 27  14  37  1   
 28  14  38  1   
 29  14  39  1   
 30  15  16  am  
 31  15  40  1   
 32  16  17  2   
 33  16  18  1   
 34  18  19  1   
 35  18  41  1   
 36  18  42  1   
 37  19  20  ar  
 38  19  21  ar  
 39  20  22  ar  
 40  20  43  1   
 41  21  23  ar  
 42  21  44  1   
 43  22  24  ar  
 44  22  45  1   
 45  23  24  ar  
 46  23  46  1   
 47  24  25  1   
 48  25  26  1   
 49  26  47  1   
 50  26  48  1   
 51  26  49  1   
@<TRIPOS>SUBSTRUCTURE
  1 ****  10 GROUP 4 **** **** 0

# MOE 2024.06 (io_trps.svl 2023.06)
