@<TRIPOS>MOLECULE
NONAME
51 54 1 0 0 
SMALL
USER_CHARGES


@<TRIPOS>ATOM
  1 O       -1.4140     0.4140    -0.8570 O.co2 1 <1>  -0.9000 
  2 C       -2.1960    -0.5500    -0.9950 C.2   1 <1>   0.9790 
  3 O       -3.3550    -0.2810    -1.3860 O.co2 1 <1>  -0.9000 
  4 C       -1.8180    -1.9510    -0.7000 C.ar  1 <1>   0.1310 
  5 N       -0.5270    -2.3380    -0.5590 N.ar  1 <1>  -0.6200 
  6 C       -2.8450    -2.8880    -0.5720 C.ar  1 <1>  -0.1500 
  7 C       -0.3020    -3.6130    -0.3030 C.ar  1 <1>   0.1600 
  8 C       -2.6050    -4.2260    -0.3080 C.ar  1 <1>   0.1000 
  9 C       -1.2780    -4.5760    -0.1720 C.ar  1 <1>  -0.1500 
 10 N       -3.6100    -5.1790    -0.1840 N.pl3 1 <1>  -0.8380 
 11 C       -3.8370    -5.7830     1.1510 C.3   1 <1>   0.2090 
 12 C       -4.8580    -5.0300    -0.9740 C.3   1 <1>   0.2090 
 13 C       -4.4080    -7.1870     0.9580 C.3   1 <1>  -0.1600 
 14 C       -5.4520    -6.4180    -1.2070 C.3   1 <1>  -0.1600 
 15 C       -5.6930    -7.1660     0.1160 C.3   1 <1>   0.4240 
 16 O       -6.6220    -6.4310     0.8790 O.3   1 <1>  -0.5600 
 17 C       -6.1880    -8.6070    -0.1430 C.ar  1 <1>  -0.1430 
 18 C       -7.9760    -6.6160     0.6030 C.3   1 <1>   0.1200 
 19 C       -7.4480    -9.0230     0.2660 C.ar  1 <1>  -0.1430 
 20 C       -5.3770    -9.5220    -0.8020 C.ar  1 <1>  -0.1500 
 21 C       -8.3610    -8.0440     0.9770 C.3   1 <1>  -0.0170 
 22 C       -7.8770   -10.3190     0.0250 C.ar  1 <1>  -0.1500 
 23 C       -5.7850   -10.8220    -1.0460 C.ar  1 <1>   0.0830 
 24 C       -7.0630   -11.2340    -0.6370 C.ar  1 <1>   0.0830 
 25 O       -4.8660   -11.5970    -1.6900 O.3   1 <1>  -0.3630 
 26 O       -7.4920   -12.5030    -0.9060 O.3   1 <1>  -0.3630 
 27 C       -4.7780   -12.9830    -1.4450 C.3   1 <1>   0.0400 
 28 C       -8.8190   -12.9160    -0.6630 C.3   1 <1>   0.0400 
 29 H       -3.8580    -2.5500    -0.6780 H     1 <1>   0.1500 
 30 H        0.7280    -3.9030    -0.1960 H     1 <1>   0.1500 
 31 H       -1.0200    -5.5960     0.0280 H     1 <1>   0.1500 
 32 H       -4.5270    -5.1710     1.7080 H     1 <1>   0.0800 
 33 H       -2.9110    -5.8320     1.6970 H     1 <1>   0.0800 
 34 H       -4.6360    -4.5620    -1.9180 H     1 <1>   0.0800 
 35 H       -5.5530    -4.4090    -0.4350 H     1 <1>   0.0800 
 36 H       -4.6170    -7.6340     1.9120 H     1 <1>   0.0800 
 37 H       -3.6570    -7.7830     0.4750 H     1 <1>   0.0800 
 38 H       -4.7570    -6.9720    -1.8110 H     1 <1>   0.0800 
 39 H       -6.3640    -6.3400    -1.7660 H     1 <1>   0.0800 
 40 H       -8.1560    -6.4260    -0.4400 H     1 <1>   0.0800 
 41 H       -8.5320    -5.9090     1.1920 H     1 <1>   0.0800 
 42 H       -4.3980    -9.2370    -1.1420 H     1 <1>   0.1500 
 43 H       -9.3840    -8.2180     0.6990 H     1 <1>   0.0800 
 44 H       -8.2710    -8.1720     2.0410 H     1 <1>   0.0800 
 45 H       -8.8550   -10.5970     0.3630 H     1 <1>   0.1500 
 46 H       -3.8030   -13.3160    -1.7490 H     1 <1>   0.0800 
 47 H       -5.5310   -13.4850    -2.0260 H     1 <1>   0.0800 
 48 H       -4.9210   -13.1650    -0.3950 H     1 <1>   0.0800 
 49 H       -8.9240   -13.9250    -1.0200 H     1 <1>   0.0800 
 50 H       -9.4900   -12.2680    -1.1990 H     1 <1>   0.0800 
 51 H       -9.0080   -12.8820     0.3950 H     1 <1>   0.0800 
@<TRIPOS>BOND
  1   1   2  ar  
  2   2   3  ar  
  3   2   4  1   
  4   4   5  ar  
  5   4   6  ar  
  6   5   7  ar  
  7   6   8  ar  
  8   6  29  1   
  9   7   9  ar  
 10   7  30  1   
 11   8   9  ar  
 12   8  10  1   
 13   9  31  1   
 14  10  11  1   
 15  10  12  1   
 16  11  13  1   
 17  11  32  1   
 18  11  33  1   
 19  12  14  1   
 20  12  34  1   
 21  12  35  1   
 22  13  15  1   
 23  13  36  1   
 24  13  37  1   
 25  14  15  1   
 26  14  38  1   
 27  14  39  1   
 28  15  16  1   
 29  15  17  1   
 30  16  18  1   
 31  17  19  ar  
 32  17  20  ar  
 33  18  21  1   
 34  18  40  1   
 35  18  41  1   
 36  19  21  1   
 37  19  22  ar  
 38  20  23  ar  
 39  20  42  1   
 40  21  43  1   
 41  21  44  1   
 42  22  24  ar  
 43  22  45  1   
 44  23  24  ar  
 45  23  25  1   
 46  24  26  1   
 47  25  27  1   
 48  26  28  1   
 49  27  46  1   
 50  27  47  1   
 51  27  48  1   
 52  28  49  1   
 53  28  50  1   
 54  28  51  1   
@<TRIPOS>SUBSTRUCTURE
  1 ****  14 GROUP 4 **** **** 0

# MOE 2024.06 (io_trps.svl 2023.06)
