@<TRIPOS>MOLECULE
NONAME
55 57 1 0 0 
SMALL
USER_CHARGES


@<TRIPOS>ATOM
  1 O       -1.3060     1.0050    -3.2210 O.2   1 <1>  -0.5700 
  2 C       -1.8440     1.2580    -2.1700 C.2   1 <1>   0.5690 
  3 N       -2.6530     0.3530    -1.5270 N.am  1 <1>  -0.6600 
  4 C       -1.5680     2.6220    -1.5750 C.3   1 <1>  -0.0990 
  5 C       -3.2650     0.6050    -0.1820 C.3   1 <1>   0.1400 
  6 C       -2.9590    -0.9600    -2.1700 C.3   1 <1>   0.1400 
  7 C       -0.3340     2.5450    -0.6800 C.3   1 <1>   0.1400 
  8 C       -3.6790    -0.7080     0.4800 C.3   1 <1>  -0.1600 
  9 C       -4.4030    -1.3770    -1.8800 C.3   1 <1>  -0.1600 
 10 N       -0.2110     3.7950     0.1030 N.am  1 <1>  -0.7300 
 11 C       -4.7240    -1.4480    -0.3700 C.3   1 <1>   0.4240 
 12 C       -0.8080     3.9980     1.3020 C.2   1 <1>   0.5690 
 13 O       -5.9140    -0.7260    -0.1670 O.3   1 <1>  -0.5600 
 14 C       -4.8630    -2.9110     0.1070 C.ar  1 <1>  -0.1440 
 15 O       -1.5240     3.1740     1.8140 O.2   1 <1>  -0.5700 
 16 C       -0.5700     5.3090     2.0040 C.3   1 <1>  -0.1790 
 17 C       -7.1110    -1.3820    -0.4470 C.3   1 <1>   0.1200 
 18 C       -6.0790    -3.4140     0.5510 C.ar  1 <1>  -0.1440 
 19 C       -3.7690    -3.7660     0.0850 C.ar  1 <1>  -0.1500 
 20 C       -7.2960    -2.5100     0.5640 C.3   1 <1>  -0.0170 
 21 C       -6.1870    -4.7300     0.9720 C.ar  1 <1>  -0.1500 
 22 C       -3.8560    -5.0820     0.5060 C.ar  1 <1>   0.0820 
 23 C       -5.0890    -5.5850     0.9520 C.ar  1 <1>   0.0820 
 24 O       -2.6830    -5.7760     0.4320 O.3   1 <1>  -0.3620 
 25 O       -5.1990    -6.8910     1.3370 O.3   1 <1>  -0.3620 
 26 C       -2.4040    -6.8540     1.2980 C.3   1 <1>   0.0400 
 27 C       -6.4380    -7.4770     1.6700 C.3   1 <1>   0.0400 
 28 H       -2.4200     2.9610    -1.0180 H     1 <1>   0.0800 
 29 H       -1.3900     3.3180    -2.3730 H     1 <1>   0.0800 
 30 H       -4.1300     1.2360    -0.3000 H     1 <1>   0.0800 
 31 H       -2.5640     1.1110     0.4590 H     1 <1>   0.0800 
 32 H       -2.2740    -1.7010    -1.7960 H     1 <1>   0.0800 
 33 H       -2.8210    -0.8910    -3.2360 H     1 <1>   0.0800 
 34 H        0.5500     2.3940    -1.2770 H     1 <1>   0.0800 
 35 H       -0.4250     1.7130    -0.0020 H     1 <1>   0.0800 
 36 H       -4.0880    -0.5160     1.4560 H     1 <1>   0.0800 
 37 H       -2.7980    -1.3040     0.6200 H     1 <1>   0.0800 
 38 H       -4.5840    -2.3340    -2.3340 H     1 <1>   0.0800 
 39 H       -5.0460    -0.6620    -2.3610 H     1 <1>   0.0800 
 40 H        0.3570     4.5340    -0.3140 H     1 <1>   0.3700 
 41 H        0.4820     5.4520     2.1610 H     1 <1>   0.0800 
 42 H       -1.0670     5.3050     2.9560 H     1 <1>   0.0800 
 43 H       -0.9600     6.1130     1.4100 H     1 <1>   0.0800 
 44 H       -7.0780    -1.7630    -1.4530 H     1 <1>   0.0800 
 45 H       -7.9080    -0.6650    -0.3650 H     1 <1>   0.0800 
 46 H       -2.8140    -3.4190    -0.2630 H     1 <1>   0.1500 
 47 H       -8.1790    -3.0680     0.3120 H     1 <1>   0.0800 
 48 H       -7.4270    -2.0910     1.5460 H     1 <1>   0.0800 
 49 H       -7.1450    -5.0710     1.3120 H     1 <1>   0.1500 
 50 H       -1.3430    -7.0260     1.2880 H     1 <1>   0.0800 
 51 H       -2.9170    -7.7280     0.9400 H     1 <1>   0.0800 
 52 H       -2.7280    -6.6000     2.2920 H     1 <1>   0.0800 
 53 H       -6.2680    -8.5170     1.8830 H     1 <1>   0.0800 
 54 H       -7.1060    -7.3820     0.8320 H     1 <1>   0.0800 
 55 H       -6.8350    -6.9860     2.5410 H     1 <1>   0.0800 
@<TRIPOS>BOND
  1   1   2  2   
  2   2   3  am  
  3   2   4  1   
  4   3   5  1   
  5   3   6  1   
  6   4   7  1   
  7   4  28  1   
  8   4  29  1   
  9   5   8  1   
 10   5  30  1   
 11   5  31  1   
 12   6   9  1   
 13   6  32  1   
 14   6  33  1   
 15   7  10  1   
 16   7  34  1   
 17   7  35  1   
 18   8  11  1   
 19   8  36  1   
 20   8  37  1   
 21   9  11  1   
 22   9  38  1   
 23   9  39  1   
 24  10  12  am  
 25  10  40  1   
 26  11  13  1   
 27  11  14  1   
 28  12  15  2   
 29  12  16  1   
 30  13  17  1   
 31  14  18  ar  
 32  14  19  ar  
 33  16  41  1   
 34  16  42  1   
 35  16  43  1   
 36  17  20  1   
 37  17  44  1   
 38  17  45  1   
 39  18  20  1   
 40  18  21  ar  
 41  19  22  ar  
 42  19  46  1   
 43  20  47  1   
 44  20  48  1   
 45  21  23  ar  
 46  21  49  1   
 47  22  23  ar  
 48  22  24  1   
 49  23  25  1   
 50  24  26  1   
 51  25  27  1   
 52  26  50  1   
 53  26  51  1   
 54  26  52  1   
 55  27  53  1   
 56  27  54  1   
 57  27  55  1   
@<TRIPOS>SUBSTRUCTURE
  1 ****   8 GROUP 4 **** **** 0

# MOE 2024.06 (io_trps.svl 2023.06)
