@<TRIPOS>MOLECULE
NONAME
47 50 1 0 0 
SMALL
USER_CHARGES


@<TRIPOS>ATOM
  1 S       -0.8160    -1.0910     1.1250 S.3   1 <1>  -0.0800 
  2 C       -0.3240    -2.0030    -0.2680 C.2   1 <1>   0.4420 
  3 C       -0.1590     0.3100     0.3510 C.2   1 <1>   0.1980 
  4 N        0.2520    -1.2720    -1.1480 N.2   1 <1>  -0.3380 
  5 N       -0.5580    -3.3560    -0.3890 N.am  1 <1>  -0.4940 
  6 N        0.3460     0.0430    -0.7900 N.2   1 <1>  -0.3380 
  7 C       -0.2620     1.6360     1.1070 C.3   1 <1>   0.3800 
  8 C       -1.1170    -4.2620     0.4690 C.2   1 <1>   0.5690 
  9 O       -1.5970     2.0370     1.1630 O.3   1 <1>  -0.5600 
 10 C        0.4360     2.8080     0.4230 C.3   1 <1>  -0.1600 
 11 O       -1.4580    -3.9920     1.5940 O.2   1 <1>  -0.5700 
 12 C       -1.3460    -5.6960    -0.0320 C.3   1 <1>   0.1710 
 13 C       -1.9330     2.7480     0.0130 C.3   1 <1>   0.1200 
 14 C       -0.6370     3.3780    -0.4940 C.3   1 <1>  -0.1600 
 15 N       -2.7440    -6.0130    -0.4550 N.3   1 <1>  -0.8100 
 16 C       -3.6870    -5.8570     0.6810 C.3   1 <1>   0.2780 
 17 C       -3.1500    -5.2290    -1.6330 C.3   1 <1>   0.0300 
 18 C       -5.0750    -6.4250     0.3800 C.2   1 <1>   0.1820 
 19 N       -5.3070    -7.7090    -0.0840 N.pl3 1 <1>  -0.6290 
 20 C       -6.2690    -5.8130     0.5100 C.2   1 <1>   0.2000 
 21 C       -6.6440    -7.8510    -0.2240 C.cat 1 <1>   0.7910 
 22 C       -4.4540    -8.7360    -0.4230 C.2   1 <1>   0.2290 
 23 N       -7.2420    -6.7030     0.1360 N.pl3 1 <1>  -0.7000 
 24 C       -7.1890    -9.0600    -0.6880 C.2   1 <1>  -0.1410 
 25 C       -4.9630    -9.9180    -0.8800 C.2   1 <1>  -0.1500 
 26 C       -6.3550   -10.0960    -1.0160 C.2   1 <1>  -0.1500 
 27 H       -0.2570    -3.7140    -1.2920 H     1 <1>   0.3700 
 28 H        0.0950     1.5060     2.1140 H     1 <1>   0.0800 
 29 H        1.3210     2.5060    -0.1090 H     1 <1>   0.0800 
 30 H        0.7070     3.5320     1.1690 H     1 <1>   0.0800 
 31 H       -1.0650    -6.3660     0.7620 H     1 <1>   0.0800 
 32 H       -0.6800    -5.8920    -0.8530 H     1 <1>   0.0800 
 33 H       -2.6750     3.4850     0.2670 H     1 <1>   0.0800 
 34 H       -2.3340     2.0530    -0.7060 H     1 <1>   0.0800 
 35 H       -0.4690     3.0860    -1.5160 H     1 <1>   0.0800 
 36 H       -0.6780     4.4520    -0.4370 H     1 <1>   0.0800 
 37 H       -3.7780    -4.8170     0.9440 H     1 <1>   0.0800 
 38 H       -3.2930    -6.3770     1.5380 H     1 <1>   0.0800 
 39 H       -2.4360    -5.3610    -2.4290 H     1 <1>   0.0800 
 40 H       -3.2180    -4.1800    -1.3950 H     1 <1>   0.0800 
 41 H       -4.1070    -5.5660    -1.9930 H     1 <1>   0.0800 
 42 H       -6.4820    -4.8090     0.8460 H     1 <1>   0.1500 
 43 H       -3.3920    -8.5730    -0.3180 H     1 <1>   0.1500 
 44 H       -8.2520    -6.5410     0.1250 H     1 <1>   0.4500 
 45 H       -8.2550    -9.1460    -0.7790 H     1 <1>   0.1500 
 46 H       -4.3080   -10.7310    -1.1450 H     1 <1>   0.1500 
 47 H       -6.7340   -11.0400    -1.3760 H     1 <1>   0.1500 
@<TRIPOS>BOND
  1   1   2  1   
  2   1   3  1   
  3   2   4  2   
  4   2   5  1   
  5   3   6  2   
  6   3   7  1   
  7   4   6  1   
  8   5   8  am  
  9   5  27  1   
 10   7   9  1   
 11   7  10  1   
 12   7  28  1   
 13   8  11  2   
 14   8  12  1   
 15   9  13  1   
 16  10  14  1   
 17  10  29  1   
 18  10  30  1   
 19  12  15  1   
 20  12  31  1   
 21  12  32  1   
 22  13  14  1   
 23  13  33  1   
 24  13  34  1   
 25  14  35  1   
 26  14  36  1   
 27  15  16  1   
 28  15  17  1   
 29  16  18  1   
 30  16  37  1   
 31  16  38  1   
 32  17  39  1   
 33  17  40  1   
 34  17  41  1   
 35  18  19  1   
 36  18  20  2   
 37  19  21  ar  
 38  19  22  1   
 39  20  23  1   
 40  20  42  1   
 41  21  23  ar  
 42  21  24  1   
 43  22  25  2   
 44  22  43  1   
 45  23  44  1   
 46  24  26  2   
 47  24  45  1   
 48  25  26  1   
 49  25  46  1   
 50  26  47  1   
@<TRIPOS>SUBSTRUCTURE
  1 ****   8 GROUP 4 **** **** 0

# MOE 2024.06 (io_trps.svl 2023.06)
