@<TRIPOS>MOLECULE
NONAME
41 43 1 0 0 
SMALL
USER_CHARGES


@<TRIPOS>ATOM
  1 O       -0.0380    -0.5870     1.1720 O.2   1 <1>  -0.5700 
  2 C       -0.0490    -1.8000     1.0090 C.2   1 <1>   0.6160 
  3 N        0.6900    -2.3870    -0.0070 N.am  1 <1>  -0.4690 
  4 C       -0.8130    -2.6550     1.8480 C.2   1 <1>  -0.1360 
  5 C        0.6590    -3.7500    -0.1930 C.2   1 <1>  -0.0410 
  6 C        1.5270    -1.5290    -0.8840 C.3   1 <1>   0.0600 
  7 C       -0.8390    -4.0010     1.6540 C.2   1 <1>  -0.1500 
  8 C       -0.0950    -4.5910     0.5870 C.2   1 <1>   0.0140 
  9 C       -0.1230    -6.0160     0.3530 C.2   1 <1>   0.6160 
 10 O        0.9100    -6.6000     0.0780 O.2   1 <1>  -0.5700 
 11 N       -1.2920    -6.7440     0.4080 N.am  1 <1>  -0.6600 
 12 C       -2.6400    -6.1750     0.1470 C.3   1 <1>   0.1400 
 13 C       -1.3070    -8.2160     0.2040 C.3   1 <1>   0.1400 
 14 C       -3.4680    -7.3440    -0.3840 C.3   1 <1>   0.2000 
 15 C       -2.7870    -8.6010     0.1490 C.3   1 <1>  -0.0800 
 16 O       -4.7790    -7.2880     0.0620 O.3   1 <1>  -0.6800 
 17 C       -3.0870    -9.8460    -0.7040 C.3   1 <1>  -0.0170 
 18 C       -2.4620   -11.0990    -0.1120 C.ar  1 <1>   0.1670 
 19 N       -1.1850   -11.3100    -0.3880 N.ar  1 <1>  -0.6200 
 20 C       -3.2290   -11.9530     0.6780 C.ar  1 <1>   0.1600 
 21 C       -0.7310   -12.4180     0.1730 C.ar  1 <1>   0.1600 
 22 N       -2.7770   -13.0600     1.2430 N.ar  1 <1>  -0.6200 
 23 C       -1.5010   -13.2640     0.9630 C.ar  1 <1>   0.1600 
 24 H       -1.3580    -2.1760     2.6380 H     1 <1>   0.1500 
 25 H        1.2580    -4.1600    -0.9910 H     1 <1>   0.1500 
 26 H        2.0510    -2.1230    -1.6100 H     1 <1>   0.0800 
 27 H        2.2430    -0.9940    -0.2830 H     1 <1>   0.0800 
 28 H        0.9000    -0.8180    -1.3930 H     1 <1>   0.0800 
 29 H       -1.4030    -4.6500     2.3010 H     1 <1>   0.1500 
 30 H       -3.0540    -5.8060     1.0680 H     1 <1>   0.0800 
 31 H       -2.5850    -5.3840    -0.5810 H     1 <1>   0.0800 
 32 H       -0.8150    -8.4500    -0.7270 H     1 <1>   0.0800 
 33 H       -0.7940    -8.7200     1.0060 H     1 <1>   0.0800 
 34 H       -3.4730    -7.3280    -1.4620 H     1 <1>   0.0800 
 35 H       -3.1050    -8.7770     1.1620 H     1 <1>   0.0800 
 36 H       -4.8110    -7.3190     1.0380 H     1 <1>   0.4000 
 37 H       -2.7130    -9.7060    -1.7040 H     1 <1>   0.0800 
 38 H       -4.1520    -9.9770    -0.7740 H     1 <1>   0.0800 
 39 H       -4.2620   -11.7090     0.8530 H     1 <1>   0.1500 
 40 H        0.3000   -12.6700     0.0010 H     1 <1>   0.1500 
 41 H       -1.0420   -14.1440     1.3770 H     1 <1>   0.1500 
@<TRIPOS>BOND
  1   1   2  2   
  2   2   3  am  
  3   2   4  1   
  4   3   5  1   
  5   3   6  1   
  6   4   7  2   
  7   4  24  1   
  8   5   8  2   
  9   5  25  1   
 10   6  26  1   
 11   6  27  1   
 12   6  28  1   
 13   7   8  1   
 14   7  29  1   
 15   8   9  1   
 16   9  10  2   
 17   9  11  am  
 18  11  12  1   
 19  11  13  1   
 20  12  14  1   
 21  12  30  1   
 22  12  31  1   
 23  13  15  1   
 24  13  32  1   
 25  13  33  1   
 26  14  15  1   
 27  14  16  1   
 28  14  34  1   
 29  15  17  1   
 30  15  35  1   
 31  16  36  1   
 32  17  18  1   
 33  17  37  1   
 34  17  38  1   
 35  18  19  ar  
 36  18  20  ar  
 37  19  21  ar  
 38  20  22  ar  
 39  20  39  1   
 40  21  23  ar  
 41  21  40  1   
 42  22  23  ar  
 43  23  41  1   
@<TRIPOS>SUBSTRUCTURE
  1 ****  11 GROUP 4 **** **** 0

# MOE 2024.06 (io_trps.svl 2023.06)
