@<TRIPOS>MOLECULE
NONAME
40 41 1 0 0 
SMALL
USER_CHARGES


@<TRIPOS>ATOM
  1 F        1.4090     4.3660     0.5880 F     1 <1>  -0.3400 
  2 C        1.3370     3.3670     1.4610 C.3   1 <1>   0.9600 
  3 F        1.2810     3.9780     2.6420 F     1 <1>  -0.3400 
  4 O        2.5930     2.6900     1.4440 O.3   1 <1>  -0.3630 
  5 C        0.0340     2.5320     1.2540 C.3   1 <1>   0.6000 
  6 C        2.8100     1.6220     0.6440 C.ar  1 <1>   0.0830 
  7 F       -0.0740     1.5350     2.1370 F     1 <1>  -0.3400 
  8 F       -0.0330     1.9310     0.0650 F     1 <1>  -0.3400 
  9 C        3.0910     1.7600    -0.7220 C.ar  1 <1>   0.0860 
 10 C        2.7790     0.3700     1.2390 C.ar  1 <1>  -0.1500 
 11 C        3.1730     3.0450    -1.3760 C.2   1 <1>   0.5440 
 12 C        3.2910     0.5940    -1.4620 C.ar  1 <1>  -0.1500 
 13 C        2.9940    -0.7680     0.4850 C.ar  1 <1>  -0.1500 
 14 O        2.2790     3.3790    -2.1300 O.2   1 <1>  -0.5700 
 15 N        4.2410     3.8940    -1.1930 N.am  1 <1>  -0.6600 
 16 C        3.2450    -0.6540    -0.8710 C.ar  1 <1>  -0.1500 
 17 C        4.1510     5.3160    -1.6710 C.3   1 <1>   0.3200 
 18 C        5.6030     3.4020    -0.8490 C.3   1 <1>   0.1400 
 19 C        4.6180     6.3270    -0.6340 C.2   1 <1>   0.2980 
 20 C        5.8760     3.5100     0.6510 C.3   1 <1>  -0.2400 
 21 O        3.8920     6.5010     0.4430 O.3   1 <1>  -0.0190 
 22 N        5.6700     7.0440    -0.7080 N.2   1 <1>  -0.5650 
 23 N        4.5390     7.4060     1.1130 N.2   1 <1>  -0.4100 
 24 C        5.5690     7.7090     0.4310 C.2   1 <1>   0.3350 
 25 C        6.6100     8.7250     0.8350 C.3   1 <1>  -0.0590 
 26 H       -0.8410     3.1470     1.3510 H     1 <1>   0.0800 
 27 H        2.5830     0.2850     2.2940 H     1 <1>   0.1500 
 28 H        3.4810     0.6790    -2.5180 H     1 <1>   0.1500 
 29 H        2.9620    -1.7400     0.9490 H     1 <1>   0.1500 
 30 H        3.4030    -1.5400    -1.4640 H     1 <1>   0.1500 
 31 H        3.1380     5.5640    -1.9310 H     1 <1>   0.0800 
 32 H        4.7510     5.4220    -2.5560 H     1 <1>   0.0800 
 33 H        6.3390     3.9750    -1.3890 H     1 <1>   0.0800 
 34 H        5.7040     2.3740    -1.1550 H     1 <1>   0.0800 
 35 H        5.7960     4.5260     0.9900 H     1 <1>   0.0800 
 36 H        6.8740     3.1700     0.8560 H     1 <1>   0.0800 
 37 H        5.1960     2.8970     1.2090 H     1 <1>   0.0800 
 38 H        6.6610     9.5010     0.0940 H     1 <1>   0.0800 
 39 H        7.5680     8.2460     0.9120 H     1 <1>   0.0800 
 40 H        6.3540     9.1580     1.7840 H     1 <1>   0.0800 
@<TRIPOS>BOND
  1   1   2  1   
  2   2   3  1   
  3   2   4  1   
  4   2   5  1   
  5   4   6  1   
  6   5   7  1   
  7   5   8  1   
  8   5  26  1   
  9   6   9  ar  
 10   6  10  ar  
 11   9  11  1   
 12   9  12  ar  
 13  10  13  ar  
 14  10  27  1   
 15  11  14  2   
 16  11  15  am  
 17  12  16  ar  
 18  12  28  1   
 19  13  16  ar  
 20  13  29  1   
 21  15  17  1   
 22  15  18  1   
 23  16  30  1   
 24  17  19  1   
 25  17  31  1   
 26  17  32  1   
 27  18  20  1   
 28  18  33  1   
 29  18  34  1   
 30  19  21  1   
 31  19  22  2   
 32  20  35  1   
 33  20  36  1   
 34  20  37  1   
 35  21  23  1   
 36  22  24  1   
 37  23  24  2   
 38  24  25  1   
 39  25  38  1   
 40  25  39  1   
 41  25  40  1   
@<TRIPOS>SUBSTRUCTURE
  1 ****  11 GROUP 4 **** **** 0

# MOE 2024.06 (io_trps.svl 2023.06)
