@<TRIPOS>MOLECULE
NONAME
31 31 1 0 0 
SMALL
USER_CHARGES


@<TRIPOS>ATOM
  1 F       -0.1550    -0.6940     1.8160 F     1 <1>  -0.1900 
  2 C       -0.2460    -1.8730     1.2550 C.ar  1 <1>   0.1900 
  3 C       -0.8860    -1.9950     0.0290 C.ar  1 <1>  -0.1440 
  4 C        0.3050    -2.9530     1.9170 C.ar  1 <1>  -0.1500 
  5 C       -0.9670    -3.2600    -0.5340 C.ar  1 <1>  -0.1500 
  6 C       -1.4760    -0.7870    -0.6810 C.3   1 <1>  -0.0960 
  7 C        0.2110    -4.2040     1.3350 C.ar  1 <1>  -0.1500 
  8 C       -0.4270    -4.3660     0.1130 C.ar  1 <1>  -0.1440 
  9 C       -0.5340    -5.7620    -0.5100 C.3   1 <1>   0.2280 
 10 N       -1.3710    -6.6380     0.4040 N.3   1 <1>  -0.8100 
 11 C        0.8510    -6.3030    -0.9880 C.2   1 <1>   0.9060 
 12 C       -1.0850    -8.0940     0.1500 C.3   1 <1>   0.1100 
 13 C       -2.7930    -6.2870     0.3030 C.3   1 <1>   0.0300 
 14 O        0.9850    -6.5540    -2.1960 O.co2 1 <1>  -0.9000 
 15 O        1.7620    -6.5620    -0.1840 O.co2 1 <1>  -0.9000 
 16 C       -1.8590    -9.1850     0.9400 C.3   1 <1>   1.0200 
 17 F       -1.3460   -10.3960     0.7460 F     1 <1>  -0.3400 
 18 F       -3.1370    -9.2770     0.5790 F     1 <1>  -0.3400 
 19 F       -1.8630    -8.9960     2.2560 F     1 <1>  -0.3400 
 20 H        0.7980    -2.8210     2.8610 H     1 <1>   0.1500 
 21 H       -1.4510    -3.3940    -1.4850 H     1 <1>   0.1500 
 22 H       -2.2270    -0.3300    -0.0620 H     1 <1>   0.0800 
 23 H       -1.9260    -1.0710    -1.6150 H     1 <1>   0.0800 
 24 H       -0.7020    -0.0670    -0.8780 H     1 <1>   0.0800 
 25 H        0.6350    -5.0700     1.8190 H     1 <1>   0.1500 
 26 H       -1.0830    -5.6600    -1.4270 H     1 <1>   0.0800 
 27 H       -0.0480    -8.2660     0.3760 H     1 <1>   0.0800 
 28 H       -1.2190    -8.2980    -0.8970 H     1 <1>   0.0800 
 29 H       -2.9210    -5.2290     0.4610 H     1 <1>   0.0800 
 30 H       -3.3570    -6.8000     1.0620 H     1 <1>   0.0800 
 31 H       -3.1780    -6.5470    -0.6680 H     1 <1>   0.0800 
@<TRIPOS>BOND
  1   1   2  1   
  2   2   3  ar  
  3   2   4  ar  
  4   3   5  ar  
  5   3   6  1   
  6   4   7  ar  
  7   4  20  1   
  8   5   8  ar  
  9   5  21  1   
 10   6  22  1   
 11   6  23  1   
 12   6  24  1   
 13   7   8  ar  
 14   7  25  1   
 15   8   9  1   
 16   9  10  1   
 17   9  11  1   
 18   9  26  1   
 19  10  12  1   
 20  10  13  1   
 21  11  14  ar  
 22  11  15  ar  
 23  12  16  1   
 24  12  27  1   
 25  12  28  1   
 26  13  29  1   
 27  13  30  1   
 28  13  31  1   
 29  16  17  1   
 30  16  18  1   
 31  16  19  1   
@<TRIPOS>SUBSTRUCTURE
  1 ****   9 GROUP 4 **** **** 0

# MOE 2024.06 (io_trps.svl 2023.06)
