@<TRIPOS>MOLECULE
NONAME
45 47 1 0 0 
SMALL
USER_CHARGES


@<TRIPOS>ATOM
  1 O        1.6450     1.0520    -1.7270 O.3   1 <1>  -0.5600 
  2 C        1.4200     0.5650    -0.4450 C.3   1 <1>   0.1200 
  3 C        1.8370     2.4270    -1.8280 C.3   1 <1>   0.1200 
  4 C        2.6880     0.7880     0.3830 C.3   1 <1>  -0.1600 
  5 C        3.1340     2.7860    -1.1000 C.3   1 <1>  -0.1600 
  6 C        3.0730     2.2680     0.3440 C.3   1 <1>   0.4230 
  7 N        4.3440     2.4920     1.0960 N.4   1 <1>  -0.9590 
  8 C        4.5610     3.9640     1.3830 C.3   1 <1>   0.3430 
  9 C        5.5720     1.8830     0.4380 C.3   1 <1>   0.3430 
 10 C        5.8600     4.2290     2.1710 C.3   1 <1>   0.2090 
 11 C        6.8730     2.1610     1.2190 C.3   1 <1>   0.2090 
 12 N        7.0140     3.6250     1.4470 N.pl3 1 <1>  -0.8380 
 13 C        7.6900     4.3610     0.5000 C.ar  1 <1>   0.7200 
 14 N        8.8860     3.9090     0.1480 N.ar  1 <1>  -0.6200 
 15 N        7.0580     5.4200    -0.0010 N.ar  1 <1>  -0.6200 
 16 C        9.5290     4.6130    -0.7490 C.ar  1 <1>   0.1670 
 17 C        7.7200     6.1110    -0.8970 C.ar  1 <1>   0.1670 
 18 C        8.9800     5.7430    -1.3080 C.ar  1 <1>  -0.1500 
 19 C       10.9080     4.1310    -1.1440 C.3   1 <1>  -0.0970 
 20 C        7.0410     7.3390    -1.4660 C.3   1 <1>  -0.0970 
 21 H        1.1990    -0.4860    -0.5280 H     1 <1>   0.0800 
 22 H        0.5660     1.0690    -0.0250 H     1 <1>   0.0800 
 23 H        0.9820     2.9300    -1.4080 H     1 <1>   0.0800 
 24 H        1.9070     2.6720    -2.8740 H     1 <1>   0.0800 
 25 H        3.4600     0.1700    -0.0370 H     1 <1>   0.0800 
 26 H        2.5010     0.4750     1.3940 H     1 <1>   0.0800 
 27 H        3.2540     3.8530    -1.1200 H     1 <1>   0.0800 
 28 H        3.9410     2.3370    -1.6490 H     1 <1>   0.0800 
 29 H        2.2850     2.8100     0.8430 H     1 <1>   0.0800 
 30 H        4.2420     2.0290     2.0060 H     1 <1>   0.4500 
 31 H        3.7270     4.3600     1.9380 H     1 <1>   0.0800 
 32 H        4.6300     4.5080     0.4550 H     1 <1>   0.0800 
 33 H        5.6960     2.2980    -0.5480 H     1 <1>   0.0800 
 34 H        5.4480     0.8190     0.3340 H     1 <1>   0.0800 
 35 H        5.7920     3.8040     3.1570 H     1 <1>   0.0800 
 36 H        6.0080     5.2900     2.2880 H     1 <1>   0.0800 
 37 H        7.7110     1.7790     0.6600 H     1 <1>   0.0800 
 38 H        6.8590     1.6490     2.1650 H     1 <1>   0.0800 
 39 H        9.5160     6.3160    -2.0400 H     1 <1>   0.1500 
 40 H       10.8410     3.1380    -1.5500 H     1 <1>   0.0800 
 41 H       11.5420     4.1070    -0.2760 H     1 <1>   0.0800 
 42 H       11.3500     4.7780    -1.8790 H     1 <1>   0.0800 
 43 H        6.8070     8.0220    -0.6690 H     1 <1>   0.0800 
 44 H        6.1290     7.0540    -1.9590 H     1 <1>   0.0800 
 45 H        7.6760     7.8390    -2.1730 H     1 <1>   0.0800 
@<TRIPOS>BOND
  1   1   2  1   
  2   1   3  1   
  3   2   4  1   
  4   2  21  1   
  5   2  22  1   
  6   3   5  1   
  7   3  23  1   
  8   3  24  1   
  9   4   6  1   
 10   4  25  1   
 11   4  26  1   
 12   5   6  1   
 13   5  27  1   
 14   5  28  1   
 15   6   7  1   
 16   6  29  1   
 17   7   8  1   
 18   7   9  1   
 19   7  30  1   
 20   8  10  1   
 21   8  31  1   
 22   8  32  1   
 23   9  11  1   
 24   9  33  1   
 25   9  34  1   
 26  10  12  1   
 27  10  35  1   
 28  10  36  1   
 29  11  12  1   
 30  11  37  1   
 31  11  38  1   
 32  12  13  1   
 33  13  14  ar  
 34  13  15  ar  
 35  14  16  ar  
 36  15  17  ar  
 37  16  18  ar  
 38  16  19  1   
 39  17  18  ar  
 40  17  20  1   
 41  18  39  1   
 42  19  40  1   
 43  19  41  1   
 44  19  42  1   
 45  20  43  1   
 46  20  44  1   
 47  20  45  1   
@<TRIPOS>SUBSTRUCTURE
  1 ****   9 GROUP 4 **** **** 0

# MOE 2024.06 (io_trps.svl 2023.06)
