@<TRIPOS>MOLECULE
NONAME
38 40 1 0 0 
SMALL
USER_CHARGES


@<TRIPOS>ATOM
  1 O       -0.5200    -0.4430     0.5790 O.3   1 <1>  -0.5600 
  2 C       -0.6060    -1.1930    -0.5920 C.3   1 <1>   0.1200 
  3 C       -0.4610     0.9300     0.3680 C.3   1 <1>   0.0400 
  4 C       -0.6170    -2.6870    -0.2350 C.3   1 <1>   0.0000 
  5 C        0.7850    -3.2200     0.1850 C.3   1 <1>   0.0000 
  6 C       -0.5320    -3.5840    -1.5050 C.3   1 <1>   0.0000 
  7 C       -1.7670    -3.0210     0.7440 C.3   1 <1>   0.2090 
  8 C        0.6150    -4.3820    -0.8300 C.3   1 <1>   0.0000 
  9 N       -1.8650    -4.4720     1.0700 N.pl3 1 <1>  -0.8690 
 10 C       -2.8260    -5.3500     0.7100 C.ar  1 <1>   0.4100 
 11 N       -3.8730    -4.8950     0.0330 N.ar  1 <1>  -0.6200 
 12 C       -2.6990    -6.7220     1.0520 C.ar  1 <1>   0.2270 
 13 C       -4.8070    -5.7600    -0.3160 C.ar  1 <1>   0.7710 
 14 N       -1.7310    -7.4150     1.7240 N.2   1 <1>  -0.5650 
 15 C       -3.6890    -7.5790     0.6690 C.ar  1 <1>   0.1560 
 16 N       -4.7590    -7.0800    -0.0270 N.ar  1 <1>  -0.1260 
 17 N       -5.8390    -5.2590    -0.9900 N.pl3 1 <1>  -0.9000 
 18 C       -2.1480    -8.6330     1.7300 C.2   1 <1>   0.0360 
 19 N       -3.3430    -8.8070     1.1000 N.pl3 1 <1>   0.0330 
 20 H        0.2400    -0.9570    -1.2150 H     1 <1>   0.0800 
 21 H       -1.5140    -0.9250    -1.1030 H     1 <1>   0.0800 
 22 H       -0.4020     1.4130     1.3280 H     1 <1>   0.0800 
 23 H       -1.3500     1.2510    -0.1460 H     1 <1>   0.0800 
 24 H        0.4180     1.1640    -0.2080 H     1 <1>   0.0800 
 25 H        0.8460    -3.5490     1.2070 H     1 <1>   0.0000 
 26 H        1.5900    -2.5620    -0.0930 H     1 <1>   0.0000 
 27 H       -0.1870    -3.0530    -2.3760 H     1 <1>   0.0000 
 28 H       -1.4110    -4.1730    -1.6980 H     1 <1>   0.0000 
 29 H       -2.6950    -2.6780     0.3210 H     1 <1>   0.0800 
 30 H       -1.6140    -2.4760     1.6610 H     1 <1>   0.0800 
 31 H        0.2780    -5.2940    -0.3710 H     1 <1>   0.0000 
 32 H        1.4710    -4.5200    -1.4670 H     1 <1>   0.0000 
 33 H       -1.0530    -4.8380     1.5850 H     1 <1>   0.4000 
 34 H       -5.5330    -7.6550    -0.3440 H     1 <1>   0.4570 
 35 H       -6.6690    -5.7260    -1.3590 H     1 <1>   0.4000 
 36 H       -5.8220    -4.2490    -1.1770 H     1 <1>   0.4000 
 37 H       -1.6170    -9.4560     2.1850 H     1 <1>   0.1500 
 38 H       -3.8340    -9.7020     1.0020 H     1 <1>   0.2700 
@<TRIPOS>BOND
  1   1   2  1   
  2   1   3  1   
  3   2   4  1   
  4   2  20  1   
  5   2  21  1   
  6   3  22  1   
  7   3  23  1   
  8   3  24  1   
  9   4   5  1   
 10   4   6  1   
 11   4   7  1   
 12   5   8  1   
 13   5  25  1   
 14   5  26  1   
 15   6   8  1   
 16   6  27  1   
 17   6  28  1   
 18   7   9  1   
 19   7  29  1   
 20   7  30  1   
 21   8  31  1   
 22   8  32  1   
 23   9  10  1   
 24   9  33  1   
 25  10  11  ar  
 26  10  12  ar  
 27  11  13  ar  
 28  12  14  1   
 29  12  15  ar  
 30  13  16  ar  
 31  13  17  1   
 32  14  18  2   
 33  15  16  ar  
 34  15  19  1   
 35  16  34  1   
 36  17  35  1   
 37  17  36  1   
 38  18  19  1   
 39  18  37  1   
 40  19  38  1   
@<TRIPOS>SUBSTRUCTURE
  1 ****   9 GROUP 4 **** **** 0

# MOE 2024.06 (io_trps.svl 2023.06)
