@<TRIPOS>MOLECULE
NONAME
48 50 1 0 0 
SMALL
USER_CHARGES


@<TRIPOS>ATOM
  1 S       -0.1380    -0.0800     1.0670 S.3   1 <1>  -0.0800 
  2 C        0.9350    -0.9580    -0.0040 C.2   1 <1>  -0.0450 
  3 C        0.4700     1.4330     0.4460 C.2   1 <1>   0.1980 
  4 C        1.6390    -0.0310    -0.6970 C.2   1 <1>   0.0460 
  5 C        0.9510    -2.4000     0.0140 C.2   1 <1>   0.7150 
  6 N        1.3670     1.2960    -0.4470 N.2   1 <1>  -0.5650 
  7 C       -0.1290     2.7120     1.0280 C.3   1 <1>   0.1000 
  8 C        2.7090    -0.2990    -1.7360 C.3   1 <1>  -0.0590 
  9 O        2.0120    -2.9900    -0.0760 O.2   1 <1>  -0.5700 
 10 N       -0.2020    -3.1490     0.1040 N.am  1 <1>  -0.6600 
 11 C       -1.5020     2.9950     0.4050 C.3   1 <1>  -0.2400 
 12 C        0.7970     3.9190     0.8220 C.3   1 <1>  -0.2400 
 13 C       -1.5560    -2.6700    -0.2750 C.3   1 <1>   0.1400 
 14 C       -0.1760    -4.6330     0.1620 C.3   1 <1>   0.1400 
 15 C       -2.2960    -3.9230    -0.7360 C.3   1 <1>   0.2000 
 16 C       -1.6340    -5.0730     0.0150 C.3   1 <1>  -0.0800 
 17 O       -3.6460    -3.8620    -0.4320 O.3   1 <1>  -0.6800 
 18 C       -1.7990    -6.4320    -0.6810 C.3   1 <1>   0.0210 
 19 C       -1.0150    -7.5130     0.0370 C.2   1 <1>   0.1080 
 20 N       -1.1790    -7.7840     1.2950 N.2   1 <1>  -0.7070 
 21 C       -0.0420    -8.3140    -0.5500 C.2   1 <1>  -0.1500 
 22 N       -0.3070    -8.7790     1.5450 N.pl3 1 <1>   0.3000 
 23 C        0.3950    -9.1160     0.4430 C.2   1 <1>  -0.3320 
 24 C        1.4570   -10.2000     0.4070 C.3   1 <1>  -0.0600 
 25 H       -0.2530     2.5660     2.0870 H     1 <1>   0.0800 
 26 H        2.8350    -1.3520    -1.9050 H     1 <1>   0.0800 
 27 H        3.6430     0.1120    -1.4010 H     1 <1>   0.0800 
 28 H        2.4360     0.1710    -2.6630 H     1 <1>   0.0800 
 29 H       -1.4060     3.1260    -0.6580 H     1 <1>   0.0800 
 30 H       -1.9300     3.8860     0.8280 H     1 <1>   0.0800 
 31 H       -2.1720     2.1740     0.5890 H     1 <1>   0.0800 
 32 H        0.9390     4.1060    -0.2280 H     1 <1>   0.0800 
 33 H        1.7580     3.7220     1.2630 H     1 <1>   0.0800 
 34 H        0.3810     4.7980     1.2800 H     1 <1>   0.0800 
 35 H       -2.0350    -2.2480     0.5920 H     1 <1>   0.0800 
 36 H       -1.5010    -1.9420    -1.0650 H     1 <1>   0.0800 
 37 H        0.4230    -5.0090    -0.6500 H     1 <1>   0.0800 
 38 H        0.2420    -4.9730     1.0950 H     1 <1>   0.0800 
 39 H       -2.1920    -4.0340    -1.8020 H     1 <1>   0.0800 
 40 H       -2.0420    -5.1370     1.0090 H     1 <1>   0.0800 
 41 H       -3.7790    -3.9260     0.5340 H     1 <1>   0.4000 
 42 H       -1.4640    -6.3680    -1.7000 H     1 <1>   0.0800 
 43 H       -2.8390    -6.7070    -0.6880 H     1 <1>   0.0800 
 44 H        0.2750    -8.2810    -1.5770 H     1 <1>   0.1500 
 45 H       -0.2150    -9.2040     2.4760 H     1 <1>   0.2700 
 46 H        1.8700   -10.2790    -0.5830 H     1 <1>   0.0800 
 47 H        1.0290   -11.1490     0.6760 H     1 <1>   0.0800 
 48 H        2.2520    -9.9650     1.0920 H     1 <1>   0.0800 
@<TRIPOS>BOND
  1   1   2  1   
  2   1   3  1   
  3   2   4  2   
  4   2   5  1   
  5   3   6  2   
  6   3   7  1   
  7   4   6  1   
  8   4   8  1   
  9   5   9  2   
 10   5  10  am  
 11   7  11  1   
 12   7  12  1   
 13   7  25  1   
 14   8  26  1   
 15   8  27  1   
 16   8  28  1   
 17  10  13  1   
 18  10  14  1   
 19  11  29  1   
 20  11  30  1   
 21  11  31  1   
 22  12  32  1   
 23  12  33  1   
 24  12  34  1   
 25  13  15  1   
 26  13  35  1   
 27  13  36  1   
 28  14  16  1   
 29  14  37  1   
 30  14  38  1   
 31  15  16  1   
 32  15  17  1   
 33  15  39  1   
 34  16  18  1   
 35  16  40  1   
 36  17  41  1   
 37  18  19  1   
 38  18  42  1   
 39  18  43  1   
 40  19  20  2   
 41  19  21  1   
 42  20  22  1   
 43  21  23  2   
 44  21  44  1   
 45  22  23  1   
 46  22  45  1   
 47  23  24  1   
 48  24  46  1   
 49  24  47  1   
 50  24  48  1   
@<TRIPOS>SUBSTRUCTURE
  1 ****  10 GROUP 4 **** **** 0

# MOE 2024.06 (io_trps.svl 2023.06)
