@<TRIPOS>MOLECULE
NONAME
39 40 1 0 0 
SMALL
USER_CHARGES


@<TRIPOS>ATOM
  1 O        0.9940     1.1780    -0.7690 O.2   1 <1>  -0.5700 
  2 C        1.7330     0.2220    -0.6270 C.2   1 <1>   0.7150 
  3 N        2.9720     0.2780    -1.1770 N.am  1 <1>  -0.7300 
  4 C        1.3560    -0.9440     0.1270 C.2   1 <1>  -0.2370 
  5 C        3.5270     1.3960    -1.9680 C.3   1 <1>   0.3200 
  6 N        0.0670    -1.2680     0.4830 N.pl3 1 <1>   0.0480 
  7 C        2.1750    -1.9290     0.6260 C.2   1 <1>  -0.1500 
  8 C        4.6970     2.0150    -1.2260 C.2   1 <1>   0.0070 
  9 C        0.1010    -2.4270     1.1830 C.2   1 <1>  -0.3020 
 10 C       -1.1710    -0.5290     0.1620 C.3   1 <1>   0.0160 
 11 C        1.3830    -2.8600     1.2890 C.2   1 <1>  -0.1500 
 12 N        5.9320     1.8320    -1.5490 N.2   1 <1>  -0.3380 
 13 N        4.5820     2.8160    -0.1590 N.pl3 1 <1>   0.0480 
 14 N        6.6710     2.5250    -0.6820 N.2   1 <1>  -0.3380 
 15 C        5.8520     3.0990     0.1290 C.2   1 <1>   0.0370 
 16 C        3.3720     3.2760     0.5560 C.3   1 <1>   0.0960 
 17 C        2.7470     4.4830    -0.1500 C.3   1 <1>  -0.1600 
 18 C        1.3770     4.8030     0.4400 C.3   1 <1>   0.1200 
 19 O        0.9180     5.9550    -0.1800 O.3   1 <1>  -0.5600 
 20 C       -0.3620     6.3360     0.2090 C.3   1 <1>   0.0400 
 21 H        3.6170    -0.4930    -1.0080 H     1 <1>   0.3700 
 22 H        2.7730     2.1390    -2.1600 H     1 <1>   0.0800 
 23 H        3.8700     1.0180    -2.9160 H     1 <1>   0.0800 
 24 H        3.2450    -1.9990     0.5430 H     1 <1>   0.1500 
 25 H       -0.7860    -2.8950     1.5740 H     1 <1>   0.1500 
 26 H       -1.2320    -0.3820    -0.9010 H     1 <1>   0.0800 
 27 H       -1.1520     0.4250     0.6550 H     1 <1>   0.0800 
 28 H       -2.0250    -1.0890     0.4950 H     1 <1>   0.0800 
 29 H        1.7390    -3.7470     1.7850 H     1 <1>   0.1500 
 30 H        6.1440     3.7330     0.9460 H     1 <1>   0.1500 
 31 H        3.6420     3.5390     1.5630 H     1 <1>   0.0800 
 32 H        2.6700     2.4650     0.6020 H     1 <1>   0.0800 
 33 H        2.6200     4.2740    -1.1970 H     1 <1>   0.0800 
 34 H        3.3910     5.3380    -0.0360 H     1 <1>   0.0800 
 35 H        1.4430     4.9870     1.4990 H     1 <1>   0.0800 
 36 H        0.6830     4.0010     0.2450 H     1 <1>   0.0800 
 37 H       -0.6190     7.2350    -0.3220 H     1 <1>   0.0800 
 38 H       -0.3720     6.5240     1.2680 H     1 <1>   0.0800 
 39 H       -1.0580     5.5540    -0.0460 H     1 <1>   0.0800 
@<TRIPOS>BOND
  1   1   2  2   
  2   2   3  am  
  3   2   4  1   
  4   3   5  1   
  5   3  21  1   
  6   4   6  1   
  7   4   7  2   
  8   5   8  1   
  9   5  22  1   
 10   5  23  1   
 11   6   9  1   
 12   6  10  1   
 13   7  11  1   
 14   7  24  1   
 15   8  12  2   
 16   8  13  1   
 17   9  11  2   
 18   9  25  1   
 19  10  26  1   
 20  10  27  1   
 21  10  28  1   
 22  11  29  1   
 23  12  14  1   
 24  13  15  1   
 25  13  16  1   
 26  14  15  2   
 27  15  30  1   
 28  16  17  1   
 29  16  31  1   
 30  16  32  1   
 31  17  18  1   
 32  17  33  1   
 33  17  34  1   
 34  18  19  1   
 35  18  35  1   
 36  18  36  1   
 37  19  20  1   
 38  20  37  1   
 39  20  38  1   
 40  20  39  1   
@<TRIPOS>SUBSTRUCTURE
  1 ****   2 GROUP 4 **** **** 0

# MOE 2024.06 (io_trps.svl 2023.06)
