@<TRIPOS>MOLECULE
NONAME
54 58 1 0 0 
SMALL
USER_CHARGES


@<TRIPOS>ATOM
  1 O       -0.0750    -1.9040    -1.3000 O.2   1 <1>  -0.5700 
  2 C       -0.8420    -1.6340    -0.3970 C.2   1 <1>   0.7150 
  3 N       -0.6880    -2.2690     0.8020 N.am  1 <1>  -0.7300 
  4 C       -1.9090    -0.6950    -0.5800 C.2   1 <1>  -0.2370 
  5 C        0.4100    -3.2070     1.1220 C.3   1 <1>   0.1400 
  6 N       -2.4330     0.0780     0.4230 N.pl3 1 <1>   0.0330 
  7 C       -2.5820    -0.3790    -1.7310 C.2   1 <1>  -0.1500 
  8 C       -0.0870    -4.6610     1.1250 C.3   1 <1>  -0.0800 
  9 C       -3.4200     0.8460    -0.0950 C.2   1 <1>  -0.3020 
 10 C       -3.5380     0.5860    -1.4240 C.2   1 <1>  -0.1500 
 11 C       -0.6370    -5.1100    -0.2420 C.3   1 <1>   0.2000 
 12 C        1.0220    -5.7230     1.3390 C.3   1 <1>  -0.0800 
 13 O        0.5100    -5.5890    -0.8340 O.3   1 <1>  -0.5600 
 14 C       -1.4570    -6.4020    -0.1140 C.3   1 <1>  -0.1600 
 15 C        0.8800    -6.5590     0.0730 C.3   1 <1>   0.2800 
 16 C        2.5060    -5.2940     1.3350 C.3   1 <1>   0.3430 
 17 C       -0.3590    -7.4530     0.0920 C.3   1 <1>  -0.1600 
 18 C        2.2740    -7.0920    -0.2400 C.3   1 <1>   0.3430 
 19 N        3.1940    -5.9960     0.1970 N.4   1 <1>  -0.9590 
 20 C        3.4490    -5.0520    -0.9340 C.3   1 <1>   0.5240 
 21 C        4.4240    -3.9910    -0.4740 C.2   1 <1>  -0.1810 
 22 C        5.6190    -4.0980     0.1360 C.2   1 <1>  -0.0400 
 23 C        4.2520    -2.6110    -0.6050 C.2   1 <1>   0.1080 
 24 O        6.0570    -2.8910     0.3630 O.3   1 <1>  -0.0190 
 25 C        6.4930    -5.2610     0.5650 C.3   1 <1>  -0.0600 
 26 N        5.2390    -1.9850    -0.0780 N.2   1 <1>  -0.4100 
 27 C        3.1090    -1.8750    -1.2780 C.3   1 <1>  -0.0590 
 28 H       -1.4490    -2.2000     1.4780 H     1 <1>   0.3700 
 29 H        1.1900    -3.0930     0.3900 H     1 <1>   0.0800 
 30 H        0.8140    -2.9500     2.0870 H     1 <1>   0.0800 
 31 H       -2.1070     0.1020     1.3950 H     1 <1>   0.2700 
 32 H       -2.4110    -0.7960    -2.7100 H     1 <1>   0.1500 
 33 H       -0.8500    -4.7580     1.8780 H     1 <1>   0.0800 
 34 H       -3.9880     1.5430     0.4970 H     1 <1>   0.1500 
 35 H       -4.2240     1.0300    -2.1260 H     1 <1>   0.1500 
 36 H       -1.1010    -4.3460    -0.8440 H     1 <1>   0.0800 
 37 H        0.8280    -6.3140     2.2160 H     1 <1>   0.0800 
 38 H       -2.1550    -6.3590     0.7030 H     1 <1>   0.0800 
 39 H       -1.9960    -6.5840    -1.0280 H     1 <1>   0.0800 
 40 H        2.9580    -5.5880     2.2680 H     1 <1>   0.0800 
 41 H        2.6140    -4.2270     1.2390 H     1 <1>   0.0800 
 42 H       -0.3380    -8.1490    -0.7300 H     1 <1>   0.0800 
 43 H       -0.4660    -7.9900     1.0190 H     1 <1>   0.0800 
 44 H        2.3740    -7.3280    -1.2860 H     1 <1>   0.0800 
 45 H        2.4510    -7.9770     0.3490 H     1 <1>   0.0800 
 46 H        4.1030    -6.3600     0.5010 H     1 <1>   0.4500 
 47 H        3.8660    -5.5790    -1.7760 H     1 <1>   0.0800 
 48 H        2.5260    -4.5900    -1.2460 H     1 <1>   0.0800 
 49 H        6.0970    -6.1980     0.2270 H     1 <1>   0.0800 
 50 H        6.5840    -5.2740     1.6370 H     1 <1>   0.0800 
 51 H        7.4760    -5.1380     0.1450 H     1 <1>   0.0800 
 52 H        2.4670    -2.5410    -1.8220 H     1 <1>   0.0800 
 53 H        3.5070    -1.1530    -1.9680 H     1 <1>   0.0800 
 54 H        2.5300    -1.3470    -0.5430 H     1 <1>   0.0800 
@<TRIPOS>BOND
  1   1   2  2   
  2   2   3  am  
  3   2   4  1   
  4   3   5  1   
  5   3  28  1   
  6   4   6  1   
  7   4   7  2   
  8   5   8  1   
  9   5  29  1   
 10   5  30  1   
 11   6   9  1   
 12   6  31  1   
 13   7  10  1   
 14   7  32  1   
 15   8  11  1   
 16   8  12  1   
 17   8  33  1   
 18   9  10  2   
 19   9  34  1   
 20  10  35  1   
 21  11  13  1   
 22  11  14  1   
 23  11  36  1   
 24  12  15  1   
 25  12  16  1   
 26  12  37  1   
 27  13  15  1   
 28  14  17  1   
 29  14  38  1   
 30  14  39  1   
 31  15  17  1   
 32  15  18  1   
 33  16  19  1   
 34  16  40  1   
 35  16  41  1   
 36  17  42  1   
 37  17  43  1   
 38  18  19  1   
 39  18  44  1   
 40  18  45  1   
 41  19  20  1   
 42  19  46  1   
 43  20  21  1   
 44  20  47  1   
 45  20  48  1   
 46  21  22  2   
 47  21  23  1   
 48  22  24  1   
 49  22  25  1   
 50  23  26  2   
 51  23  27  1   
 52  24  26  1   
 53  25  49  1   
 54  25  50  1   
 55  25  51  1   
 56  27  52  1   
 57  27  53  1   
 58  27  54  1   
@<TRIPOS>SUBSTRUCTURE
  1 ****   5 GROUP 4 **** **** 0

# MOE 2024.06 (io_trps.svl 2023.06)
