@<TRIPOS>MOLECULE
NONAME
43 45 1 0 0 
SMALL
USER_CHARGES


@<TRIPOS>ATOM
  1 O        0.3050     2.6490     1.2680 O.co2 1 <1>  -0.9000 
  2 C        1.5000     2.6050     1.5880 C.2   1 <1>   0.9470 
  3 O        1.9460     3.3410     2.4820 O.co2 1 <1>  -0.9000 
  4 C        2.4910     1.8090     0.7310 C.3   1 <1>  -0.2420 
  5 C        2.9790     0.3800     0.7850 C.3   1 <1>  -0.2420 
  6 C        3.6700     2.6800     0.3460 C.3   1 <1>   0.2350 
  7 C        1.9460     0.7850    -0.2330 C.3   1 <1>  -0.2000 
  8 C        2.6610    -0.7440     1.7720 C.2   1 <1>   0.9470 
  9 C        4.4520     0.3670     0.4100 C.3   1 <1>   0.2350 
 10 N        4.7500     1.7420    -0.0760 N.am  1 <1>  -0.6600 
 11 O        3.3010    -0.8110     2.8300 O.co2 1 <1>  -0.9000 
 12 O        1.8900    -1.6510     1.4300 O.co2 1 <1>  -0.9000 
 13 C        5.9140     2.0770    -0.6970 C.2   1 <1>   0.5690 
 14 O        6.7440     1.2550    -1.0110 O.2   1 <1>  -0.5700 
 15 C        6.2210     3.5310    -0.9970 C.3   1 <1>  -0.0990 
 16 C        6.8090     4.2300     0.2340 C.3   1 <1>  -0.0160 
 17 C        6.8850     5.7290     0.0050 C.ar  1 <1>  -0.1430 
 18 C        5.8260     6.5390     0.3820 C.ar  1 <1>  -0.1500 
 19 C        8.0000     6.3000    -0.5850 C.ar  1 <1>  -0.1500 
 20 C        5.8820     7.9060     0.1720 C.ar  1 <1>  -0.1500 
 21 C        8.0560     7.6680    -0.7940 C.ar  1 <1>  -0.1500 
 22 C        6.9970     8.4790    -0.4190 C.ar  1 <1>  -0.1430 
 23 C        7.0570     9.9800    -0.6460 C.3   1 <1>  -0.0170 
 24 C        7.6360    10.6860     0.5820 C.3   1 <1>  -0.2400 
 25 H        4.0040     3.2460     1.1990 H     1 <1>   0.0800 
 26 H        3.3880     3.3460    -0.4490 H     1 <1>   0.0800 
 27 H        2.2160     0.8350    -1.2710 H     1 <1>   0.1000 
 28 H        0.9380     0.4350    -0.0840 H     1 <1>   0.1000 
 29 H        4.6490    -0.3640    -0.3530 H     1 <1>   0.0800 
 30 H        5.0560     0.1590     1.2770 H     1 <1>   0.0800 
 31 H        6.9280     3.5790    -1.8050 H     1 <1>   0.0800 
 32 H        5.3300     4.0320    -1.3200 H     1 <1>   0.0800 
 33 H        7.7880     3.8340     0.4400 H     1 <1>   0.0800 
 34 H        6.1960     4.0330     1.0970 H     1 <1>   0.0800 
 35 H        4.9510     6.1080     0.8420 H     1 <1>   0.1500 
 36 H        8.8290     5.6830    -0.8830 H     1 <1>   0.1500 
 37 H        5.0520     8.5190     0.4730 H     1 <1>   0.1500 
 38 H        8.9290     8.0980    -1.2510 H     1 <1>   0.1500 
 39 H        7.6680    10.1930    -1.5070 H     1 <1>   0.0800 
 40 H        6.0690    10.3550    -0.8470 H     1 <1>   0.0800 
 41 H        8.6310    10.3290     0.7790 H     1 <1>   0.0800 
 42 H        7.0230    10.4900     1.4440 H     1 <1>   0.0800 
 43 H        7.6740    11.7470     0.4160 H     1 <1>   0.0800 
@<TRIPOS>BOND
  1   1   2  ar  
  2   2   3  ar  
  3   2   4  1   
  4   4   5  1   
  5   4   6  1   
  6   4   7  1   
  7   5   7  1   
  8   5   8  1   
  9   5   9  1   
 10   6  10  1   
 11   6  25  1   
 12   6  26  1   
 13   7  27  1   
 14   7  28  1   
 15   8  11  ar  
 16   8  12  ar  
 17   9  10  1   
 18   9  29  1   
 19   9  30  1   
 20  10  13  am  
 21  13  14  2   
 22  13  15  1   
 23  15  16  1   
 24  15  31  1   
 25  15  32  1   
 26  16  17  1   
 27  16  33  1   
 28  16  34  1   
 29  17  18  ar  
 30  17  19  ar  
 31  18  20  ar  
 32  18  35  1   
 33  19  21  ar  
 34  19  36  1   
 35  20  22  ar  
 36  20  37  1   
 37  21  22  ar  
 38  21  38  1   
 39  22  23  1   
 40  23  24  1   
 41  23  39  1   
 42  23  40  1   
 43  24  41  1   
 44  24  42  1   
 45  24  43  1   
@<TRIPOS>SUBSTRUCTURE
  1 ****   6 GROUP 4 **** **** 0

# MOE 2024.06 (io_trps.svl 2023.06)
