@<TRIPOS>MOLECULE
NONAME
49 52 1 0 0 
SMALL
USER_CHARGES


@<TRIPOS>ATOM
  1 O       -1.3540     0.2540    -0.7290 O.2   1 <1>  -0.5700 
  2 C       -1.9350     1.3280    -0.6350 C.2   1 <1>   0.7160 
  3 N       -3.2930     1.2800    -0.3440 N.am  1 <1>  -0.6600 
  4 C       -1.1790     2.5700    -0.8200 C.2   1 <1>   0.2030 
  5 C       -4.0670     0.0240    -0.5870 C.3   1 <1>   0.1400 
  6 C       -4.0320     2.4470     0.2150 C.3   1 <1>   0.1400 
  7 N       -1.6470     3.7970    -1.0400 N.2   1 <1>  -0.7070 
  8 C        0.2230     2.6250    -0.8030 C.2   1 <1>  -0.1810 
  9 C       -4.0700    -0.8700     0.6620 C.3   1 <1>   0.1400 
 10 C       -5.0880     2.0750     1.2660 C.3   1 <1>  -0.1600 
 11 N       -0.5660     4.5930    -1.1600 N.pl3 1 <1>   0.3000 
 12 C        0.5650     3.8870    -1.0140 C.2   1 <1>  -0.3320 
 13 C        1.4200     1.7310    -0.6370 C.3   1 <1>   0.0210 
 14 N       -4.9920    -0.3530     1.7250 N.am  1 <1>  -0.6600 
 15 C       -4.6320     0.9940     2.2530 C.3   1 <1>   0.1400 
 16 C        2.0460     4.1340    -1.0360 C.3   1 <1>   0.0200 
 17 C        2.6040     2.7320    -0.6840 C.3   1 <1>  -0.1600 
 18 C       -6.1410    -0.9790     2.1550 C.2   1 <1>   0.5690 
 19 O       -6.8580    -0.4750     2.9900 O.2   1 <1>  -0.5700 
 20 C       -6.5820    -2.3380     1.6290 C.3   1 <1>   0.0810 
 21 C       -7.2850    -2.2280     0.2880 C.2   1 <1>  -0.0400 
 22 O       -6.5990    -2.0230    -0.8040 O.3   1 <1>  -0.0190 
 23 C       -8.5810    -2.3060    -0.0500 C.2   1 <1>  -0.1500 
 24 N       -7.3640    -1.9550    -1.8540 N.2   1 <1>  -0.4100 
 25 C       -8.5650    -2.1220    -1.4300 C.2   1 <1>   0.1080 
 26 C       -9.7900    -2.1170    -2.3170 C.3   1 <1>  -0.0590 
 27 H       -3.6090    -0.5180    -1.3960 H     1 <1>   0.0800 
 28 H       -5.0750     0.2530    -0.8870 H     1 <1>   0.0800 
 29 H       -4.4950     2.9900    -0.5920 H     1 <1>   0.0800 
 30 H       -3.3280     3.1070     0.6900 H     1 <1>   0.0800 
 31 H       -3.0690    -0.9340     1.0530 H     1 <1>   0.0800 
 32 H       -4.3530    -1.8600     0.3620 H     1 <1>   0.0800 
 33 H       -6.0040     1.7760     0.7880 H     1 <1>   0.0800 
 34 H       -5.3100     2.9670     1.8230 H     1 <1>   0.0800 
 35 H       -0.6320     5.6020    -1.3440 H     1 <1>   0.2700 
 36 H        1.4680     1.0270    -1.4500 H     1 <1>   0.0800 
 37 H        1.3800     1.2050     0.3000 H     1 <1>   0.0800 
 38 H       -5.1200     1.1530     3.1990 H     1 <1>   0.0800 
 39 H       -3.5710     1.0540     2.4230 H     1 <1>   0.0800 
 40 H        2.3330     4.8660    -0.3020 H     1 <1>   0.0800 
 41 H        2.3620     4.4430    -2.0170 H     1 <1>   0.0800 
 42 H        3.3330     2.4200    -1.4110 H     1 <1>   0.0800 
 43 H        3.0750     2.7690     0.2820 H     1 <1>   0.0800 
 44 H       -7.2680    -2.7610     2.3390 H     1 <1>   0.0800 
 45 H       -5.7450    -3.0050     1.5620 H     1 <1>   0.0800 
 46 H       -9.4460    -2.4650     0.5670 H     1 <1>   0.1500 
 47 H      -10.4630    -1.3400    -2.0040 H     1 <1>   0.0800 
 48 H      -10.2890    -3.0660    -2.2560 H     1 <1>   0.0800 
 49 H       -9.5040    -1.9390    -3.3380 H     1 <1>   0.0800 
@<TRIPOS>BOND
  1   1   2  2   
  2   2   3  am  
  3   2   4  1   
  4   3   5  1   
  5   3   6  1   
  6   4   7  2   
  7   4   8  1   
  8   5   9  1   
  9   5  27  1   
 10   5  28  1   
 11   6  10  1   
 12   6  29  1   
 13   6  30  1   
 14   7  11  1   
 15   8  12  2   
 16   8  13  1   
 17   9  14  1   
 18   9  31  1   
 19   9  32  1   
 20  10  15  1   
 21  10  33  1   
 22  10  34  1   
 23  11  12  1   
 24  11  35  1   
 25  12  16  1   
 26  13  17  1   
 27  13  36  1   
 28  13  37  1   
 29  14  15  1   
 30  14  18  am  
 31  15  38  1   
 32  15  39  1   
 33  16  17  1   
 34  16  40  1   
 35  16  41  1   
 36  17  42  1   
 37  17  43  1   
 38  18  19  2   
 39  18  20  1   
 40  20  21  1   
 41  20  44  1   
 42  20  45  1   
 43  21  22  1   
 44  21  23  2   
 45  22  24  1   
 46  23  25  1   
 47  23  46  1   
 48  24  25  2   
 49  25  26  1   
 50  26  47  1   
 51  26  48  1   
 52  26  49  1   
@<TRIPOS>SUBSTRUCTURE
  1 ****   3 GROUP 4 **** **** 0

# MOE 2024.06 (io_trps.svl 2023.06)
