@<TRIPOS>MOLECULE
NONAME
45 47 1 0 0 
SMALL
USER_CHARGES


@<TRIPOS>ATOM
  1 O       -1.9560     0.5540     2.3820 O.2   1 <1>  -0.5700 
  2 C       -2.0240     1.0980     1.2940 C.2   1 <1>   0.7160 
  3 N       -2.3980     0.3650     0.1900 N.am  1 <1>  -0.6600 
  4 C       -1.7430     2.5110     1.1700 C.2   1 <1>  -0.0860 
  5 C       -2.4520    -1.1330     0.2660 C.3   1 <1>   0.3640 
  6 C       -2.9860     1.0570    -0.9970 C.3   1 <1>   0.1400 
  7 C       -0.7740     3.1630     0.4410 C.2   1 <1>  -0.3320 
  8 C       -2.4700     3.5300     1.8130 C.2   1 <1>  -0.1500 
  9 C       -1.0580    -1.7030    -0.0160 C.ar  1 <1>  -0.1440 
 10 C       -3.4970    -1.8090    -0.6720 C.3   1 <1>   0.2000 
 11 C       -3.6140     0.1010    -2.0180 C.3   1 <1>   0.1200 
 12 N       -0.8950     4.5050     0.6000 N.pl3 1 <1>   0.0480 
 13 C        0.3160     2.5230    -0.4050 C.3   1 <1>  -0.0600 
 14 C       -1.9380     4.7200     1.4430 C.2   1 <1>  -0.3020 
 15 C       -0.3260    -1.3350    -1.1370 C.ar  1 <1>  -0.1500 
 16 C       -0.5110    -2.6230     0.8680 C.ar  1 <1>  -0.1500 
 17 O       -4.3190    -0.8990    -1.3570 O.3   1 <1>  -0.5600 
 18 C       -4.4270    -2.7630     0.0910 C.3   1 <1>   0.1200 
 19 C       -0.0470     5.5550     0.0130 C.3   1 <1>   0.0160 
 20 C        0.9240    -1.8800    -1.3740 C.ar  1 <1>  -0.1500 
 21 C        0.7390    -3.1690     0.6340 C.ar  1 <1>  -0.1500 
 22 O       -3.7010    -3.7890     0.6910 O.3   1 <1>  -0.6800 
 23 C        1.4570    -2.7990    -0.4890 C.ar  1 <1>  -0.1500 
 24 H       -2.7130    -1.4030     1.2740 H     1 <1>   0.0800 
 25 H       -3.7490     1.7350    -0.6540 H     1 <1>   0.0800 
 26 H       -2.2270     1.6440    -1.4840 H     1 <1>   0.0800 
 27 H       -3.2970     3.3510     2.4790 H     1 <1>   0.1500 
 28 H       -2.9820    -2.3810    -1.4240 H     1 <1>   0.0800 
 29 H       -2.8650    -0.3520    -2.6440 H     1 <1>   0.0800 
 30 H       -4.3060     0.6350    -2.6450 H     1 <1>   0.0800 
 31 H        0.2720     1.4510    -0.3280 H     1 <1>   0.0800 
 32 H        1.2840     2.8400    -0.0600 H     1 <1>   0.0800 
 33 H        0.2010     2.8010    -1.4360 H     1 <1>   0.0800 
 34 H       -2.2420     5.7070     1.7430 H     1 <1>   0.1500 
 35 H       -0.7220    -0.6170    -1.8310 H     1 <1>   0.1500 
 36 H       -1.0590    -2.9170     1.7480 H     1 <1>   0.1500 
 37 H       -5.1410    -3.2080    -0.5800 H     1 <1>   0.0800 
 38 H       -4.9470    -2.2300     0.8680 H     1 <1>   0.0800 
 39 H       -0.4580     6.5200     0.2410 H     1 <1>   0.0800 
 40 H       -0.0070     5.4250    -1.0530 H     1 <1>   0.0800 
 41 H        0.9420     5.4790     0.4250 H     1 <1>   0.0800 
 42 H        1.4840    -1.5880    -2.2450 H     1 <1>   0.1500 
 43 H        1.1520    -3.8790     1.3280 H     1 <1>   0.1500 
 44 H       -3.2760    -4.3600     0.0200 H     1 <1>   0.4000 
 45 H        2.4300    -3.2230    -0.6700 H     1 <1>   0.1500 
@<TRIPOS>BOND
  1   1   2  2   
  2   2   3  am  
  3   2   4  1   
  4   3   5  1   
  5   3   6  1   
  6   4   7  2   
  7   4   8  1   
  8   5   9  1   
  9   5  10  1   
 10   5  24  1   
 11   6  11  1   
 12   6  25  1   
 13   6  26  1   
 14   7  12  1   
 15   7  13  1   
 16   8  14  2   
 17   8  27  1   
 18   9  15  ar  
 19   9  16  ar  
 20  10  17  1   
 21  10  18  1   
 22  10  28  1   
 23  11  17  1   
 24  11  29  1   
 25  11  30  1   
 26  12  14  1   
 27  12  19  1   
 28  13  31  1   
 29  13  32  1   
 30  13  33  1   
 31  14  34  1   
 32  15  20  ar  
 33  15  35  1   
 34  16  21  ar  
 35  16  36  1   
 36  18  22  1   
 37  18  37  1   
 38  18  38  1   
 39  19  39  1   
 40  19  40  1   
 41  19  41  1   
 42  20  23  ar  
 43  20  42  1   
 44  21  23  ar  
 45  21  43  1   
 46  22  44  1   
 47  23  45  1   
@<TRIPOS>SUBSTRUCTURE
  1 ****   3 GROUP 4 **** **** 0

# MOE 2024.06 (io_trps.svl 2023.06)
