@<TRIPOS>MOLECULE
NONAME
44 46 1 0 0 
SMALL
USER_CHARGES


@<TRIPOS>ATOM
  1 O       -1.1000     0.0690    -1.0260 O.2   1 <1>  -0.5700 
  2 C       -1.1890    -0.0150     0.1840 C.2   1 <1>   0.7160 
  3 N       -1.5420    -1.2220     0.7110 N.am  1 <1>  -0.7300 
  4 C       -0.9590     1.1090     1.0810 C.2   1 <1>   0.1410 
  5 C       -1.8170    -2.4690    -0.0370 C.3   1 <1>   0.2200 
  6 N       -1.1030     0.9740     2.4400 N.2   1 <1>  -0.5650 
  7 C       -0.6000     2.3990     0.8410 C.2   1 <1>  -0.0400 
  8 C       -3.3120    -2.7410    -0.1310 C.3   1 <1>  -0.0800 
  9 C       -1.3660    -3.6610     0.7970 C.3   1 <1>   0.1200 
 10 C       -0.8280     2.1370     2.8960 C.2   1 <1>   0.3280 
 11 O       -0.5230     3.0200     1.9820 O.3   1 <1>  -0.2800 
 12 C       -0.2880     3.2150    -0.4100 C.3   1 <1>   0.1000 
 13 C       -3.6170    -3.4400     1.1970 C.3   1 <1>   0.1200 
 14 C       -4.2030    -1.5190    -0.4230 C.3   1 <1>  -0.0160 
 15 O       -2.3960    -3.8850     1.7130 O.3   1 <1>  -0.5600 
 16 C       -1.5080     3.3340    -1.3290 C.3   1 <1>  -0.2400 
 17 C        0.9330     2.6690    -1.1580 C.3   1 <1>  -0.2400 
 18 C       -5.6570    -1.9350    -0.5860 C.ar  1 <1>  -0.1440 
 19 C       -6.5710    -1.8230     0.4420 C.ar  1 <1>  -0.1500 
 20 C       -6.1350    -2.4480    -1.7740 C.ar  1 <1>  -0.1500 
 21 C       -7.8810    -2.2240     0.2380 C.ar  1 <1>   0.1600 
 22 C       -7.4660    -2.8190    -1.8740 C.ar  1 <1>   0.1600 
 23 N       -8.3500    -2.7220    -0.8940 N.ar  1 <1>  -0.6200 
 24 H       -1.6390    -1.2770     1.7300 H     1 <1>   0.3700 
 25 H       -1.3380    -2.4450    -1.0020 H     1 <1>   0.0800 
 26 H       -3.4640    -3.4620    -0.9150 H     1 <1>   0.0800 
 27 H       -0.4450    -3.4790     1.3230 H     1 <1>   0.0800 
 28 H       -1.2730    -4.5410     0.1850 H     1 <1>   0.0800 
 29 H       -0.8270     2.4420     3.9290 H     1 <1>   0.1500 
 30 H       -0.0380     4.2110    -0.0860 H     1 <1>   0.0800 
 31 H       -4.2730    -4.2830     1.0650 H     1 <1>   0.0800 
 32 H       -4.0410    -2.7590     1.9150 H     1 <1>   0.0800 
 33 H       -3.8660    -1.0390    -1.3250 H     1 <1>   0.0800 
 34 H       -4.1270    -0.7990     0.3730 H     1 <1>   0.0800 
 35 H       -1.7810     2.3800    -1.7390 H     1 <1>   0.0800 
 36 H       -1.2940     4.0030    -2.1420 H     1 <1>   0.0800 
 37 H       -2.3460     3.7230    -0.7770 H     1 <1>   0.0800 
 38 H        0.7360     1.6950    -1.5660 H     1 <1>   0.0800 
 39 H        1.7710     2.5970    -0.4880 H     1 <1>   0.0800 
 40 H        1.1960     3.3270    -1.9660 H     1 <1>   0.0800 
 41 H       -6.2800    -1.4280     1.3970 H     1 <1>   0.1500 
 42 H       -5.4860    -2.5620    -2.6230 H     1 <1>   0.1500 
 43 H       -8.5810    -2.1300     1.0510 H     1 <1>   0.1500 
 44 H       -7.8210    -3.2180    -2.8080 H     1 <1>   0.1500 
@<TRIPOS>BOND
  1   1   2  2   
  2   2   3  am  
  3   2   4  1   
  4   3   5  1   
  5   3  24  1   
  6   4   6  1   
  7   4   7  2   
  8   5   8  1   
  9   5   9  1   
 10   5  25  1   
 11   6  10  2   
 12   7  11  1   
 13   7  12  1   
 14   8  13  1   
 15   8  14  1   
 16   8  26  1   
 17   9  15  1   
 18   9  27  1   
 19   9  28  1   
 20  10  11  1   
 21  10  29  1   
 22  12  16  1   
 23  12  17  1   
 24  12  30  1   
 25  13  15  1   
 26  13  31  1   
 27  13  32  1   
 28  14  18  1   
 29  14  33  1   
 30  14  34  1   
 31  16  35  1   
 32  16  36  1   
 33  16  37  1   
 34  17  38  1   
 35  17  39  1   
 36  17  40  1   
 37  18  19  ar  
 38  18  20  ar  
 39  19  21  ar  
 40  19  41  1   
 41  20  22  ar  
 42  20  42  1   
 43  21  23  ar  
 44  21  43  1   
 45  22  23  ar  
 46  22  44  1   
@<TRIPOS>SUBSTRUCTURE
  1 ****   3 GROUP 4 **** **** 0

# MOE 2024.06 (io_trps.svl 2023.06)
