@<TRIPOS>MOLECULE
NONAME
53 56 1 0 0 
SMALL
USER_CHARGES


@<TRIPOS>ATOM
  1 O       -2.7800     3.1450    -2.0120 O.2   1 <1>  -0.5700 
  2 C       -2.5770     2.3850    -1.0850 C.2   1 <1>   0.5440 
  3 N       -3.1930     1.1590    -1.0940 N.am  1 <1>  -0.6600 
  4 C       -1.7210     2.8030    -0.0100 C.ar  1 <1>   0.0860 
  5 C       -4.0730     0.7040    -2.1990 C.3   1 <1>   0.1400 
  6 C       -3.0950     0.1030    -0.0610 C.3   1 <1>   0.1400 
  7 C       -0.4580     2.2710     0.2410 C.ar  1 <1>   0.3100 
  8 C       -2.1490     3.7970     0.8450 C.ar  1 <1>   0.1600 
  9 C       -4.6090    -0.6680    -1.7670 C.3   1 <1>   0.2000 
 10 C       -3.5530    -1.1690    -0.7770 C.3   1 <1>  -0.0800 
 11 N        0.2510     2.6890     1.2840 N.ar  1 <1>  -0.6200 
 12 C        0.1380     1.2430    -0.5920 C.ar  1 <1>   0.0000 
 13 N       -1.4470     4.2230     1.8710 N.ar  1 <1>  -0.6200 
 14 O       -5.8230    -0.5230    -1.0850 O.3   1 <1>  -0.5600 
 15 C       -4.0340    -2.2670     0.1880 C.3   1 <1>   0.0200 
 16 C       -0.2760     3.6360     2.0310 C.ar  1 <1>   0.4770 
 17 C        0.1650     1.3310    -1.9850 C.ar  1 <1>  -0.1500 
 18 C        0.7220     0.1140    -0.0120 C.ar  1 <1>  -0.1500 
 19 C       -6.9520    -0.4310    -1.8950 C.3   1 <1>   0.0400 
 20 C       -2.9050    -2.8290     1.0360 C.2   1 <1>  -0.0400 
 21 C        0.5440     4.1110     3.2060 C.3   1 <1>  -0.0970 
 22 C        0.7200     0.3300    -2.7610 C.ar  1 <1>  -0.1500 
 23 C        1.2850    -0.8870    -0.7820 C.ar  1 <1>  -0.1500 
 24 O       -3.1940    -3.5720     2.0710 O.3   1 <1>  -0.0190 
 25 C       -1.5680    -2.7360     0.9620 C.2   1 <1>  -0.1500 
 26 C        1.2800    -0.7830    -2.1610 C.ar  1 <1>  -0.1500 
 27 N       -2.1250    -3.9740     2.6960 N.2   1 <1>  -0.4100 
 28 C       -1.1290    -3.4840     2.0500 C.2   1 <1>   0.1080 
 29 C        0.3200    -3.6970     2.4270 C.3   1 <1>  -0.0590 
 30 H       -4.8620     1.4140    -2.3740 H     1 <1>   0.0800 
 31 H       -3.4780     0.6050    -3.0900 H     1 <1>   0.0800 
 32 H       -2.0960     0.0030     0.3200 H     1 <1>   0.0800 
 33 H       -3.7690     0.3420     0.7450 H     1 <1>   0.0800 
 34 H       -3.1100     4.2500     0.6710 H     1 <1>   0.1500 
 35 H       -4.7420    -1.3450    -2.5940 H     1 <1>   0.0800 
 36 H       -2.7230    -1.5440    -1.3490 H     1 <1>   0.0800 
 37 H       -4.4760    -3.0730    -0.3710 H     1 <1>   0.0800 
 38 H       -4.7910    -1.8700     0.8420 H     1 <1>   0.0800 
 39 H       -0.2510     2.1960    -2.4740 H     1 <1>   0.1500 
 40 H        0.7370     0.0290     1.0610 H     1 <1>   0.1500 
 41 H       -7.8110    -0.3200    -1.2570 H     1 <1>   0.0800 
 42 H       -7.0480    -1.3320    -2.4760 H     1 <1>   0.0800 
 43 H       -6.8700     0.4280    -2.5380 H     1 <1>   0.0800 
 44 H        0.7140     5.1680     3.1190 H     1 <1>   0.0800 
 45 H        1.4920     3.6050     3.2360 H     1 <1>   0.0800 
 46 H        0.0110     3.9130     4.1170 H     1 <1>   0.0800 
 47 H        0.7220     0.4220    -3.8330 H     1 <1>   0.1500 
 48 H        1.7330    -1.7440    -0.3110 H     1 <1>   0.1500 
 49 H       -0.9480    -2.2230     0.2520 H     1 <1>   0.1500 
 50 H        1.7160    -1.5600    -2.7650 H     1 <1>   0.1500 
 51 H        0.8340    -4.1990     1.6280 H     1 <1>   0.0800 
 52 H        0.3820    -4.3010     3.3150 H     1 <1>   0.0800 
 53 H        0.7900    -2.7500     2.6160 H     1 <1>   0.0800 
@<TRIPOS>BOND
  1   1   2  2   
  2   2   3  am  
  3   2   4  1   
  4   3   5  1   
  5   3   6  1   
  6   4   7  ar  
  7   4   8  ar  
  8   5   9  1   
  9   5  30  1   
 10   5  31  1   
 11   6  10  1   
 12   6  32  1   
 13   6  33  1   
 14   7  11  ar  
 15   7  12  1   
 16   8  13  ar  
 17   8  34  1   
 18   9  10  1   
 19   9  14  1   
 20   9  35  1   
 21  10  15  1   
 22  10  36  1   
 23  11  16  ar  
 24  12  17  ar  
 25  12  18  ar  
 26  13  16  ar  
 27  14  19  1   
 28  15  20  1   
 29  15  37  1   
 30  15  38  1   
 31  16  21  1   
 32  17  22  ar  
 33  17  39  1   
 34  18  23  ar  
 35  18  40  1   
 36  19  41  1   
 37  19  42  1   
 38  19  43  1   
 39  20  24  1   
 40  20  25  2   
 41  21  44  1   
 42  21  45  1   
 43  21  46  1   
 44  22  26  ar  
 45  22  47  1   
 46  23  26  ar  
 47  23  48  1   
 48  24  27  1   
 49  25  28  1   
 50  25  49  1   
 51  26  50  1   
 52  27  28  2   
 53  28  29  1   
 54  29  51  1   
 55  29  52  1   
 56  29  53  1   
@<TRIPOS>SUBSTRUCTURE
  1 ****   6 GROUP 4 **** **** 0

# MOE 2024.06 (io_trps.svl 2023.06)
