@<TRIPOS>MOLECULE
NONAME
45 48 1 0 0 
SMALL
USER_CHARGES


@<TRIPOS>ATOM
  1 O       -2.7390     1.6420    -2.6370 O.2   1 <1>  -0.5700 
  2 C       -3.0510     1.9590    -1.5130 C.2   1 <1>   0.5690 
  3 N       -3.4180     1.0200    -0.5850 N.am  1 <1>  -0.6600 
  4 C       -3.0430     3.4390    -1.1720 C.3   1 <1>   0.0820 
  5 C       -3.6990     1.2690     0.8520 C.3   1 <1>   0.1400 
  6 C       -3.4320    -0.4340    -0.8750 C.3   1 <1>   0.1400 
  7 C       -2.0030     3.7890    -0.1250 C.2   1 <1>   0.1080 
  8 C       -3.9220    -0.1160     1.4620 C.3   1 <1>   0.2000 
  9 C       -3.2820    -1.1060     0.4900 C.3   1 <1>  -0.0800 
 10 N       -2.2900     4.4410     0.9540 N.2   1 <1>  -0.7070 
 11 C       -0.6400     3.4460    -0.2100 C.ar  1 <1>   0.0000 
 12 O       -3.3220    -0.2250     2.7070 O.3   1 <1>  -0.6800 
 13 C       -3.9100    -2.5070     0.5750 C.3   1 <1>  -0.0170 
 14 N       -1.1150     4.5580     1.6130 N.pl3 1 <1>   0.3000 
 15 C       -0.0890     3.9610     0.9450 C.ar  1 <1>  -0.1520 
 16 C        0.1810     2.7630    -1.1200 C.ar  1 <1>  -0.1500 
 17 C       -3.2720    -3.4720    -0.4090 C.ar  1 <1>   0.1670 
 18 C        1.2730     3.8180     1.2310 C.ar  1 <1>  -0.1500 
 19 C        1.5190     2.6180    -0.8450 C.ar  1 <1>  -0.1500 
 20 N       -3.8080    -3.5190    -1.6190 N.ar  1 <1>  -0.6200 
 21 C       -2.1860    -4.2370    -0.0110 C.ar  1 <1>  -0.1500 
 22 C        2.0680     3.1460     0.3330 C.ar  1 <1>  -0.1500 
 23 C       -3.2370    -4.3610    -2.4660 C.ar  1 <1>   0.1600 
 24 C       -1.6020    -5.1100    -0.9030 C.ar  1 <1>  -0.1500 
 25 C       -2.1520    -5.1660    -2.1650 C.ar  1 <1>  -0.1500 
 26 H       -2.8390     4.0040    -2.0610 H     1 <1>   0.0800 
 27 H       -4.0180     3.7190    -0.8210 H     1 <1>   0.0800 
 28 H       -2.8520     1.7480     1.3090 H     1 <1>   0.0800 
 29 H       -4.5760     1.8830     0.9630 H     1 <1>   0.0800 
 30 H       -4.3730    -0.6930    -1.3300 H     1 <1>   0.0800 
 31 H       -2.6300    -0.7100    -1.5410 H     1 <1>   0.0800 
 32 H       -4.9770    -0.3000     1.5740 H     1 <1>   0.0800 
 33 H       -2.2270    -1.1760     0.6910 H     1 <1>   0.0800 
 34 H       -2.3670    -0.0300     2.6370 H     1 <1>   0.4000 
 35 H       -4.9660    -2.4500     0.3740 H     1 <1>   0.0800 
 36 H       -3.7930    -2.8870     1.5740 H     1 <1>   0.0800 
 37 H       -1.0280     5.0530     2.5080 H     1 <1>   0.2700 
 38 H       -0.2480     2.3610    -2.0210 H     1 <1>   0.1500 
 39 H        1.6840     4.2290     2.1370 H     1 <1>   0.1500 
 40 H        2.1610     2.0960    -1.5330 H     1 <1>   0.1500 
 41 H       -1.7980    -4.1510     0.9880 H     1 <1>   0.1500 
 42 H        3.1190     3.0190     0.5220 H     1 <1>   0.1500 
 43 H       -3.6590    -4.4130    -3.4550 H     1 <1>   0.1500 
 44 H       -0.7580    -5.7190    -0.6280 H     1 <1>   0.1500 
 45 H       -1.7460    -5.8250    -2.9110 H     1 <1>   0.1500 
@<TRIPOS>BOND
  1   1   2  2   
  2   2   3  am  
  3   2   4  1   
  4   3   5  1   
  5   3   6  1   
  6   4   7  1   
  7   4  26  1   
  8   4  27  1   
  9   5   8  1   
 10   5  28  1   
 11   5  29  1   
 12   6   9  1   
 13   6  30  1   
 14   6  31  1   
 15   7  10  2   
 16   7  11  1   
 17   8   9  1   
 18   8  12  1   
 19   8  32  1   
 20   9  13  1   
 21   9  33  1   
 22  10  14  1   
 23  11  15  ar  
 24  11  16  ar  
 25  12  34  1   
 26  13  17  1   
 27  13  35  1   
 28  13  36  1   
 29  14  15  1   
 30  14  37  1   
 31  15  18  ar  
 32  16  19  ar  
 33  16  38  1   
 34  17  20  ar  
 35  17  21  ar  
 36  18  22  ar  
 37  18  39  1   
 38  19  22  ar  
 39  19  40  1   
 40  20  23  ar  
 41  21  24  ar  
 42  21  41  1   
 43  22  42  1   
 44  23  25  ar  
 45  23  43  1   
 46  24  25  ar  
 47  24  44  1   
 48  25  45  1   
@<TRIPOS>SUBSTRUCTURE
  1 ****   3 GROUP 4 **** **** 0

# MOE 2024.06 (io_trps.svl 2023.06)
