@<TRIPOS>MOLECULE
NONAME
37 39 1 0 0 
SMALL
USER_CHARGES


@<TRIPOS>ATOM
  1 O        0.6980     0.9610     0.6800 O.2   1 <1>  -0.5700 
  2 C        0.2650     1.8180    -0.0830 C.2   1 <1>   0.6160 
  3 N        1.0770     2.2160    -1.1450 N.am  1 <1>  -0.4690 
  4 C       -1.0410     2.4190     0.0800 C.2   1 <1>   0.0140 
  5 C        0.6580     3.1770    -2.0330 C.2   1 <1>  -0.0410 
  6 C        2.4210     1.6050    -1.3290 C.3   1 <1>   0.1400 
  7 C       -1.4170     3.3800    -0.8480 C.2   1 <1>   0.0770 
  8 C       -1.9870     2.1080     1.1190 C.2   1 <1>  -0.1380 
  9 C       -0.5600     3.7560    -1.9010 C.2   1 <1>  -0.1500 
 10 C        3.4710     2.4140    -0.5620 C.3   1 <1>  -0.1600 
 11 O       -2.6040     3.9980    -0.7930 O.3   1 <1>  -0.2270 
 12 C       -3.1760     2.7620     1.1310 C.2   1 <1>  -0.1360 
 13 C       -1.6980     1.0730     2.2010 C.3   1 <1>  -0.1020 
 14 C        4.8610     1.7640    -0.6610 C.3   1 <1>   0.0200 
 15 C       -3.5060     3.7360     0.1540 C.2   1 <1>   0.7060 
 16 C        5.9520     2.5540     0.0440 C.2   1 <1>   0.2980 
 17 O       -4.5600     4.3410     0.1340 O.2   1 <1>  -0.5700 
 18 O        7.1440     2.0160     0.1190 O.3   1 <1>  -0.0190 
 19 N        5.8400     3.7060     0.5770 N.2   1 <1>  -0.5650 
 20 N        7.8500     2.9000     0.7560 N.2   1 <1>  -0.4100 
 21 C        7.0760     3.8750     1.0160 C.2   1 <1>   0.3350 
 22 C        7.4740     5.1320     1.7510 C.3   1 <1>  -0.0590 
 23 H        1.3280     3.4540    -2.8310 H     1 <1>   0.1500 
 24 H        2.6630     1.5870    -2.3770 H     1 <1>   0.0800 
 25 H        2.4080     0.5860    -0.9780 H     1 <1>   0.0800 
 26 H       -0.9010     4.5100    -2.5900 H     1 <1>   0.1500 
 27 H        3.1880     2.4740     0.4750 H     1 <1>   0.0800 
 28 H        3.5140     3.4130    -0.9610 H     1 <1>   0.0800 
 29 H       -3.9300     2.5830     1.8740 H     1 <1>   0.1500 
 30 H       -0.8270     1.3580     2.7640 H     1 <1>   0.0800 
 31 H       -1.5230     0.1100     1.7560 H     1 <1>   0.0800 
 32 H       -2.5220     0.9810     2.8850 H     1 <1>   0.0800 
 33 H        5.1400     1.6610    -1.6940 H     1 <1>   0.0800 
 34 H        4.8240     0.7820    -0.2240 H     1 <1>   0.0800 
 35 H        6.8760     5.2330     2.6370 H     1 <1>   0.0800 
 36 H        7.3140     5.9840     1.1180 H     1 <1>   0.0800 
 37 H        8.5110     5.0850     2.0270 H     1 <1>   0.0800 
@<TRIPOS>BOND
  1   1   2  2   
  2   2   3  am  
  3   2   4  1   
  4   3   5  1   
  5   3   6  1   
  6   4   7  2   
  7   4   8  1   
  8   5   9  2   
  9   5  23  1   
 10   6  10  1   
 11   6  24  1   
 12   6  25  1   
 13   7   9  1   
 14   7  11  1   
 15   8  12  2   
 16   8  13  1   
 17   9  26  1   
 18  10  14  1   
 19  10  27  1   
 20  10  28  1   
 21  11  15  1   
 22  12  15  1   
 23  12  29  1   
 24  13  30  1   
 25  13  31  1   
 26  13  32  1   
 27  14  16  1   
 28  14  33  1   
 29  14  34  1   
 30  15  17  2   
 31  16  18  1   
 32  16  19  2   
 33  18  20  1   
 34  19  21  1   
 35  20  21  2   
 36  21  22  1   
 37  22  35  1   
 38  22  36  1   
 39  22  37  1   
@<TRIPOS>SUBSTRUCTURE
  1 ****   3 GROUP 4 **** **** 0

# MOE 2024.06 (io_trps.svl 2023.06)
