@<TRIPOS>MOLECULE
NONAME
62 65 1 0 0 
SMALL
USER_CHARGES


@<TRIPOS>ATOM
  1 O       -2.2380     1.0120    -0.9220 O.2   1 <1>  -0.5700 
  2 C       -2.5140     1.3250     0.2110 C.2   1 <1>   0.5690 
  3 N       -1.6560     2.0350     0.9890 N.am  1 <1>  -0.7300 
  4 C       -3.8660     0.9110     0.7880 C.3   1 <1>  -0.0190 
  5 C       -0.2980     2.4550     0.5640 C.3   1 <1>   0.1400 
  6 C       -3.8470    -0.5780     1.1890 C.3   1 <1>  -0.1600 
  7 C       -5.0150     1.2020    -0.2030 C.3   1 <1>  -0.1600 
  8 C       -0.3290     3.8940     0.0520 C.3   1 <1>  -0.0170 
  9 C       -5.2210    -1.0750     1.6440 C.3   1 <1>   0.2090 
 10 C       -6.3510     0.6590     0.3020 C.3   1 <1>   0.2090 
 11 C        1.0670     4.3360    -0.3530 C.ar  1 <1>  -0.1440 
 12 N       -6.2030    -0.8070     0.5460 N.pl3 1 <1>  -0.8380 
 13 C        1.5710     3.9870    -1.5960 C.ar  1 <1>  -0.1500 
 14 C        1.8510     5.0840     0.5130 C.ar  1 <1>  -0.1500 
 15 C       -6.7890    -1.8210    -0.1480 C.ar  1 <1>   0.7710 
 16 C        2.8440     4.3800    -1.9710 C.ar  1 <1>  -0.1500 
 17 C        3.1240     5.4770     0.1390 C.ar  1 <1>  -0.1500 
 18 N       -6.7220    -3.0590     0.3190 N.ar  1 <1>  -0.6200 
 19 N       -7.4130    -1.5410    -1.3050 N.ar  1 <1>  -0.1790 
 20 C        3.6220     5.1260    -1.1030 C.ar  1 <1>  -0.1500 
 21 C       -7.3020    -4.0310    -0.3590 C.ar  1 <1>   0.4100 
 22 C       -8.0030    -2.5070    -2.0480 C.ar  1 <1>   0.2110 
 23 N       -7.2450    -5.2860     0.1600 N.pl3 1 <1>  -0.8380 
 24 C       -7.9540    -3.7750    -1.5800 C.ar  1 <1>  -0.1500 
 25 C       -8.3010    -6.3360    -0.0280 C.3   1 <1>   0.2090 
 26 C       -6.1490    -5.7260     1.0780 C.3   1 <1>   0.2090 
 27 C       -7.6770    -7.6250    -0.5870 C.3   1 <1>   0.2000 
 28 C       -5.5020    -7.0050     0.5290 C.3   1 <1>  -0.1600 
 29 O       -8.6400    -8.6170    -0.6570 O.3   1 <1>  -0.6800 
 30 C       -6.5290    -8.1270     0.2950 C.3   1 <1>  -0.1600 
 31 H       -1.9200     2.3010     1.9380 H     1 <1>   0.3700 
 32 H       -4.0440     1.4910     1.6760 H     1 <1>   0.0800 
 33 H        0.0550     1.8040    -0.2200 H     1 <1>   0.0800 
 34 H        0.3810     2.3740     1.3950 H     1 <1>   0.0800 
 35 H       -3.1350    -0.7280     1.9820 H     1 <1>   0.0800 
 36 H       -3.5250    -1.1740     0.3520 H     1 <1>   0.0800 
 37 H       -4.7940     0.7550    -1.1570 H     1 <1>   0.0800 
 38 H       -5.0910     2.2650    -0.3540 H     1 <1>   0.0800 
 39 H       -0.7080     4.5470     0.8180 H     1 <1>   0.0800 
 40 H       -0.9830     3.9550    -0.8010 H     1 <1>   0.0800 
 41 H       -5.5280    -0.5560     2.5360 H     1 <1>   0.0800 
 42 H       -5.1550    -2.1230     1.8860 H     1 <1>   0.0800 
 43 H       -7.1310     0.8750    -0.4050 H     1 <1>   0.0800 
 44 H       -6.6120     1.1460     1.2280 H     1 <1>   0.0800 
 45 H        0.9730     3.4060    -2.2780 H     1 <1>   0.1500 
 46 H        1.4760     5.3640     1.4820 H     1 <1>   0.1500 
 47 H        3.2280     4.1060    -2.9380 H     1 <1>   0.1500 
 48 H        3.7280     6.0580     0.8150 H     1 <1>   0.1500 
 49 H       -7.3660    -0.5740    -1.6000 H     1 <1>   0.4570 
 50 H        4.6110     5.4320    -1.3940 H     1 <1>   0.1500 
 51 H       -8.4800    -2.2420    -2.9780 H     1 <1>   0.1500 
 52 H       -8.3860    -4.5890    -2.1300 H     1 <1>   0.1500 
 53 H       -9.0780    -5.9960    -0.6860 H     1 <1>   0.0800 
 54 H       -8.7440    -6.5440     0.9300 H     1 <1>   0.0800 
 55 H       -6.5590    -5.9090     2.0570 H     1 <1>   0.0800 
 56 H       -5.3940    -4.9650     1.1710 H     1 <1>   0.0800 
 57 H       -7.3280    -7.4440    -1.5890 H     1 <1>   0.0800 
 58 H       -4.7510    -7.3440     1.2200 H     1 <1>   0.0800 
 59 H       -5.0080    -6.7680    -0.3970 H     1 <1>   0.0800 
 60 H       -8.8260    -8.9760     0.2310 H     1 <1>   0.4000 
 61 H       -6.0450    -8.9620    -0.1830 H     1 <1>   0.0800 
 62 H       -6.9130    -8.4470     1.2470 H     1 <1>   0.0800 
@<TRIPOS>BOND
  1   1   2  2   
  2   2   3  am  
  3   2   4  1   
  4   3   5  1   
  5   3  31  1   
  6   4   6  1   
  7   4   7  1   
  8   4  32  1   
  9   5   8  1   
 10   5  33  1   
 11   5  34  1   
 12   6   9  1   
 13   6  35  1   
 14   6  36  1   
 15   7  10  1   
 16   7  37  1   
 17   7  38  1   
 18   8  11  1   
 19   8  39  1   
 20   8  40  1   
 21   9  12  1   
 22   9  41  1   
 23   9  42  1   
 24  10  12  1   
 25  10  43  1   
 26  10  44  1   
 27  11  13  ar  
 28  11  14  ar  
 29  12  15  1   
 30  13  16  ar  
 31  13  45  1   
 32  14  17  ar  
 33  14  46  1   
 34  15  18  ar  
 35  15  19  ar  
 36  16  20  ar  
 37  16  47  1   
 38  17  20  ar  
 39  17  48  1   
 40  18  21  ar  
 41  19  22  ar  
 42  19  49  1   
 43  20  50  1   
 44  21  23  1   
 45  21  24  ar  
 46  22  24  ar  
 47  22  51  1   
 48  23  25  1   
 49  23  26  1   
 50  24  52  1   
 51  25  27  1   
 52  25  53  1   
 53  25  54  1   
 54  26  28  1   
 55  26  55  1   
 56  26  56  1   
 57  27  29  1   
 58  27  30  1   
 59  27  57  1   
 60  28  30  1   
 61  28  58  1   
 62  28  59  1   
 63  29  60  1   
 64  30  61  1   
 65  30  62  1   
@<TRIPOS>SUBSTRUCTURE
  1 ****   6 GROUP 4 **** **** 0

# MOE 2024.06 (io_trps.svl 2023.06)
