@<TRIPOS>MOLECULE
NONAME
44 45 1 0 0 
SMALL
USER_CHARGES


@<TRIPOS>ATOM
  1 O        1.0930     0.0330    -0.3920 O.3   1 <1>  -0.6800 
  2 C        2.0010    -0.8800     0.0960 C.3   1 <1>   0.2800 
  3 C        1.3400    -1.5870     1.2800 C.3   1 <1>  -0.1600 
  4 C        2.2610    -1.8810    -1.0350 C.3   1 <1>  -0.1600 
  5 C        3.2710    -0.0890     0.4900 C.3   1 <1>   0.2090 
  6 C        0.0640    -2.3010     0.8380 C.3   1 <1>   0.3430 
  7 C        0.9710    -2.5940    -1.4350 C.3   1 <1>   0.3430 
  8 N        3.6000     0.9360    -0.5440 N.pl3 1 <1>  -0.8690 
  9 N        0.3720    -3.2810    -0.2490 N.4   1 <1>  -0.9590 
 10 C        4.1800     2.1010    -0.1440 C.ar  1 <1>   0.4100 
 11 C       -0.8650    -4.0150    -0.6480 C.3   1 <1>   0.2630 
 12 N        5.4650     2.1390    -0.3930 N.ar  1 <1>  -0.6200 
 13 C        3.5120     3.1580     0.4620 C.ar  1 <1>  -0.1430 
 14 C        6.0890     3.2360    -0.0150 C.ar  1 <1>   0.4770 
 15 C        4.2790     4.2410     0.8060 C.ar  1 <1>   0.1600 
 16 C        2.0110     3.1730     0.7280 C.3   1 <1>  -0.0170 
 17 N        5.5760     4.2960     0.5800 N.ar  1 <1>  -0.6200 
 18 C        7.5720     3.2960    -0.2900 C.3   1 <1>  -0.0970 
 19 C        1.2390     3.5520    -0.5380 C.3   1 <1>  -0.2400 
 20 H        1.6380     0.7810    -0.7470 H     1 <1>   0.4000 
 21 H        1.0940    -0.8630     2.0380 H     1 <1>   0.0800 
 22 H        2.0190    -2.2960     1.7180 H     1 <1>   0.0800 
 23 H        2.9940    -2.6050    -0.7290 H     1 <1>   0.0800 
 24 H        2.6580    -1.3650    -1.8920 H     1 <1>   0.0800 
 25 H        4.1040    -0.7590     0.6100 H     1 <1>   0.0800 
 26 H        3.1130     0.3980     1.4380 H     1 <1>   0.0800 
 27 H       -0.6390    -1.5680     0.4750 H     1 <1>   0.0800 
 28 H       -0.3790    -2.8080     1.6810 H     1 <1>   0.0800 
 29 H        1.1790    -3.3110    -2.2130 H     1 <1>   0.0800 
 30 H        0.2740    -1.8660    -1.8200 H     1 <1>   0.0800 
 31 H        4.2050     0.5340    -1.2690 H     1 <1>   0.4000 
 32 H        1.0560    -3.9600     0.1120 H     1 <1>   0.4500 
 33 H       -1.6010    -3.3260    -1.0310 H     1 <1>   0.0800 
 34 H       -1.2860    -4.5310     0.2000 H     1 <1>   0.0800 
 35 H       -0.6410    -4.7400    -1.4140 H     1 <1>   0.0800 
 36 H        3.8280     5.0980     1.2770 H     1 <1>   0.1500 
 37 H        1.7860     3.8870     1.5020 H     1 <1>   0.0800 
 38 H        1.6840     2.2130     1.0820 H     1 <1>   0.0800 
 39 H        7.9160     2.3740    -0.7210 H     1 <1>   0.0800 
 40 H        8.1000     3.4730     0.6280 H     1 <1>   0.0800 
 41 H        7.7740     4.0990    -0.9740 H     1 <1>   0.0800 
 42 H        1.5220     4.5380    -0.8640 H     1 <1>   0.0800 
 43 H        0.1810     3.5440    -0.3450 H     1 <1>   0.0800 
 44 H        1.4510     2.8580    -1.3310 H     1 <1>   0.0800 
@<TRIPOS>BOND
  1   1   2  1   
  2   1  20  1   
  3   2   3  1   
  4   2   4  1   
  5   2   5  1   
  6   3   6  1   
  7   3  21  1   
  8   3  22  1   
  9   4   7  1   
 10   4  23  1   
 11   4  24  1   
 12   5   8  1   
 13   5  25  1   
 14   5  26  1   
 15   6   9  1   
 16   6  27  1   
 17   6  28  1   
 18   7   9  1   
 19   7  29  1   
 20   7  30  1   
 21   8  10  1   
 22   8  31  1   
 23   9  11  1   
 24   9  32  1   
 25  10  12  ar  
 26  10  13  ar  
 27  11  33  1   
 28  11  34  1   
 29  11  35  1   
 30  12  14  ar  
 31  13  15  ar  
 32  13  16  1   
 33  14  17  ar  
 34  14  18  1   
 35  15  17  ar  
 36  15  36  1   
 37  16  19  1   
 38  16  37  1   
 39  16  38  1   
 40  18  39  1   
 41  18  40  1   
 42  18  41  1   
 43  19  42  1   
 44  19  43  1   
 45  19  44  1   
@<TRIPOS>SUBSTRUCTURE
  1 ****   8 GROUP 4 **** **** 0

# MOE 2024.06 (io_trps.svl 2023.06)
