@<TRIPOS>MOLECULE
NONAME
35 36 1 0 0 
SMALL
USER_CHARGES


@<TRIPOS>ATOM
  1 S        0.7400     0.3910     2.0610 S.3   1 <1>  -0.0920 
  2 C       -0.6120     0.1030     1.0000 C.2   1 <1>   0.1870 
  3 C        0.8960     1.9850     1.3970 C.2   1 <1>  -0.1220 
  4 N       -0.9000     1.0950     0.2520 N.2   1 <1>  -0.5730 
  5 C       -1.2850    -1.2680     1.0850 C.3   1 <1>   0.5150 
  6 C       -0.0500     2.2000     0.4510 C.2   1 <1>   0.1300 
  7 N       -2.2300    -1.4720    -0.0610 N.4   1 <1>  -0.9620 
  8 C       -0.2300     3.4290    -0.3240 C.2   1 <1>   0.9960 
  9 C       -3.2300    -2.5400     0.2180 C.3   1 <1>   0.2530 
 10 C       -1.4950    -1.7320    -1.3340 C.3   1 <1>   0.2530 
 11 O       -0.8290     3.4460    -1.3780 O.2   1 <1>  -0.5770 
 12 N        0.2830     4.6100     0.1350 N.pl3 1 <1>  -0.7350 
 13 C        0.2200     5.8080    -0.4470 C.cat 1 <1>   1.0680 
 14 N       -0.3340     6.0920    -1.6110 N.pl3 1 <1>  -0.7060 
 15 N        0.7270     6.9220     0.0860 N.pl3 1 <1>  -0.7690 
 16 C       -0.1920     7.4350    -1.8570 C.2   1 <1>   0.1890 
 17 C        0.4670     7.9520    -0.8040 C.2   1 <1>   0.1890 
 18 C        1.4490     7.1530     1.3680 C.3   1 <1>   0.2640 
 19 H        1.6960     2.5900     1.7870 H     1 <1>   0.1390 
 20 H       -1.8260    -1.3210     2.0140 H     1 <1>   0.0680 
 21 H       -0.5350    -2.0410     1.0830 H     1 <1>   0.0680 
 22 H       -2.7120    -0.5640    -0.1740 H     1 <1>   0.4420 
 23 H       -2.7370    -3.4890     0.3470 H     1 <1>   0.0680 
 24 H       -3.9240    -2.6200    -0.6030 H     1 <1>   0.0680 
 25 H       -3.7840    -2.3090     1.1130 H     1 <1>   0.0680 
 26 H       -0.9340    -2.6490    -1.2630 H     1 <1>   0.0680 
 27 H       -0.8150    -0.9210    -1.5420 H     1 <1>   0.0680 
 28 H       -2.1910    -1.8130    -2.1530 H     1 <1>   0.0680 
 29 H        0.7120     4.5860     1.0450 H     1 <1>   0.4420 
 30 H       -0.7940     5.3770    -2.1890 H     1 <1>   0.4420 
 31 H       -0.5640     7.9190    -2.7480 H     1 <1>   0.1390 
 32 H        0.7650     8.9760    -0.6300 H     1 <1>   0.1390 
 33 H        1.6080     6.2300     1.8970 H     1 <1>   0.0680 
 34 H        0.8760     7.8170     1.9940 H     1 <1>   0.0680 
 35 H        2.4070     7.6050     1.1700 H     1 <1>   0.0680 
@<TRIPOS>BOND
  1   1   2  1   
  2   1   3  1   
  3   2   4  2   
  4   2   5  1   
  5   3   6  2   
  6   3  19  1   
  7   4   6  1   
  8   5   7  1   
  9   5  20  1   
 10   5  21  1   
 11   6   8  1   
 12   7   9  1   
 13   7  10  1   
 14   7  22  1   
 15   8  11  2   
 16   8  12  1   
 17   9  23  1   
 18   9  24  1   
 19   9  25  1   
 20  10  26  1   
 21  10  27  1   
 22  10  28  1   
 23  12  13  ar  
 24  12  29  1   
 25  13  14  ar  
 26  13  15  ar  
 27  14  16  1   
 28  14  30  1   
 29  15  17  1   
 30  15  18  1   
 31  16  17  2   
 32  16  31  1   
 33  17  32  1   
 34  18  33  1   
 35  18  34  1   
 36  18  35  1   
@<TRIPOS>SUBSTRUCTURE
  1 ****   8 GROUP 4 **** **** 0

# MOE 2024.06 (io_trps.svl 2023.06)
