@<TRIPOS>MOLECULE
NONAME
49 52 1 0 0 
SMALL
USER_CHARGES


@<TRIPOS>ATOM
  1 O       -2.1020     2.1460     2.0050 O.2   1 <1>  -0.5700 
  2 C       -2.3590     1.8360     0.8640 C.2   1 <1>   0.5690 
  3 N       -3.5040     1.1410     0.5540 N.am  1 <1>  -0.6600 
  4 C       -1.3710     2.2430    -0.2290 C.3   1 <1>  -0.0190 
  5 C       -4.4160     0.6370     1.6180 C.3   1 <1>   0.1400 
  6 C       -3.9540     0.7600    -0.8150 C.3   1 <1>   0.1400 
  7 C        0.0150     2.6110     0.2820 C.3   1 <1>   0.1200 
  8 C       -1.7650     3.5030    -0.9930 C.3   1 <1>  -0.1600 
  9 C       -4.4620    -0.8920     1.5560 C.3   1 <1>  -0.1600 
 10 C       -3.9890    -0.7660    -0.9260 C.3   1 <1>  -0.1600 
 11 O        0.5580     3.3940    -0.7310 O.3   1 <1>  -0.5600 
 12 C       -0.4330     4.1870    -1.2990 C.3   1 <1>   0.1200 
 13 C       -4.8760    -1.4020     0.1600 C.3   1 <1>   0.4240 
 14 O       -6.1560    -0.8690    -0.1050 O.3   1 <1>  -0.5600 
 15 C       -4.8700    -2.9550     0.0630 C.ar  1 <1>  -0.1440 
 16 C       -7.2590    -1.5500     0.3950 C.3   1 <1>   0.1200 
 17 C       -3.6990    -3.7090     0.2210 C.ar  1 <1>   0.0820 
 18 C       -6.0600    -3.6390    -0.1860 C.ar  1 <1>  -0.1440 
 19 C       -7.3630    -2.8790    -0.3350 C.3   1 <1>  -0.0170 
 20 O       -2.5320    -3.0650     0.4890 O.3   1 <1>  -0.3630 
 21 C       -3.7380    -5.0980     0.1090 C.ar  1 <1>  -0.1500 
 22 C       -6.0860    -5.0190    -0.2960 C.ar  1 <1>  -0.1500 
 23 C       -1.3270    -3.7450     0.7650 C.3   1 <1>   0.0400 
 24 C       -4.9260    -5.7500    -0.1510 C.ar  1 <1>  -0.1500 
 25 H       -1.2380     1.4230    -0.9100 H     1 <1>   0.0800 
 26 H       -5.4000     1.0460     1.4630 H     1 <1>   0.0800 
 27 H       -4.0790     0.9480     2.5920 H     1 <1>   0.0800 
 28 H       -3.3090     1.1610    -1.5730 H     1 <1>   0.0800 
 29 H       -4.9400     1.1610    -0.9820 H     1 <1>   0.0800 
 30 H        0.6390     1.7510     0.4470 H     1 <1>   0.0800 
 31 H       -0.0330     3.2130     1.1740 H     1 <1>   0.0800 
 32 H       -2.3630     4.1520    -0.3770 H     1 <1>   0.0800 
 33 H       -2.3070     3.2790    -1.8940 H     1 <1>   0.0800 
 34 H       -5.1320    -1.2710     2.3020 H     1 <1>   0.0800 
 35 H       -3.4840    -1.2510     1.8090 H     1 <1>   0.0800 
 36 H       -2.9810    -1.1200    -0.8560 H     1 <1>   0.0800 
 37 H       -4.3620    -1.0550    -1.8910 H     1 <1>   0.0800 
 38 H       -0.3820     5.1650    -0.8500 H     1 <1>   0.0800 
 39 H       -0.2450     4.2560    -2.3570 H     1 <1>   0.0800 
 40 H       -8.1320    -0.9480     0.2110 H     1 <1>   0.0800 
 41 H       -7.1440    -1.6940     1.4550 H     1 <1>   0.0800 
 42 H       -7.5650    -2.7030    -1.3770 H     1 <1>   0.0800 
 43 H       -8.1770    -3.4460     0.0780 H     1 <1>   0.0800 
 44 H       -2.8540    -5.6960     0.2180 H     1 <1>   0.1500 
 45 H       -7.0110    -5.5310    -0.4950 H     1 <1>   0.1500 
 46 H       -0.5740    -3.0110     0.9870 H     1 <1>   0.0800 
 47 H       -1.0390    -4.3120    -0.1030 H     1 <1>   0.0800 
 48 H       -1.4750    -4.3860     1.6160 H     1 <1>   0.0800 
 49 H       -4.9490    -6.8220    -0.2380 H     1 <1>   0.1500 
@<TRIPOS>BOND
  1   1   2  2   
  2   2   3  am  
  3   2   4  1   
  4   3   5  1   
  5   3   6  1   
  6   4   7  1   
  7   4   8  1   
  8   4  25  1   
  9   5   9  1   
 10   5  26  1   
 11   5  27  1   
 12   6  10  1   
 13   6  28  1   
 14   6  29  1   
 15   7  11  1   
 16   7  30  1   
 17   7  31  1   
 18   8  12  1   
 19   8  32  1   
 20   8  33  1   
 21   9  13  1   
 22   9  34  1   
 23   9  35  1   
 24  10  13  1   
 25  10  36  1   
 26  10  37  1   
 27  11  12  1   
 28  12  38  1   
 29  12  39  1   
 30  13  14  1   
 31  13  15  1   
 32  14  16  1   
 33  15  17  ar  
 34  15  18  ar  
 35  16  19  1   
 36  16  40  1   
 37  16  41  1   
 38  17  20  1   
 39  17  21  ar  
 40  18  19  1   
 41  18  22  ar  
 42  19  42  1   
 43  19  43  1   
 44  20  23  1   
 45  21  24  ar  
 46  21  44  1   
 47  22  24  ar  
 48  22  45  1   
 49  23  46  1   
 50  23  47  1   
 51  23  48  1   
 52  24  49  1   
@<TRIPOS>SUBSTRUCTURE
  1 ****  10 GROUP 4 **** **** 0

# MOE 2024.06 (io_trps.svl 2023.06)
