@<TRIPOS>MOLECULE
NONAME
51 54 1 0 0 
SMALL
USER_CHARGES


@<TRIPOS>ATOM
  1 O        1.3390    -0.4330     2.3600 O.2   1 <1>  -0.5700 
  2 C        1.8070    -0.6600     1.2600 C.2   1 <1>   0.7160 
  3 N        2.5580     0.3340     0.6660 N.am  1 <1>  -0.6600 
  4 C        1.6700    -1.9750     0.6470 C.2   1 <1>   0.2030 
  5 C        3.6450     0.9590     1.4910 C.3   1 <1>   0.2200 
  6 C        2.5410     0.5540    -0.8140 C.3   1 <1>   0.1400 
  7 N        2.5560    -2.5540    -0.1550 N.2   1 <1>  -0.7070 
  8 C        0.5780    -2.8180     0.8500 C.2   1 <1>  -0.1500 
  9 C        3.9190     2.4280     1.1330 C.3   1 <1>   0.1200 
 10 C        4.9350     0.1060     1.3950 C.3   1 <1>   0.3430 
 11 C        3.9120     0.8900    -1.4330 C.3   1 <1>  -0.0800 
 12 N        2.0050    -3.7460    -0.4590 N.pl3 1 <1>   0.3000 
 13 C        0.8070    -3.9450     0.1350 C.2   1 <1>  -0.2050 
 14 O        4.8370     2.5210     0.0840 O.3   1 <1>  -0.5600 
 15 N        4.9750    -0.8040     0.1890 N.4   1 <1>  -0.9590 
 16 C        4.3120     2.3530    -1.1890 C.3   1 <1>   0.1200 
 17 C        5.0700    -0.0830    -1.1200 C.3   1 <1>   0.3430 
 18 C        0.0030    -5.1300    -0.0220 C.ar  1 <1>   0.0530 
 19 C        6.0530    -1.8220     0.3220 C.3   1 <1>   0.2630 
 20 C        0.5720    -6.4010    -0.0820 C.ar  1 <1>  -0.1500 
 21 C       -1.3830    -5.0340    -0.1190 C.ar  1 <1>  -0.1500 
 22 C       -0.2070    -7.5320    -0.2430 C.ar  1 <1>  -0.1500 
 23 C       -2.1680    -6.1600    -0.2790 C.ar  1 <1>  -0.1500 
 24 C       -1.5900    -7.4170    -0.3450 C.ar  1 <1>   0.0820 
 25 O       -2.4280    -8.4690    -0.5040 O.3   1 <1>  -0.3620 
 26 C       -1.9450    -9.7930    -0.5640 C.3   1 <1>   0.0400 
 27 H        3.3310     0.9620     2.5200 H     1 <1>   0.0800 
 28 H        2.1430    -0.3150    -1.3080 H     1 <1>   0.0800 
 29 H        1.8560     1.3590    -1.0220 H     1 <1>   0.0800 
 30 H       -0.2720    -2.5900     1.4720 H     1 <1>   0.1500 
 31 H        4.3730     2.9160     1.9780 H     1 <1>   0.0800 
 32 H        3.0130     2.9570     0.8890 H     1 <1>   0.0800 
 33 H        4.9900    -0.4960     2.2860 H     1 <1>   0.0800 
 34 H        5.7920     0.7590     1.3950 H     1 <1>   0.0800 
 35 H        3.7640     0.8330    -2.4960 H     1 <1>   0.0800 
 36 H        2.4420    -4.4300    -1.0910 H     1 <1>   0.2700 
 37 H        4.0610    -1.3090     0.1670 H     1 <1>   0.4500 
 38 H        3.4800     3.0260    -1.3200 H     1 <1>   0.0800 
 39 H        5.0840     2.6410    -1.8820 H     1 <1>   0.0800 
 40 H        5.9990     0.4630    -1.1610 H     1 <1>   0.0800 
 41 H        5.0960    -0.8210    -1.9040 H     1 <1>   0.0800 
 42 H        7.0190    -1.3440     0.3450 H     1 <1>   0.0800 
 43 H        6.0220    -2.5070    -0.5100 H     1 <1>   0.0800 
 44 H        5.9220    -2.3850     1.2320 H     1 <1>   0.0800 
 45 H        1.6370    -6.5130     0.0090 H     1 <1>   0.1500 
 46 H       -1.8510    -4.0670    -0.0710 H     1 <1>   0.1500 
 47 H        0.2730    -8.4910    -0.2840 H     1 <1>   0.1500 
 48 H       -3.2380    -6.0740    -0.3540 H     1 <1>   0.1500 
 49 H       -2.7870   -10.4500    -0.6860 H     1 <1>   0.0800 
 50 H       -1.4340   -10.0200     0.3540 H     1 <1>   0.0800 
 51 H       -1.2840    -9.8850    -1.4080 H     1 <1>   0.0800 
@<TRIPOS>BOND
  1   1   2  2   
  2   2   3  am  
  3   2   4  1   
  4   3   5  1   
  5   3   6  1   
  6   4   7  2   
  7   4   8  1   
  8   5   9  1   
  9   5  10  1   
 10   5  27  1   
 11   6  11  1   
 12   6  28  1   
 13   6  29  1   
 14   7  12  1   
 15   8  13  2   
 16   8  30  1   
 17   9  14  1   
 18   9  31  1   
 19   9  32  1   
 20  10  15  1   
 21  10  33  1   
 22  10  34  1   
 23  11  16  1   
 24  11  17  1   
 25  11  35  1   
 26  12  13  1   
 27  12  36  1   
 28  13  18  1   
 29  14  16  1   
 30  15  17  1   
 31  15  19  1   
 32  15  37  1   
 33  16  38  1   
 34  16  39  1   
 35  17  40  1   
 36  17  41  1   
 37  18  20  ar  
 38  18  21  ar  
 39  19  42  1   
 40  19  43  1   
 41  19  44  1   
 42  20  22  ar  
 43  20  45  1   
 44  21  23  ar  
 45  21  46  1   
 46  22  24  ar  
 47  22  47  1   
 48  23  24  ar  
 49  23  48  1   
 50  24  25  1   
 51  25  26  1   
 52  26  49  1   
 53  26  50  1   
 54  26  51  1   
@<TRIPOS>SUBSTRUCTURE
  1 ****   7 GROUP 4 **** **** 0

# MOE 2024.06 (io_trps.svl 2023.06)
