@<TRIPOS>MOLECULE
NONAME
48 50 1 0 0 
SMALL
USER_CHARGES


@<TRIPOS>ATOM
  1 CL      -0.2770     0.0060    -1.1050 Cl    1 <1>  -0.1770 
  2 C       -1.8540     0.6960    -0.8110 C.ar  1 <1>   0.1770 
  3 C       -2.9120    -0.1320    -0.5070 C.ar  1 <1>  -0.1500 
  4 C       -2.0130     2.0650    -0.8940 C.ar  1 <1>  -0.1500 
  5 C       -4.1750     0.4050    -0.2710 C.ar  1 <1>   0.1170 
  6 C       -3.2640     2.6100    -0.6660 C.ar  1 <1>  -0.1500 
  7 N       -5.2810    -0.4050     0.0280 N.am  1 <1>  -0.5470 
  8 C       -4.3420     1.7920    -0.3570 C.ar  1 <1>  -0.1430 
  9 C       -5.4000    -1.6670     0.5360 C.2   1 <1>   0.6900 
 10 C       -5.7010     2.4370    -0.1110 C.3   1 <1>  -0.0960 
 11 O       -4.4260    -2.3260     0.8480 O.2   1 <1>  -0.5700 
 12 N       -6.6560    -2.1810     0.7050 N.am  1 <1>  -0.6600 
 13 C       -7.9310    -1.5120     0.3660 C.3   1 <1>   0.1400 
 14 C       -6.8820    -3.5940     1.0700 C.3   1 <1>   0.1400 
 15 C       -9.0320    -2.4820     0.8200 C.3   1 <1>  -0.0800 
 16 C       -8.3600    -3.8670     0.7800 C.3   1 <1>  -0.0800 
 17 C      -10.3920    -2.3850     0.0590 C.3   1 <1>   0.2800 
 18 C       -8.5790    -4.5410    -0.5830 C.3   1 <1>  -0.1600 
 19 O      -10.1960    -1.8750    -1.2110 O.3   1 <1>  -0.6800 
 20 C      -11.0020    -3.7870    -0.1230 C.3   1 <1>  -0.1600 
 21 C      -11.4040    -1.4560     0.7640 C.3   1 <1>  -0.1600 
 22 C      -10.0750    -4.7720    -0.8690 C.3   1 <1>  -0.1600 
 23 C      -10.9590     0.0070     0.9340 C.3   1 <1>  -0.2400 
 24 H       -2.7460    -1.1910    -0.4590 H     1 <1>   0.1500 
 25 H       -1.1710     2.6890    -1.1330 H     1 <1>   0.1500 
 26 H       -3.3890     3.6760    -0.7320 H     1 <1>   0.1500 
 27 H       -6.1810     0.0340    -0.1170 H     1 <1>   0.3700 
 28 H       -5.6330     3.5090    -0.1500 H     1 <1>   0.0800 
 29 H       -6.0690     2.1610     0.8620 H     1 <1>   0.0800 
 30 H       -6.4030     2.1170    -0.8600 H     1 <1>   0.0800 
 31 H       -8.0140    -0.5670     0.8720 H     1 <1>   0.0800 
 32 H       -7.9480    -1.3570    -0.6980 H     1 <1>   0.0800 
 33 H       -6.2330    -4.2420     0.5050 H     1 <1>   0.0800 
 34 H       -6.6750    -3.7160     2.1190 H     1 <1>   0.0800 
 35 H       -9.2200    -2.2780     1.8590 H     1 <1>   0.0800 
 36 H       -8.7600    -4.5080     1.5470 H     1 <1>   0.0800 
 37 H       -8.1710    -3.9050    -1.3520 H     1 <1>   0.0800 
 38 H       -8.0540    -5.4790    -0.6270 H     1 <1>   0.0800 
 39 H      -11.0300    -1.9330    -1.7110 H     1 <1>   0.4000 
 40 H      -11.2010    -4.1900     0.8550 H     1 <1>   0.0800 
 41 H      -11.9480    -3.7260    -0.6310 H     1 <1>   0.0800 
 42 H      -12.3300    -1.4700     0.2160 H     1 <1>   0.0800 
 43 H      -11.6180    -1.8580     1.7400 H     1 <1>   0.0800 
 44 H      -10.3440    -5.7760    -0.5880 H     1 <1>   0.0800 
 45 H      -10.2340    -4.6810    -1.9300 H     1 <1>   0.0800 
 46 H      -10.6950     0.4380    -0.0160 H     1 <1>   0.0800 
 47 H      -10.1170     0.0790     1.5970 H     1 <1>   0.0800 
 48 H      -11.7630     0.5850     1.3540 H     1 <1>   0.0800 
@<TRIPOS>BOND
  1   1   2  1   
  2   2   3  ar  
  3   2   4  ar  
  4   3   5  ar  
  5   3  24  1   
  6   4   6  ar  
  7   4  25  1   
  8   5   7  1   
  9   5   8  ar  
 10   6   8  ar  
 11   6  26  1   
 12   7   9  am  
 13   7  27  1   
 14   8  10  1   
 15   9  11  2   
 16   9  12  am  
 17  10  28  1   
 18  10  29  1   
 19  10  30  1   
 20  12  13  1   
 21  12  14  1   
 22  13  15  1   
 23  13  31  1   
 24  13  32  1   
 25  14  16  1   
 26  14  33  1   
 27  14  34  1   
 28  15  16  1   
 29  15  17  1   
 30  15  35  1   
 31  16  18  1   
 32  16  36  1   
 33  17  19  1   
 34  17  20  1   
 35  17  21  1   
 36  18  22  1   
 37  18  37  1   
 38  18  38  1   
 39  19  39  1   
 40  20  22  1   
 41  20  40  1   
 42  20  41  1   
 43  21  23  1   
 44  21  42  1   
 45  21  43  1   
 46  22  44  1   
 47  22  45  1   
 48  23  46  1   
 49  23  47  1   
 50  23  48  1   
@<TRIPOS>SUBSTRUCTURE
  1 ****  12 GROUP 4 **** **** 0

# MOE 2024.06 (io_trps.svl 2023.06)
