@<TRIPOS>MOLECULE
NONAME
46 48 1 0 0 
SMALL
USER_CHARGES


@<TRIPOS>ATOM
  1 O        1.1420     3.6530    -2.5070 O.2   1 <1>  -0.5700 
  2 C        1.0570     3.8850    -1.3210 C.2   1 <1>   0.5690 
  3 N       -0.1180     4.3210    -0.7540 N.am  1 <1>  -0.6600 
  4 C        2.3000     3.6420    -0.4930 C.3   1 <1>   0.1570 
  5 C       -0.3540     4.4860     0.7100 C.3   1 <1>   0.1400 
  6 C       -1.3680     4.4430    -1.5540 C.3   1 <1>   0.1400 
  7 N        2.1540     2.3640     0.2100 N.pl3 1 <1>   0.3140 
  8 C       -1.3040     3.3830     1.1790 C.3   1 <1>  -0.1600 
  9 C       -2.3430     3.3490    -1.1140 C.3   1 <1>  -0.1600 
 10 N        2.1170     2.2840     1.5650 N.2   1 <1>  -0.7070 
 11 C        2.0160     1.1400    -0.3680 C.2   1 <1>  -0.0680 
 12 C       -2.6220     3.4060     0.3920 C.3   1 <1>   0.4180 
 13 C        1.9660     1.0220     1.8090 C.2   1 <1>   0.1080 
 14 N        1.9990     0.8830    -1.7480 N.pl3 1 <1>  -0.8840 
 15 C        1.8970     0.2580     0.6480 C.2   1 <1>  -0.1500 
 16 O       -3.2790     4.6300     0.6190 O.3   1 <1>  -0.5600 
 17 C       -3.5190     2.2380     0.7930 C.2   1 <1>  -0.2880 
 18 C        1.8790     0.4770     3.2140 C.3   1 <1>  -0.0590 
 19 C       -4.0240     4.7540     1.7980 C.3   1 <1>   0.1200 
 20 C       -4.6890     2.3710     1.4220 C.2   1 <1>  -0.2760 
 21 C       -5.1860     3.7510     1.8110 C.3   1 <1>  -0.0220 
 22 C       -5.6070     1.2190     1.7880 C.3   1 <1>  -0.1020 
 23 H        2.4490     4.4300     0.2170 H     1 <1>   0.0800 
 24 H        3.1570     3.5790    -1.1350 H     1 <1>   0.0800 
 25 H       -0.7990     5.4510     0.8880 H     1 <1>   0.0800 
 26 H        0.5600     4.4370     1.2720 H     1 <1>   0.0800 
 27 H       -1.1620     4.3480    -2.6060 H     1 <1>   0.0800 
 28 H       -1.8030     5.4140    -1.3860 H     1 <1>   0.0800 
 29 H       -1.4940     3.4820     2.2300 H     1 <1>   0.0800 
 30 H       -0.8210     2.4330     1.0360 H     1 <1>   0.0800 
 31 H       -1.9210     2.3940    -1.3670 H     1 <1>   0.0800 
 32 H       -3.2700     3.4480    -1.6480 H     1 <1>   0.0800 
 33 H        1.5250     0.0170    -2.0200 H     1 <1>   0.4000 
 34 H        1.6650     1.6680    -2.3370 H     1 <1>   0.4000 
 35 H        1.7770    -0.8070     0.5890 H     1 <1>   0.1500 
 36 H       -3.1110     1.2850     0.5060 H     1 <1>   0.1500 
 37 H        2.7710     0.7350     3.7540 H     1 <1>   0.0800 
 38 H        1.7730    -0.5920     3.1980 H     1 <1>   0.0800 
 39 H        1.0320     0.9080     3.7140 H     1 <1>   0.0800 
 40 H       -4.3990     5.7600     1.8470 H     1 <1>   0.0800 
 41 H       -3.3730     4.5860     2.6370 H     1 <1>   0.0800 
 42 H       -5.9500     4.0710     1.1240 H     1 <1>   0.0800 
 43 H       -5.6090     3.7310     2.7990 H     1 <1>   0.0800 
 44 H       -6.5640     1.3440     1.3150 H     1 <1>   0.0800 
 45 H       -5.7470     1.1780     2.8540 H     1 <1>   0.0800 
 46 H       -5.1850     0.2840     1.4640 H     1 <1>   0.0800 
@<TRIPOS>BOND
  1   1   2  2   
  2   2   3  am  
  3   2   4  1   
  4   3   5  1   
  5   3   6  1   
  6   4   7  1   
  7   4  23  1   
  8   4  24  1   
  9   5   8  1   
 10   5  25  1   
 11   5  26  1   
 12   6   9  1   
 13   6  27  1   
 14   6  28  1   
 15   7  10  1   
 16   7  11  1   
 17   8  12  1   
 18   8  29  1   
 19   8  30  1   
 20   9  12  1   
 21   9  31  1   
 22   9  32  1   
 23  10  13  2   
 24  11  14  1   
 25  11  15  2   
 26  12  16  1   
 27  12  17  1   
 28  13  15  1   
 29  13  18  1   
 30  14  33  1   
 31  14  34  1   
 32  15  35  1   
 33  16  19  1   
 34  17  20  2   
 35  17  36  1   
 36  18  37  1   
 37  18  38  1   
 38  18  39  1   
 39  19  21  1   
 40  19  40  1   
 41  19  41  1   
 42  20  21  1   
 43  20  22  1   
 44  21  42  1   
 45  21  43  1   
 46  22  44  1   
 47  22  45  1   
 48  22  46  1   
@<TRIPOS>SUBSTRUCTURE
  1 ****   8 GROUP 4 **** **** 0

# MOE 2024.06 (io_trps.svl 2023.06)
