@<TRIPOS>MOLECULE
NONAME
55 58 1 0 0 
SMALL
USER_CHARGES


@<TRIPOS>ATOM
  1 O       -0.3050     0.2570     0.0460 O.2   1 <1>  -0.5700 
  2 C       -1.3410     0.8860     0.1690 C.2   1 <1>   0.5440 
  3 N       -2.5260     0.1860     0.2330 N.am  1 <1>  -0.6600 
  4 C       -1.3080     2.3330     0.2250 C.ar  1 <1>   0.0860 
  5 C       -3.8460     0.7490    -0.1470 C.3   1 <1>   0.1400 
  6 C       -2.5590    -1.2960     0.1900 C.3   1 <1>   0.1400 
  7 C       -0.5490     3.0680    -0.6860 C.ar  1 <1>  -0.1500 
  8 C       -2.0260     3.0490     1.1840 C.ar  1 <1>  -0.1500 
  9 C       -4.6520    -0.4490    -0.6500 C.3   1 <1>   0.2000 
 10 C       -4.0330    -1.6690     0.0290 C.3   1 <1>  -0.0800 
 11 C       -0.5160     4.4500    -0.6660 C.ar  1 <1>  -0.1440 
 12 C       -2.0010     4.4280     1.2140 C.ar  1 <1>  -0.1500 
 13 O       -5.9920    -0.3430    -0.3110 O.3   1 <1>  -0.6800 
 14 C       -4.2570    -2.9690    -0.7590 C.3   1 <1>  -0.0170 
 15 C       -1.2530     5.1500     0.2910 C.ar  1 <1>   0.1000 
 16 C        0.3250     5.2030    -1.6870 C.3   1 <1>  -0.0970 
 17 C       -3.6310    -4.1560    -0.0430 C.ar  1 <1>  -0.1430 
 18 N       -1.2370     6.5350     0.3360 N.pl3 1 <1>  -0.8380 
 19 C       -4.2980    -4.8300     0.9600 C.ar  1 <1>  -0.1500 
 20 C       -2.3690    -4.6210    -0.3530 C.ar  1 <1>  -0.1500 
 21 C       -0.4570     7.1740     1.4330 C.3   1 <1>   0.2090 
 22 C       -2.5060     7.2600     0.0420 C.3   1 <1>   0.2090 
 23 C       -3.6870    -5.9020     1.5890 C.ar  1 <1>   0.1600 
 24 C       -1.8480    -5.7020     0.3380 C.ar  1 <1>   0.1600 
 25 C       -0.3070     8.6860     1.1870 C.3   1 <1>   0.1200 
 26 C       -2.2440     8.7670    -0.1310 C.3   1 <1>   0.1200 
 27 N       -2.4770    -6.3540     1.3030 N.ar  1 <1>  -0.6200 
 28 O       -1.5560     9.2880     0.9730 O.3   1 <1>  -0.5600 
 29 H       -4.3080     1.1820     0.7220 H     1 <1>   0.0800 
 30 H       -3.7380     1.4890    -0.9210 H     1 <1>   0.0800 
 31 H       -1.9810    -1.6310    -0.6540 H     1 <1>   0.0800 
 32 H       -2.1410    -1.7110     1.0920 H     1 <1>   0.0800 
 33 H        0.0240     2.5260    -1.4170 H     1 <1>   0.1500 
 34 H       -2.6010     2.5100     1.9140 H     1 <1>   0.1500 
 35 H       -4.5750    -0.5140    -1.7220 H     1 <1>   0.0800 
 36 H       -4.4430    -1.7750     1.0180 H     1 <1>   0.0800 
 37 H       -2.5590     4.9620     1.9600 H     1 <1>   0.1500 
 38 H       -6.0960    -0.3050     0.6590 H     1 <1>   0.4000 
 39 H       -3.8380    -2.8800    -1.7460 H     1 <1>   0.0800 
 40 H       -5.3140    -3.1400    -0.8710 H     1 <1>   0.0800 
 41 H        0.8170     4.5270    -2.3620 H     1 <1>   0.0800 
 42 H        1.0690     5.7890    -1.1800 H     1 <1>   0.0800 
 43 H       -0.3030     5.8640    -2.2560 H     1 <1>   0.0800 
 44 H       -5.2870    -4.5320     1.2590 H     1 <1>   0.1500 
 45 H       -1.7830    -4.1540    -1.1240 H     1 <1>   0.1500 
 46 H       -0.9580     7.0150     2.3720 H     1 <1>   0.0800 
 47 H        0.5160     6.7190     1.4900 H     1 <1>   0.0800 
 48 H       -2.9420     6.8620    -0.8580 H     1 <1>   0.0800 
 49 H       -3.2020     7.1130     0.8490 H     1 <1>   0.0800 
 50 H       -4.2230    -6.4160     2.3690 H     1 <1>   0.1500 
 51 H       -0.8610    -6.0490     0.0840 H     1 <1>   0.1500 
 52 H        0.3120     8.8630     0.3250 H     1 <1>   0.0800 
 53 H        0.1440     9.1580     2.0410 H     1 <1>   0.0800 
 54 H       -3.1740     9.2980    -0.2200 H     1 <1>   0.0800 
 55 H       -1.6580     8.9430    -1.0160 H     1 <1>   0.0800 
@<TRIPOS>BOND
  1   1   2  2   
  2   2   3  am  
  3   2   4  1   
  4   3   5  1   
  5   3   6  1   
  6   4   7  ar  
  7   4   8  ar  
  8   5   9  1   
  9   5  29  1   
 10   5  30  1   
 11   6  10  1   
 12   6  31  1   
 13   6  32  1   
 14   7  11  ar  
 15   7  33  1   
 16   8  12  ar  
 17   8  34  1   
 18   9  10  1   
 19   9  13  1   
 20   9  35  1   
 21  10  14  1   
 22  10  36  1   
 23  11  15  ar  
 24  11  16  1   
 25  12  15  ar  
 26  12  37  1   
 27  13  38  1   
 28  14  17  1   
 29  14  39  1   
 30  14  40  1   
 31  15  18  1   
 32  16  41  1   
 33  16  42  1   
 34  16  43  1   
 35  17  19  ar  
 36  17  20  ar  
 37  18  21  1   
 38  18  22  1   
 39  19  23  ar  
 40  19  44  1   
 41  20  24  ar  
 42  20  45  1   
 43  21  25  1   
 44  21  46  1   
 45  21  47  1   
 46  22  26  1   
 47  22  48  1   
 48  22  49  1   
 49  23  27  ar  
 50  23  50  1   
 51  24  27  ar  
 52  24  51  1   
 53  25  28  1   
 54  25  52  1   
 55  25  53  1   
 56  26  28  1   
 57  26  54  1   
 58  26  55  1   
@<TRIPOS>SUBSTRUCTURE
  1 ****   2 GROUP 4 **** **** 0

# MOE 2024.06 (io_trps.svl 2023.06)
