@<TRIPOS>MOLECULE
NONAME
54 56 1 0 0 
SMALL
USER_CHARGES


@<TRIPOS>ATOM
  1 O        3.2160     0.2510     2.6310 O.2   1 <1>  -0.5700 
  2 C        2.5840    -0.1900     1.6970 C.2   1 <1>   0.5690 
  3 N        1.8150     0.6100     0.8910 N.am  1 <1>  -0.4940 
  4 C        2.6760    -1.6900     1.3890 C.3   1 <1>   0.2370 
  5 C        1.7200     2.0150     0.7930 C.2   1 <1>  -0.0880 
  6 N        1.5250    -2.0980     0.5380 N.pl3 1 <1>   0.0480 
  7 C        2.7720    -2.5760     2.6480 C.3   1 <1>  -0.2400 
  8 N        2.7270     2.9290     0.9160 N.pl3 1 <1>   0.3140 
  9 C        0.5990     2.7140     0.5000 C.2   1 <1>  -0.1810 
 10 C        1.4140    -2.0040    -0.8150 C.2   1 <1>   0.0060 
 11 C        0.2990    -2.4750     0.9560 C.2   1 <1>  -0.3020 
 12 N        2.2630     4.1890     0.7140 N.2   1 <1>  -0.7070 
 13 C        4.1780     2.7020     1.1230 C.3   1 <1>   0.2390 
 14 C        0.9980     4.0440     0.4720 C.2   1 <1>   0.1390 
 15 C       -0.8080     2.2050     0.2440 C.3   1 <1>  -0.0590 
 16 N        0.2280    -2.2970    -1.2490 N.2   1 <1>  -0.5650 
 17 C        2.5690    -1.5780    -1.7300 C.3   1 <1>   0.1000 
 18 C       -0.4700    -2.6000    -0.1430 C.2   1 <1>   0.0770 
 19 C        4.7810     1.7570     0.0830 C.ar  1 <1>  -0.1430 
 20 C        2.0620    -0.9380    -3.0300 C.3   1 <1>  -0.2400 
 21 C        3.4520    -2.7870    -2.0550 C.3   1 <1>  -0.2400 
 22 C        4.5950     1.9950    -1.2710 C.ar  1 <1>  -0.1500 
 23 C        5.5310     0.6600     0.4800 C.ar  1 <1>  -0.1500 
 24 C        5.1490     1.1520    -2.2210 C.ar  1 <1>  -0.1430 
 25 C        6.0840    -0.1880    -0.4630 C.ar  1 <1>  -0.1500 
 26 C        5.8940     0.0590    -1.8110 C.ar  1 <1>  -0.1500 
 27 C        4.9470     1.4430    -3.6970 C.3   1 <1>  -0.0970 
 28 H        1.1840     0.1050     0.2570 H     1 <1>   0.3700 
 29 H        3.5750    -1.8390     0.8220 H     1 <1>   0.0800 
 30 H        1.9480    -2.3850     3.3120 H     1 <1>   0.0800 
 31 H        3.6810    -2.3520     3.1780 H     1 <1>   0.0800 
 32 H        2.7860    -3.6160     2.3760 H     1 <1>   0.0800 
 33 H        0.0340    -2.6330     1.9860 H     1 <1>   0.1500 
 34 H        4.3270     2.3310     2.1180 H     1 <1>   0.0800 
 35 H        4.6740     3.6530     1.0540 H     1 <1>   0.0800 
 36 H        0.3400     4.8730     0.2710 H     1 <1>   0.1500 
 37 H       -0.8590     1.1390     0.3740 H     1 <1>   0.0800 
 38 H       -1.1060     2.4430    -0.7610 H     1 <1>   0.0800 
 39 H       -1.4940     2.6670     0.9310 H     1 <1>   0.0800 
 40 H        3.1670    -0.8390    -1.2290 H     1 <1>   0.0800 
 41 H       -1.5060    -2.8920    -0.2000 H     1 <1>   0.1500 
 42 H        1.4620    -1.6380    -3.5840 H     1 <1>   0.0800 
 43 H        2.8880    -0.6300    -3.6430 H     1 <1>   0.0800 
 44 H        1.4600    -0.0770    -2.8020 H     1 <1>   0.0800 
 45 H        2.8720    -3.5350    -2.5680 H     1 <1>   0.0800 
 46 H        3.8450    -3.2210    -1.1550 H     1 <1>   0.0800 
 47 H        4.2730    -2.4930    -2.6830 H     1 <1>   0.0800 
 48 H        4.0170     2.8470    -1.5880 H     1 <1>   0.1500 
 49 H        5.6900     0.4650     1.5280 H     1 <1>   0.1500 
 50 H        6.6680    -1.0350    -0.1490 H     1 <1>   0.1500 
 51 H        6.3340    -0.6000    -2.5390 H     1 <1>   0.1500 
 52 H        3.9400     1.7760    -3.8750 H     1 <1>   0.0800 
 53 H        5.1250     0.5630    -4.2880 H     1 <1>   0.0800 
 54 H        5.6270     2.2140    -4.0100 H     1 <1>   0.0800 
@<TRIPOS>BOND
  1   1   2  2   
  2   2   3  am  
  3   2   4  1   
  4   3   5  1   
  5   3  28  1   
  6   4   6  1   
  7   4   7  1   
  8   4  29  1   
  9   5   8  1   
 10   5   9  2   
 11   6  10  1   
 12   6  11  1   
 13   7  30  1   
 14   7  31  1   
 15   7  32  1   
 16   8  12  1   
 17   8  13  1   
 18   9  14  1   
 19   9  15  1   
 20  10  16  2   
 21  10  17  1   
 22  11  18  2   
 23  11  33  1   
 24  12  14  2   
 25  13  19  1   
 26  13  34  1   
 27  13  35  1   
 28  14  36  1   
 29  15  37  1   
 30  15  38  1   
 31  15  39  1   
 32  16  18  1   
 33  17  20  1   
 34  17  21  1   
 35  17  40  1   
 36  18  41  1   
 37  19  22  ar  
 38  19  23  ar  
 39  20  42  1   
 40  20  43  1   
 41  20  44  1   
 42  21  45  1   
 43  21  46  1   
 44  21  47  1   
 45  22  24  ar  
 46  22  48  1   
 47  23  25  ar  
 48  23  49  1   
 49  24  26  ar  
 50  24  27  1   
 51  25  26  ar  
 52  25  50  1   
 53  26  51  1   
 54  27  52  1   
 55  27  53  1   
 56  27  54  1   
@<TRIPOS>SUBSTRUCTURE
  1 ****   3 GROUP 4 **** **** 0

# MOE 2024.06 (io_trps.svl 2023.06)
