@<TRIPOS>MOLECULE
NONAME
54 56 1 0 0 
SMALL
USER_CHARGES


@<TRIPOS>ATOM
  1 O       -4.4270     3.2400     0.0710 O.2   1 <1>  -0.5700 
  2 C       -3.2290     3.1560    -0.0480 C.2   1 <1>   0.5690 
  3 N       -2.6460     2.0960    -0.6620 N.am  1 <1>  -0.7300 
  4 C       -2.3530     4.2640     0.5150 C.3   1 <1>   0.0440 
  5 C       -3.3480     0.9230    -1.2230 C.3   1 <1>   0.2200 
  6 C       -0.8640     3.9350     0.4340 C.ar  1 <1>  -0.1440 
  7 C       -3.1390    -0.2660    -0.3010 C.3   1 <1>  -0.0800 
  8 C       -2.6440     0.4660    -2.4990 C.3   1 <1>   0.1200 
  9 C       -0.0930     4.4120    -0.6130 C.ar  1 <1>  -0.1500 
 10 C       -0.2760     3.1270     1.3940 C.ar  1 <1>  -0.1500 
 11 C       -1.7680    -0.7690    -0.7570 C.3   1 <1>   0.1200 
 12 C       -4.2440    -1.3230    -0.4890 C.3   1 <1>  -0.0160 
 13 O       -1.6550    -0.4460    -2.1120 O.3   1 <1>  -0.5600 
 14 C        1.2480     4.0800    -0.7090 C.ar  1 <1>   0.0830 
 15 C        1.0630     2.7780     1.3150 C.ar  1 <1>   0.0830 
 16 C       -4.0450    -2.5150     0.4350 C.ar  1 <1>  -0.1430 
 17 O        1.9330     4.5930    -1.7610 O.3   1 <1>  -0.3630 
 18 C        1.8340     3.2320     0.2370 C.ar  1 <1>   0.0830 
 19 O        1.5210     1.9770     2.3160 O.3   1 <1>  -0.3630 
 20 C       -3.5620    -3.7240    -0.0230 C.ar  1 <1>  -0.1500 
 21 C       -4.3400    -2.4470     1.7820 C.ar  1 <1>  -0.1500 
 22 C        2.9920     5.4760    -1.4610 C.3   1 <1>   0.0400 
 23 O        3.1250     2.8310     0.0860 O.3   1 <1>  -0.3630 
 24 C        2.8050     2.2000     2.8580 C.3   1 <1>   0.0400 
 25 C       -3.4010    -4.7770     0.8630 C.ar  1 <1>   0.1600 
 26 C       -4.1420    -3.5600     2.5830 C.ar  1 <1>   0.1600 
 27 C        3.3260     1.8240    -0.8800 C.3   1 <1>   0.0400 
 28 N       -3.6790    -4.7240     2.1560 N.ar  1 <1>  -0.6200 
 29 H       -1.6220     2.0580    -0.7130 H     1 <1>   0.3700 
 30 H       -2.5620     5.1670    -0.0270 H     1 <1>   0.0800 
 31 H       -2.6310     4.4290     1.5400 H     1 <1>   0.0800 
 32 H       -4.3860     1.1570    -1.3900 H     1 <1>   0.0800 
 33 H       -3.1180     0.0370     0.7310 H     1 <1>   0.0800 
 34 H       -2.1920     1.2810    -3.0360 H     1 <1>   0.0800 
 35 H       -3.3290    -0.0560    -3.1420 H     1 <1>   0.0800 
 36 H       -0.5210     5.0450    -1.3700 H     1 <1>   0.1500 
 37 H       -0.8540     2.7510     2.2200 H     1 <1>   0.1500 
 38 H       -1.6380    -1.8290    -0.6330 H     1 <1>   0.0800 
 39 H       -0.9830    -0.2510    -0.2330 H     1 <1>   0.0800 
 40 H       -4.2660    -1.6610    -1.5100 H     1 <1>   0.0800 
 41 H       -5.2010    -0.8790    -0.2740 H     1 <1>   0.0800 
 42 H       -3.3090    -3.8590    -1.0590 H     1 <1>   0.1500 
 43 H       -4.7220    -1.5410     2.2150 H     1 <1>   0.1500 
 44 H        3.3160     5.9350    -2.3770 H     1 <1>   0.0800 
 45 H        3.8040     4.9250    -1.0230 H     1 <1>   0.0800 
 46 H        2.6370     6.2270    -0.7770 H     1 <1>   0.0800 
 47 H        2.8260     1.7880     3.8510 H     1 <1>   0.0800 
 48 H        2.9950     3.2590     2.8940 H     1 <1>   0.0800 
 49 H        3.5340     1.7040     2.2450 H     1 <1>   0.0800 
 50 H       -3.0240    -5.7130     0.4880 H     1 <1>   0.1500 
 51 H       -4.3780    -3.4880     3.6310 H     1 <1>   0.1500 
 52 H        4.3700     1.5670    -0.8890 H     1 <1>   0.0800 
 53 H        3.0310     2.1970    -1.8450 H     1 <1>   0.0800 
 54 H        2.7350     0.9650    -0.6140 H     1 <1>   0.0800 
@<TRIPOS>BOND
  1   1   2  2   
  2   2   3  am  
  3   2   4  1   
  4   3   5  1   
  5   3  29  1   
  6   4   6  1   
  7   4  30  1   
  8   4  31  1   
  9   5   7  1   
 10   5   8  1   
 11   5  32  1   
 12   6   9  ar  
 13   6  10  ar  
 14   7  11  1   
 15   7  12  1   
 16   7  33  1   
 17   8  13  1   
 18   8  34  1   
 19   8  35  1   
 20   9  14  ar  
 21   9  36  1   
 22  10  15  ar  
 23  10  37  1   
 24  11  13  1   
 25  11  38  1   
 26  11  39  1   
 27  12  16  1   
 28  12  40  1   
 29  12  41  1   
 30  14  17  1   
 31  14  18  ar  
 32  15  18  ar  
 33  15  19  1   
 34  16  20  ar  
 35  16  21  ar  
 36  17  22  1   
 37  18  23  1   
 38  19  24  1   
 39  20  25  ar  
 40  20  42  1   
 41  21  26  ar  
 42  21  43  1   
 43  22  44  1   
 44  22  45  1   
 45  22  46  1   
 46  23  27  1   
 47  24  47  1   
 48  24  48  1   
 49  24  49  1   
 50  25  28  ar  
 51  25  50  1   
 52  26  28  ar  
 53  26  51  1   
 54  27  52  1   
 55  27  53  1   
 56  27  54  1   
@<TRIPOS>SUBSTRUCTURE
  1 ****   3 GROUP 4 **** **** 0

# MOE 2024.06 (io_trps.svl 2023.06)
