@<TRIPOS>MOLECULE
NONAME
50 52 1 0 0 
SMALL
USER_CHARGES


@<TRIPOS>ATOM
  1 O        1.6720     0.7970     1.9880 O.co2 1 <1>  -0.9000 
  2 C        1.8870     0.1620     0.9500 C.2   1 <1>   0.9060 
  3 O        1.8210    -1.0770     0.9410 O.co2 1 <1>  -0.9000 
  4 C        2.2590     0.8900    -0.3580 C.3   1 <1>  -0.1060 
  5 C        3.5000     0.2030    -0.9850 C.3   1 <1>   0.2000 
  6 C        2.6450     2.3760    -0.1000 C.3   1 <1>  -0.1600 
  7 C        1.0720     0.7990    -1.3560 C.3   1 <1>  -0.0160 
  8 O        3.2440    -1.1400    -1.2070 O.3   1 <1>  -0.6800 
  9 C        4.7500     0.3440    -0.1040 C.3   1 <1>   0.1400 
 10 C        3.9030     2.5160     0.7700 C.3   1 <1>   0.1400 
 11 C       -0.0660     1.7870    -1.1100 C.ar  1 <1>  -0.1440 
 12 N        5.0420     1.7950     0.1290 N.am  1 <1>  -0.6600 
 13 C       -0.3030     2.8200    -2.0050 C.ar  1 <1>  -0.1500 
 14 C       -0.8790     1.6640     0.0070 C.ar  1 <1>  -0.1500 
 15 C        6.2350     2.3580    -0.2420 C.2   1 <1>   0.5690 
 16 C       -1.3360     3.7170    -1.7880 C.ar  1 <1>  -0.1500 
 17 C       -1.9100     2.5600     0.2270 C.ar  1 <1>  -0.1500 
 18 O        7.1030     1.7170    -0.7880 O.2   1 <1>  -0.5700 
 19 C        6.4940     3.8350     0.0270 C.3   1 <1>  -0.0990 
 20 C       -2.1410     3.5870    -0.6700 C.ar  1 <1>  -0.1500 
 21 C        7.8890     4.3130    -0.4030 C.3   1 <1>  -0.0170 
 22 C        8.0580     5.7930    -0.1010 C.ar  1 <1>  -0.1430 
 23 C        7.7320     6.7660    -1.0230 C.ar  1 <1>  -0.1500 
 24 C        8.5420     6.2380     1.1120 C.ar  1 <1>  -0.1500 
 25 C        7.9010     8.1020    -0.6960 C.ar  1 <1>   0.1600 
 26 C        8.6720     7.5990     1.3380 C.ar  1 <1>   0.1600 
 27 N        8.3610     8.5420     0.4640 N.ar  1 <1>  -0.6200 
 28 H        3.7210     0.6370    -1.9440 H     1 <1>   0.0800 
 29 H        1.8360     2.8740     0.4070 H     1 <1>   0.0800 
 30 H        2.8060     2.8850    -1.0330 H     1 <1>   0.0800 
 31 H        1.4430     0.9530    -2.3530 H     1 <1>   0.0800 
 32 H        0.6680    -0.1990    -1.3330 H     1 <1>   0.0800 
 33 H        2.7060    -1.4450    -0.4110 H     1 <1>   0.4000 
 34 H        5.5800    -0.1360    -0.5930 H     1 <1>   0.0800 
 35 H        4.5860    -0.1380     0.8440 H     1 <1>   0.0800 
 36 H        3.7270     2.0920     1.7450 H     1 <1>   0.0800 
 37 H        4.1180     3.5580     0.9080 H     1 <1>   0.0800 
 38 H        0.3180     2.9300    -2.8760 H     1 <1>   0.1500 
 39 H       -0.7040     0.8710     0.7170 H     1 <1>   0.1500 
 40 H       -1.5120     4.5140    -2.4880 H     1 <1>   0.1500 
 41 H       -2.5260     2.4520     1.1020 H     1 <1>   0.1500 
 42 H        5.7540     4.4080    -0.4990 H     1 <1>   0.0800 
 43 H        6.3780     4.0120     1.0800 H     1 <1>   0.0800 
 44 H       -2.9420     4.2830    -0.4970 H     1 <1>   0.1500 
 45 H        8.0220     4.1390    -1.4570 H     1 <1>   0.0800 
 46 H        8.6420     3.7460     0.1170 H     1 <1>   0.0800 
 47 H        7.3510     6.4990    -1.9910 H     1 <1>   0.1500 
 48 H        8.8190     5.5410     1.8810 H     1 <1>   0.1500 
 49 H        7.6420     8.8480    -1.4280 H     1 <1>   0.1500 
 50 H        9.0530     7.9280     2.2900 H     1 <1>   0.1500 
@<TRIPOS>BOND
  1   1   2  ar  
  2   2   3  ar  
  3   2   4  1   
  4   4   5  1   
  5   4   6  1   
  6   4   7  1   
  7   5   8  1   
  8   5   9  1   
  9   5  28  1   
 10   6  10  1   
 11   6  29  1   
 12   6  30  1   
 13   7  11  1   
 14   7  31  1   
 15   7  32  1   
 16   8  33  1   
 17   9  12  1   
 18   9  34  1   
 19   9  35  1   
 20  10  12  1   
 21  10  36  1   
 22  10  37  1   
 23  11  13  ar  
 24  11  14  ar  
 25  12  15  am  
 26  13  16  ar  
 27  13  38  1   
 28  14  17  ar  
 29  14  39  1   
 30  15  18  2   
 31  15  19  1   
 32  16  20  ar  
 33  16  40  1   
 34  17  20  ar  
 35  17  41  1   
 36  19  21  1   
 37  19  42  1   
 38  19  43  1   
 39  20  44  1   
 40  21  22  1   
 41  21  45  1   
 42  21  46  1   
 43  22  23  ar  
 44  22  24  ar  
 45  23  25  ar  
 46  23  47  1   
 47  24  26  ar  
 48  24  48  1   
 49  25  27  ar  
 50  25  49  1   
 51  26  27  ar  
 52  26  50  1   
@<TRIPOS>SUBSTRUCTURE
  1 ****  10 GROUP 4 **** **** 0

# MOE 2024.06 (io_trps.svl 2023.06)
