@<TRIPOS>MOLECULE
NONAME
33 34 1 0 0 
SMALL
USER_CHARGES


@<TRIPOS>ATOM
  1 CL      -0.3540     1.4640     0.0390 Cl    1 <1>  -0.1770 
  2 C        1.3640     1.7640    -0.0760 C.ar  1 <1>   0.1770 
  3 C        1.9300     2.8310     0.6050 C.ar  1 <1>   0.1600 
  4 C        2.1460     0.9310    -0.8480 C.ar  1 <1>  -0.1500 
  5 N        3.2220     3.1430     0.5810 N.ar  1 <1>  -0.6200 
  6 C        3.4800     1.2550    -0.8700 C.ar  1 <1>   0.1900 
  7 C        3.9980     2.3510    -0.1580 C.ar  1 <1>   0.4100 
  8 F        4.2880     0.5050    -1.5840 F     1 <1>  -0.1900 
  9 N        5.3450     2.6640    -0.2080 N.pl3 1 <1>  -0.8690 
 10 C        6.0540     3.4790     0.8150 C.3   1 <1>   0.2090 
 11 C        6.4860     4.8350     0.2340 C.3   1 <1>   0.0000 
 12 C        7.4630     5.5920     1.1820 C.3   1 <1>   0.0000 
 13 C        7.6470     4.7190    -0.7970 C.3   1 <1>   0.0000 
 14 C        5.2690     5.6580    -0.2420 C.3   1 <1>   0.1200 
 15 C        8.3960     5.8420    -0.0330 C.3   1 <1>   0.0000 
 16 O        5.6400     6.9340    -0.6700 O.3   1 <1>  -0.5600 
 17 C        4.5780     7.6970    -1.1400 C.3   1 <1>   0.0400 
 18 H        1.2840     3.4560     1.1960 H     1 <1>   0.1500 
 19 H        1.7410     0.0960    -1.3880 H     1 <1>   0.1500 
 20 H        5.9360     2.0210    -0.7430 H     1 <1>   0.4000 
 21 H        6.9180     2.9340     1.1550 H     1 <1>   0.0800 
 22 H        5.4200     3.6450     1.6690 H     1 <1>   0.0800 
 23 H        7.9260     4.9520     1.9140 H     1 <1>   0.0000 
 24 H        7.0610     6.4930     1.6090 H     1 <1>   0.0000 
 25 H        7.3740     4.9910    -1.8020 H     1 <1>   0.0000 
 26 H        8.1710     3.7800    -0.7410 H     1 <1>   0.0000 
 27 H        4.5640     5.7640     0.5650 H     1 <1>   0.0800 
 28 H        4.7880     5.1510    -1.0620 H     1 <1>   0.0800 
 29 H        9.4270     5.6110     0.1650 H     1 <1>   0.0000 
 30 H        8.2560     6.8130    -0.4750 H     1 <1>   0.0000 
 31 H        4.9620     8.6550    -1.4400 H     1 <1>   0.0800 
 32 H        3.8570     7.8250    -0.3510 H     1 <1>   0.0800 
 33 H        4.1330     7.2020    -1.9850 H     1 <1>   0.0800 
@<TRIPOS>BOND
  1   1   2  1   
  2   2   3  ar  
  3   2   4  ar  
  4   3   5  ar  
  5   3  18  1   
  6   4   6  ar  
  7   4  19  1   
  8   5   7  ar  
  9   6   7  ar  
 10   6   8  1   
 11   7   9  1   
 12   9  10  1   
 13   9  20  1   
 14  10  11  1   
 15  10  21  1   
 16  10  22  1   
 17  11  12  1   
 18  11  13  1   
 19  11  14  1   
 20  12  15  1   
 21  12  23  1   
 22  12  24  1   
 23  13  15  1   
 24  13  25  1   
 25  13  26  1   
 26  14  16  1   
 27  14  27  1   
 28  14  28  1   
 29  15  29  1   
 30  15  30  1   
 31  16  17  1   
 32  17  31  1   
 33  17  32  1   
 34  17  33  1   
@<TRIPOS>SUBSTRUCTURE
  1 ****   9 GROUP 4 **** **** 0

# MOE 2024.06 (io_trps.svl 2023.06)
