@<TRIPOS>MOLECULE
NONAME
54 57 1 0 0 
SMALL
USER_CHARGES


@<TRIPOS>ATOM
  1 O        4.2480    -2.0940    -1.1440 O.2   1 <1>  -0.5700 
  2 C        3.7890    -1.7360    -0.0770 C.2   1 <1>   0.5440 
  3 N        4.6300    -1.0530     0.7790 N.am  1 <1>  -0.6600 
  4 C        2.3970    -1.9930     0.2330 C.ar  1 <1>   0.0860 
  5 C        6.1080    -1.2070     0.6400 C.3   1 <1>   0.1400 
  6 C        4.1540     0.0270     1.6830 C.3   1 <1>   0.1400 
  7 C        1.4260    -1.8790    -0.7600 C.ar  1 <1>   0.1600 
  8 C        1.9620    -2.3560     1.5020 C.ar  1 <1>  -0.1500 
  9 C        6.6390    -0.4200    -0.5730 C.3   1 <1>   0.3430 
 10 C        4.8200     1.3690     1.3530 C.3   1 <1>  -0.1600 
 11 N        0.1240    -2.0510    -0.5940 N.ar  1 <1>  -0.6200 
 12 C        0.6120    -2.5510     1.6940 C.ar  1 <1>  -0.1500 
 13 N        6.5050     1.0750    -0.4580 N.4   1 <1>  -0.9590 
 14 C        5.1250     1.5600    -0.1360 C.3   1 <1>   0.3430 
 15 C       -0.2560    -2.3840     0.6280 C.ar  1 <1>   0.1600 
 16 C        7.0070     1.7210    -1.7010 C.3   1 <1>   0.4860 
 17 C        7.1410     3.2110    -1.4520 C.ar  1 <1>  -0.1440 
 18 C        7.9560     3.6690    -0.4280 C.ar  1 <1>  -0.1500 
 19 C        6.4450     4.1250    -2.2270 C.ar  1 <1>  -0.1500 
 20 C        8.0720     5.0240    -0.1540 C.ar  1 <1>  -0.1440 
 21 C        6.5610     5.4790    -1.9690 C.ar  1 <1>  -0.1500 
 22 C        7.3670     5.9250    -0.9370 C.ar  1 <1>  -0.1500 
 23 C        8.9380     5.5450     0.9980 C.3   1 <1>   0.2390 
 24 N       10.0840     4.6600     1.3170 N.pl3 1 <1>   0.3140 
 25 N        9.9730     3.6030     2.1540 N.2   1 <1>  -0.7070 
 26 C       11.3470     4.7850     0.8610 C.2   1 <1>  -0.3020 
 27 C       11.1700     3.1020     2.2160 C.2   1 <1>   0.1390 
 28 C       12.0730     3.7970     1.4230 C.2   1 <1>  -0.1500 
 29 H        6.3270    -2.2510     0.4880 H     1 <1>   0.0800 
 30 H        6.6080    -0.8990     1.5420 H     1 <1>   0.0800 
 31 H        4.3540    -0.2440     2.7070 H     1 <1>   0.0800 
 32 H        3.0880     0.1410     1.5780 H     1 <1>   0.0800 
 33 H        1.7530    -1.6270    -1.7550 H     1 <1>   0.1500 
 34 H        2.6610    -2.4870     2.3100 H     1 <1>   0.1500 
 35 H        6.1120    -0.7630    -1.4490 H     1 <1>   0.0800 
 36 H        7.6780    -0.6700    -0.7060 H     1 <1>   0.0800 
 37 H        5.7110     1.4990     1.9420 H     1 <1>   0.0800 
 38 H        4.1390     2.1430     1.6590 H     1 <1>   0.0800 
 39 H        0.2270    -2.8330     2.6580 H     1 <1>   0.1500 
 40 H        7.1160     1.4090     0.2980 H     1 <1>   0.4500 
 41 H        5.0600     2.6150    -0.3530 H     1 <1>   0.0800 
 42 H        4.3930     1.0490    -0.7400 H     1 <1>   0.0800 
 43 H       -1.3110    -2.5360     0.7870 H     1 <1>   0.1500 
 44 H        6.3280     1.5390    -2.5170 H     1 <1>   0.0800 
 45 H        7.9740     1.3220    -1.9630 H     1 <1>   0.0800 
 46 H        8.5070     2.9600     0.1650 H     1 <1>   0.1500 
 47 H        5.8110     3.8010    -3.0360 H     1 <1>   0.1500 
 48 H        6.0230     6.1910    -2.5730 H     1 <1>   0.1500 
 49 H        7.4380     6.9840    -0.7490 H     1 <1>   0.1500 
 50 H        8.3350     5.6350     1.8830 H     1 <1>   0.0800 
 51 H        9.3250     6.5170     0.7560 H     1 <1>   0.0800 
 52 H       11.6560     5.5570     0.1790 H     1 <1>   0.1500 
 53 H       11.4260     2.2450     2.8180 H     1 <1>   0.1500 
 54 H       13.1190     3.5740     1.3060 H     1 <1>   0.1500 
@<TRIPOS>BOND
  1   1   2  2   
  2   2   3  am  
  3   2   4  1   
  4   3   5  1   
  5   3   6  1   
  6   4   7  ar  
  7   4   8  ar  
  8   5   9  1   
  9   5  29  1   
 10   5  30  1   
 11   6  10  1   
 12   6  31  1   
 13   6  32  1   
 14   7  11  ar  
 15   7  33  1   
 16   8  12  ar  
 17   8  34  1   
 18   9  13  1   
 19   9  35  1   
 20   9  36  1   
 21  10  14  1   
 22  10  37  1   
 23  10  38  1   
 24  11  15  ar  
 25  12  15  ar  
 26  12  39  1   
 27  13  14  1   
 28  13  16  1   
 29  13  40  1   
 30  14  41  1   
 31  14  42  1   
 32  15  43  1   
 33  16  17  1   
 34  16  44  1   
 35  16  45  1   
 36  17  18  ar  
 37  17  19  ar  
 38  18  20  ar  
 39  18  46  1   
 40  19  21  ar  
 41  19  47  1   
 42  20  22  ar  
 43  20  23  1   
 44  21  22  ar  
 45  21  48  1   
 46  22  49  1   
 47  23  24  1   
 48  23  50  1   
 49  23  51  1   
 50  24  25  1   
 51  24  26  1   
 52  25  27  2   
 53  26  28  2   
 54  26  52  1   
 55  27  28  1   
 56  27  53  1   
 57  28  54  1   
@<TRIPOS>SUBSTRUCTURE
  1 ****  14 GROUP 4 **** **** 0

# MOE 2024.06 (io_trps.svl 2023.06)
