@<TRIPOS>MOLECULE
NONAME
46 49 1 0 0 
SMALL
USER_CHARGES


@<TRIPOS>ATOM
  1 O       -0.2590     0.0450    -0.7380 O.2   1 <1>  -0.5700 
  2 C       -1.1800     0.3920    -0.0250 C.2   1 <1>   0.7160 
  3 N       -2.2010    -0.4820     0.1690 N.am  1 <1>  -0.7300 
  4 C       -1.2230     1.6910     0.5770 C.2   1 <1>  -0.0860 
  5 C       -2.4170    -1.7290    -0.5890 C.3   1 <1>   0.2200 
  6 C       -2.3650     2.3220     1.0910 C.2   1 <1>   0.3720 
  7 C       -0.2410     2.6130     0.7800 C.2   1 <1>   0.0870 
  8 C       -3.3240    -1.4540    -1.7800 C.3   1 <1>   0.1200 
  9 C       -3.2860    -2.6570     0.2310 C.3   1 <1>  -0.1600 
 10 N       -2.0850     3.4940     1.5420 N.2   1 <1>  -0.4100 
 11 N       -3.6630     1.7860     1.1090 N.pl3 1 <1>  -0.8210 
 12 O       -0.8060     3.6510     1.3430 O.3   1 <1>  -0.0190 
 13 C        1.1770     2.6420     0.5190 C.ar  1 <1>   0.0530 
 14 O       -4.6170    -1.4130    -1.2570 O.3   1 <1>  -0.5600 
 15 C       -4.7110    -2.2410    -0.1350 C.3   1 <1>   0.1200 
 16 C       -4.4740     2.1850     2.3050 C.3   1 <1>   0.2090 
 17 C       -4.4270     2.0850    -0.1460 C.3   1 <1>   0.2090 
 18 C        1.9860     1.5190     0.6880 C.ar  1 <1>  -0.1500 
 19 C        1.7960     3.8200     0.1000 C.ar  1 <1>  -0.1500 
 20 C       -5.8870     1.5810     2.2480 C.3   1 <1>   0.1200 
 21 C       -5.8600     1.5190    -0.0930 C.3   1 <1>   0.1200 
 22 C        3.3460     1.5660     0.4430 C.ar  1 <1>  -0.1500 
 23 C        3.1550     3.8750    -0.1450 C.ar  1 <1>  -0.1500 
 24 O       -6.5310     1.9440     1.0600 O.3   1 <1>  -0.5600 
 25 C        3.9350     2.7460     0.0250 C.ar  1 <1>  -0.1500 
 26 H       -3.0450    -0.0680     0.5900 H     1 <1>   0.3700 
 27 H       -1.4770    -2.1700    -0.8770 H     1 <1>   0.0800 
 28 H       -3.2790    -2.2640    -2.4870 H     1 <1>   0.0800 
 29 H       -3.0960    -0.5250    -2.2710 H     1 <1>   0.0800 
 30 H       -3.0920    -2.5900     1.2870 H     1 <1>   0.0800 
 31 H       -3.1290    -3.6730    -0.0850 H     1 <1>   0.0800 
 32 H       -5.1700    -1.6740     0.6570 H     1 <1>   0.0800 
 33 H       -5.3260    -3.0900    -0.3810 H     1 <1>   0.0800 
 34 H       -4.5590     3.2580     2.3520 H     1 <1>   0.0800 
 35 H       -3.9760     1.8510     3.1990 H     1 <1>   0.0800 
 36 H       -3.9140     1.6590    -0.9900 H     1 <1>   0.0800 
 37 H       -4.4770     3.1510    -0.2910 H     1 <1>   0.0800 
 38 H        1.5460     0.5940     1.0150 H     1 <1>   0.1500 
 39 H        1.1990     4.7050    -0.0370 H     1 <1>   0.1500 
 40 H       -6.4800     1.9480     3.0670 H     1 <1>   0.0800 
 41 H       -5.8420     0.5080     2.3050 H     1 <1>   0.0800 
 42 H       -5.8430     0.4460    -0.1020 H     1 <1>   0.0800 
 43 H       -6.4220     1.8580    -0.9450 H     1 <1>   0.0800 
 44 H        3.9460     0.6830     0.5760 H     1 <1>   0.1500 
 45 H        3.6080     4.7960    -0.4690 H     1 <1>   0.1500 
 46 H        4.9930     2.7840    -0.1660 H     1 <1>   0.1500 
@<TRIPOS>BOND
  1   1   2  2   
  2   2   3  am  
  3   2   4  1   
  4   3   5  1   
  5   3  26  1   
  6   4   6  1   
  7   4   7  2   
  8   5   8  1   
  9   5   9  1   
 10   5  27  1   
 11   6  10  2   
 12   6  11  1   
 13   7  12  1   
 14   7  13  1   
 15   8  14  1   
 16   8  28  1   
 17   8  29  1   
 18   9  15  1   
 19   9  30  1   
 20   9  31  1   
 21  10  12  1   
 22  11  16  1   
 23  11  17  1   
 24  13  18  ar  
 25  13  19  ar  
 26  14  15  1   
 27  15  32  1   
 28  15  33  1   
 29  16  20  1   
 30  16  34  1   
 31  16  35  1   
 32  17  21  1   
 33  17  36  1   
 34  17  37  1   
 35  18  22  ar  
 36  18  38  1   
 37  19  23  ar  
 38  19  39  1   
 39  20  24  1   
 40  20  40  1   
 41  20  41  1   
 42  21  24  1   
 43  21  42  1   
 44  21  43  1   
 45  22  25  ar  
 46  22  44  1   
 47  23  25  ar  
 48  23  45  1   
 49  25  46  1   
@<TRIPOS>SUBSTRUCTURE
  1 ****   4 GROUP 4 **** **** 0

# MOE 2024.06 (io_trps.svl 2023.06)
