@<TRIPOS>MOLECULE
NONAME
43 46 1 0 0 
SMALL
USER_CHARGES


@<TRIPOS>ATOM
  1 S        0.0340     0.2840    -1.7500 S.3   1 <1>  -0.0800 
  2 C       -1.0880     1.1090    -0.6790 C.2   1 <1>  -0.1400 
  3 C       -1.1440    -0.9860    -2.0570 C.2   1 <1>  -0.1100 
  4 C       -2.2480     0.4440    -0.6040 C.2   1 <1>  -0.1810 
  5 C       -0.7380     2.4060     0.0420 C.3   1 <1>   0.4600 
  6 C       -2.2870    -0.7560    -1.3820 C.2   1 <1>  -0.1500 
  7 C       -3.3660     0.9900     0.2550 C.3   1 <1>   0.0210 
  8 O       -1.7900     2.7250     0.9340 O.3   1 <1>  -0.5600 
  9 C       -0.5530     3.5670    -0.9450 C.3   1 <1>  -0.1600 
 10 C        0.5180     2.2330     0.9030 C.3   1 <1>  -0.1600 
 11 C       -3.1140     2.4890     0.5140 C.3   1 <1>   0.1200 
 12 C       -0.1580     4.8570    -0.2240 C.3   1 <1>   0.1400 
 13 C        0.9110     3.5390     1.5970 C.3   1 <1>   0.1400 
 14 N        1.0770     4.6100     0.5720 N.am  1 <1>  -0.6600 
 15 C        2.2760     5.2700     0.4180 C.2   1 <1>   0.5690 
 16 O        3.2420     4.9810     1.0910 O.2   1 <1>  -0.5700 
 17 C        2.4170     6.3820    -0.6290 C.3   1 <1>   0.2010 
 18 N        3.6860     7.1400    -0.5150 N.am  1 <1>  -0.4200 
 19 C        3.9020     8.0780     0.4500 C.2   1 <1>   0.6900 
 20 C        4.8780     6.6890    -0.9920 C.2   1 <1>   0.5690 
 21 O        3.0350     8.5920     1.1210 O.2   1 <1>  -0.5700 
 22 N        5.2160     8.3470     0.5880 N.am  1 <1>  -0.7300 
 23 O        5.0330     5.8530    -1.8480 O.2   1 <1>  -0.5700 
 24 C        5.9990     7.4240    -0.2730 C.3   1 <1>   0.2010 
 25 H       -0.8510    -1.7810    -2.7180 H     1 <1>   0.1500 
 26 H       -3.1610    -1.3830    -1.3980 H     1 <1>   0.1500 
 27 H       -3.4020     0.4580     1.1880 H     1 <1>   0.0800 
 28 H       -4.3100     0.8690    -0.2450 H     1 <1>   0.0800 
 29 H       -1.4530     3.7180    -1.5090 H     1 <1>   0.0800 
 30 H        0.2220     3.3130    -1.6450 H     1 <1>   0.0800 
 31 H        1.3400     1.9150     0.2890 H     1 <1>   0.0800 
 32 H        0.3430     1.4670     1.6350 H     1 <1>   0.0800 
 33 H       -3.7710     2.8460     1.2870 H     1 <1>   0.0800 
 34 H       -3.2950     3.0570    -0.3810 H     1 <1>   0.0800 
 35 H       -0.9480     5.1600     0.4430 H     1 <1>   0.0800 
 36 H       -0.0150     5.6390    -0.9470 H     1 <1>   0.0800 
 37 H        1.8220     3.3910     2.1520 H     1 <1>   0.0800 
 38 H        0.1430     3.8320     2.2930 H     1 <1>   0.0800 
 39 H        1.6030     7.0730    -0.5150 H     1 <1>   0.0800 
 40 H        2.3630     5.9410    -1.6070 H     1 <1>   0.0800 
 41 H        5.5730     8.7470     1.4570 H     1 <1>   0.3700 
 42 H        6.6140     7.9660    -0.9690 H     1 <1>   0.0800 
 43 H        6.5820     6.7400     0.3180 H     1 <1>   0.0800 
@<TRIPOS>BOND
  1   1   2  1   
  2   1   3  1   
  3   2   4  2   
  4   2   5  1   
  5   3   6  2   
  6   3  25  1   
  7   4   6  1   
  8   4   7  1   
  9   5   8  1   
 10   5   9  1   
 11   5  10  1   
 12   6  26  1   
 13   7  11  1   
 14   7  27  1   
 15   7  28  1   
 16   8  11  1   
 17   9  12  1   
 18   9  29  1   
 19   9  30  1   
 20  10  13  1   
 21  10  31  1   
 22  10  32  1   
 23  11  33  1   
 24  11  34  1   
 25  12  14  1   
 26  12  35  1   
 27  12  36  1   
 28  13  14  1   
 29  13  37  1   
 30  13  38  1   
 31  14  15  am  
 32  15  16  2   
 33  15  17  1   
 34  17  18  1   
 35  17  39  1   
 36  17  40  1   
 37  18  19  am  
 38  18  20  am  
 39  19  21  2   
 40  19  22  am  
 41  20  23  2   
 42  20  24  1   
 43  22  24  1   
 44  22  41  1   
 45  24  42  1   
 46  24  43  1   
@<TRIPOS>SUBSTRUCTURE
  1 ****  14 GROUP 4 **** **** 0

# MOE 2024.06 (io_trps.svl 2023.06)
