@<TRIPOS>MOLECULE
NONAME
48 49 1 0 0 
SMALL
USER_CHARGES


@<TRIPOS>ATOM
  1 O        0.4970     1.6240     1.0320 O.co2 1 <1>  -0.9000 
  2 C        1.4290     0.8230     0.8960 C.2   1 <1>   0.9060 
  3 O        1.2600    -0.3870     1.0940 O.co2 1 <1>  -0.9000 
  4 C        2.8300     1.3090     0.4670 C.3   1 <1>  -0.1060 
  5 C        3.8190     0.7410     1.5400 C.3   1 <1>   0.2000 
  6 C        2.9100     2.8750     0.4570 C.3   1 <1>  -0.1600 
  7 C        3.1470     0.7470    -0.9590 C.3   1 <1>  -0.1600 
  8 O        5.0510     0.4030     0.9690 O.3   1 <1>  -0.6800 
  9 C        4.0710     1.7460     2.6810 C.3   1 <1>   0.1400 
 10 C        4.3030     3.4130     0.7920 C.3   1 <1>   0.1400 
 11 C        2.0690     1.0080    -2.0290 C.3   1 <1>  -0.1600 
 12 N        4.7020     3.0160     2.1780 N.am  1 <1>  -0.6600 
 13 C        2.4930     0.4330    -3.3830 C.3   1 <1>  -0.2400 
 14 C        5.7270     3.6050     2.8730 C.2   1 <1>   0.5690 
 15 O        6.0030     3.2760     4.0050 O.2   1 <1>  -0.5700 
 16 C        6.5650     4.7220     2.2570 C.3   1 <1>   0.0440 
 17 C        7.2680     4.3640     0.9460 C.ar  1 <1>  -0.1430 
 18 C        7.4960     5.3490    -0.0030 C.ar  1 <1>  -0.1500 
 19 C        7.6760     3.0640     0.6810 C.ar  1 <1>  -0.1500 
 20 C        8.1120     5.0430    -1.2050 C.ar  1 <1>  -0.1500 
 21 C        8.2880     2.7540    -0.5200 C.ar  1 <1>  -0.1500 
 22 C        8.5080     3.7360    -1.4720 C.ar  1 <1>   0.0830 
 23 O        9.1060     3.3460    -2.6250 O.3   1 <1>  -0.3630 
 24 C        9.3870     4.2700    -3.6520 C.3   1 <1>   0.0400 
 25 H        3.4320    -0.1690     1.9660 H     1 <1>   0.0800 
 26 H        2.2400     3.2880     1.1910 H     1 <1>   0.0800 
 27 H        2.5950     3.2700    -0.4870 H     1 <1>   0.0800 
 28 H        4.0810     1.1550    -1.3050 H     1 <1>   0.0800 
 29 H        3.2560    -0.3210    -0.8790 H     1 <1>   0.0800 
 30 H        4.8750    -0.1700     0.2010 H     1 <1>   0.4000 
 31 H        4.7000     1.2810     3.4190 H     1 <1>   0.0800 
 32 H        3.1330     1.9850     3.1500 H     1 <1>   0.0800 
 33 H        4.3000     4.4850     0.7070 H     1 <1>   0.0800 
 34 H        5.0140     3.0140     0.0890 H     1 <1>   0.0800 
 35 H        1.1420     0.5460    -1.7290 H     1 <1>   0.0800 
 36 H        1.8840     2.0600    -2.1410 H     1 <1>   0.0800 
 37 H        2.6440    -0.6300    -3.3040 H     1 <1>   0.0800 
 38 H        3.4060     0.8930    -3.7180 H     1 <1>   0.0800 
 39 H        1.7260     0.6160    -4.1140 H     1 <1>   0.0800 
 40 H        5.9210     5.5670     2.1080 H     1 <1>   0.0800 
 41 H        7.3150     5.0120     2.9690 H     1 <1>   0.0800 
 42 H        7.1930     6.3630     0.1880 H     1 <1>   0.1500 
 43 H        7.5090     2.2770     1.3990 H     1 <1>   0.1500 
 44 H        8.2730     5.8290    -1.9170 H     1 <1>   0.1500 
 45 H        8.5940     1.7450    -0.7240 H     1 <1>   0.1500 
 46 H        9.8610     3.7400    -4.4580 H     1 <1>   0.0800 
 47 H       10.0510     5.0250    -3.2700 H     1 <1>   0.0800 
 48 H        8.4640     4.7040    -3.9930 H     1 <1>   0.0800 
@<TRIPOS>BOND
  1   1   2  ar  
  2   2   3  ar  
  3   2   4  1   
  4   4   5  1   
  5   4   6  1   
  6   4   7  1   
  7   5   8  1   
  8   5   9  1   
  9   5  25  1   
 10   6  10  1   
 11   6  26  1   
 12   6  27  1   
 13   7  11  1   
 14   7  28  1   
 15   7  29  1   
 16   8  30  1   
 17   9  12  1   
 18   9  31  1   
 19   9  32  1   
 20  10  12  1   
 21  10  33  1   
 22  10  34  1   
 23  11  13  1   
 24  11  35  1   
 25  11  36  1   
 26  12  14  am  
 27  13  37  1   
 28  13  38  1   
 29  13  39  1   
 30  14  15  2   
 31  14  16  1   
 32  16  17  1   
 33  16  40  1   
 34  16  41  1   
 35  17  18  ar  
 36  17  19  ar  
 37  18  20  ar  
 38  18  42  1   
 39  19  21  ar  
 40  19  43  1   
 41  20  22  ar  
 42  20  44  1   
 43  21  22  ar  
 44  21  45  1   
 45  22  23  1   
 46  23  24  1   
 47  24  46  1   
 48  24  47  1   
 49  24  48  1   
@<TRIPOS>SUBSTRUCTURE
  1 ****  10 GROUP 4 **** **** 0

# MOE 2024.06 (io_trps.svl 2023.06)
