@<TRIPOS>MOLECULE
NONAME
50 54 1 0 0 
SMALL
USER_CHARGES


@<TRIPOS>ATOM
  1 O       -2.9210     0.9370    -2.6260 O.2   1 <1>  -0.5700 
  2 C       -2.3300     1.2060    -1.5980 C.2   1 <1>   0.5440 
  3 N       -2.2310     0.1930    -0.6710 N.am  1 <1>  -0.6600 
  4 C       -1.8580     2.5570    -1.3590 C.ar  1 <1>   0.0860 
  5 C       -2.6340     0.3990     0.7500 C.3   1 <1>   0.1400 
  6 C       -2.2900    -1.2290    -1.1090 C.3   1 <1>   0.1400 
  7 C       -0.7960     2.8530    -0.4910 C.ar  1 <1>   0.1400 
  8 C       -2.4480     3.6500    -1.9910 C.ar  1 <1>  -0.1500 
  9 C       -4.0490    -0.1710     1.0070 C.3   1 <1>   0.4230 
 10 C       -3.7120    -1.7730    -0.9010 C.3   1 <1>   0.3430 
 11 O       -0.0570     2.0000     0.2240 O.3   1 <1>  -0.2800 
 12 C       -0.3650     4.1490    -0.2560 C.ar  1 <1>   0.0000 
 13 C       -2.0240     4.9590    -1.7630 C.ar  1 <1>  -0.1500 
 14 N       -4.1860    -1.6090     0.5290 N.4   1 <1>  -0.9590 
 15 C       -5.1250     0.7320     0.3570 C.3   1 <1>   0.1200 
 16 C        0.8350     2.7080     0.9040 C.2   1 <1>  -0.0400 
 17 C       -0.9850     5.2180    -0.8950 C.ar  1 <1>  -0.1500 
 18 C        0.6990     4.0230     0.6590 C.2   1 <1>  -0.1500 
 19 C       -5.6020    -2.0710     0.7270 C.3   1 <1>   0.5180 
 20 O       -6.4020     0.2140     0.6020 O.3   1 <1>  -0.5600 
 21 C        1.8120     1.9660     1.7900 C.3   1 <1>  -0.0600 
 22 C       -5.7410    -3.5250     0.2310 C.3   1 <1>  -0.1950 
 23 C       -6.6120    -1.0770     0.1020 C.3   1 <1>   0.1200 
 24 C       -6.0770    -3.9210    -1.1790 C.3   1 <1>  -0.2000 
 25 C       -7.0670    -4.1580    -0.0730 C.3   1 <1>  -0.2000 
 26 H       -1.9200    -0.0870     1.3920 H     1 <1>   0.0800 
 27 H       -2.6220     1.4470     0.9950 H     1 <1>   0.0800 
 28 H       -2.0240    -1.3050    -2.1500 H     1 <1>   0.0800 
 29 H       -1.5800    -1.8110    -0.5480 H     1 <1>   0.0800 
 30 H       -3.2570     3.4830    -2.6820 H     1 <1>   0.1500 
 31 H       -4.2210    -0.1380     2.0700 H     1 <1>   0.0800 
 32 H       -3.7280    -2.8140    -1.1790 H     1 <1>   0.0800 
 33 H       -4.3720    -1.2440    -1.5700 H     1 <1>   0.0800 
 34 H       -2.5140     5.7710    -2.2740 H     1 <1>   0.1500 
 35 H       -3.5890    -2.1960     1.1190 H     1 <1>   0.4500 
 36 H       -4.9840     0.8160    -0.7080 H     1 <1>   0.0800 
 37 H       -5.0890     1.7200     0.7820 H     1 <1>   0.0800 
 38 H       -0.6470     6.2230    -0.7090 H     1 <1>   0.1500 
 39 H        1.2630     4.8490     1.0510 H     1 <1>   0.1500 
 40 H       -5.8080    -2.0820     1.7850 H     1 <1>   0.0800 
 41 H        2.4780     2.6590     2.2710 H     1 <1>   0.0800 
 42 H        2.3920     1.2810     1.1970 H     1 <1>   0.0800 
 43 H        1.2800     1.4140     2.5420 H     1 <1>   0.0800 
 44 H       -5.0670    -4.1690     0.7690 H     1 <1>   0.1000 
 45 H       -7.6180    -1.3580     0.3610 H     1 <1>   0.0800 
 46 H       -6.5320    -1.0490    -0.9700 H     1 <1>   0.0800 
 47 H       -6.3430    -3.1920    -1.9250 H     1 <1>   0.1000 
 48 H       -5.5990    -4.7840    -1.6130 H     1 <1>   0.1000 
 49 H       -7.2430    -5.1740     0.2410 H     1 <1>   0.1000 
 50 H       -7.9780    -3.5840    -0.0890 H     1 <1>   0.1000 
@<TRIPOS>BOND
  1   1   2  2   
  2   2   3  am  
  3   2   4  1   
  4   3   5  1   
  5   3   6  1   
  6   4   7  ar  
  7   4   8  ar  
  8   5   9  1   
  9   5  26  1   
 10   5  27  1   
 11   6  10  1   
 12   6  28  1   
 13   6  29  1   
 14   7  11  1   
 15   7  12  ar  
 16   8  13  ar  
 17   8  30  1   
 18   9  14  1   
 19   9  15  1   
 20   9  31  1   
 21  10  14  1   
 22  10  32  1   
 23  10  33  1   
 24  11  16  1   
 25  12  17  ar  
 26  12  18  1   
 27  13  17  ar  
 28  13  34  1   
 29  14  19  1   
 30  14  35  1   
 31  15  20  1   
 32  15  36  1   
 33  15  37  1   
 34  16  18  2   
 35  16  21  1   
 36  17  38  1   
 37  18  39  1   
 38  19  22  1   
 39  19  23  1   
 40  19  40  1   
 41  20  23  1   
 42  21  41  1   
 43  21  42  1   
 44  21  43  1   
 45  22  24  1   
 46  22  25  1   
 47  22  44  1   
 48  23  45  1   
 49  23  46  1   
 50  24  25  1   
 51  24  47  1   
 52  24  48  1   
 53  25  49  1   
 54  25  50  1   
@<TRIPOS>SUBSTRUCTURE
  1 ****   3 GROUP 4 **** **** 0

# MOE 2024.06 (io_trps.svl 2023.06)
