@<TRIPOS>MOLECULE
NONAME
59 62 1 0 0 
SMALL
USER_CHARGES


@<TRIPOS>ATOM
  1 O        0.0710     0.7600     0.6860 O.2   1 <1>  -0.5700 
  2 C        0.2220     1.8850     0.2460 C.2   1 <1>   0.5440 
  3 N        1.5050     2.3650     0.0660 N.am  1 <1>  -0.6600 
  4 C       -0.9450     2.6650    -0.1230 C.ar  1 <1>   0.0860 
  5 C        2.6800     1.4610     0.3100 C.3   1 <1>   0.1400 
  6 C        1.7820     3.6360    -0.6820 C.3   1 <1>   0.1400 
  7 C       -1.1470     3.9580     0.3530 C.ar  1 <1>  -0.1500 
  8 C       -1.8960     2.1400    -0.9940 C.ar  1 <1>  -0.1500 
  9 C        4.0310     2.1740     0.5770 C.3   1 <1>   0.2200 
 10 C        3.2060     3.6870    -1.2450 C.3   1 <1>   0.1400 
 11 C       -2.2190     4.7310    -0.0790 C.ar  1 <1>   0.0830 
 12 C       -2.9820     2.8870    -1.4080 C.ar  1 <1>  -0.1500 
 13 N        4.1930     3.4790    -0.1400 N.am  1 <1>  -0.6600 
 14 C        5.1900     1.2530     0.1810 C.3   1 <1>  -0.2400 
 15 O       -2.4100     6.0220     0.3030 O.3   1 <1>  -0.3630 
 16 C       -3.1470     4.1870    -0.9620 C.ar  1 <1>  -0.1430 
 17 C        5.0430     4.4290     0.3780 C.2   1 <1>   0.5690 
 18 C       -1.5550     6.7140     1.1850 C.3   1 <1>   0.1200 
 19 C       -4.3370     5.0050    -1.4430 C.3   1 <1>  -0.0970 
 20 O        5.7900     4.1740     1.2950 O.2   1 <1>  -0.5700 
 21 C        5.0900     5.8640    -0.1290 C.3   1 <1>  -0.0990 
 22 C       -1.6220     8.1990     0.8190 C.3   1 <1>  -0.1600 
 23 C        4.3990     6.8240     0.8580 C.3   1 <1>  -0.1600 
 24 C       -1.0480     8.4660    -0.5860 C.3   1 <1>   0.0960 
 25 C        3.8930     8.1110     0.1870 C.3   1 <1>   0.0210 
 26 N        0.3840     8.1000    -0.6640 N.pl3 1 <1>   0.3140 
 27 C        2.4720     7.9400    -0.3260 C.2   1 <1>   0.0460 
 28 N        0.8550     7.0930    -1.4080 N.2   1 <1>  -0.4180 
 29 C        1.3880     8.6460     0.0240 C.2   1 <1>  -0.3020 
 30 N        2.1240     7.0010    -1.2140 N.2   1 <1>  -0.2270 
 31 H        2.7850     0.8280    -0.5530 H     1 <1>   0.0800 
 32 H        2.4710     0.8150     1.1450 H     1 <1>   0.0800 
 33 H        1.6500     4.4730    -0.0200 H     1 <1>   0.0800 
 34 H        1.0850     3.7430    -1.4950 H     1 <1>   0.0800 
 35 H       -0.4340     4.3300     1.0610 H     1 <1>   0.1500 
 36 H       -1.7710     1.1320    -1.3490 H     1 <1>   0.1500 
 37 H        4.0910     2.3620     1.6360 H     1 <1>   0.0800 
 38 H        3.3410     4.6190    -1.7520 H     1 <1>   0.0800 
 39 H        3.3270     2.9100    -1.9790 H     1 <1>   0.0800 
 40 H       -3.6960     2.4500    -2.0840 H     1 <1>   0.1500 
 41 H        5.1820     1.0700    -0.8780 H     1 <1>   0.0800 
 42 H        5.1070     0.3140     0.6970 H     1 <1>   0.0800 
 43 H        6.1290     1.7000     0.4540 H     1 <1>   0.0800 
 44 H       -0.5460     6.3650     1.0760 H     1 <1>   0.0800 
 45 H       -1.8990     6.5370     2.1890 H     1 <1>   0.0800 
 46 H       -4.9190     5.3310    -0.6000 H     1 <1>   0.0800 
 47 H       -4.9690     4.4280    -2.0930 H     1 <1>   0.0800 
 48 H       -3.9900     5.8700    -1.9790 H     1 <1>   0.0800 
 49 H        4.6710     5.9540    -1.1070 H     1 <1>   0.0800 
 50 H        6.1230     6.1480    -0.2200 H     1 <1>   0.0800 
 51 H       -1.0770     8.7720     1.5460 H     1 <1>   0.0800 
 52 H       -2.6480     8.5210     0.8570 H     1 <1>   0.0800 
 53 H        5.1020     7.0720     1.6340 H     1 <1>   0.0800 
 54 H        3.5680     6.3260     1.3300 H     1 <1>   0.0800 
 55 H       -1.1430     9.5070    -0.8340 H     1 <1>   0.0800 
 56 H       -1.5850     7.8920    -1.3210 H     1 <1>   0.0800 
 57 H        4.5420     8.4030    -0.6190 H     1 <1>   0.0800 
 58 H        3.8940     8.9040     0.9130 H     1 <1>   0.0800 
 59 H        1.2750     9.4670     0.7050 H     1 <1>   0.1500 
@<TRIPOS>BOND
  1   1   2  2   
  2   2   3  am  
  3   2   4  1   
  4   3   5  1   
  5   3   6  1   
  6   4   7  ar  
  7   4   8  ar  
  8   5   9  1   
  9   5  31  1   
 10   5  32  1   
 11   6  10  1   
 12   6  33  1   
 13   6  34  1   
 14   7  11  ar  
 15   7  35  1   
 16   8  12  ar  
 17   8  36  1   
 18   9  13  1   
 19   9  14  1   
 20   9  37  1   
 21  10  13  1   
 22  10  38  1   
 23  10  39  1   
 24  11  15  1   
 25  11  16  ar  
 26  12  16  ar  
 27  12  40  1   
 28  13  17  am  
 29  14  41  1   
 30  14  42  1   
 31  14  43  1   
 32  15  18  1   
 33  16  19  1   
 34  17  20  2   
 35  17  21  1   
 36  18  22  1   
 37  18  44  1   
 38  18  45  1   
 39  19  46  1   
 40  19  47  1   
 41  19  48  1   
 42  21  23  1   
 43  21  49  1   
 44  21  50  1   
 45  22  24  1   
 46  22  51  1   
 47  22  52  1   
 48  23  25  1   
 49  23  53  1   
 50  23  54  1   
 51  24  26  1   
 52  24  55  1   
 53  24  56  1   
 54  25  27  1   
 55  25  57  1   
 56  25  58  1   
 57  26  28  1   
 58  26  29  1   
 59  27  29  2   
 60  27  30  1   
 61  28  30  2   
 62  29  59  1   
@<TRIPOS>SUBSTRUCTURE
  1 ****   6 GROUP 4 **** **** 0

# MOE 2024.06 (io_trps.svl 2023.06)
