@<TRIPOS>MOLECULE
NONAME
44 46 1 0 0 
SMALL
USER_CHARGES


@<TRIPOS>ATOM
  1 O       -1.1050     0.5200     2.3530 O.2   1 <1>  -0.5700 
  2 C       -1.6640     1.1080     1.4400 C.2   1 <1>   0.5440 
  3 N       -2.5280     0.3610     0.6580 N.am  1 <1>  -0.6600 
  4 C       -1.4070     2.5420     1.2430 C.ar  1 <1>   0.3960 
  5 C       -3.3650     0.8590    -0.4620 C.3   1 <1>   0.1400 
  6 C       -2.8050    -1.0720     0.8950 C.3   1 <1>   0.1400 
  7 N       -1.4860     3.1000     0.0180 N.ar  1 <1>  -0.6200 
  8 C       -1.0690     3.3160     2.3560 C.ar  1 <1>  -0.1500 
  9 C       -4.2790    -0.3100    -0.8550 C.3   1 <1>   0.2000 
 10 C       -3.5110    -1.5480    -0.3770 C.3   1 <1>  -0.0800 
 11 C       -1.2340     4.3890    -0.0870 C.ar  1 <1>   0.1660 
 12 C       -0.8100     4.6630     2.2410 C.ar  1 <1>  -0.1500 
 13 O       -5.4910    -0.2350    -0.1570 O.3   1 <1>  -0.5600 
 14 C       -4.3800    -2.8010    -0.1660 C.3   1 <1>   0.0200 
 15 C       -0.8980     5.2050     0.9790 C.ar  1 <1>  -0.1500 
 16 C       -1.3300     4.9690    -1.4830 C.3   1 <1>  -0.0970 
 17 C       -6.4530     0.5980    -0.7250 C.3   1 <1>   0.0400 
 18 C       -3.5670    -4.0490     0.1310 C.2   1 <1>  -0.0400 
 19 O       -4.1990    -5.1610     0.4010 O.3   1 <1>  -0.0190 
 20 C       -2.2490    -4.3080     0.1830 C.2   1 <1>  -0.1500 
 21 N       -3.3780    -6.1450     0.6320 N.2   1 <1>  -0.4100 
 22 C       -2.1960    -5.6590     0.5090 C.2   1 <1>   0.1080 
 23 C       -0.9250    -6.4570     0.6960 C.3   1 <1>  -0.0590 
 24 H       -3.9240     1.7290    -0.1680 H     1 <1>   0.0800 
 25 H       -2.7200     1.1060    -1.2870 H     1 <1>   0.0800 
 26 H       -1.8940    -1.6120     1.0820 H     1 <1>   0.0800 
 27 H       -3.4570    -1.1610     1.7480 H     1 <1>   0.0800 
 28 H       -1.0100     2.8430     3.3200 H     1 <1>   0.1500 
 29 H       -4.4790    -0.3440    -1.9120 H     1 <1>   0.0800 
 30 H       -2.7560    -1.7660    -1.1110 H     1 <1>   0.0800 
 31 H       -0.5500     5.2620     3.0960 H     1 <1>   0.1500 
 32 H       -4.9640    -2.9800    -1.0510 H     1 <1>   0.0800 
 33 H       -5.0650    -2.6360     0.6470 H     1 <1>   0.0800 
 34 H       -0.7040     6.2520     0.8300 H     1 <1>   0.1500 
 35 H       -1.1010     6.0190    -1.4850 H     1 <1>   0.0800 
 36 H       -2.3260     4.8300    -1.8630 H     1 <1>   0.0800 
 37 H       -0.6390     4.4620    -2.1300 H     1 <1>   0.0800 
 38 H       -7.3280     0.5690    -0.1000 H     1 <1>   0.0800 
 39 H       -6.7010     0.2360    -1.7080 H     1 <1>   0.0800 
 40 H       -6.0790     1.6050    -0.7740 H     1 <1>   0.0800 
 41 H       -1.4060    -3.6640     0.0190 H     1 <1>   0.1500 
 42 H       -0.3410    -6.4280    -0.2050 H     1 <1>   0.0800 
 43 H       -1.1640    -7.4800     0.9250 H     1 <1>   0.0800 
 44 H       -0.3520    -6.0440     1.5060 H     1 <1>   0.0800 
@<TRIPOS>BOND
  1   1   2  2   
  2   2   3  am  
  3   2   4  1   
  4   3   5  1   
  5   3   6  1   
  6   4   7  ar  
  7   4   8  ar  
  8   5   9  1   
  9   5  24  1   
 10   5  25  1   
 11   6  10  1   
 12   6  26  1   
 13   6  27  1   
 14   7  11  ar  
 15   8  12  ar  
 16   8  28  1   
 17   9  10  1   
 18   9  13  1   
 19   9  29  1   
 20  10  14  1   
 21  10  30  1   
 22  11  15  ar  
 23  11  16  1   
 24  12  15  ar  
 25  12  31  1   
 26  13  17  1   
 27  14  18  1   
 28  14  32  1   
 29  14  33  1   
 30  15  34  1   
 31  16  35  1   
 32  16  36  1   
 33  16  37  1   
 34  17  38  1   
 35  17  39  1   
 36  17  40  1   
 37  18  19  1   
 38  18  20  2   
 39  19  21  1   
 40  20  22  1   
 41  20  41  1   
 42  21  22  2   
 43  22  23  1   
 44  23  42  1   
 45  23  43  1   
 46  23  44  1   
@<TRIPOS>SUBSTRUCTURE
  1 ****   3 GROUP 4 **** **** 0

# MOE 2024.06 (io_trps.svl 2023.06)
