@<TRIPOS>MOLECULE
NONAME
53 57 1 0 0 
SMALL
USER_CHARGES


@<TRIPOS>ATOM
  1 O       -1.7700    -0.6090     1.6710 O.2   1 <1>  -0.5700 
  2 C       -2.4820    -0.7190     0.6810 C.2   1 <1>   0.7160 
  3 N       -2.9170    -1.9970     0.3560 N.am  1 <1>  -0.6600 
  4 C       -2.8190     0.4790    -0.0930 C.2   1 <1>   0.2030 
  5 C       -2.8210    -3.1110     1.3510 C.3   1 <1>   0.2200 
  6 C       -3.4050    -2.3270    -1.0040 C.3   1 <1>   0.1400 
  7 N       -3.7640     0.6250    -1.0210 N.2   1 <1>  -0.7070 
  8 C       -2.1590     1.7070     0.0660 C.2   1 <1>  -0.1810 
  9 C       -1.5090    -3.9100     1.1610 C.3   1 <1>   0.1200 
 10 C       -4.1270    -3.9390     1.4440 C.3   1 <1>   0.1100 
 11 C       -3.1750    -3.7840    -1.4200 C.3   1 <1>  -0.0800 
 12 N       -3.6950     1.9080    -1.4260 N.pl3 1 <1>   0.3000 
 13 C       -2.7240     2.5630    -0.7710 C.2   1 <1>  -0.3320 
 14 C       -1.0560     2.3370     0.8690 C.3   1 <1>   0.0210 
 15 O       -1.4750    -4.7870     0.0660 O.3   1 <1>  -0.5600 
 16 N       -4.2420    -5.0760     0.5100 N.3   1 <1>  -0.8100 
 17 C       -1.7170    -4.2510    -1.1990 C.3   1 <1>   0.1200 
 18 C       -4.2940    -4.7190    -0.9190 C.3   1 <1>   0.1100 
 19 C       -2.1410     3.9470    -0.7310 C.3   1 <1>   0.0200 
 20 C       -0.9840     3.7720     0.2840 C.3   1 <1>  -0.1600 
 21 C       -5.3510    -5.9810     0.8810 C.3   1 <1>   0.2900 
 22 C       -5.3090    -7.3060     0.1270 C.2   1 <1>   0.0060 
 23 N       -6.3500    -7.8240    -0.4500 N.2   1 <1>  -0.5650 
 24 N       -4.1860    -8.0590    -0.0050 N.pl3 1 <1>   0.0480 
 25 C       -5.8870    -8.9660    -0.9860 C.2   1 <1>   0.0770 
 26 C       -4.5720    -9.1260    -0.7270 C.2   1 <1>  -0.3020 
 27 C       -2.8170    -7.7890     0.4760 C.3   1 <1>   0.0160 
 28 H       -2.7340    -2.6500     2.3190 H     1 <1>   0.0800 
 29 H       -4.4530    -2.0870    -1.0670 H     1 <1>   0.0800 
 30 H       -2.8890    -1.7000    -1.7110 H     1 <1>   0.0800 
 31 H       -1.3490    -4.5150     2.0340 H     1 <1>   0.0800 
 32 H       -0.6800    -3.2300     1.0730 H     1 <1>   0.0800 
 33 H       -4.9730    -3.2830     1.3320 H     1 <1>   0.0800 
 34 H       -4.1600    -4.3370     2.4430 H     1 <1>   0.0800 
 35 H       -3.3010    -3.7670    -2.4870 H     1 <1>   0.0800 
 36 H       -4.3180     2.3050    -2.1390 H     1 <1>   0.2700 
 37 H       -1.3210     2.3500     1.9120 H     1 <1>   0.0800 
 38 H       -0.1320     1.8040     0.7330 H     1 <1>   0.0800 
 39 H       -1.0240    -3.4450    -1.3670 H     1 <1>   0.0800 
 40 H       -1.4960    -5.0360    -1.9010 H     1 <1>   0.0800 
 41 H       -4.2340    -5.6250    -1.4970 H     1 <1>   0.0800 
 42 H       -5.2500    -4.2710    -1.1340 H     1 <1>   0.0800 
 43 H       -1.7740     4.2450    -1.6970 H     1 <1>   0.0800 
 44 H       -2.8690     4.6540    -0.3730 H     1 <1>   0.0800 
 45 H       -0.0430     3.9030    -0.2210 H     1 <1>   0.0800 
 46 H       -1.0570     4.5030     1.0700 H     1 <1>   0.0800 
 47 H       -5.2970    -6.2010     1.9320 H     1 <1>   0.0800 
 48 H       -6.2930    -5.4960     0.6910 H     1 <1>   0.0800 
 49 H       -6.5350    -9.6250    -1.5410 H     1 <1>   0.1500 
 50 H       -3.9070    -9.9190    -1.0120 H     1 <1>   0.1500 
 51 H       -2.3030    -8.7160     0.6470 H     1 <1>   0.0800 
 52 H       -2.8560    -7.2260     1.3890 H     1 <1>   0.0800 
 53 H       -2.2930    -7.2150    -0.2660 H     1 <1>   0.0800 
@<TRIPOS>BOND
  1   1   2  2   
  2   2   3  am  
  3   2   4  1   
  4   3   5  1   
  5   3   6  1   
  6   4   7  2   
  7   4   8  1   
  8   5   9  1   
  9   5  10  1   
 10   5  28  1   
 11   6  11  1   
 12   6  29  1   
 13   6  30  1   
 14   7  12  1   
 15   8  13  2   
 16   8  14  1   
 17   9  15  1   
 18   9  31  1   
 19   9  32  1   
 20  10  16  1   
 21  10  33  1   
 22  10  34  1   
 23  11  17  1   
 24  11  18  1   
 25  11  35  1   
 26  12  13  1   
 27  12  36  1   
 28  13  19  1   
 29  14  20  1   
 30  14  37  1   
 31  14  38  1   
 32  15  17  1   
 33  16  18  1   
 34  16  21  1   
 35  17  39  1   
 36  17  40  1   
 37  18  41  1   
 38  18  42  1   
 39  19  20  1   
 40  19  43  1   
 41  19  44  1   
 42  20  45  1   
 43  20  46  1   
 44  21  22  1   
 45  21  47  1   
 46  21  48  1   
 47  22  23  2   
 48  22  24  1   
 49  23  25  1   
 50  24  26  1   
 51  24  27  1   
 52  25  26  2   
 53  25  49  1   
 54  26  50  1   
 55  27  51  1   
 56  27  52  1   
 57  27  53  1   
@<TRIPOS>SUBSTRUCTURE
  1 ****   3 GROUP 4 **** **** 0

# MOE 2024.06 (io_trps.svl 2023.06)
