@<TRIPOS>MOLECULE
NONAME
47 49 1 0 0 
SMALL
USER_CHARGES


@<TRIPOS>ATOM
  1 F        1.1320     0.7580     0.1010 F     1 <1>  -0.3400 
  2 C        1.1510    -0.2540    -0.7590 C.3   1 <1>   1.1640 
  3 F        0.1280    -0.0560    -1.5800 F     1 <1>  -0.3400 
  4 F        2.2430    -0.0770    -1.4970 F     1 <1>  -0.3400 
  5 C        1.1050    -1.6180    -0.0370 C.ar  1 <1>  -0.1440 
  6 C       -0.0260    -2.0690     0.6570 C.ar  1 <1>  -0.1440 
  7 C        2.2350    -2.4370    -0.0640 C.ar  1 <1>  -0.1500 
  8 C       -0.0010    -3.3090     1.2810 C.ar  1 <1>  -0.1500 
  9 C       -1.3290    -1.2630     0.7750 C.3   1 <1>   0.0450 
 10 C        2.2480    -3.6660     0.5670 C.ar  1 <1>  -0.1500 
 11 C        1.1270    -4.1050     1.2400 C.ar  1 <1>  -0.1500 
 12 C       -2.3510    -1.5250    -0.3300 C.2   1 <1>   0.5690 
 13 O       -2.1380    -2.4210    -1.1140 O.2   1 <1>  -0.5700 
 14 N       -3.4940    -0.7640    -0.4110 N.am  1 <1>  -0.6600 
 15 C       -3.9050     0.3020     0.5470 C.3   1 <1>   0.1400 
 16 C       -4.4740    -0.9600    -1.5170 C.3   1 <1>   0.1400 
 17 C       -5.2530    -0.0750     1.1650 C.3   1 <1>  -0.1600 
 18 C       -5.8290    -1.3500    -0.9240 C.3   1 <1>  -0.1600 
 19 C       -6.3210    -0.3100     0.0920 C.3   1 <1>   0.4180 
 20 O       -6.5020     0.9280    -0.5510 O.3   1 <1>  -0.5600 
 21 C       -7.6200    -0.7610     0.7540 C.2   1 <1>  -0.2880 
 22 C       -7.6930     1.1160    -1.2640 C.3   1 <1>   0.1200 
 23 C       -8.7960    -0.1480     0.5930 C.2   1 <1>  -0.2760 
 24 C       -8.9010     1.0600    -0.3190 C.3   1 <1>  -0.0220 
 25 C      -10.0850    -0.5640     1.2780 C.3   1 <1>  -0.1020 
 26 H        3.1280    -2.1290    -0.5820 H     1 <1>   0.1500 
 27 H       -0.8700    -3.6710     1.8010 H     1 <1>   0.1500 
 28 H       -1.1090    -0.2140     0.7990 H     1 <1>   0.0800 
 29 H       -1.7990    -1.5020     1.7100 H     1 <1>   0.0800 
 30 H        3.1300    -4.2830     0.5320 H     1 <1>   0.1500 
 31 H        1.1290    -5.0640     1.7280 H     1 <1>   0.1500 
 32 H       -3.9970     1.2350     0.0150 H     1 <1>   0.0800 
 33 H       -3.1820     0.4370     1.3290 H     1 <1>   0.0800 
 34 H       -4.1420    -1.7280    -2.1950 H     1 <1>   0.0800 
 35 H       -4.5660    -0.0430    -2.0740 H     1 <1>   0.0800 
 36 H       -5.5860     0.7070     1.8240 H     1 <1>   0.0800 
 37 H       -5.1290    -0.9660     1.7510 H     1 <1>   0.0800 
 38 H       -5.7220    -2.3010    -0.4350 H     1 <1>   0.0800 
 39 H       -6.5520    -1.4770    -1.7070 H     1 <1>   0.0800 
 40 H       -7.4920    -1.6290     1.3760 H     1 <1>   0.1500 
 41 H       -7.7680     0.3540    -2.0180 H     1 <1>   0.0800 
 42 H       -7.6400     2.0760    -1.7460 H     1 <1>   0.0800 
 43 H       -9.7960     1.0020    -0.9130 H     1 <1>   0.0800 
 44 H       -8.9450     1.9590     0.2690 H     1 <1>   0.0800 
 45 H      -10.4610     0.2430     1.8810 H     1 <1>   0.0800 
 46 H       -9.9160    -1.4150     1.9140 H     1 <1>   0.0800 
 47 H      -10.8270    -0.8280     0.5450 H     1 <1>   0.0800 
@<TRIPOS>BOND
  1   1   2  1   
  2   2   3  1   
  3   2   4  1   
  4   2   5  1   
  5   5   6  ar  
  6   5   7  ar  
  7   6   8  ar  
  8   6   9  1   
  9   7  10  ar  
 10   7  26  1   
 11   8  11  ar  
 12   8  27  1   
 13   9  12  1   
 14   9  28  1   
 15   9  29  1   
 16  10  11  ar  
 17  10  30  1   
 18  11  31  1   
 19  12  13  2   
 20  12  14  am  
 21  14  15  1   
 22  14  16  1   
 23  15  17  1   
 24  15  32  1   
 25  15  33  1   
 26  16  18  1   
 27  16  34  1   
 28  16  35  1   
 29  17  19  1   
 30  17  36  1   
 31  17  37  1   
 32  18  19  1   
 33  18  38  1   
 34  18  39  1   
 35  19  20  1   
 36  19  21  1   
 37  20  22  1   
 38  21  23  2   
 39  21  40  1   
 40  22  24  1   
 41  22  41  1   
 42  22  42  1   
 43  23  24  1   
 44  23  25  1   
 45  24  43  1   
 46  24  44  1   
 47  25  45  1   
 48  25  46  1   
 49  25  47  1   
@<TRIPOS>SUBSTRUCTURE
  1 ****  14 GROUP 4 **** **** 0

# MOE 2024.06 (io_trps.svl 2023.06)
