@<TRIPOS>MOLECULE
NONAME
39 41 1 0 0 
SMALL
USER_CHARGES


@<TRIPOS>ATOM
  1 F       -1.2590    -0.2060    -1.5350 F     1 <1>  -0.1900 
  2 C       -1.9400    -0.9000    -0.6630 C.ar  1 <1>   0.1900 
  3 C       -2.6970    -0.2420     0.2910 C.ar  1 <1>   0.1600 
  4 C       -1.8910    -2.2720    -0.7160 C.ar  1 <1>  -0.1500 
  5 N       -3.4150    -0.8730     1.2120 N.ar  1 <1>  -0.6200 
  6 C       -2.6410    -2.9570     0.2320 C.ar  1 <1>   0.0860 
  7 C       -3.3560    -2.1980     1.1610 C.ar  1 <1>   0.1600 
  8 C       -2.6780    -4.4000     0.2680 C.2   1 <1>   0.5440 
  9 O       -1.6390    -5.0190     0.3730 O.2   1 <1>  -0.5700 
 10 N       -3.8610    -5.0950     0.1790 N.am  1 <1>  -0.6600 
 11 C       -5.1760    -4.5380    -0.2410 C.3   1 <1>   0.1400 
 12 C       -3.9080    -6.5820     0.1350 C.3   1 <1>   0.1400 
 13 C       -6.1550    -5.6930    -0.0490 C.3   1 <1>   0.2000 
 14 C       -5.3120    -6.9290    -0.3720 C.3   1 <1>  -0.0800 
 15 O       -6.5260    -5.7200     1.2880 O.3   1 <1>  -0.6800 
 16 C       -5.8550    -8.2660     0.1630 C.3   1 <1>   0.0210 
 17 C       -4.9240    -9.4070    -0.2000 C.2   1 <1>   0.1080 
 18 N       -4.6270    -9.7090    -1.4250 N.2   1 <1>  -0.7070 
 19 C       -4.2840   -10.2350     0.7160 C.2   1 <1>  -0.1500 
 20 N       -3.7800   -10.7500    -1.3230 N.pl3 1 <1>   0.3000 
 21 C       -3.5550   -11.0860    -0.0350 C.2   1 <1>  -0.3320 
 22 C       -2.6440   -12.2170     0.4050 C.3   1 <1>  -0.0600 
 23 H       -2.7090     0.8340     0.2930 H     1 <1>   0.1500 
 24 H       -1.3010    -2.7930    -1.4490 H     1 <1>   0.1500 
 25 H       -3.9150    -2.7320     1.9120 H     1 <1>   0.1500 
 26 H       -5.4660    -3.6800     0.3390 H     1 <1>   0.0800 
 27 H       -5.1260    -4.2710    -1.2830 H     1 <1>   0.0800 
 28 H       -3.1500    -6.9750    -0.5240 H     1 <1>   0.0800 
 29 H       -3.7460    -6.9690     1.1260 H     1 <1>   0.0800 
 30 H       -7.0430    -5.6070    -0.6530 H     1 <1>   0.0800 
 31 H       -5.2480    -7.0070    -1.4440 H     1 <1>   0.0800 
 32 H       -5.7150    -5.7000     1.8350 H     1 <1>   0.4000 
 33 H       -6.8210    -8.4600    -0.2660 H     1 <1>   0.0800 
 34 H       -5.9660    -8.2320     1.2320 H     1 <1>   0.0800 
 35 H       -4.3690   -10.1840     1.7870 H     1 <1>   0.1500 
 36 H       -3.3730   -11.2070    -2.1480 H     1 <1>   0.2700 
 37 H       -2.6310   -12.2850     1.4780 H     1 <1>   0.0800 
 38 H       -1.6400   -12.0400     0.0610 H     1 <1>   0.0800 
 39 H       -2.9930   -13.1530     0.0070 H     1 <1>   0.0800 
@<TRIPOS>BOND
  1   1   2  1   
  2   2   3  ar  
  3   2   4  ar  
  4   3   5  ar  
  5   3  23  1   
  6   4   6  ar  
  7   4  24  1   
  8   5   7  ar  
  9   6   7  ar  
 10   6   8  1   
 11   7  25  1   
 12   8   9  2   
 13   8  10  am  
 14  10  11  1   
 15  10  12  1   
 16  11  13  1   
 17  11  26  1   
 18  11  27  1   
 19  12  14  1   
 20  12  28  1   
 21  12  29  1   
 22  13  14  1   
 23  13  15  1   
 24  13  30  1   
 25  14  16  1   
 26  14  31  1   
 27  15  32  1   
 28  16  17  1   
 29  16  33  1   
 30  16  34  1   
 31  17  18  2   
 32  17  19  1   
 33  18  20  1   
 34  19  21  2   
 35  19  35  1   
 36  20  21  1   
 37  20  36  1   
 38  21  22  1   
 39  22  37  1   
 40  22  38  1   
 41  22  39  1   
@<TRIPOS>SUBSTRUCTURE
  1 ****  10 GROUP 4 **** **** 0

# MOE 2024.06 (io_trps.svl 2023.06)
