@<TRIPOS>MOLECULE
NONAME
41 42 1 0 0 
SMALL
USER_CHARGES


@<TRIPOS>ATOM
  1 S        1.7890     0.1340    -1.4390 S.o2  1 <1>   1.3330 
  2 O        1.7220     0.6050    -2.8040 O.2   1 <1>  -0.6500 
  3 O        1.1760    -1.1270    -1.0840 O.2   1 <1>  -0.6500 
  4 N        1.1250     1.3410    -0.4470 N.am  1 <1>  -0.8490 
  5 C        3.5100     0.0690    -0.9440 C.3   1 <1>  -0.0550 
  6 C        1.4740     2.7020    -0.8690 C.3   1 <1>   0.1160 
  7 C       -0.3290     1.2130    -0.3250 C.3   1 <1>   0.1160 
  8 C        3.7290    -0.1860     0.5590 C.3   1 <1>  -0.0800 
  9 C        5.1940     0.0030     0.9520 C.3   1 <1>   0.2890 
 10 C        3.4020    -1.6160     0.9950 C.3   1 <1>   0.1200 
 11 N        5.3150     1.0880     1.9490 N.pl3 1 <1>  -0.8690 
 12 C        5.5790    -1.3460     1.5590 C.3   1 <1>   0.1200 
 13 O        4.3830    -1.9580     1.9190 O.3   1 <1>  -0.5600 
 14 C        5.0620     2.3870     1.6770 C.ar  1 <1>   0.7200 
 15 N        5.1470     2.7900     0.4120 N.ar  1 <1>  -0.6200 
 16 N        4.7270     3.1010     2.7430 N.ar  1 <1>  -0.6200 
 17 C        4.8640     4.0640     0.2090 C.ar  1 <1>   0.3930 
 18 C        4.4520     4.3700     2.5190 C.ar  1 <1>   0.1600 
 19 O        4.9150     4.5600    -1.0470 O.3   1 <1>  -0.3630 
 20 C        4.5070     4.8940     1.2560 C.ar  1 <1>   0.1900 
 21 C        5.3700     3.7780    -2.1350 C.3   1 <1>   0.0400 
 22 F        4.2170     6.1610     1.0590 F     1 <1>  -0.1900 
 23 H        4.0110    -0.6910    -1.5110 H     1 <1>   0.0800 
 24 H        3.9640     1.0060    -1.1960 H     1 <1>   0.0800 
 25 H        1.0940     3.4170    -0.1600 H     1 <1>   0.0800 
 26 H        1.0560     2.9150    -1.8400 H     1 <1>   0.0800 
 27 H        2.5420     2.8140    -0.9200 H     1 <1>   0.0800 
 28 H       -0.7170     1.9750     0.3280 H     1 <1>   0.0800 
 29 H       -0.5800     0.2520     0.0920 H     1 <1>   0.0800 
 30 H       -0.7950     1.3030    -1.2930 H     1 <1>   0.0800 
 31 H        3.1060     0.4830     1.1260 H     1 <1>   0.0800 
 32 H        5.8300     0.2190     0.1100 H     1 <1>   0.0800 
 33 H        3.4610    -2.3120     0.1760 H     1 <1>   0.0800 
 34 H        2.4350    -1.6890     1.4640 H     1 <1>   0.0800 
 35 H        5.0030     0.8290     2.8850 H     1 <1>   0.4000 
 36 H        6.2080    -1.2480     2.4260 H     1 <1>   0.0800 
 37 H        6.0570    -1.9690     0.8250 H     1 <1>   0.0800 
 38 H        4.1790     4.9960     3.3510 H     1 <1>   0.1500 
 39 H        5.3860     4.3990    -3.0120 H     1 <1>   0.0800 
 40 H        4.6950     2.9540    -2.2800 H     1 <1>   0.0800 
 41 H        6.3620     3.4220    -1.9180 H     1 <1>   0.0800 
@<TRIPOS>BOND
  1   1   2  2   
  2   1   3  2   
  3   1   4  am  
  4   1   5  1   
  5   4   6  1   
  6   4   7  1   
  7   5   8  1   
  8   5  23  1   
  9   5  24  1   
 10   6  25  1   
 11   6  26  1   
 12   6  27  1   
 13   7  28  1   
 14   7  29  1   
 15   7  30  1   
 16   8   9  1   
 17   8  10  1   
 18   8  31  1   
 19   9  11  1   
 20   9  12  1   
 21   9  32  1   
 22  10  13  1   
 23  10  33  1   
 24  10  34  1   
 25  11  14  1   
 26  11  35  1   
 27  12  13  1   
 28  12  36  1   
 29  12  37  1   
 30  14  15  ar  
 31  14  16  ar  
 32  15  17  ar  
 33  16  18  ar  
 34  17  19  1   
 35  17  20  ar  
 36  18  20  ar  
 37  18  38  1   
 38  19  21  1   
 39  20  22  1   
 40  21  39  1   
 41  21  40  1   
 42  21  41  1   
@<TRIPOS>SUBSTRUCTURE
  1 ****  15 GROUP 4 **** **** 0

# MOE 2024.06 (io_trps.svl 2023.06)
