@<TRIPOS>MOLECULE
NONAME
39 41 1 0 0 
SMALL
USER_CHARGES


@<TRIPOS>ATOM
  1 S       -0.7730    -1.5140     1.4900 S.3   1 <1>  -0.0800 
  2 C       -1.9980    -2.0180     0.3400 C.2   1 <1>  -0.1100 
  3 C       -1.8400    -0.2890     2.1490 C.2   1 <1>  -0.1100 
  4 C       -3.1250    -1.2910     0.4830 C.2   1 <1>  -0.1810 
  5 C       -3.0270    -0.3000     1.5150 C.2   1 <1>  -0.1500 
  6 C       -4.4110    -1.4280    -0.3290 C.3   1 <1>   0.0820 
  7 C       -4.5670    -2.7670    -1.0350 C.2   1 <1>   0.5690 
  8 O       -4.8490    -2.7870    -2.2080 O.2   1 <1>  -0.5700 
  9 N       -4.4170    -3.9130    -0.3240 N.am  1 <1>  -0.7300 
 10 C       -4.4900    -5.2830    -0.8840 C.3   1 <1>   0.2200 
 11 C       -5.7540    -6.0000    -0.4300 C.3   1 <1>  -0.0800 
 12 C       -3.4260    -6.1440    -0.2180 C.3   1 <1>   0.1200 
 13 C       -5.3590    -6.5650     0.9390 C.3   1 <1>   0.1200 
 14 C       -7.0410    -5.1540    -0.4210 C.3   1 <1>  -0.0160 
 15 O       -3.9650    -6.4920     1.0200 O.3   1 <1>  -0.5600 
 16 C       -8.2450    -6.0030    -0.0460 C.ar  1 <1>  -0.1430 
 17 C       -8.7530    -6.0310     1.2370 C.ar  1 <1>  -0.1500 
 18 C       -8.8920    -6.7920    -0.9750 C.ar  1 <1>  -0.1500 
 19 C       -9.8480    -6.8290     1.5230 C.ar  1 <1>   0.1600 
 20 C       -9.9820    -7.5540    -0.5860 C.ar  1 <1>   0.1600 
 21 N      -10.4740    -7.5930     0.6420 N.ar  1 <1>  -0.6200 
 22 H       -1.7370    -2.8160    -0.3320 H     1 <1>   0.1500 
 23 H       -1.4590     0.3180     2.9510 H     1 <1>   0.1500 
 24 H       -3.8480     0.3590     1.7360 H     1 <1>   0.1500 
 25 H       -4.4460    -0.6420    -1.0610 H     1 <1>   0.0800 
 26 H       -5.2560    -1.3070     0.3230 H     1 <1>   0.0800 
 27 H       -4.1390    -3.8780     0.6620 H     1 <1>   0.3700 
 28 H       -4.3870    -5.2620    -1.9570 H     1 <1>   0.0800 
 29 H       -5.9090    -6.8370    -1.0890 H     1 <1>   0.0800 
 30 H       -2.4940    -5.6250    -0.0780 H     1 <1>   0.0800 
 31 H       -3.2630    -7.0500    -0.7750 H     1 <1>   0.0800 
 32 H       -5.6640    -7.5920     1.0490 H     1 <1>   0.0800 
 33 H       -5.7610    -5.9770     1.7450 H     1 <1>   0.0800 
 34 H       -7.1940    -4.7280    -1.3980 H     1 <1>   0.0800 
 35 H       -6.9500    -4.3390     0.2750 H     1 <1>   0.0800 
 36 H       -8.3100    -5.4420     2.0190 H     1 <1>   0.1500 
 37 H       -8.5610    -6.8210    -1.9970 H     1 <1>   0.1500 
 38 H      -10.2310    -6.8390     2.5290 H     1 <1>   0.1500 
 39 H      -10.4740    -8.1630    -1.3240 H     1 <1>   0.1500 
@<TRIPOS>BOND
  1   1   2  1   
  2   1   3  1   
  3   2   4  2   
  4   2  22  1   
  5   3   5  2   
  6   3  23  1   
  7   4   5  1   
  8   4   6  1   
  9   5  24  1   
 10   6   7  1   
 11   6  25  1   
 12   6  26  1   
 13   7   8  2   
 14   7   9  am  
 15   9  10  1   
 16   9  27  1   
 17  10  11  1   
 18  10  12  1   
 19  10  28  1   
 20  11  13  1   
 21  11  14  1   
 22  11  29  1   
 23  12  15  1   
 24  12  30  1   
 25  12  31  1   
 26  13  15  1   
 27  13  32  1   
 28  13  33  1   
 29  14  16  1   
 30  14  34  1   
 31  14  35  1   
 32  16  17  ar  
 33  16  18  ar  
 34  17  19  ar  
 35  17  36  1   
 36  18  20  ar  
 37  18  37  1   
 38  19  21  ar  
 39  19  38  1   
 40  20  21  ar  
 41  20  39  1   
@<TRIPOS>SUBSTRUCTURE
  1 ****   9 GROUP 4 **** **** 0

# MOE 2024.06 (io_trps.svl 2023.06)
