@<TRIPOS>MOLECULE
NONAME
43 46 1 0 0 
SMALL
USER_CHARGES


@<TRIPOS>ATOM
  1 F       -1.2690     1.1500     1.9430 F     1 <1>  -0.1900 
  2 C       -1.3970     2.2620     1.2710 C.ar  1 <1>   0.1900 
  3 C       -2.3420     2.3560     0.2400 C.ar  1 <1>   0.3960 
  4 C       -0.5850     3.3120     1.6380 C.ar  1 <1>  -0.1500 
  5 N       -2.5140     3.5180    -0.4370 N.ar  1 <1>  -0.6200 
  6 C       -3.1390     1.1830    -0.1010 C.2   1 <1>   0.5440 
  7 C       -0.7790     4.4640     0.9150 C.ar  1 <1>   0.1900 
  8 C       -1.7310     4.5310    -0.0920 C.ar  1 <1>   0.1600 
  9 O       -2.5810     0.2030    -0.5660 O.2   1 <1>  -0.5700 
 10 N       -4.5090     1.1180     0.0910 N.am  1 <1>  -0.6600 
 11 F       -0.0560     5.5140     1.1850 F     1 <1>  -0.1900 
 12 C       -5.3390     2.2510     0.6090 C.3   1 <1>   0.1400 
 13 C       -5.2580    -0.1340    -0.2390 C.3   1 <1>   0.1400 
 14 C       -6.4700     2.6100    -0.3800 C.3   1 <1>   0.1440 
 15 C       -6.7820     0.0640    -0.1860 C.3   1 <1>  -0.1600 
 16 C       -7.3980     3.5700     0.3450 C.ar  1 <1>   0.1670 
 17 C       -7.1990     1.3480    -0.9220 C.3   1 <1>  -0.1600 
 18 C       -5.9420     3.4960    -1.5400 C.3   1 <1>  -0.1600 
 19 N       -8.2770     3.2390     1.2650 N.ar  1 <1>  -0.6200 
 20 C       -7.1980     4.8590    -0.0550 C.ar  1 <1>  -0.1430 
 21 C       -6.1180     4.9590    -1.1010 C.3   1 <1>  -0.0170 
 22 C       -8.9640     4.2580     1.7610 C.ar  1 <1>   0.4770 
 23 C       -7.9660     5.8370     0.5270 C.ar  1 <1>   0.1600 
 24 N       -8.8630     5.5430     1.4450 N.ar  1 <1>  -0.6200 
 25 C       -9.9930     3.9170     2.8110 C.3   1 <1>  -0.0970 
 26 H        0.1420     3.2370     2.4260 H     1 <1>   0.1500 
 27 H       -1.8440     5.4590    -0.6260 H     1 <1>   0.1500 
 28 H       -4.7430     3.1210     0.8070 H     1 <1>   0.0800 
 29 H       -5.7760     1.9470     1.5450 H     1 <1>   0.0800 
 30 H       -4.9640    -0.9120     0.4450 H     1 <1>   0.0800 
 31 H       -4.9770    -0.4450    -1.2320 H     1 <1>   0.0800 
 32 H       -7.1040     0.1090     0.8400 H     1 <1>   0.0800 
 33 H       -7.2640    -0.7860    -0.6350 H     1 <1>   0.0800 
 34 H       -6.9640     1.2090    -1.9620 H     1 <1>   0.0800 
 35 H       -8.2650     1.4760    -0.8500 H     1 <1>   0.0800 
 36 H       -6.5520     3.3490    -2.4140 H     1 <1>   0.0800 
 37 H       -4.9230     3.2680    -1.7990 H     1 <1>   0.0800 
 38 H       -6.4100     5.5870    -1.9240 H     1 <1>   0.0800 
 39 H       -5.2120     5.3320    -0.6560 H     1 <1>   0.0800 
 40 H       -7.8460     6.8680     0.2420 H     1 <1>   0.1500 
 41 H       -9.7380     2.9930     3.2960 H     1 <1>   0.0800 
 42 H      -10.9540     3.8180     2.3450 H     1 <1>   0.0800 
 43 H      -10.0370     4.6980     3.5480 H     1 <1>   0.0800 
@<TRIPOS>BOND
  1   1   2  1   
  2   2   3  ar  
  3   2   4  ar  
  4   3   5  ar  
  5   3   6  1   
  6   4   7  ar  
  7   4  26  1   
  8   5   8  ar  
  9   6   9  2   
 10   6  10  am  
 11   7   8  ar  
 12   7  11  1   
 13   8  27  1   
 14  10  12  1   
 15  10  13  1   
 16  12  14  1   
 17  12  28  1   
 18  12  29  1   
 19  13  15  1   
 20  13  30  1   
 21  13  31  1   
 22  14  16  1   
 23  14  17  1   
 24  14  18  1   
 25  15  17  1   
 26  15  32  1   
 27  15  33  1   
 28  16  19  ar  
 29  16  20  ar  
 30  17  34  1   
 31  17  35  1   
 32  18  21  1   
 33  18  36  1   
 34  18  37  1   
 35  19  22  ar  
 36  20  21  1   
 37  20  23  ar  
 38  21  38  1   
 39  21  39  1   
 40  22  24  ar  
 41  22  25  1   
 42  23  24  ar  
 43  23  40  1   
 44  25  41  1   
 45  25  42  1   
 46  25  43  1   
@<TRIPOS>SUBSTRUCTURE
  1 ****  12 GROUP 4 **** **** 0

# MOE 2024.06 (io_trps.svl 2023.06)
