@<TRIPOS>MOLECULE
NONAME
45 47 1 0 0 
SMALL
USER_CHARGES


@<TRIPOS>ATOM
  1 F        0.0390    -0.3390    -0.0840 F     1 <1>  -0.1900 
  2 C       -0.1640    -1.5970     0.1980 C.ar  1 <1>   0.1900 
  3 C        0.7900    -2.5210    -0.1760 C.ar  1 <1>  -0.1500 
  4 C       -1.3250    -1.9500     0.8570 C.ar  1 <1>  -0.1500 
  5 C        0.5700    -3.8620     0.1230 C.ar  1 <1>   0.0830 
  6 C       -1.5380    -3.2850     1.1540 C.ar  1 <1>  -0.1500 
  7 O        1.4470    -4.8450    -0.2150 O.3   1 <1>  -0.3630 
  8 C       -0.5960    -4.2400     0.7900 C.ar  1 <1>  -0.1440 
  9 C        2.7430    -4.5340    -0.6890 C.3   1 <1>   0.0400 
 10 C       -0.8420    -5.6990     1.1270 C.3   1 <1>   0.4870 
 11 N       -0.9060    -6.4750    -0.1370 N.4   1 <1>  -0.9590 
 12 C       -2.1130    -6.1040    -0.9380 C.3   1 <1>   0.3430 
 13 C       -0.9910    -7.9390     0.1380 C.3   1 <1>   0.3430 
 14 C       -3.1610    -7.1700    -0.6080 C.3   1 <1>   0.2000 
 15 C       -2.3090    -8.4340    -0.4730 C.3   1 <1>  -0.0800 
 16 O       -3.7360    -6.8540     0.6220 O.3   1 <1>  -0.6800 
 17 C       -2.9490    -9.5980     0.3100 C.3   1 <1>   0.0200 
 18 C       -2.0140   -10.7910     0.3610 C.2   1 <1>  -0.0400 
 19 O       -0.8990   -10.7130     1.0360 O.3   1 <1>  -0.0190 
 20 C       -2.0810   -12.0150    -0.1840 C.2   1 <1>  -0.1500 
 21 N       -0.2080   -11.8090     0.9590 N.2   1 <1>  -0.4100 
 22 C       -0.8980   -12.6170     0.2360 C.2   1 <1>   0.1080 
 23 C       -0.4720   -14.0280    -0.1060 C.3   1 <1>  -0.0590 
 24 H        1.6670    -2.1740    -0.6880 H     1 <1>   0.1500 
 25 H       -2.0390    -1.1920     1.1300 H     1 <1>   0.1500 
 26 H       -2.4410    -3.5670     1.6720 H     1 <1>   0.1500 
 27 H        3.2910    -5.4520    -0.8050 H     1 <1>   0.0800 
 28 H        3.2390    -3.9050     0.0290 H     1 <1>   0.0800 
 29 H        2.6630    -4.0380    -1.6410 H     1 <1>   0.0800 
 30 H       -1.7630    -5.8070     1.6780 H     1 <1>   0.0800 
 31 H       -0.0290    -6.0580     1.7380 H     1 <1>   0.0800 
 32 H       -0.0390    -6.2220    -0.6410 H     1 <1>   0.4500 
 33 H       -2.4720    -5.1150    -0.7080 H     1 <1>   0.0800 
 34 H       -1.8740    -6.1580    -1.9870 H     1 <1>   0.0800 
 35 H       -0.1530    -8.4680    -0.2900 H     1 <1>   0.0800 
 36 H       -1.0000    -8.1140     1.2020 H     1 <1>   0.0800 
 37 H       -3.9340    -7.2360    -1.3550 H     1 <1>   0.0800 
 38 H       -2.0840    -8.7890    -1.4640 H     1 <1>   0.0800 
 39 H       -4.5870    -7.3260     0.7490 H     1 <1>   0.4000 
 40 H       -3.8670    -9.8940    -0.1670 H     1 <1>   0.0800 
 41 H       -3.1780    -9.3040     1.3210 H     1 <1>   0.0800 
 42 H       -2.8390   -12.4630    -0.8000 H     1 <1>   0.1500 
 43 H       -1.2000   -14.7280     0.2600 H     1 <1>   0.0800 
 44 H        0.4780   -14.2470     0.3490 H     1 <1>   0.0800 
 45 H       -0.3810   -14.1360    -1.1710 H     1 <1>   0.0800 
@<TRIPOS>BOND
  1   1   2  1   
  2   2   3  ar  
  3   2   4  ar  
  4   3   5  ar  
  5   3  24  1   
  6   4   6  ar  
  7   4  25  1   
  8   5   7  1   
  9   5   8  ar  
 10   6   8  ar  
 11   6  26  1   
 12   7   9  1   
 13   8  10  1   
 14   9  27  1   
 15   9  28  1   
 16   9  29  1   
 17  10  11  1   
 18  10  30  1   
 19  10  31  1   
 20  11  12  1   
 21  11  13  1   
 22  11  32  1   
 23  12  14  1   
 24  12  33  1   
 25  12  34  1   
 26  13  15  1   
 27  13  35  1   
 28  13  36  1   
 29  14  15  1   
 30  14  16  1   
 31  14  37  1   
 32  15  17  1   
 33  15  38  1   
 34  16  39  1   
 35  17  18  1   
 36  17  40  1   
 37  17  41  1   
 38  18  19  1   
 39  18  20  2   
 40  19  21  1   
 41  20  22  1   
 42  20  42  1   
 43  21  22  2   
 44  22  23  1   
 45  23  43  1   
 46  23  44  1   
 47  23  45  1   
@<TRIPOS>SUBSTRUCTURE
  1 ****  11 GROUP 4 **** **** 0

# MOE 2024.06 (io_trps.svl 2023.06)
