@<TRIPOS>MOLECULE
NONAME
51 54 1 0 0 
SMALL
USER_CHARGES


@<TRIPOS>ATOM
  1 O       -2.6390     0.5740    -1.9870 O.2   1 <1>  -0.5700 
  2 C       -2.3580     0.6000    -0.8150 C.2   1 <1>   0.5690 
  3 N       -2.0800    -0.5260    -0.1190 N.am  1 <1>  -0.7300 
  4 C       -2.3270     1.9280    -0.1030 C.3   1 <1>  -0.0990 
  5 C       -2.0490    -1.8940    -0.6900 C.3   1 <1>   0.2200 
  6 C       -1.2630     2.8320    -0.7290 C.3   1 <1>   0.0960 
  7 C       -3.3020    -2.6820    -0.3240 C.3   1 <1>  -0.0800 
  8 C       -0.9910    -2.7030     0.0460 C.3   1 <1>   0.1200 
  9 N       -1.2080     4.1210    -0.0210 N.pl3 1 <1>   0.3140 
 10 C       -2.9760    -3.1900     1.0860 C.3   1 <1>   0.1200 
 11 C       -4.6260    -1.8970    -0.4340 C.3   1 <1>  -0.0170 
 12 O       -1.5920    -3.0750     1.2490 O.3   1 <1>  -0.5600 
 13 N       -0.7200     4.2210     1.2290 N.2   1 <1>  -0.7070 
 14 C       -1.6300     5.3160    -0.4800 C.2   1 <1>  -0.3020 
 15 C       -5.9180    -2.6840    -0.1830 C.ar  1 <1>  -0.1440 
 16 C       -0.8380     5.4780     1.5310 C.2   1 <1>   0.1390 
 17 C       -1.4050     6.2170     0.4980 C.2   1 <1>  -0.1810 
 18 C       -7.1490    -1.9900    -0.0810 C.ar  1 <1>   0.0000 
 19 C       -5.9640    -4.0450    -0.0550 C.ar  1 <1>  -0.1500 
 20 C       -1.6930     7.7040     0.4980 C.3   1 <1>  -0.0590 
 21 C       -8.3200    -2.7440     0.1800 C.ar  1 <1>   0.3100 
 22 C       -7.2900    -0.5890    -0.2290 C.ar  1 <1>  -0.1500 
 23 C       -7.1790    -4.6950     0.1920 C.ar  1 <1>   0.1600 
 24 N       -8.3170    -4.0930     0.3140 N.ar  1 <1>  -0.6200 
 25 C       -9.5490    -2.0760     0.3030 C.ar  1 <1>  -0.1500 
 26 C       -8.5040     0.0310    -0.1060 C.ar  1 <1>  -0.1500 
 27 C       -9.6490    -0.7190     0.1660 C.ar  1 <1>  -0.1500 
 28 H       -1.8720    -0.4920     0.8830 H     1 <1>   0.3700 
 29 H       -3.2940     2.3880    -0.1940 H     1 <1>   0.0800 
 30 H       -2.1100     1.7790     0.9400 H     1 <1>   0.0800 
 31 H       -1.8740    -1.8590    -1.7520 H     1 <1>   0.0800 
 32 H       -1.4860     3.0120    -1.7650 H     1 <1>   0.0800 
 33 H       -0.2950     2.3700    -0.6590 H     1 <1>   0.0800 
 34 H       -3.3470    -3.5270    -0.9870 H     1 <1>   0.0800 
 35 H       -0.0950    -2.1410     0.2440 H     1 <1>   0.0800 
 36 H       -0.7500    -3.6020    -0.4950 H     1 <1>   0.0800 
 37 H       -3.2550    -4.2210     1.2220 H     1 <1>   0.0800 
 38 H       -3.4450    -2.5860     1.8440 H     1 <1>   0.0800 
 39 H       -4.6830    -1.4640    -1.4180 H     1 <1>   0.0800 
 40 H       -4.5940    -1.0880     0.2740 H     1 <1>   0.0800 
 41 H       -2.0570     5.4540    -1.4560 H     1 <1>   0.1500 
 42 H       -0.5300     5.8900     2.4770 H     1 <1>   0.1500 
 43 H       -5.0950    -4.6670    -0.1370 H     1 <1>   0.1500 
 44 H       -2.3750     7.9450     1.2940 H     1 <1>   0.0800 
 45 H       -2.1350     7.9960    -0.4370 H     1 <1>   0.0800 
 46 H       -0.7810     8.2540     0.6390 H     1 <1>   0.0800 
 47 H       -6.4270     0.0120    -0.4480 H     1 <1>   0.1500 
 48 H       -7.1630    -5.7670     0.2880 H     1 <1>   0.1500 
 49 H      -10.4170    -2.6750     0.5090 H     1 <1>   0.1500 
 50 H       -8.5920     1.0980    -0.2200 H     1 <1>   0.1500 
 51 H      -10.5990    -0.2210     0.2620 H     1 <1>   0.1500 
@<TRIPOS>BOND
  1   1   2  2   
  2   2   3  am  
  3   2   4  1   
  4   3   5  1   
  5   3  28  1   
  6   4   6  1   
  7   4  29  1   
  8   4  30  1   
  9   5   7  1   
 10   5   8  1   
 11   5  31  1   
 12   6   9  1   
 13   6  32  1   
 14   6  33  1   
 15   7  10  1   
 16   7  11  1   
 17   7  34  1   
 18   8  12  1   
 19   8  35  1   
 20   8  36  1   
 21   9  13  1   
 22   9  14  1   
 23  10  12  1   
 24  10  37  1   
 25  10  38  1   
 26  11  15  1   
 27  11  39  1   
 28  11  40  1   
 29  13  16  2   
 30  14  17  2   
 31  14  41  1   
 32  15  18  ar  
 33  15  19  ar  
 34  16  17  1   
 35  16  42  1   
 36  17  20  1   
 37  18  21  ar  
 38  18  22  ar  
 39  19  23  ar  
 40  19  43  1   
 41  20  44  1   
 42  20  45  1   
 43  20  46  1   
 44  21  24  ar  
 45  21  25  ar  
 46  22  26  ar  
 47  22  47  1   
 48  23  24  ar  
 49  23  48  1   
 50  25  27  ar  
 51  25  49  1   
 52  26  27  ar  
 53  26  50  1   
 54  27  51  1   
@<TRIPOS>SUBSTRUCTURE
  1 ****  11 GROUP 4 **** **** 0

# MOE 2024.06 (io_trps.svl 2023.06)
