@<TRIPOS>MOLECULE
NONAME
47 49 1 0 0 
SMALL
USER_CHARGES


@<TRIPOS>ATOM
  1 S        0.7860    -2.3920    -2.6260 S.3   1 <1>   0.1810 
  2 N        0.6810    -0.7870    -3.1430 N.2   1 <1>  -0.2210 
  3 C        1.3940    -1.9460    -1.0690 C.2   1 <1>  -0.1400 
  4 N        1.0830    -0.0050    -2.2450 N.2   1 <1>  -0.2270 
  5 C        1.5060    -0.6080    -1.0730 C.2   1 <1>   0.0460 
  6 C        1.6610    -3.1090    -0.1300 C.3   1 <1>   0.2900 
  7 C        2.0220     0.3720    -0.0110 C.3   1 <1>   0.1010 
  8 N        0.4250    -3.8780     0.1500 N.3   1 <1>  -0.8100 
  9 C        3.3330     1.0200    -0.4790 C.3   1 <1>  -0.2400 
 10 C        2.2360    -0.2230     1.3850 C.3   1 <1>  -0.2400 
 11 C        0.7440    -5.1220     0.8930 C.3   1 <1>   0.2530 
 12 C       -0.6080    -3.0870     0.8680 C.3   1 <1>   0.1100 
 13 C        1.6770    -6.0520     0.1210 C.ar  1 <1>   0.1670 
 14 C       -1.6590    -2.4830    -0.0860 C.3   1 <1>   0.2200 
 15 N        2.9170    -6.1740     0.5780 N.ar  1 <1>  -0.6200 
 16 C        1.1970    -6.7060    -1.0040 C.ar  1 <1>  -0.1500 
 17 N       -2.2140    -3.5190    -0.9570 N.am  1 <1>  -0.7300 
 18 C       -2.9080    -1.9270     0.6250 C.3   1 <1>  -0.1600 
 19 C        3.7030    -6.9860    -0.1120 C.ar  1 <1>   0.1600 
 20 C        2.0270    -7.5470    -1.7130 C.ar  1 <1>  -0.1500 
 21 C       -3.5480    -3.5550    -1.0050 C.2   1 <1>   0.5690 
 22 C       -4.1250    -2.4490    -0.1670 C.3   1 <1>  -0.0990 
 23 C        3.3160    -7.6840    -1.2440 C.ar  1 <1>  -0.1500 
 24 O       -4.2020    -4.3660    -1.6090 O.2   1 <1>  -0.5700 
 25 H        2.0940    -2.7800     0.7940 H     1 <1>   0.0800 
 26 H        2.3850    -3.7440    -0.6130 H     1 <1>   0.0800 
 27 H        1.2830     1.1510     0.0840 H     1 <1>   0.0800 
 28 H        4.0920     0.2710    -0.6190 H     1 <1>   0.0800 
 29 H        3.6800     1.7380     0.2420 H     1 <1>   0.0800 
 30 H        3.1840     1.5310    -1.4150 H     1 <1>   0.0800 
 31 H        3.0450    -0.9310     1.3780 H     1 <1>   0.0800 
 32 H        1.3390    -0.6980     1.7330 H     1 <1>   0.0800 
 33 H        2.4860     0.5590     2.0800 H     1 <1>   0.0800 
 34 H        1.1920    -4.8780     1.8410 H     1 <1>   0.0800 
 35 H       -0.1670    -5.6610     1.0870 H     1 <1>   0.0800 
 36 H       -1.1360    -3.7250     1.5560 H     1 <1>   0.0800 
 37 H       -0.1530    -2.3060     1.4490 H     1 <1>   0.0800 
 38 H       -1.2210    -1.7110    -0.6950 H     1 <1>   0.0800 
 39 H        0.1810    -6.5510    -1.3220 H     1 <1>   0.1500 
 40 H       -1.5920    -4.2010    -1.3950 H     1 <1>   0.3700 
 41 H       -2.9560    -2.2960     1.6340 H     1 <1>   0.0800 
 42 H       -2.8860    -0.8520     0.6560 H     1 <1>   0.0800 
 43 H        4.7120    -7.1030     0.2430 H     1 <1>   0.1500 
 44 H        1.6850    -8.0690    -2.5900 H     1 <1>   0.1500 
 45 H       -4.5210    -1.6920    -0.8190 H     1 <1>   0.0800 
 46 H       -4.8970    -2.8250     0.4770 H     1 <1>   0.0800 
 47 H        4.0160    -8.3250    -1.7480 H     1 <1>   0.1500 
@<TRIPOS>BOND
  1   1   2  1   
  2   1   3  1   
  3   2   4  2   
  4   3   5  2   
  5   3   6  1   
  6   4   5  1   
  7   5   7  1   
  8   6   8  1   
  9   6  25  1   
 10   6  26  1   
 11   7   9  1   
 12   7  10  1   
 13   7  27  1   
 14   8  11  1   
 15   8  12  1   
 16   9  28  1   
 17   9  29  1   
 18   9  30  1   
 19  10  31  1   
 20  10  32  1   
 21  10  33  1   
 22  11  13  1   
 23  11  34  1   
 24  11  35  1   
 25  12  14  1   
 26  12  36  1   
 27  12  37  1   
 28  13  15  ar  
 29  13  16  ar  
 30  14  17  1   
 31  14  18  1   
 32  14  38  1   
 33  15  19  ar  
 34  16  20  ar  
 35  16  39  1   
 36  17  21  am  
 37  17  40  1   
 38  18  22  1   
 39  18  41  1   
 40  18  42  1   
 41  19  23  ar  
 42  19  43  1   
 43  20  23  ar  
 44  20  44  1   
 45  21  22  1   
 46  21  24  2   
 47  22  45  1   
 48  22  46  1   
 49  23  47  1   
@<TRIPOS>SUBSTRUCTURE
  1 ****   8 GROUP 4 **** **** 0

# MOE 2024.06 (io_trps.svl 2023.06)
