@<TRIPOS>MOLECULE
NONAME
50 52 1 0 0 
SMALL
USER_CHARGES


@<TRIPOS>ATOM
  1 S       -0.7000    -0.7540    -0.5250 S.o2  1 <1>   1.2040 
  2 O       -0.8560    -0.0280    -1.7660 O.2   1 <1>  -0.6500 
  3 O        0.2560    -1.8350    -0.4330 O.2   1 <1>  -0.6500 
  4 C       -2.3180    -1.3230     0.0510 C.ar  1 <1>  -0.0090 
  5 C       -0.2640     0.4380     0.7250 C.3   1 <1>  -0.1350 
  6 C       -2.4300    -2.3560     0.9730 C.ar  1 <1>  -0.1500 
  7 C       -3.4900    -0.7210    -0.3890 C.ar  1 <1>  -0.1500 
  8 C       -3.6640    -2.7730     1.4400 C.ar  1 <1>  -0.1500 
  9 C       -4.7280    -1.1340     0.0710 C.ar  1 <1>  -0.1500 
 10 C       -4.8250    -2.1680     0.9870 C.ar  1 <1>  -0.1430 
 11 C       -6.1950    -2.6330     1.4800 C.3   1 <1>   0.0440 
 12 C       -6.3340    -4.1470     1.6070 C.2   1 <1>   0.5690 
 13 O       -6.5820    -4.5820     2.7070 O.2   1 <1>  -0.5700 
 14 N       -6.1910    -4.9730     0.5210 N.am  1 <1>  -0.6600 
 15 C       -6.3790    -6.4560     0.6490 C.3   1 <1>   0.3640 
 16 C       -5.9020    -4.4790    -0.8610 C.3   1 <1>   0.1400 
 17 C       -5.0060    -7.1480     0.7500 C.ar  1 <1>  -0.1430 
 18 C       -7.3070    -6.9710    -0.4910 C.3   1 <1>   0.2000 
 19 C       -5.9250    -5.5910    -1.9210 C.3   1 <1>   0.1200 
 20 C       -4.5240    -8.0600    -0.1860 C.ar  1 <1>  -0.1500 
 21 C       -4.2090    -6.8590     1.8500 C.ar  1 <1>  -0.1500 
 22 O       -7.0370    -6.4330    -1.7740 O.3   1 <1>  -0.5600 
 23 C       -8.7810    -6.6600    -0.1930 C.3   1 <1>   0.1200 
 24 C       -3.2810    -8.6480    -0.0300 C.ar  1 <1>  -0.1500 
 25 C       -2.9660    -7.4450     2.0100 C.ar  1 <1>  -0.1500 
 26 O       -9.2460    -7.4550     0.8500 O.3   1 <1>  -0.6800 
 27 C       -2.4990    -8.3410     1.0680 C.ar  1 <1>  -0.1500 
 28 H       -0.9900     1.2260     0.7610 H     1 <1>   0.0800 
 29 H        0.6940     0.8670     0.5030 H     1 <1>   0.0800 
 30 H       -0.2120    -0.0320     1.6880 H     1 <1>   0.0800 
 31 H       -1.5400    -2.8490     1.3290 H     1 <1>   0.1500 
 32 H       -3.4340     0.0820    -1.1060 H     1 <1>   0.1500 
 33 H       -3.7120    -3.5790     2.1540 H     1 <1>   0.1500 
 34 H       -5.6150    -0.6430    -0.2930 H     1 <1>   0.1500 
 35 H       -6.9670    -2.2830     0.8230 H     1 <1>   0.0800 
 36 H       -6.3730    -2.1940     2.4450 H     1 <1>   0.0800 
 37 H       -6.8830    -6.6690     1.5770 H     1 <1>   0.0800 
 38 H       -6.6290    -3.7340    -1.1310 H     1 <1>   0.0800 
 39 H       -4.9290    -4.0200    -0.8790 H     1 <1>   0.0800 
 40 H       -7.2140    -8.0370    -0.5760 H     1 <1>   0.0800 
 41 H       -5.0290    -6.1800    -1.8660 H     1 <1>   0.0800 
 42 H       -5.9720    -5.1580    -2.9040 H     1 <1>   0.0800 
 43 H       -5.0980    -8.3290    -1.0540 H     1 <1>   0.1500 
 44 H       -4.5590    -6.1690     2.5990 H     1 <1>   0.1500 
 45 H       -9.3910    -6.8570    -1.0580 H     1 <1>   0.0800 
 46 H       -8.8940    -5.6310     0.1000 H     1 <1>   0.0800 
 47 H       -2.9210    -9.3480    -0.7640 H     1 <1>   0.1500 
 48 H       -2.3660    -7.2040     2.8700 H     1 <1>   0.1500 
 49 H       -9.3790    -8.3780     0.5570 H     1 <1>   0.4000 
 50 H       -1.5320    -8.7980     1.1900 H     1 <1>   0.1500 
@<TRIPOS>BOND
  1   1   2  2   
  2   1   3  2   
  3   1   4  1   
  4   1   5  1   
  5   4   6  ar  
  6   4   7  ar  
  7   5  28  1   
  8   5  29  1   
  9   5  30  1   
 10   6   8  ar  
 11   6  31  1   
 12   7   9  ar  
 13   7  32  1   
 14   8  10  ar  
 15   8  33  1   
 16   9  10  ar  
 17   9  34  1   
 18  10  11  1   
 19  11  12  1   
 20  11  35  1   
 21  11  36  1   
 22  12  13  2   
 23  12  14  am  
 24  14  15  1   
 25  14  16  1   
 26  15  17  1   
 27  15  18  1   
 28  15  37  1   
 29  16  19  1   
 30  16  38  1   
 31  16  39  1   
 32  17  20  ar  
 33  17  21  ar  
 34  18  22  1   
 35  18  23  1   
 36  18  40  1   
 37  19  22  1   
 38  19  41  1   
 39  19  42  1   
 40  20  24  ar  
 41  20  43  1   
 42  21  25  ar  
 43  21  44  1   
 44  23  26  1   
 45  23  45  1   
 46  23  46  1   
 47  24  27  ar  
 48  24  47  1   
 49  25  27  ar  
 50  25  48  1   
 51  26  49  1   
 52  27  50  1   
@<TRIPOS>SUBSTRUCTURE
  1 ****  14 GROUP 4 **** **** 0

# MOE 2024.06 (io_trps.svl 2023.06)
