@<TRIPOS>MOLECULE
NONAME
45 47 1 0 0 
SMALL
USER_CHARGES


@<TRIPOS>ATOM
  1 O        0.4530     1.0920    -1.5180 O.2   1 <1>  -0.5700 
  2 C        0.9400     1.8610    -0.7140 C.2   1 <1>   0.6900 
  3 N        0.3790     2.1370     0.4980 N.am  1 <1>  -0.4200 
  4 N        2.0910     2.5640    -0.9170 N.am  1 <1>  -0.6600 
  5 C        1.1320     3.0620     1.1510 C.2   1 <1>   0.5690 
  6 C       -0.8820     1.5370     0.9900 C.3   1 <1>   0.0600 
  7 C        2.3540     3.4260     0.2860 C.3   1 <1>   0.3610 
  8 C        2.8010     2.6160    -2.2240 C.3   1 <1>   0.0600 
  9 O        0.8790     3.5240     2.2400 O.2   1 <1>  -0.5700 
 10 C        2.3440     4.9250    -0.0620 C.3   1 <1>  -0.1600 
 11 C        3.6470     3.0060     1.0080 C.3   1 <1>  -0.1600 
 12 C        3.6550     5.4200    -0.6710 C.3   1 <1>   0.2090 
 13 C        4.9190     3.5590     0.3710 C.3   1 <1>   0.2090 
 14 N        4.7940     5.0260     0.1950 N.pl3 1 <1>  -0.8210 
 15 C        6.0070     5.6480    -0.1060 C.2   1 <1>   0.5990 
 16 N        6.1940     6.3690    -1.1640 N.2   1 <1>  -0.7070 
 17 N        7.0570     5.5050     0.7160 N.2   1 <1>  -0.5650 
 18 N        7.4660     6.7500    -1.0200 N.pl3 1 <1>   0.3140 
 19 C        7.9410     6.2130     0.1100 C.2   1 <1>   0.2490 
 20 C        8.1630     7.6200    -1.9880 C.3   1 <1>   0.0960 
 21 O        9.2130     6.4170     0.5310 O.3   1 <1>  -0.3430 
 22 C        7.9640     9.1010    -1.6430 C.3   1 <1>  -0.2400 
 23 C        9.6080     5.8420     1.7590 C.3   1 <1>   0.0400 
 24 H       -0.8000     0.4650     0.9730 H     1 <1>   0.0800 
 25 H       -1.6950     1.8380     0.3520 H     1 <1>   0.0800 
 26 H       -1.0810     1.8620     1.9970 H     1 <1>   0.0800 
 27 H        2.4420     1.8290    -2.8660 H     1 <1>   0.0800 
 28 H        3.8570     2.4800    -2.0910 H     1 <1>   0.0800 
 29 H        2.6120     3.5560    -2.7100 H     1 <1>   0.0800 
 30 H        2.1900     5.4840     0.8440 H     1 <1>   0.0800 
 31 H        1.5230     5.1470    -0.7190 H     1 <1>   0.0800 
 32 H        3.7030     1.9350     1.0710 H     1 <1>   0.0800 
 33 H        3.6130     3.3860     2.0140 H     1 <1>   0.0800 
 34 H        3.6210     6.4950    -0.7450 H     1 <1>   0.0800 
 35 H        3.8050     5.0280    -1.6600 H     1 <1>   0.0800 
 36 H        5.1150     3.0970    -0.5780 H     1 <1>   0.0800 
 37 H        5.7510     3.3400     1.0200 H     1 <1>   0.0800 
 38 H        7.7710     7.4130    -2.9670 H     1 <1>   0.0800 
 39 H        9.2090     7.3750    -1.9780 H     1 <1>   0.0800 
 40 H        6.9160     9.3460    -1.6560 H     1 <1>   0.0800 
 41 H        8.4680     9.7160    -2.3660 H     1 <1>   0.0800 
 42 H        8.3670     9.3150    -0.6690 H     1 <1>   0.0800 
 43 H       10.6310     6.1120     1.9480 H     1 <1>   0.0800 
 44 H        9.5120     4.7730     1.6890 H     1 <1>   0.0800 
 45 H        8.9730     6.2220     2.5400 H     1 <1>   0.0800 
@<TRIPOS>BOND
  1   1   2  2   
  2   2   3  am  
  3   2   4  am  
  4   3   5  am  
  5   3   6  1   
  6   4   7  1   
  7   4   8  1   
  8   5   7  1   
  9   5   9  2   
 10   6  24  1   
 11   6  25  1   
 12   6  26  1   
 13   7  10  1   
 14   7  11  1   
 15   8  27  1   
 16   8  28  1   
 17   8  29  1   
 18  10  12  1   
 19  10  30  1   
 20  10  31  1   
 21  11  13  1   
 22  11  32  1   
 23  11  33  1   
 24  12  14  1   
 25  12  34  1   
 26  12  35  1   
 27  13  14  1   
 28  13  36  1   
 29  13  37  1   
 30  14  15  1   
 31  15  16  2   
 32  15  17  1   
 33  16  18  1   
 34  17  19  2   
 35  18  19  1   
 36  18  20  1   
 37  19  21  1   
 38  20  22  1   
 39  20  38  1   
 40  20  39  1   
 41  21  23  1   
 42  22  40  1   
 43  22  41  1   
 44  22  42  1   
 45  23  43  1   
 46  23  44  1   
 47  23  45  1   
@<TRIPOS>SUBSTRUCTURE
  1 ****  14 GROUP 4 **** **** 0

# MOE 2024.06 (io_trps.svl 2023.06)
