@<TRIPOS>MOLECULE
NONAME
44 45 1 0 0 
SMALL
USER_CHARGES


@<TRIPOS>ATOM
  1 S        0.6350     0.2080    -2.0180 S.o2  1 <1>   1.3330 
  2 O        0.0060     1.0280    -3.0270 O.2   1 <1>  -0.6500 
  3 O        0.9340    -1.1780    -2.3000 O.2   1 <1>  -0.6500 
  4 N       -0.3560     0.2580    -0.6380 N.am  1 <1>  -0.8490 
  5 C        2.1510     1.0020    -1.4780 C.3   1 <1>  -0.0550 
  6 C       -1.3440    -0.8250    -0.6300 C.3   1 <1>   0.1160 
  7 C       -1.0350     1.5470    -0.4570 C.3   1 <1>   0.1160 
  8 C        2.9760     0.1780    -0.4650 C.3   1 <1>  -0.0800 
  9 C        4.3320     0.7690    -0.1110 C.3   1 <1>   0.2200 
 10 C        2.3230    -0.0160     0.9100 C.3   1 <1>   0.1200 
 11 N        4.2230     2.2290     0.1190 N.am  1 <1>  -0.7300 
 12 C        4.5900     0.0870     1.2250 C.3   1 <1>   0.1200 
 13 O        3.3480     0.0670     1.8590 O.3   1 <1>  -0.5600 
 14 C        4.5830     3.2070    -0.7500 C.2   1 <1>   0.7150 
 15 O        5.0130     2.8820    -1.8390 O.2   1 <1>  -0.5700 
 16 C        4.4140     4.5790    -0.3660 C.2   1 <1>  -0.2370 
 17 N        4.7490     5.6570    -1.1240 N.pl3 1 <1>   0.3140 
 18 C        3.8990     5.1000     0.7840 C.2   1 <1>  -0.1500 
 19 N        4.4670     6.8160    -0.5090 N.2   1 <1>  -0.7070 
 20 C        5.3530     5.6710    -2.4680 C.3   1 <1>   0.0160 
 21 C        3.9530     6.4760     0.6430 C.2   1 <1>   0.1080 
 22 C        3.4680     7.4760     1.7030 C.3   1 <1>   0.7810 
 23 F        4.0800     7.2520     2.8630 F     1 <1>  -0.3400 
 24 F        2.1780     7.2780     1.9640 F     1 <1>  -0.3400 
 25 H        2.7650     1.1720    -2.3410 H     1 <1>   0.0800 
 26 H        1.9150     1.9620    -1.0620 H     1 <1>   0.0800 
 27 H       -1.9480    -0.7740     0.2600 H     1 <1>   0.0800 
 28 H       -0.8460    -1.7800    -0.6420 H     1 <1>   0.0800 
 29 H       -1.9810    -0.7570    -1.4970 H     1 <1>   0.0800 
 30 H       -1.5740     1.5530     0.4750 H     1 <1>   0.0800 
 31 H       -1.7280     1.7250    -1.2640 H     1 <1>   0.0800 
 32 H       -0.3160     2.3480    -0.4380 H     1 <1>   0.0800 
 33 H        3.1440    -0.8000    -0.8830 H     1 <1>   0.0800 
 34 H        5.0930     0.5480    -0.8410 H     1 <1>   0.0800 
 35 H        1.8430    -0.9760     0.9930 H     1 <1>   0.0800 
 36 H        1.6150     0.7630     1.1320 H     1 <1>   0.0800 
 37 H        3.8480     2.4830     1.0330 H     1 <1>   0.3700 
 38 H        5.3040     0.6120     1.8350 H     1 <1>   0.0800 
 39 H        4.9050    -0.9320     1.0810 H     1 <1>   0.0800 
 40 H        3.5180     4.5840     1.6480 H     1 <1>   0.1500 
 41 H        6.2890     5.1450    -2.4410 H     1 <1>   0.0800 
 42 H        5.5200     6.6870    -2.7740 H     1 <1>   0.0800 
 43 H        4.6870     5.1910    -3.1600 H     1 <1>   0.0800 
 44 H        3.6120     8.5040     1.4290 H     1 <1>   0.0800 
@<TRIPOS>BOND
  1   1   2  2   
  2   1   3  2   
  3   1   4  am  
  4   1   5  1   
  5   4   6  1   
  6   4   7  1   
  7   5   8  1   
  8   5  25  1   
  9   5  26  1   
 10   6  27  1   
 11   6  28  1   
 12   6  29  1   
 13   7  30  1   
 14   7  31  1   
 15   7  32  1   
 16   8   9  1   
 17   8  10  1   
 18   8  33  1   
 19   9  11  1   
 20   9  12  1   
 21   9  34  1   
 22  10  13  1   
 23  10  35  1   
 24  10  36  1   
 25  11  14  am  
 26  11  37  1   
 27  12  13  1   
 28  12  38  1   
 29  12  39  1   
 30  14  15  2   
 31  14  16  1   
 32  16  17  1   
 33  16  18  2   
 34  17  19  1   
 35  17  20  1   
 36  18  21  1   
 37  18  40  1   
 38  19  21  2   
 39  20  41  1   
 40  20  42  1   
 41  20  43  1   
 42  21  22  1   
 43  22  23  1   
 44  22  24  1   
 45  22  44  1   
@<TRIPOS>SUBSTRUCTURE
  1 ****  11 GROUP 4 **** **** 0

# MOE 2024.06 (io_trps.svl 2023.06)
