@<TRIPOS>MOLECULE
NONAME
52 54 1 0 0 
SMALL
USER_CHARGES


@<TRIPOS>ATOM
  1 O       -0.0080     0.5880    -0.6900 O.2   1 <1>  -0.5700 
  2 C       -0.0380     1.7050    -0.2280 C.2   1 <1>   0.5690 
  3 N       -1.2020     2.2650     0.2350 N.am  1 <1>  -0.6600 
  4 C        1.2620     2.4940    -0.1740 C.3   1 <1>  -0.0990 
  5 C       -2.4940     1.5230     0.1800 C.3   1 <1>   0.1400 
  6 C       -1.3410     3.6270     0.8230 C.3   1 <1>   0.1400 
  7 C        2.4700     1.7450    -0.7640 C.3   1 <1>  -0.0220 
  8 C       -3.4950     2.3130    -0.6660 C.3   1 <1>  -0.1600 
  9 C       -2.3150     4.4410    -0.0310 C.3   1 <1>  -0.1600 
 10 C        3.7290     2.6160    -0.6980 C.2   1 <1>  -0.1240 
 11 C       -3.6770     3.7420    -0.1460 C.3   1 <1>   0.4180 
 12 C        4.0460     3.4930    -1.6930 C.2   1 <1>  -0.0290 
 13 C        4.6110     2.5320     0.4270 C.2   1 <1>   0.3750 
 14 O       -4.2470     3.6230     1.1350 O.3   1 <1>  -0.5600 
 15 C       -4.6100     4.5120    -1.0770 C.2   1 <1>  -0.2880 
 16 N        5.1890     4.2180    -1.5390 N.am  1 <1>  -0.5390 
 17 C        3.2720     3.7760    -2.9720 C.3   1 <1>  -0.1020 
 18 N        5.6790     3.2350     0.5500 N.2   1 <1>  -0.6610 
 19 C        4.3250     1.5750     1.5720 C.3   1 <1>  -0.1790 
 20 C       -4.9150     4.7400     1.6540 C.3   1 <1>   0.1200 
 21 C       -5.7300     5.1220    -0.6810 C.2   1 <1>  -0.2760 
 22 C        5.9940     4.1050    -0.4500 C.2   1 <1>   0.8410 
 23 C       -6.1260     5.1000     0.7840 C.3   1 <1>  -0.0220 
 24 C       -6.6850     5.8550    -1.6050 C.3   1 <1>  -0.1020 
 25 O        6.9920     4.7950    -0.3900 O.2   1 <1>  -0.5700 
 26 H        1.4660     2.7380     0.8510 H     1 <1>   0.0800 
 27 H        1.1230     3.4090    -0.7190 H     1 <1>   0.0800 
 28 H       -2.8750     1.4010     1.1800 H     1 <1>   0.0800 
 29 H       -2.3580     0.5430    -0.2450 H     1 <1>   0.0800 
 30 H       -0.3960     4.1360     0.8750 H     1 <1>   0.0800 
 31 H       -1.7250     3.5370     1.8260 H     1 <1>   0.0800 
 32 H        2.2610     1.4750    -1.7830 H     1 <1>   0.0800 
 33 H        2.6110     0.8150    -0.2440 H     1 <1>   0.0800 
 34 H       -4.4470     1.8140    -0.6670 H     1 <1>   0.0800 
 35 H       -3.1400     2.3380    -1.6800 H     1 <1>   0.0800 
 36 H       -1.8960     4.5590    -1.0130 H     1 <1>   0.0800 
 37 H       -2.4380     5.4240     0.3810 H     1 <1>   0.0800 
 38 H       -4.2760     4.5060    -2.0990 H     1 <1>   0.1500 
 39 H        5.5220     4.8930    -2.2240 H     1 <1>   0.3700 
 40 H        3.1170     4.8350    -3.0760 H     1 <1>   0.0800 
 41 H        2.3090     3.3030    -2.9860 H     1 <1>   0.0800 
 42 H        3.8340     3.4260    -3.8190 H     1 <1>   0.0800 
 43 H        3.3430     1.7430     1.9700 H     1 <1>   0.0800 
 44 H        5.0370     1.7210     2.3660 H     1 <1>   0.0800 
 45 H        4.4090     0.5600     1.2310 H     1 <1>   0.0800 
 46 H       -4.2260     5.5640     1.6980 H     1 <1>   0.0800 
 47 H       -5.2310     4.5000     2.6530 H     1 <1>   0.0800 
 48 H       -6.4900     6.0660     1.0870 H     1 <1>   0.0800 
 49 H       -6.9110     4.3820     0.9380 H     1 <1>   0.0800 
 50 H       -7.6620     5.4070    -1.5580 H     1 <1>   0.0800 
 51 H       -6.3370     5.8070    -2.6220 H     1 <1>   0.0800 
 52 H       -6.7610     6.8890    -1.3190 H     1 <1>   0.0800 
@<TRIPOS>BOND
  1   1   2  2   
  2   2   3  am  
  3   2   4  1   
  4   3   5  1   
  5   3   6  1   
  6   4   7  1   
  7   4  26  1   
  8   4  27  1   
  9   5   8  1   
 10   5  28  1   
 11   5  29  1   
 12   6   9  1   
 13   6  30  1   
 14   6  31  1   
 15   7  10  1   
 16   7  32  1   
 17   7  33  1   
 18   8  11  1   
 19   8  34  1   
 20   8  35  1   
 21   9  11  1   
 22   9  36  1   
 23   9  37  1   
 24  10  12  2   
 25  10  13  1   
 26  11  14  1   
 27  11  15  1   
 28  12  16  1   
 29  12  17  1   
 30  13  18  2   
 31  13  19  1   
 32  14  20  1   
 33  15  21  2   
 34  15  38  1   
 35  16  22  am  
 36  16  39  1   
 37  17  40  1   
 38  17  41  1   
 39  17  42  1   
 40  18  22  1   
 41  19  43  1   
 42  19  44  1   
 43  19  45  1   
 44  20  23  1   
 45  20  46  1   
 46  20  47  1   
 47  21  23  1   
 48  21  24  1   
 49  22  25  2   
 50  23  48  1   
 51  23  49  1   
 52  24  50  1   
 53  24  51  1   
 54  24  52  1   
@<TRIPOS>SUBSTRUCTURE
  1 ****   4 GROUP 4 **** **** 0

# MOE 2024.06 (io_trps.svl 2023.06)
