@<TRIPOS>MOLECULE
NONAME
47 49 1 0 0 
SMALL
USER_CHARGES


@<TRIPOS>ATOM
  1 O        1.2410     4.4080    -1.2620 O.3   1 <1>  -0.0190 
  2 N        2.4560     4.6220    -1.6600 N.2   1 <1>  -0.4100 
  3 C        1.1080     3.2300    -0.7160 C.2   1 <1>  -0.0400 
  4 C        3.1060     3.5370    -1.4310 C.2   1 <1>   0.1080 
  5 C        2.2870     2.5970    -0.8120 C.2   1 <1>  -0.1500 
  6 C       -0.2150     2.8290    -0.0880 C.3   1 <1>   0.0200 
  7 C        4.5630     3.3250    -1.7840 C.3   1 <1>  -0.0590 
  8 C       -0.6330     3.7360     1.0960 C.3   1 <1>  -0.0800 
  9 C       -1.1730     5.1010     0.6450 C.3   1 <1>   0.2000 
 10 C        0.5420     4.0960     2.0120 C.3   1 <1>   0.3430 
 11 O       -2.2570     5.4390     1.4460 O.3   1 <1>  -0.6800 
 12 C       -0.0420     6.1190     0.8620 C.3   1 <1>   0.3430 
 13 N        1.1000     5.3560     1.4570 N.4   1 <1>  -0.9590 
 14 C        1.9560     6.1510     2.3750 C.3   1 <1>   0.4860 
 15 C        2.4580     7.3740     1.6300 C.ar  1 <1>  -0.1440 
 16 C        2.0340     8.6410     2.0040 C.ar  1 <1>  -0.1500 
 17 C        3.3350     7.2420     0.5630 C.ar  1 <1>  -0.1500 
 18 C        2.4780     9.7550     1.3130 C.ar  1 <1>  -0.1500 
 19 C        3.7710     8.3610    -0.1230 C.ar  1 <1>  -0.1500 
 20 C        3.3490     9.6310     0.2400 C.ar  1 <1>   0.0730 
 21 C        3.8020    10.7840    -0.4770 C.1   1 <1>  -0.0730 
 22 C        4.1820    11.7370    -1.0820 C.1   1 <1>  -0.2000 
 23 C        4.6570    12.9240    -1.8420 C.3   1 <1>   0.3200 
 24 O        6.0320    12.8640    -1.8820 O.3   1 <1>  -0.6800 
 25 H        2.5770     1.6110    -0.4960 H     1 <1>   0.1500 
 26 H       -0.9840     2.8270    -0.8430 H     1 <1>   0.0800 
 27 H       -0.1210     1.8170     0.2660 H     1 <1>   0.0800 
 28 H        5.1320     3.1080    -0.8990 H     1 <1>   0.0800 
 29 H        4.9630     4.2080    -2.2490 H     1 <1>   0.0800 
 30 H        4.6540     2.5040    -2.4720 H     1 <1>   0.0800 
 31 H       -1.3840     3.2010     1.6530 H     1 <1>   0.0800 
 32 H       -1.5130     5.1050    -0.3780 H     1 <1>   0.0800 
 33 H        1.2820     3.3120     2.0390 H     1 <1>   0.0800 
 34 H        0.1750     4.2720     3.0110 H     1 <1>   0.0800 
 35 H       -2.0860     5.3360     2.4020 H     1 <1>   0.4000 
 36 H       -0.3750     6.9010     1.5230 H     1 <1>   0.0800 
 37 H        0.2600     6.5540    -0.0780 H     1 <1>   0.0800 
 38 H        1.6920     5.1040     0.6430 H     1 <1>   0.4500 
 39 H        1.3910     6.4570     3.2400 H     1 <1>   0.0800 
 40 H        2.7960     5.5610     2.7030 H     1 <1>   0.0800 
 41 H        1.3600     8.7810     2.8320 H     1 <1>   0.1500 
 42 H        3.6910     6.2750     0.2480 H     1 <1>   0.1500 
 43 H        2.1470    10.7370     1.6050 H     1 <1>   0.1500 
 44 H        4.4480     8.2520    -0.9540 H     1 <1>   0.1500 
 45 H        4.3690    13.8360    -1.3490 H     1 <1>   0.0800 
 46 H        4.2860    12.9190    -2.8530 H     1 <1>   0.0800 
 47 H        6.3540    12.5250    -1.0250 H     1 <1>   0.4000 
@<TRIPOS>BOND
  1   1   2  1   
  2   1   3  1   
  3   2   4  2   
  4   3   5  2   
  5   3   6  1   
  6   4   5  1   
  7   4   7  1   
  8   5  25  1   
  9   6   8  1   
 10   6  26  1   
 11   6  27  1   
 12   7  28  1   
 13   7  29  1   
 14   7  30  1   
 15   8   9  1   
 16   8  10  1   
 17   8  31  1   
 18   9  11  1   
 19   9  12  1   
 20   9  32  1   
 21  10  13  1   
 22  10  33  1   
 23  10  34  1   
 24  11  35  1   
 25  12  13  1   
 26  12  36  1   
 27  12  37  1   
 28  13  14  1   
 29  13  38  1   
 30  14  15  1   
 31  14  39  1   
 32  14  40  1   
 33  15  16  ar  
 34  15  17  ar  
 35  16  18  ar  
 36  16  41  1   
 37  17  19  ar  
 38  17  42  1   
 39  18  20  ar  
 40  18  43  1   
 41  19  20  ar  
 42  19  44  1   
 43  20  21  1   
 44  21  22  3   
 45  22  23  1   
 46  23  24  1   
 47  23  45  1   
 48  23  46  1   
 49  24  47  1   
@<TRIPOS>SUBSTRUCTURE
  1 ****  17 GROUP 4 **** **** 0

# MOE 2024.06 (io_trps.svl 2023.06)
