@<TRIPOS>MOLECULE
NONAME
53 55 1 0 0 
SMALL
USER_CHARGES


@<TRIPOS>ATOM
  1 O        2.3580    -1.8170     2.1670 O.2   1 <1>  -0.5700 
  2 C        2.3950    -1.3860     1.0370 C.2   1 <1>   0.6300 
  3 N        3.5860    -1.2640     0.3620 N.am  1 <1>  -0.6600 
  4 C        1.0600    -1.0040     0.3780 C.3   1 <1>  -0.0950 
  5 C        4.8480    -1.8220     0.9470 C.3   1 <1>   0.1400 
  6 C        3.7580    -0.6740    -0.9950 C.3   1 <1>   0.1400 
  7 C        0.0440    -0.2710     1.2080 C.3   1 <1>  -0.2000 
  8 C        0.7430     0.4350     0.0880 C.3   1 <1>  -0.2000 
  9 C        0.5150    -2.1110    -0.5360 C.3   1 <1>  -0.1450 
 10 C        5.7400    -0.7310     1.5510 C.3   1 <1>   0.1400 
 11 C        4.1540     0.8120    -0.9550 C.3   1 <1>  -0.1600 
 12 N        6.0840     0.3250     0.5470 N.am  1 <1>  -0.6600 
 13 C        4.9690     1.2660     0.2640 C.3   1 <1>   0.1400 
 14 C        7.3150     0.3450    -0.0660 C.2   1 <1>   0.5690 
 15 O        8.1270    -0.5360     0.1340 O.2   1 <1>  -0.5700 
 16 C        7.7150     1.4820    -1.0350 C.3   1 <1>   0.2610 
 17 O        8.5930     1.0050    -2.0110 O.3   1 <1>  -0.6800 
 18 C        8.3510     2.6890    -0.3030 C.3   1 <1>  -0.0800 
 19 C        8.5470     3.8850    -1.2570 C.3   1 <1>  -0.1600 
 20 C        9.6780     2.3490     0.4100 C.3   1 <1>  -0.1600 
 21 C        9.1220     5.1050    -0.5240 C.3   1 <1>  -0.1600 
 22 C       10.2520     3.5700     1.1410 C.3   1 <1>  -0.1600 
 23 C       10.4360     4.7550     0.1850 C.3   1 <1>  -0.1600 
 24 H        4.6120    -2.5360     1.7170 H     1 <1>   0.0800 
 25 H        5.4000    -2.3480     0.1890 H     1 <1>   0.0800 
 26 H        4.5300    -1.2220    -1.5090 H     1 <1>   0.0800 
 27 H        2.8580    -0.7870    -1.5720 H     1 <1>   0.0800 
 28 H       -0.9990    -0.5140     1.0990 H     1 <1>   0.1000 
 29 H        0.3010    -0.0250     2.2250 H     1 <1>   0.1000 
 30 H        1.4340     1.2090     0.3690 H     1 <1>   0.1000 
 31 H        0.1830     0.6800    -0.7980 H     1 <1>   0.1000 
 32 H       -0.4290    -1.8260    -0.9650 H     1 <1>   0.0800 
 33 H        0.3720    -3.0110     0.0370 H     1 <1>   0.0800 
 34 H        1.2050    -2.3210    -1.3320 H     1 <1>   0.0800 
 35 H        6.6390    -1.1890     1.9270 H     1 <1>   0.0800 
 36 H        5.2350    -0.2870     2.3900 H     1 <1>   0.0800 
 37 H        3.2620     1.4070    -0.9990 H     1 <1>   0.0800 
 38 H        4.7010     1.0340    -1.8530 H     1 <1>   0.0800 
 39 H        4.3190     1.3110     1.1220 H     1 <1>   0.0800 
 40 H        5.3500     2.2590     0.1030 H     1 <1>   0.0800 
 41 H        6.8430     1.8170    -1.5620 H     1 <1>   0.0800 
 42 H        9.1360     0.3040    -1.5890 H     1 <1>   0.4000 
 43 H        7.6520     2.9980     0.4550 H     1 <1>   0.0800 
 44 H        9.2210     3.6040    -2.0500 H     1 <1>   0.0800 
 45 H        7.6080     4.1530    -1.7070 H     1 <1>   0.0800 
 46 H        9.5250     1.5580     1.1230 H     1 <1>   0.0800 
 47 H       10.3990     2.0060    -0.3130 H     1 <1>   0.0800 
 48 H        9.2950     5.8990    -1.2290 H     1 <1>   0.0800 
 49 H        8.4080     5.4560     0.2010 H     1 <1>   0.0800 
 50 H        9.5870     3.8550     1.9390 H     1 <1>   0.0800 
 51 H       11.2010     3.3120     1.5800 H     1 <1>   0.0800 
 52 H       10.7890     5.6110     0.7340 H     1 <1>   0.0800 
 53 H       11.1810     4.5050    -0.5510 H     1 <1>   0.0800 
@<TRIPOS>BOND
  1   1   2  2   
  2   2   3  am  
  3   2   4  1   
  4   3   5  1   
  5   3   6  1   
  6   4   7  1   
  7   4   8  1   
  8   4   9  1   
  9   5  10  1   
 10   5  24  1   
 11   5  25  1   
 12   6  11  1   
 13   6  26  1   
 14   6  27  1   
 15   7   8  1   
 16   7  28  1   
 17   7  29  1   
 18   8  30  1   
 19   8  31  1   
 20   9  32  1   
 21   9  33  1   
 22   9  34  1   
 23  10  12  1   
 24  10  35  1   
 25  10  36  1   
 26  11  13  1   
 27  11  37  1   
 28  11  38  1   
 29  12  13  1   
 30  12  14  am  
 31  13  39  1   
 32  13  40  1   
 33  14  15  2   
 34  14  16  1   
 35  16  17  1   
 36  16  18  1   
 37  16  41  1   
 38  17  42  1   
 39  18  19  1   
 40  18  20  1   
 41  18  43  1   
 42  19  21  1   
 43  19  44  1   
 44  19  45  1   
 45  20  22  1   
 46  20  46  1   
 47  20  47  1   
 48  21  23  1   
 49  21  48  1   
 50  21  49  1   
 51  22  23  1   
 52  22  50  1   
 53  22  51  1   
 54  23  52  1   
 55  23  53  1   
@<TRIPOS>SUBSTRUCTURE
  1 ****  12 GROUP 4 **** **** 0

# MOE 2024.06 (io_trps.svl 2023.06)
