@<TRIPOS>MOLECULE
NONAME
48 50 1 0 0 
SMALL
USER_CHARGES


@<TRIPOS>ATOM
  1 O        0.0790     0.7490     2.5050 O.2   1 <1>  -0.5700 
  2 C        0.3890    -0.1540     1.7620 C.2   1 <1>   0.5690 
  3 N        1.0960     0.0000     0.6050 N.am  1 <1>  -0.4940 
  4 C       -0.0230    -1.5880     2.0950 C.3   1 <1>   0.1710 
  5 C        1.5980     1.1520    -0.0390 C.2   1 <1>  -0.0880 
  6 N       -0.0130    -2.4740     0.8910 N.3   1 <1>  -0.8100 
  7 N        2.2430     1.1470    -1.2350 N.pl3 1 <1>   0.3140 
  8 C        1.5520     2.4430     0.3590 C.2   1 <1>  -0.1500 
  9 C        0.1680    -3.8990     1.1980 C.3   1 <1>   0.2530 
 10 C       -1.1860    -2.2330     0.0230 C.3   1 <1>   0.1100 
 11 N        2.6040     2.3960    -1.6090 N.2   1 <1>  -0.7070 
 12 C        2.5460    -0.0320    -2.0730 C.3   1 <1>   0.0960 
 13 C        2.1870     3.1580    -0.6490 C.2   1 <1>   0.1080 
 14 C        0.9490    -4.5990     0.0860 C.ar  1 <1>  -0.1430 
 15 C       -1.2380    -3.1540    -1.2050 C.3   1 <1>   0.1200 
 16 C        3.7780    -0.7800    -1.5420 C.3   1 <1>  -0.1600 
 17 C        2.3870     4.6540    -0.6590 C.3   1 <1>  -0.0590 
 18 C        0.8590    -4.2740    -1.2730 C.ar  1 <1>   0.0830 
 19 C        1.8130    -5.6180     0.4660 C.ar  1 <1>  -0.1500 
 20 O        0.0420    -3.3160    -1.7750 O.3   1 <1>  -0.3630 
 21 C        4.1000    -2.0040    -2.4050 C.3   1 <1>  -0.2400 
 22 C        1.6330    -4.9510    -2.2030 C.ar  1 <1>  -0.1500 
 23 C        2.5780    -6.2950    -0.4690 C.ar  1 <1>  -0.1500 
 24 C        2.4900    -5.9600    -1.8070 C.ar  1 <1>  -0.1500 
 25 H        1.1960    -0.9030     0.1210 H     1 <1>   0.3700 
 26 H       -0.9980    -1.5830     2.5500 H     1 <1>   0.0800 
 27 H        0.6830    -1.9510     2.8210 H     1 <1>   0.0800 
 28 H        1.1190     2.8400     1.2590 H     1 <1>   0.1500 
 29 H       -0.7840    -4.3790     1.3450 H     1 <1>   0.0800 
 30 H        0.7290    -3.9970     2.1110 H     1 <1>   0.0800 
 31 H       -1.1680    -1.2140    -0.3250 H     1 <1>   0.0800 
 32 H       -2.0930    -2.3630     0.5890 H     1 <1>   0.0800 
 33 H        2.7270     0.3100    -3.0760 H     1 <1>   0.0800 
 34 H        1.6880    -0.6790    -2.0820 H     1 <1>   0.0800 
 35 H       -1.8780    -2.7250    -1.9550 H     1 <1>   0.0800 
 36 H       -1.6240    -4.1250    -0.9480 H     1 <1>   0.0800 
 37 H        3.5970    -1.1020    -0.5310 H     1 <1>   0.0800 
 38 H        4.6230    -0.1130    -1.5420 H     1 <1>   0.0800 
 39 H        1.9660     5.0950     0.2250 H     1 <1>   0.0800 
 40 H        1.9110     5.0720    -1.5260 H     1 <1>   0.0800 
 41 H        3.4380     4.8730    -0.6970 H     1 <1>   0.0800 
 42 H        1.9030    -5.8950     1.5010 H     1 <1>   0.1500 
 43 H        3.2690    -2.6870    -2.4080 H     1 <1>   0.0800 
 44 H        4.9590    -2.5170    -2.0100 H     1 <1>   0.0800 
 45 H        4.3120    -1.7080    -3.4180 H     1 <1>   0.0800 
 46 H        1.5550    -4.6840    -3.2410 H     1 <1>   0.1500 
 47 H        3.2420    -7.0820    -0.1550 H     1 <1>   0.1500 
 48 H        3.0850    -6.4820    -2.5360 H     1 <1>   0.1500 
@<TRIPOS>BOND
  1   1   2  2   
  2   2   3  am  
  3   2   4  1   
  4   3   5  1   
  5   3  25  1   
  6   4   6  1   
  7   4  26  1   
  8   4  27  1   
  9   5   7  1   
 10   5   8  2   
 11   6   9  1   
 12   6  10  1   
 13   7  11  1   
 14   7  12  1   
 15   8  13  1   
 16   8  28  1   
 17   9  14  1   
 18   9  29  1   
 19   9  30  1   
 20  10  15  1   
 21  10  31  1   
 22  10  32  1   
 23  11  13  2   
 24  12  16  1   
 25  12  33  1   
 26  12  34  1   
 27  13  17  1   
 28  14  18  ar  
 29  14  19  ar  
 30  15  20  1   
 31  15  35  1   
 32  15  36  1   
 33  16  21  1   
 34  16  37  1   
 35  16  38  1   
 36  17  39  1   
 37  17  40  1   
 38  17  41  1   
 39  18  20  1   
 40  18  22  ar  
 41  19  23  ar  
 42  19  42  1   
 43  21  43  1   
 44  21  44  1   
 45  21  45  1   
 46  22  24  ar  
 47  22  46  1   
 48  23  24  ar  
 49  23  47  1   
 50  24  48  1   
@<TRIPOS>SUBSTRUCTURE
  1 ****   3 GROUP 4 **** **** 0

# MOE 2024.06 (io_trps.svl 2023.06)
