@<TRIPOS>MOLECULE
NONAME
57 60 1 0 0 
SMALL
USER_CHARGES


@<TRIPOS>ATOM
  1 O       -0.9010     0.3460    -1.2920 O.2   1 <1>  -0.5700 
  2 C       -1.6250     0.8780    -0.4780 C.2   1 <1>   0.5440 
  3 N       -2.4800     0.0790     0.2610 N.am  1 <1>  -0.6600 
  4 C       -1.5430     2.3140    -0.3180 C.ar  1 <1>   0.0860 
  5 C       -3.4970     0.5710     1.2480 C.3   1 <1>   0.1400 
  6 C       -2.4690    -1.4150     0.1140 C.3   1 <1>   0.1400 
  7 C       -0.3910     2.9230     0.2120 C.ar  1 <1>   0.0170 
  8 C       -2.6080     3.1240    -0.7110 C.ar  1 <1>  -0.1500 
  9 C       -4.9120     0.0160     0.9480 C.3   1 <1>   0.4230 
 10 C       -3.8740    -1.9520    -0.2100 C.3   1 <1>   0.3430 
 11 C        0.7780     2.1580     0.5740 C.cat 1 <1>   0.7830 
 12 C       -0.3800     4.3080     0.3820 C.ar  1 <1>  -0.1500 
 13 C       -2.5750     4.4930    -0.5410 C.ar  1 <1>  -0.1500 
 14 N       -4.9140    -1.4940     0.7900 N.4   1 <1>  -0.9590 
 15 C       -5.5180     0.6980    -0.3000 C.3   1 <1>   0.1200 
 16 N        1.1270     1.8570     1.8260 N.pl3 1 <1>  -0.7000 
 17 N        1.7110     1.6610    -0.2490 N.pl3 1 <1>  -0.7640 
 18 C       -1.4590     5.0860     0.0160 C.ar  1 <1>  -0.1500 
 19 C       -6.3080    -1.9510     0.4460 C.3   1 <1>   0.4230 
 20 O       -6.8000     0.2020    -0.5530 O.3   1 <1>  -0.5600 
 21 C        2.2930     1.1410     1.8010 C.2   1 <1>   0.2000 
 22 C        2.6560     1.0170     0.5090 C.2   1 <1>   0.2000 
 23 C        1.7340     1.7270    -1.7390 C.3   1 <1>   0.2740 
 24 C       -6.8730    -1.1800    -0.7720 C.3   1 <1>   0.1200 
 25 C       -6.3480    -3.4770     0.2580 C.3   1 <1>  -0.1600 
 26 C       -7.7810    -4.0330     0.2830 C.3   1 <1>  -0.1600 
 27 C       -7.7740    -5.5600     0.1750 C.3   1 <1>  -0.2400 
 28 H       -3.2030     0.2550     2.2340 H     1 <1>   0.0800 
 29 H       -3.5340     1.6460     1.2610 H     1 <1>   0.0800 
 30 H       -1.7990    -1.7220    -0.6710 H     1 <1>   0.0800 
 31 H       -2.1130    -1.8600     1.0270 H     1 <1>   0.0800 
 32 H       -3.4740     2.6790    -1.1690 H     1 <1>   0.1500 
 33 H       -5.5460     0.2790     1.7790 H     1 <1>   0.0800 
 34 H       -3.8340    -3.0280    -0.2320 H     1 <1>   0.0800 
 35 H       -4.1450    -1.6160    -1.1970 H     1 <1>   0.0800 
 36 H        0.4890     4.7920     0.7980 H     1 <1>   0.1500 
 37 H       -3.4110     5.1040    -0.8460 H     1 <1>   0.1500 
 38 H       -4.6780    -1.9070     1.7000 H     1 <1>   0.4500 
 39 H       -4.9080     0.5420    -1.1730 H     1 <1>   0.0800 
 40 H       -5.6140     1.7570    -0.1350 H     1 <1>   0.0800 
 41 H        0.6130     2.1400     2.6630 H     1 <1>   0.4500 
 42 H       -1.4330     6.1560     0.1520 H     1 <1>   0.1500 
 43 H       -6.9500    -1.7200     1.2810 H     1 <1>   0.0800 
 44 H        2.7900     0.7700     2.6840 H     1 <1>   0.1500 
 45 H        3.5160     0.5160     0.0910 H     1 <1>   0.1500 
 46 H        2.6690     2.1430    -2.0750 H     1 <1>   0.0800 
 47 H        0.9300     2.3410    -2.1080 H     1 <1>   0.0800 
 48 H        1.6230     0.7370    -2.1490 H     1 <1>   0.0800 
 49 H       -7.9100    -1.4210    -0.9200 H     1 <1>   0.0800 
 50 H       -6.3380    -1.4170    -1.6750 H     1 <1>   0.0800 
 51 H       -5.8940    -3.7520    -0.6780 H     1 <1>   0.0800 
 52 H       -5.8000    -3.9450     1.0570 H     1 <1>   0.0800 
 53 H       -8.2710    -3.7520     1.2010 H     1 <1>   0.0800 
 54 H       -8.3570    -3.6370    -0.5370 H     1 <1>   0.0800 
 55 H       -7.2410    -6.0010     1.0000 H     1 <1>   0.0800 
 56 H       -7.3150    -5.8770    -0.7450 H     1 <1>   0.0800 
 57 H       -8.7840    -5.9330     0.1920 H     1 <1>   0.0800 
@<TRIPOS>BOND
  1   1   2  2   
  2   2   3  am  
  3   2   4  1   
  4   3   5  1   
  5   3   6  1   
  6   4   7  ar  
  7   4   8  ar  
  8   5   9  1   
  9   5  28  1   
 10   5  29  1   
 11   6  10  1   
 12   6  30  1   
 13   6  31  1   
 14   7  11  1   
 15   7  12  ar  
 16   8  13  ar  
 17   8  32  1   
 18   9  14  1   
 19   9  15  1   
 20   9  33  1   
 21  10  14  1   
 22  10  34  1   
 23  10  35  1   
 24  11  16  ar  
 25  11  17  ar  
 26  12  18  ar  
 27  12  36  1   
 28  13  18  ar  
 29  13  37  1   
 30  14  19  1   
 31  14  38  1   
 32  15  20  1   
 33  15  39  1   
 34  15  40  1   
 35  16  21  1   
 36  16  41  1   
 37  17  22  1   
 38  17  23  1   
 39  18  42  1   
 40  19  24  1   
 41  19  25  1   
 42  19  43  1   
 43  20  24  1   
 44  21  22  2   
 45  21  44  1   
 46  22  45  1   
 47  23  46  1   
 48  23  47  1   
 49  23  48  1   
 50  24  49  1   
 51  24  50  1   
 52  25  26  1   
 53  25  51  1   
 54  25  52  1   
 55  26  27  1   
 56  26  53  1   
 57  26  54  1   
 58  27  55  1   
 59  27  56  1   
 60  27  57  1   
@<TRIPOS>SUBSTRUCTURE
  1 ****   3 GROUP 4 **** **** 0

# MOE 2024.06 (io_trps.svl 2023.06)
