@<TRIPOS>MOLECULE
NONAME
15 15 1 0 0 
SMALL
USER_CHARGES


@<TRIPOS>ATOM
  1 F        6.1670     2.1260     1.1430 F     1 <1>  -0.3400 
  2 C        5.9240     1.5590    -0.0320 C.3   1 <1>   0.6800 
  3 F        5.6920     2.5520    -0.8790 F     1 <1>  -0.3400 
  4 C        7.1070     0.6810    -0.4540 C.3   1 <1>   0.1100 
  5 C        4.7380     0.6310     0.0880 C.3   1 <1>  -0.1600 
  6 N        6.6720    -0.7220    -0.2690 N.3   1 <1>  -0.9000 
  7 C        5.4080    -0.6790     0.4960 C.3   1 <1>   0.3900 
  8 C        4.5240    -1.8750     0.2760 C.1   1 <1>   0.3570 
  9 N        3.8310    -2.7690     0.1430 N.1   1 <1>  -0.5570 
 10 H        7.9700     0.8940     0.1530 H     1 <1>   0.0800 
 11 H        7.3360     0.8410    -1.4930 H     1 <1>   0.0800 
 12 H        4.2710     0.5060    -0.8730 H     1 <1>   0.0800 
 13 H        4.0210     0.9680     0.8130 H     1 <1>   0.0800 
 14 H        7.3770    -1.2690     0.2450 H     1 <1>   0.3600 
 15 H        5.6480    -0.6310     1.5460 H     1 <1>   0.0800 
@<TRIPOS>BOND
  1   1   2  1   
  2   2   3  1   
  3   2   4  1   
  4   2   5  1   
  5   4   6  1   
  6   4  10  1   
  7   4  11  1   
  8   5   7  1   
  9   5  12  1   
 10   5  13  1   
 11   6   7  1   
 12   6  14  1   
 13   7   8  1   
 14   7  15  1   
 15   8   9  3   
@<TRIPOS>SUBSTRUCTURE
  1 ****   5 GROUP 4 **** **** 0

# MOE 2024.06 (io_trps.svl 2023.06)
