@<TRIPOS>MOLECULE
NONAME
54 56 1 0 0 
SMALL
USER_CHARGES


@<TRIPOS>ATOM
  1 O        0.1230     3.0500     2.0100 O.3   1 <1>  -0.6800 
  2 C        0.9810     2.1670     1.3820 C.3   1 <1>   0.1200 
  3 C        1.0780     2.5450    -0.1000 C.3   1 <1>  -0.1600 
  4 C        1.3830     4.0450    -0.2990 C.3   1 <1>   0.4230 
  5 N        0.2330     4.7450    -0.9960 N.4   1 <1>  -0.9590 
  6 C        2.7410     4.2340    -1.0350 C.3   1 <1>   0.2090 
  7 C        0.5690     6.1830    -1.3090 C.3   1 <1>   0.3430 
  8 C       -1.0160     4.7050    -0.1680 C.3   1 <1>   0.2630 
  9 N        3.0120     5.6730    -1.3490 N.pl3 1 <1>  -0.8380 
 10 C        1.8900     6.3370    -2.0860 C.3   1 <1>   0.2090 
 11 C        4.0230     6.3850    -0.7860 C.ar  1 <1>   0.4100 
 12 N        3.7440     7.5990    -0.3580 N.ar  1 <1>  -0.6200 
 13 C        5.3140     5.8360    -0.6640 C.ar  1 <1>  -0.1500 
 14 C        4.7210     8.3010     0.2060 C.ar  1 <1>   0.7710 
 15 C        6.2960     6.5690    -0.0860 C.ar  1 <1>   0.2180 
 16 N        5.9630     7.8070     0.3460 N.ar  1 <1>  -0.1790 
 17 N        4.4620     9.5520     0.6560 N.pl3 1 <1>  -0.8380 
 18 C        7.7290     6.0810     0.0900 C.3   1 <1>  -0.0170 
 19 C        5.3780    10.4790     1.3800 C.3   1 <1>   0.2090 
 20 C        3.1290    10.1950     0.4840 C.3   1 <1>   0.2090 
 21 C        8.7310     6.9290    -0.7040 C.3   1 <1>  -0.2400 
 22 C        4.4840    11.5990     1.8930 C.3   1 <1>  -0.1600 
 23 C        3.3240    11.6430     0.9090 C.3   1 <1>  -0.1600 
 24 H       -0.0140     2.7870     2.9470 H     1 <1>   0.4000 
 25 H        0.5930     1.1680     1.4990 H     1 <1>   0.0800 
 26 H        1.9420     2.2330     1.8650 H     1 <1>   0.0800 
 27 H        0.1690     2.2560    -0.5960 H     1 <1>   0.0800 
 28 H        1.8600     1.9440    -0.5270 H     1 <1>   0.0800 
 29 H        1.4990     4.4900     0.6770 H     1 <1>   0.0800 
 30 H        0.0610     4.2510    -1.8800 H     1 <1>   0.4500 
 31 H        2.7380     3.6700    -1.9530 H     1 <1>   0.0800 
 32 H        3.5230     3.8380    -0.4110 H     1 <1>   0.0800 
 33 H        0.6620     6.7370    -0.3890 H     1 <1>   0.0800 
 34 H       -0.2280     6.6270    -1.8810 H     1 <1>   0.0800 
 35 H       -0.8470     5.1830     0.7840 H     1 <1>   0.0800 
 36 H       -1.3120     3.6860     0.0220 H     1 <1>   0.0800 
 37 H       -1.8230     5.2090    -0.6730 H     1 <1>   0.0800 
 38 H        2.0980     7.3840    -2.2320 H     1 <1>   0.0800 
 39 H        1.7910     5.8940    -3.0620 H     1 <1>   0.0800 
 40 H        5.4960     4.8510    -1.0510 H     1 <1>   0.1500 
 41 H        6.6380     8.4290     0.7720 H     1 <1>   0.4570 
 42 H        7.8030     5.0600    -0.2450 H     1 <1>   0.0800 
 43 H        7.9910     6.0930     1.1350 H     1 <1>   0.0800 
 44 H        6.1000    10.8840     0.6890 H     1 <1>   0.0800 
 45 H        5.8770     9.9910     2.2000 H     1 <1>   0.0800 
 46 H        2.4150     9.7110     1.1310 H     1 <1>   0.0800 
 47 H        2.7910    10.1320    -0.5370 H     1 <1>   0.0800 
 48 H        8.4810     6.9270    -1.7520 H     1 <1>   0.0800 
 49 H        9.7210     6.5170    -0.5980 H     1 <1>   0.0800 
 50 H        8.7560     7.9460    -0.3550 H     1 <1>   0.0800 
 51 H        5.0070    12.5380     1.9510 H     1 <1>   0.0800 
 52 H        4.1220    11.3420     2.8740 H     1 <1>   0.0800 
 53 H        2.4310    12.0560     1.3450 H     1 <1>   0.0800 
 54 H        3.5930    12.2300     0.0470 H     1 <1>   0.0800 
@<TRIPOS>BOND
  1   1   2  1   
  2   1  24  1   
  3   2   3  1   
  4   2  25  1   
  5   2  26  1   
  6   3   4  1   
  7   3  27  1   
  8   3  28  1   
  9   4   5  1   
 10   4   6  1   
 11   4  29  1   
 12   5   7  1   
 13   5   8  1   
 14   5  30  1   
 15   6   9  1   
 16   6  31  1   
 17   6  32  1   
 18   7  10  1   
 19   7  33  1   
 20   7  34  1   
 21   8  35  1   
 22   8  36  1   
 23   8  37  1   
 24   9  10  1   
 25   9  11  1   
 26  10  38  1   
 27  10  39  1   
 28  11  12  ar  
 29  11  13  ar  
 30  12  14  ar  
 31  13  15  ar  
 32  13  40  1   
 33  14  16  ar  
 34  14  17  1   
 35  15  16  ar  
 36  15  18  1   
 37  16  41  1   
 38  17  19  1   
 39  17  20  1   
 40  18  21  1   
 41  18  42  1   
 42  18  43  1   
 43  19  22  1   
 44  19  44  1   
 45  19  45  1   
 46  20  23  1   
 47  20  46  1   
 48  20  47  1   
 49  21  48  1   
 50  21  49  1   
 51  21  50  1   
 52  22  23  1   
 53  22  51  1   
 54  22  52  1   
 55  23  53  1   
 56  23  54  1   
@<TRIPOS>SUBSTRUCTURE
  1 ****  11 GROUP 4 **** **** 0

# MOE 2024.06 (io_trps.svl 2023.06)
