@<TRIPOS>MOLECULE
NONAME
50 52 1 0 0 
SMALL
USER_CHARGES


@<TRIPOS>ATOM
  1 O       -0.9590     0.4270     2.9870 O.2   1 <1>  -0.5700 
  2 C       -1.3140     1.1990     2.1270 C.2   1 <1>   0.5690 
  3 N       -2.1320     0.7910     1.1090 N.am  1 <1>  -0.6600 
  4 C       -0.8310     2.6390     2.2130 C.3   1 <1>   0.0440 
  5 C       -2.6190     1.6230    -0.0210 C.3   1 <1>   0.1400 
  6 C       -2.5300    -0.6240     0.9160 C.3   1 <1>   0.1400 
  7 C        0.1330     2.9950     1.0790 C.ar  1 <1>  -0.1440 
  8 C       -3.7120     0.7750    -0.6680 C.3   1 <1>   0.2000 
  9 C       -3.2270    -0.6620    -0.4490 C.3   1 <1>  -0.0800 
 10 C       -0.1570     3.9770     0.1330 C.ar  1 <1>   0.0830 
 11 C        1.3340     2.3070     1.0000 C.ar  1 <1>  -0.1500 
 12 O       -4.8890     0.9800     0.0380 O.3   1 <1>  -0.6800 
 13 C       -4.3110    -1.7500    -0.5650 C.3   1 <1>  -0.0170 
 14 O       -1.3460     4.6300     0.2320 O.3   1 <1>  -0.3630 
 15 C        0.7620     4.2530    -0.8750 C.ar  1 <1>  -0.1500 
 16 C        2.2450     2.5830    -0.0030 C.ar  1 <1>  -0.1500 
 17 C       -3.7060    -3.1370    -0.4140 C.ar  1 <1>  -0.1430 
 18 C       -1.6530     5.7360    -0.5900 C.3   1 <1>   0.0400 
 19 C        1.9590     3.5630    -0.9480 C.ar  1 <1>   0.0830 
 20 C       -3.1060    -3.7860    -1.4740 C.ar  1 <1>  -0.1500 
 21 C       -3.7210    -3.8170     0.7870 C.ar  1 <1>  -0.1500 
 22 O        2.7940     3.8970    -1.9650 O.3   1 <1>  -0.3630 
 23 C       -2.5630    -5.0460    -1.2860 C.ar  1 <1>   0.1600 
 24 C       -3.1490    -5.0750     0.8690 C.ar  1 <1>   0.1600 
 25 C        4.0550     3.2820    -2.1080 C.3   1 <1>   0.0400 
 26 N       -2.5680    -5.7060    -0.1390 N.ar  1 <1>  -0.6200 
 27 H       -1.6870     3.2850     2.2320 H     1 <1>   0.0800 
 28 H       -0.3200     2.7720     3.1480 H     1 <1>   0.0800 
 29 H       -2.9970     2.5750     0.3080 H     1 <1>   0.0800 
 30 H       -1.8120     1.7760    -0.7170 H     1 <1>   0.0800 
 31 H       -1.6680    -1.2700     0.9380 H     1 <1>   0.0800 
 32 H       -3.2050    -0.9060     1.7060 H     1 <1>   0.0800 
 33 H       -3.8840     1.0200    -1.7020 H     1 <1>   0.0800 
 34 H       -2.4690    -0.8630    -1.1860 H     1 <1>   0.0800 
 35 H        1.5640     1.5450     1.7260 H     1 <1>   0.1500 
 36 H       -4.6860     0.9280     0.9940 H     1 <1>   0.4000 
 37 H       -4.7920    -1.6730    -1.5250 H     1 <1>   0.0800 
 38 H       -5.0690    -1.6060     0.1850 H     1 <1>   0.0800 
 39 H        0.5770     4.9990    -1.6220 H     1 <1>   0.1500 
 40 H        3.1630     2.0290    -0.0310 H     1 <1>   0.1500 
 41 H       -2.6090     6.1230    -0.2880 H     1 <1>   0.0800 
 42 H       -1.6970     5.4090    -1.6140 H     1 <1>   0.0800 
 43 H       -0.8960     6.4890    -0.4580 H     1 <1>   0.0800 
 44 H       -3.0550    -3.3250    -2.4430 H     1 <1>   0.1500 
 45 H       -4.1720    -3.3820     1.6610 H     1 <1>   0.1500 
 46 H       -2.0980    -5.5380    -2.1240 H     1 <1>   0.1500 
 47 H       -3.1690    -5.5900     1.8140 H     1 <1>   0.1500 
 48 H        4.5400     3.7120    -2.9660 H     1 <1>   0.0800 
 49 H        3.9140     2.2260    -2.2590 H     1 <1>   0.0800 
 50 H        4.6380     3.4720    -1.2250 H     1 <1>   0.0800 
@<TRIPOS>BOND
  1   1   2  2   
  2   2   3  am  
  3   2   4  1   
  4   3   5  1   
  5   3   6  1   
  6   4   7  1   
  7   4  27  1   
  8   4  28  1   
  9   5   8  1   
 10   5  29  1   
 11   5  30  1   
 12   6   9  1   
 13   6  31  1   
 14   6  32  1   
 15   7  10  ar  
 16   7  11  ar  
 17   8   9  1   
 18   8  12  1   
 19   8  33  1   
 20   9  13  1   
 21   9  34  1   
 22  10  14  1   
 23  10  15  ar  
 24  11  16  ar  
 25  11  35  1   
 26  12  36  1   
 27  13  17  1   
 28  13  37  1   
 29  13  38  1   
 30  14  18  1   
 31  15  19  ar  
 32  15  39  1   
 33  16  19  ar  
 34  16  40  1   
 35  17  20  ar  
 36  17  21  ar  
 37  18  41  1   
 38  18  42  1   
 39  18  43  1   
 40  19  22  1   
 41  20  23  ar  
 42  20  44  1   
 43  21  24  ar  
 44  21  45  1   
 45  22  25  1   
 46  23  26  ar  
 47  23  46  1   
 48  24  26  ar  
 49  24  47  1   
 50  25  48  1   
 51  25  49  1   
 52  25  50  1   
@<TRIPOS>SUBSTRUCTURE
  1 ****   3 GROUP 4 **** **** 0

# MOE 2024.06 (io_trps.svl 2023.06)
