@<TRIPOS>MOLECULE
NONAME
47 47 1 0 0 
SMALL
USER_CHARGES


@<TRIPOS>ATOM
  1 N       -1.8420    -1.0020    -1.9280 N.ar  1 <1>  -0.6200 
  2 C       -2.0660    -0.1830    -0.9150 C.ar  1 <1>   0.4100 
  3 C       -1.9930    -2.2830    -1.6710 C.ar  1 <1>   0.4700 
  4 N       -1.9120     1.1740    -1.1290 N.pl3 1 <1>  -0.8380 
  5 C       -2.4410    -0.6740     0.3130 C.ar  1 <1>  -0.1500 
  6 N       -2.3600    -2.8600    -0.5410 N.ar  1 <1>  -0.6200 
  7 C       -1.0070     1.9460    -0.2440 C.3   1 <1>   0.2090 
  8 C       -2.0430     1.7190    -2.5110 C.3   1 <1>   0.1290 
  9 C       -2.5740    -2.0310     0.4630 C.ar  1 <1>   0.4100 
 10 C       -1.8150     3.0160     0.4810 C.3   1 <1>  -0.2400 
 11 N       -2.9660    -2.5710     1.6670 N.pl3 1 <1>  -0.8690 
 12 C       -2.4730    -3.8850     2.1410 C.3   1 <1>   0.2090 
 13 C       -3.6050    -4.9160     2.1290 C.3   1 <1>  -0.1600 
 14 C       -3.9770    -5.3520     0.6950 C.3   1 <1>   0.4230 
 15 N       -5.3930    -4.9820     0.3570 N.4   1 <1>  -0.9590 
 16 C       -3.7720    -6.8650     0.5510 C.3   1 <1>  -0.2400 
 17 C       -5.8260    -5.4750    -0.9830 C.3   1 <1>   0.3430 
 18 C       -5.5620    -3.4910     0.4100 C.3   1 <1>   0.2630 
 19 C       -7.3430    -5.3790    -1.1150 C.3   1 <1>  -0.2400 
 20 H       -1.7940    -2.9450    -2.4980 H     1 <1>   0.1500 
 21 H       -2.6290    -0.0010     1.1220 H     1 <1>   0.1500 
 22 H       -0.2270     2.4030    -0.8300 H     1 <1>   0.0800 
 23 H       -0.5410     1.2900     0.4720 H     1 <1>   0.0800 
 24 H       -2.8190     1.1940    -3.0420 H     1 <1>   0.0800 
 25 H       -1.1150     1.5950    -3.0410 H     1 <1>   0.0800 
 26 H       -2.2980     2.7630    -2.4760 H     1 <1>   0.0800 
 27 H       -2.2490     3.6990    -0.2260 H     1 <1>   0.0800 
 28 H       -1.1730     3.5700     1.1410 H     1 <1>   0.0800 
 29 H       -2.5970     2.5620     1.0610 H     1 <1>   0.0800 
 30 H       -3.0100    -1.8830     2.4260 H     1 <1>   0.4000 
 31 H       -2.1050    -3.7700     3.1470 H     1 <1>   0.0800 
 32 H       -1.6490    -4.2220     1.5310 H     1 <1>   0.0800 
 33 H       -4.4490    -4.5400     2.6760 H     1 <1>   0.0800 
 34 H       -3.2440    -5.7650     2.6820 H     1 <1>   0.0800 
 35 H       -3.3130    -4.8620     0.0040 H     1 <1>   0.0800 
 36 H       -5.9970    -5.4110     1.0660 H     1 <1>   0.4500 
 37 H       -4.4970    -7.4130     1.1280 H     1 <1>   0.0800 
 38 H       -2.7910    -7.1320     0.9040 H     1 <1>   0.0800 
 39 H       -3.8110    -7.1730    -0.4770 H     1 <1>   0.0800 
 40 H       -5.5520    -6.5090    -1.1060 H     1 <1>   0.0800 
 41 H       -5.3440    -4.9050    -1.7620 H     1 <1>   0.0800 
 42 H       -4.9120    -3.0170    -0.3080 H     1 <1>   0.0800 
 43 H       -5.3130    -3.1140     1.3870 H     1 <1>   0.0800 
 44 H       -6.5790    -3.2120     0.1940 H     1 <1>   0.0800 
 45 H       -7.8310    -5.9090    -0.3170 H     1 <1>   0.0800 
 46 H       -7.6410    -5.8320    -2.0440 H     1 <1>   0.0800 
 47 H       -7.6770    -4.3580    -1.1340 H     1 <1>   0.0800 
@<TRIPOS>BOND
  1   1   2  ar  
  2   1   3  ar  
  3   2   4  1   
  4   2   5  ar  
  5   3   6  ar  
  6   3  20  1   
  7   4   7  1   
  8   4   8  1   
  9   5   9  ar  
 10   5  21  1   
 11   6   9  ar  
 12   7  10  1   
 13   7  22  1   
 14   7  23  1   
 15   8  24  1   
 16   8  25  1   
 17   8  26  1   
 18   9  11  1   
 19  10  27  1   
 20  10  28  1   
 21  10  29  1   
 22  11  12  1   
 23  11  30  1   
 24  12  13  1   
 25  12  31  1   
 26  12  32  1   
 27  13  14  1   
 28  13  33  1   
 29  13  34  1   
 30  14  15  1   
 31  14  16  1   
 32  14  35  1   
 33  15  17  1   
 34  15  18  1   
 35  15  36  1   
 36  16  37  1   
 37  16  38  1   
 38  16  39  1   
 39  17  19  1   
 40  17  40  1   
 41  17  41  1   
 42  18  42  1   
 43  18  43  1   
 44  18  44  1   
 45  19  45  1   
 46  19  46  1   
 47  19  47  1   
@<TRIPOS>SUBSTRUCTURE
  1 ****   9 GROUP 4 **** **** 0

# MOE 2024.06 (io_trps.svl 2023.06)
