@<TRIPOS>MOLECULE
NONAME
51 53 1 0 0 
SMALL
USER_CHARGES


@<TRIPOS>ATOM
  1 O       -0.8280     0.4680    -1.7070 O.co2 1 <1>  -0.9000 
  2 C       -1.2660     0.8050    -0.6010 C.2   1 <1>   0.9060 
  3 O       -1.9850     0.0420     0.0640 O.co2 1 <1>  -0.9000 
  4 C       -0.9190     2.1770    -0.0140 C.3   1 <1>  -0.1060 
  5 C       -2.2320     2.8080     0.4900 C.3   1 <1>   0.2000 
  6 C       -0.4170     3.0920    -1.1580 C.3   1 <1>   0.1100 
  7 C        0.1110     1.9520     1.1410 C.3   1 <1>  -0.0170 
  8 O       -2.7090     2.0910     1.5720 O.3   1 <1>  -0.6800 
  9 C       -2.1220     4.2910     0.8790 C.3   1 <1>  -0.1600 
 10 N       -0.3760     4.5540    -0.8660 N.3   1 <1>  -0.8100 
 11 C        1.5870     2.0050     0.7490 C.ar  1 <1>  -0.1440 
 12 C       -0.7870     4.9370     0.4930 C.3   1 <1>   0.1100 
 13 C        0.9580     5.0970    -1.2200 C.3   1 <1>   0.2900 
 14 C        2.4210     2.9730     1.2880 C.ar  1 <1>  -0.1500 
 15 C        2.1130     1.0830    -0.1440 C.ar  1 <1>  -0.1500 
 16 C        1.0870     6.6090    -1.0530 C.2   1 <1>   0.2980 
 17 C        3.7570     3.0290     0.9300 C.ar  1 <1>  -0.1500 
 18 C        3.4480     1.1370    -0.5030 C.ar  1 <1>  -0.1500 
 19 O        0.3490     7.3910    -1.8020 O.3   1 <1>  -0.0190 
 20 N        1.8670     7.2090    -0.2410 N.2   1 <1>  -0.5650 
 21 C        4.2720     2.1110     0.0320 C.ar  1 <1>  -0.1500 
 22 N        0.6880     8.5900    -1.4340 N.2   1 <1>  -0.4100 
 23 C        1.5710     8.4680    -0.5230 C.2   1 <1>   0.3350 
 24 C        2.2630     9.6000     0.2120 C.3   1 <1>   0.0210 
 25 C        1.8030    10.9740    -0.2720 C.3   1 <1>   0.1200 
 26 O        2.4870    11.9460     0.4530 O.3   1 <1>  -0.5600 
 27 C        2.1540    13.2490     0.1000 C.3   1 <1>   0.0400 
 28 H       -2.9680     2.7170    -0.2920 H     1 <1>   0.0800 
 29 H       -1.0880     2.9650    -1.9920 H     1 <1>   0.0800 
 30 H        0.5380     2.7370    -1.5030 H     1 <1>   0.0800 
 31 H       -0.0630     2.6610     1.9280 H     1 <1>   0.0800 
 32 H       -0.0760     0.9920     1.5910 H     1 <1>   0.0800 
 33 H       -2.6490     1.1330     1.2870 H     1 <1>   0.4000 
 34 H       -2.9070     4.8270     0.3800 H     1 <1>   0.0800 
 35 H       -2.2660     4.4120     1.9380 H     1 <1>   0.0800 
 36 H       -0.0220     4.6600     1.1930 H     1 <1>   0.0800 
 37 H       -0.9000     6.0070     0.5470 H     1 <1>   0.0800 
 38 H        1.7070     4.6230    -0.6140 H     1 <1>   0.0800 
 39 H        1.1680     4.8580    -2.2470 H     1 <1>   0.0800 
 40 H        2.0330     3.6900     1.9880 H     1 <1>   0.1500 
 41 H        1.4780     0.3220    -0.5680 H     1 <1>   0.1500 
 42 H        4.3940     3.7880     1.3500 H     1 <1>   0.1500 
 43 H        3.8370     0.4170    -1.2010 H     1 <1>   0.1500 
 44 H        5.3090     2.1520    -0.2490 H     1 <1>   0.1500 
 45 H        3.3220     9.5070     0.0610 H     1 <1>   0.0800 
 46 H        2.0520     9.5040     1.2610 H     1 <1>   0.0800 
 47 H        0.7460    11.0960    -0.1070 H     1 <1>   0.0800 
 48 H        2.0270    11.0980    -1.3180 H     1 <1>   0.0800 
 49 H        2.7310    13.9190     0.7130 H     1 <1>   0.0800 
 50 H        1.1040    13.4080     0.2770 H     1 <1>   0.0800 
 51 H        2.3940    13.4090    -0.9370 H     1 <1>   0.0800 
@<TRIPOS>BOND
  1   1   2  ar  
  2   2   3  ar  
  3   2   4  1   
  4   4   5  1   
  5   4   6  1   
  6   4   7  1   
  7   5   8  1   
  8   5   9  1   
  9   5  28  1   
 10   6  10  1   
 11   6  29  1   
 12   6  30  1   
 13   7  11  1   
 14   7  31  1   
 15   7  32  1   
 16   8  33  1   
 17   9  12  1   
 18   9  34  1   
 19   9  35  1   
 20  10  12  1   
 21  10  13  1   
 22  11  14  ar  
 23  11  15  ar  
 24  12  36  1   
 25  12  37  1   
 26  13  16  1   
 27  13  38  1   
 28  13  39  1   
 29  14  17  ar  
 30  14  40  1   
 31  15  18  ar  
 32  15  41  1   
 33  16  19  1   
 34  16  20  2   
 35  17  21  ar  
 36  17  42  1   
 37  18  21  ar  
 38  18  43  1   
 39  19  22  1   
 40  20  23  1   
 41  21  44  1   
 42  22  23  2   
 43  23  24  1   
 44  24  25  1   
 45  24  45  1   
 46  24  46  1   
 47  25  26  1   
 48  25  47  1   
 49  25  48  1   
 50  26  27  1   
 51  27  49  1   
 52  27  50  1   
 53  27  51  1   
@<TRIPOS>SUBSTRUCTURE
  1 ****  13 GROUP 4 **** **** 0

# MOE 2024.06 (io_trps.svl 2023.06)
