@<TRIPOS>MOLECULE
NONAME
50 52 1 0 0 
SMALL
USER_CHARGES


@<TRIPOS>ATOM
  1 F       -0.2360    -0.7430     1.0310 F     1 <1>  -0.3400 
  2 C       -0.8400    -1.4490     1.9780 C.3   1 <1>   0.8800 
  3 F        0.1280    -1.9950     2.6990 F     1 <1>  -0.3400 
  4 O       -1.5640    -2.4950     1.3680 O.3   1 <1>  -0.3630 
  5 C       -2.6970    -2.2530     0.6650 C.ar  1 <1>   0.0830 
  6 C       -3.2390    -3.3340    -0.0090 C.ar  1 <1>  -0.1500 
  7 C       -3.3230    -1.0120     0.5890 C.ar  1 <1>  -0.1500 
  8 C       -4.4020    -3.1970    -0.7530 C.ar  1 <1>  -0.1440 
  9 C       -4.4790    -0.8710    -0.1570 C.ar  1 <1>  -0.1500 
 10 C       -5.0180    -1.9560    -0.8260 C.ar  1 <1>  -0.1500 
 11 C       -4.9880    -4.3920    -1.4810 C.3   1 <1>   0.4870 
 12 N       -5.5460    -5.3380    -0.4790 N.4   1 <1>  -0.9590 
 13 C       -5.8090    -6.6670    -1.1410 C.3   1 <1>   0.3430 
 14 C       -6.7310    -4.7330     0.2140 C.3   1 <1>   0.3430 
 15 C       -6.4460    -7.7220    -0.2220 C.3   1 <1>   0.1400 
 16 C       -7.0230    -5.4470     1.5380 C.3   1 <1>  -0.1600 
 17 N       -7.8400    -7.3270     0.1220 N.am  1 <1>  -0.6600 
 18 C       -8.0300    -6.5960     1.4010 C.3   1 <1>   0.1400 
 19 C       -8.8530    -7.6030    -0.7720 C.2   1 <1>   0.5690 
 20 O       -8.5620    -7.8040    -1.9320 O.2   1 <1>  -0.5700 
 21 C      -10.3530    -7.6190    -0.3820 C.3   1 <1>   0.2610 
 22 O      -10.5850    -7.9700     0.9620 O.3   1 <1>  -0.5600 
 23 C      -11.2000    -8.6010    -1.1880 C.3   1 <1>  -0.1600 
 24 C      -11.7560    -8.7150     1.1180 C.3   1 <1>   0.1200 
 25 C      -12.3730    -8.8620    -0.2660 C.3   1 <1>  -0.1600 
 26 H       -1.4450    -0.8110     2.5970 H     1 <1>   0.0800 
 27 H       -2.7250    -4.2770     0.0560 H     1 <1>   0.1500 
 28 H       -2.9320    -0.1450     1.0870 H     1 <1>   0.1500 
 29 H       -4.9590     0.0920    -0.2200 H     1 <1>   0.1500 
 30 H       -5.9160    -1.8150    -1.4050 H     1 <1>   0.1500 
 31 H       -4.2070    -4.8710    -2.0500 H     1 <1>   0.0800 
 32 H       -5.7590    -4.0720    -2.1640 H     1 <1>   0.0800 
 33 H       -4.8190    -5.4600     0.2350 H     1 <1>   0.4500 
 34 H       -6.4660    -6.5310    -1.9860 H     1 <1>   0.0800 
 35 H       -4.8810    -7.0650    -1.5150 H     1 <1>   0.0800 
 36 H       -6.5190    -3.7000     0.4380 H     1 <1>   0.0800 
 37 H       -7.5990    -4.7660    -0.4250 H     1 <1>   0.0800 
 38 H       -5.8580    -7.8680     0.6670 H     1 <1>   0.0800 
 39 H       -6.4750    -8.6620    -0.7480 H     1 <1>   0.0800 
 40 H       -6.1140    -5.7950     1.9950 H     1 <1>   0.0800 
 41 H       -7.4520    -4.7330     2.2190 H     1 <1>   0.0800 
 42 H       -9.0210    -6.1770     1.4330 H     1 <1>   0.0800 
 43 H       -7.9390    -7.2820     2.2270 H     1 <1>   0.0800 
 44 H      -10.7490    -6.6290    -0.5140 H     1 <1>   0.0800 
 45 H      -11.4950    -8.1940    -2.1390 H     1 <1>   0.0800 
 46 H      -10.6440    -9.5090    -1.3500 H     1 <1>   0.0800 
 47 H      -11.4800    -9.6750     1.5210 H     1 <1>   0.0800 
 48 H      -12.4110    -8.2050     1.8030 H     1 <1>   0.0800 
 49 H      -12.8070    -9.8350    -0.4130 H     1 <1>   0.0800 
 50 H      -13.1320    -8.1110    -0.4000 H     1 <1>   0.0800 
@<TRIPOS>BOND
  1   1   2  1   
  2   2   3  1   
  3   2   4  1   
  4   2  26  1   
  5   4   5  1   
  6   5   6  ar  
  7   5   7  ar  
  8   6   8  ar  
  9   6  27  1   
 10   7   9  ar  
 11   7  28  1   
 12   8  10  ar  
 13   8  11  1   
 14   9  10  ar  
 15   9  29  1   
 16  10  30  1   
 17  11  12  1   
 18  11  31  1   
 19  11  32  1   
 20  12  13  1   
 21  12  14  1   
 22  12  33  1   
 23  13  15  1   
 24  13  34  1   
 25  13  35  1   
 26  14  16  1   
 27  14  36  1   
 28  14  37  1   
 29  15  17  1   
 30  15  38  1   
 31  15  39  1   
 32  16  18  1   
 33  16  40  1   
 34  16  41  1   
 35  17  18  1   
 36  17  19  am  
 37  18  42  1   
 38  18  43  1   
 39  19  20  2   
 40  19  21  1   
 41  21  22  1   
 42  21  23  1   
 43  21  44  1   
 44  22  24  1   
 45  23  25  1   
 46  23  45  1   
 47  23  46  1   
 48  24  25  1   
 49  24  47  1   
 50  24  48  1   
 51  25  49  1   
 52  25  50  1   
@<TRIPOS>SUBSTRUCTURE
  1 ****  14 GROUP 4 **** **** 0

# MOE 2024.06 (io_trps.svl 2023.06)
