@<TRIPOS>MOLECULE
NONAME
44 46 1 0 0 
SMALL
USER_CHARGES


@<TRIPOS>ATOM
  1 O       -2.6610     0.4130     1.5580 O.2   1 <1>  -0.5700 
  2 C       -1.8360     1.0410     0.9230 C.2   1 <1>   0.6900 
  3 N       -2.1490     1.8980    -0.0930 N.am  1 <1>  -0.4200 
  4 N       -0.4900     0.9570     1.1020 N.am  1 <1>  -0.6600 
  5 C       -1.0090     2.4050    -0.6340 C.2   1 <1>   0.5690 
  6 C       -3.5280     2.1760    -0.5820 C.3   1 <1>   0.2010 
  7 C        0.1880     1.8240     0.1010 C.3   1 <1>   0.2010 
  8 C        0.2450     0.0560     2.0210 C.3   1 <1>   0.0600 
  9 O       -0.9400     3.1920    -1.5450 O.2   1 <1>  -0.5700 
 10 C       -4.1400     0.9980    -1.3380 C.2   1 <1>   0.5690 
 11 O       -4.6000     1.1790    -2.4390 O.2   1 <1>  -0.5700 
 12 N       -4.1610    -0.2280    -0.7560 N.am  1 <1>  -0.7300 
 13 C       -4.6230    -1.4800    -1.3910 C.3   1 <1>   0.2200 
 14 C       -5.4630    -2.2630    -0.3970 C.3   1 <1>  -0.0800 
 15 C       -3.4320    -2.4130    -1.6230 C.3   1 <1>   0.1200 
 16 C       -4.3810    -3.0030     0.3910 C.3   1 <1>   0.1200 
 17 C       -6.4240    -3.2300    -1.1160 C.3   1 <1>  -0.0160 
 18 O       -3.3550    -3.2670    -0.5160 O.3   1 <1>  -0.5600 
 19 C       -7.2720    -4.0200    -0.1310 C.ar  1 <1>  -0.1440 
 20 C       -8.3570    -3.4570     0.5090 C.ar  1 <1>  -0.1500 
 21 C       -7.0030    -5.3390     0.1710 C.ar  1 <1>  -0.1500 
 22 C       -9.0990    -4.2200     1.3960 C.ar  1 <1>   0.1600 
 23 C       -7.8080    -6.0130     1.0740 C.ar  1 <1>   0.1600 
 24 N       -8.8510    -5.4850     1.6940 N.ar  1 <1>  -0.6200 
 25 H       -4.1570     2.4100     0.2570 H     1 <1>   0.0800 
 26 H       -3.5080     3.0300    -1.2360 H     1 <1>   0.0800 
 27 H        0.7570     2.5990     0.5820 H     1 <1>   0.0800 
 28 H        0.8000     1.2430    -0.5650 H     1 <1>   0.0800 
 29 H        0.8810     0.6340     2.6690 H     1 <1>   0.0800 
 30 H        0.8450    -0.6350     1.4550 H     1 <1>   0.0800 
 31 H       -0.4520    -0.5010     2.6240 H     1 <1>   0.0800 
 32 H       -3.7200    -0.3420     0.1700 H     1 <1>   0.3700 
 33 H       -5.1440    -1.2610    -2.3080 H     1 <1>   0.0800 
 34 H       -6.0320    -1.6100     0.2410 H     1 <1>   0.0800 
 35 H       -2.5060    -1.8750    -1.7240 H     1 <1>   0.0800 
 36 H       -3.5940    -3.0250    -2.4920 H     1 <1>   0.0800 
 37 H       -4.7200    -3.9260     0.8250 H     1 <1>   0.0800 
 38 H       -3.9760    -2.3720     1.1640 H     1 <1>   0.0800 
 39 H       -5.8690    -3.9110    -1.7380 H     1 <1>   0.0800 
 40 H       -7.0790    -2.6670    -1.7590 H     1 <1>   0.0800 
 41 H       -8.6330    -2.4350     0.3270 H     1 <1>   0.1500 
 42 H       -6.1740    -5.8490    -0.2860 H     1 <1>   0.1500 
 43 H       -9.9420    -3.7640     1.8870 H     1 <1>   0.1500 
 44 H       -7.5820    -7.0420     1.2970 H     1 <1>   0.1500 
@<TRIPOS>BOND
  1   1   2  2   
  2   2   3  am  
  3   2   4  am  
  4   3   5  am  
  5   3   6  1   
  6   4   7  1   
  7   4   8  1   
  8   5   7  1   
  9   5   9  2   
 10   6  10  1   
 11   6  25  1   
 12   6  26  1   
 13   7  27  1   
 14   7  28  1   
 15   8  29  1   
 16   8  30  1   
 17   8  31  1   
 18  10  11  2   
 19  10  12  am  
 20  12  13  1   
 21  12  32  1   
 22  13  14  1   
 23  13  15  1   
 24  13  33  1   
 25  14  16  1   
 26  14  17  1   
 27  14  34  1   
 28  15  18  1   
 29  15  35  1   
 30  15  36  1   
 31  16  18  1   
 32  16  37  1   
 33  16  38  1   
 34  17  19  1   
 35  17  39  1   
 36  17  40  1   
 37  19  20  ar  
 38  19  21  ar  
 39  20  22  ar  
 40  20  41  1   
 41  21  23  ar  
 42  21  42  1   
 43  22  24  ar  
 44  22  43  1   
 45  23  24  ar  
 46  23  44  1   
@<TRIPOS>SUBSTRUCTURE
  1 ****  12 GROUP 4 **** **** 0

# MOE 2024.06 (io_trps.svl 2023.06)
