@<TRIPOS>MOLECULE
NONAME
50 53 1 0 0 
SMALL
USER_CHARGES


@<TRIPOS>ATOM
  1 S        2.3610    -1.2000     1.1090 S.3   1 <1>  -0.0800 
  2 C        1.0420    -0.6240     0.1190 C.2   1 <1>   0.1980 
  3 C        1.9560    -2.8220     0.6540 C.2   1 <1>  -0.1100 
  4 N        0.3940    -1.5450    -0.4680 N.2   1 <1>  -0.5650 
  5 C        0.8080     0.8730     0.0540 C.3   1 <1>   0.0200 
  6 C        0.8930    -2.8280    -0.1830 C.2   1 <1>   0.1410 
  7 C        0.1890     1.4060     1.3540 C.3   1 <1>  -0.1600 
  8 C        0.2810    -4.0240    -0.7550 C.2   1 <1>   0.7160 
  9 C       -0.0750     2.9140     1.2760 C.3   1 <1>  -0.2400 
 10 O       -0.4050    -3.9980    -1.7610 O.2   1 <1>  -0.5700 
 11 N        0.4590    -5.2360    -0.1460 N.am  1 <1>  -0.7300 
 12 C       -0.1940    -6.4880    -0.5840 C.3   1 <1>   0.2200 
 13 C       -1.5850    -6.5600     0.0270 C.3   1 <1>  -0.0800 
 14 C        0.4910    -7.6860     0.0580 C.3   1 <1>   0.1200 
 15 C       -1.3440    -7.2700     1.3670 C.3   1 <1>   0.1200 
 16 C       -2.5590    -7.3290    -0.8860 C.3   1 <1>  -0.0170 
 17 O       -0.0350    -7.7600     1.3460 O.3   1 <1>  -0.5600 
 18 C       -3.9840    -7.2800    -0.3450 C.ar  1 <1>  -0.1440 
 19 C       -4.7850    -6.1170    -0.4400 C.ar  1 <1>   0.0000 
 20 C       -4.5310    -8.3770     0.2550 C.ar  1 <1>  -0.1500 
 21 C       -6.0880    -6.1710     0.1130 C.ar  1 <1>   0.3100 
 22 C       -4.3750    -4.9070    -1.0490 C.ar  1 <1>  -0.1500 
 23 C       -5.8350    -8.3260     0.7620 C.ar  1 <1>   0.1600 
 24 N       -6.5960    -7.2790     0.7090 N.ar  1 <1>  -0.6200 
 25 C       -6.9030    -5.0290     0.0470 C.ar  1 <1>  -0.1500 
 26 C       -5.1940    -3.8130    -1.0970 C.ar  1 <1>  -0.1500 
 27 C       -6.4740    -3.8710    -0.5420 C.ar  1 <1>  -0.1500 
 28 H        2.5580    -3.6160     1.0550 H     1 <1>   0.1500 
 29 H        1.7430     1.3660    -0.1420 H     1 <1>   0.0800 
 30 H        0.1450     1.0760    -0.7690 H     1 <1>   0.0800 
 31 H       -0.7390     0.8910     1.5390 H     1 <1>   0.0800 
 32 H        0.8500     1.2040     2.1790 H     1 <1>   0.0800 
 33 H       -0.7570     3.1370     0.4740 H     1 <1>   0.0800 
 34 H        0.8430     3.4510     1.1120 H     1 <1>   0.0800 
 35 H       -0.5110     3.2580     2.1980 H     1 <1>   0.0800 
 36 H        0.8230    -5.2700     0.8070 H     1 <1>   0.3700 
 37 H       -0.1950    -6.5470    -1.6600 H     1 <1>   0.0800 
 38 H       -1.9790    -5.5750     0.2010 H     1 <1>   0.0800 
 39 H        1.5600    -7.5810     0.1060 H     1 <1>   0.0800 
 40 H        0.2340    -8.5950    -0.4560 H     1 <1>   0.0800 
 41 H       -2.0160    -8.0960     1.5230 H     1 <1>   0.0800 
 42 H       -1.4260    -6.5820     2.1900 H     1 <1>   0.0800 
 43 H       -2.2390    -8.3520    -0.9790 H     1 <1>   0.0800 
 44 H       -2.5470    -6.9060    -1.8750 H     1 <1>   0.0800 
 45 H       -3.9860    -9.2970     0.3560 H     1 <1>   0.1500 
 46 H       -3.3960    -4.8340    -1.4890 H     1 <1>   0.1500 
 47 H       -6.2290    -9.2130     1.2280 H     1 <1>   0.1500 
 48 H       -7.8840    -5.0980     0.4780 H     1 <1>   0.1500 
 49 H       -4.8630    -2.8990    -1.5620 H     1 <1>   0.1500 
 50 H       -7.1090    -3.0020    -0.5860 H     1 <1>   0.1500 
@<TRIPOS>BOND
  1   1   2  1   
  2   1   3  1   
  3   2   4  2   
  4   2   5  1   
  5   3   6  2   
  6   3  28  1   
  7   4   6  1   
  8   5   7  1   
  9   5  29  1   
 10   5  30  1   
 11   6   8  1   
 12   7   9  1   
 13   7  31  1   
 14   7  32  1   
 15   8  10  2   
 16   8  11  am  
 17   9  33  1   
 18   9  34  1   
 19   9  35  1   
 20  11  12  1   
 21  11  36  1   
 22  12  13  1   
 23  12  14  1   
 24  12  37  1   
 25  13  15  1   
 26  13  16  1   
 27  13  38  1   
 28  14  17  1   
 29  14  39  1   
 30  14  40  1   
 31  15  17  1   
 32  15  41  1   
 33  15  42  1   
 34  16  18  1   
 35  16  43  1   
 36  16  44  1   
 37  18  19  ar  
 38  18  20  ar  
 39  19  21  ar  
 40  19  22  ar  
 41  20  23  ar  
 42  20  45  1   
 43  21  24  ar  
 44  21  25  ar  
 45  22  26  ar  
 46  22  46  1   
 47  23  24  ar  
 48  23  47  1   
 49  25  27  ar  
 50  25  48  1   
 51  26  27  ar  
 52  26  49  1   
 53  27  50  1   
@<TRIPOS>SUBSTRUCTURE
  1 ****  13 GROUP 4 **** **** 0

# MOE 2024.06 (io_trps.svl 2023.06)
