@<TRIPOS>MOLECULE
NONAME
49 52 1 0 0 
SMALL
USER_CHARGES


@<TRIPOS>ATOM
  1 S        0.4990    -0.5770    -1.1560 S.3   1 <1>  -0.0800 
  2 C       -0.1770    -2.2010    -1.1730 C.ar  1 <1>   0.2970 
  3 C       -0.8540     0.0350    -0.2070 C.2   1 <1>  -0.1400 
  4 N        0.4380    -3.2080    -1.7550 N.ar  1 <1>  -0.5670 
  5 C       -1.3810    -2.2380    -0.5100 C.ar  1 <1>   0.0000 
  6 C       -1.7390    -0.9490     0.0550 C.2   1 <1>  -0.1810 
  7 C       -0.7780     1.5100     0.1420 C.3   1 <1>  -0.0600 
  8 C       -0.2300    -4.3360    -1.6410 C.ar  1 <1>   0.4700 
  9 C       -1.9880    -3.5020    -0.5090 C.ar  1 <1>   0.4100 
 10 C       -3.0030    -0.7710     0.8850 C.3   1 <1>  -0.0590 
 11 N       -1.3960    -4.5570    -1.0500 N.ar  1 <1>  -0.6200 
 12 N       -3.2340    -3.7340     0.0270 N.pl3 1 <1>  -0.8380 
 13 C       -3.4510    -4.9190     0.9070 C.3   1 <1>   0.2090 
 14 C       -4.4330    -3.3380    -0.7650 C.3   1 <1>   0.2090 
 15 C       -3.9230    -6.1240     0.0550 C.3   1 <1>   0.4230 
 16 C       -4.9540    -4.5380    -1.5720 C.3   1 <1>  -0.1600 
 17 N       -4.0940    -7.4190     0.8040 N.4   1 <1>  -0.9590 
 18 C       -5.2390    -5.7810    -0.6820 C.3   1 <1>  -0.1060 
 19 C       -4.4320    -8.5830    -0.0680 C.3   1 <1>   0.3430 
 20 C       -3.0400    -7.7310     1.8040 C.3   1 <1>   0.2630 
 21 C       -6.3080    -5.4730     0.3810 C.2   1 <1>   0.9060 
 22 C       -5.7150    -6.9680    -1.5700 C.3   1 <1>  -0.1600 
 23 C       -4.7630    -8.1730    -1.5100 C.3   1 <1>  -0.1600 
 24 O       -6.3350    -6.1750     1.4060 O.co2 1 <1>  -0.9000 
 25 O       -7.1060    -4.5540     0.2080 O.co2 1 <1>  -0.9000 
 26 H       -1.6450     1.8270     0.6880 H     1 <1>   0.0800 
 27 H       -0.7100     2.0920    -0.7600 H     1 <1>   0.0800 
 28 H        0.0950     1.6970     0.7400 H     1 <1>   0.0800 
 29 H        0.2360    -5.1970    -2.0910 H     1 <1>   0.1500 
 30 H       -3.0680    -1.5460     1.6280 H     1 <1>   0.0800 
 31 H       -3.8700    -0.8190     0.2540 H     1 <1>   0.0800 
 32 H       -3.0080     0.1740     1.3920 H     1 <1>   0.0800 
 33 H       -2.5210    -5.1520     1.3910 H     1 <1>   0.0800 
 34 H       -4.1790    -4.6710     1.6600 H     1 <1>   0.0800 
 35 H       -5.1970    -2.9750    -0.0980 H     1 <1>   0.0800 
 36 H       -4.1770    -2.5390    -1.4400 H     1 <1>   0.0800 
 37 H       -3.1610    -6.2750    -0.6890 H     1 <1>   0.0800 
 38 H       -5.8600    -4.2390    -2.0710 H     1 <1>   0.0800 
 39 H       -4.2290    -4.7800    -2.3290 H     1 <1>   0.0800 
 40 H       -4.9880    -7.2010     1.3230 H     1 <1>   0.4500 
 41 H       -3.6100    -9.2790    -0.0850 H     1 <1>   0.0800 
 42 H       -5.2860    -9.0870     0.3550 H     1 <1>   0.0800 
 43 H       -2.0870    -7.8470     1.3150 H     1 <1>   0.0800 
 44 H       -3.2840    -8.6430     2.3240 H     1 <1>   0.0800 
 45 H       -2.9690    -6.9370     2.5280 H     1 <1>   0.0800 
 46 H       -6.6900    -7.2870    -1.2380 H     1 <1>   0.0800 
 47 H       -5.8300    -6.6570    -2.5950 H     1 <1>   0.0800 
 48 H       -3.8490    -7.9390    -2.0290 H     1 <1>   0.0800 
 49 H       -5.2100    -9.0090    -2.0180 H     1 <1>   0.0800 
@<TRIPOS>BOND
  1   1   2  1   
  2   1   3  1   
  3   2   4  ar  
  4   2   5  ar  
  5   3   6  2   
  6   3   7  1   
  7   4   8  ar  
  8   5   6  1   
  9   5   9  ar  
 10   6  10  1   
 11   7  26  1   
 12   7  27  1   
 13   7  28  1   
 14   8  11  ar  
 15   8  29  1   
 16   9  11  ar  
 17   9  12  1   
 18  10  30  1   
 19  10  31  1   
 20  10  32  1   
 21  12  13  1   
 22  12  14  1   
 23  13  15  1   
 24  13  33  1   
 25  13  34  1   
 26  14  16  1   
 27  14  35  1   
 28  14  36  1   
 29  15  17  1   
 30  15  18  1   
 31  15  37  1   
 32  16  18  1   
 33  16  38  1   
 34  16  39  1   
 35  17  19  1   
 36  17  20  1   
 37  17  40  1   
 38  18  21  1   
 39  18  22  1   
 40  19  23  1   
 41  19  41  1   
 42  19  42  1   
 43  20  43  1   
 44  20  44  1   
 45  20  45  1   
 46  21  24  ar  
 47  21  25  ar  
 48  22  23  1   
 49  22  46  1   
 50  22  47  1   
 51  23  48  1   
 52  23  49  1   
@<TRIPOS>SUBSTRUCTURE
  1 ****  12 GROUP 4 **** **** 0

# MOE 2024.06 (io_trps.svl 2023.06)
