@<TRIPOS>MOLECULE
NONAME
51 54 1 0 0 
SMALL
USER_CHARGES


@<TRIPOS>ATOM
  1 O       -1.5500    -0.6180     0.4660 O.2   1 <1>  -0.5700 
  2 C       -2.2220     0.4070     0.4590 C.2   1 <1>   0.6160 
  3 N       -1.7610     1.5380    -0.2060 N.am  1 <1>  -0.4770 
  4 C       -3.4700     0.4830     1.1600 C.2   1 <1>  -0.1240 
  5 C       -2.4650     2.7590    -0.1390 C.ar  1 <1>   0.1170 
  6 C       -0.5000     1.4510    -1.0040 C.3   1 <1>   0.0600 
  7 C       -4.1610     1.6450     1.2230 C.2   1 <1>  -0.1780 
  8 C       -3.9800    -0.7800     1.8310 C.3   1 <1>   0.2480 
  9 C       -3.6750     2.8220     0.5790 C.ar  1 <1>   0.0280 
 10 C       -2.0090     3.9280    -0.7600 C.ar  1 <1>  -0.1500 
 11 N       -4.6830    -1.6250     0.8510 N.3   1 <1>  -0.8100 
 12 C       -4.3780     4.0260     0.6480 C.ar  1 <1>  -0.1500 
 13 C       -2.7150     5.1090    -0.6810 C.ar  1 <1>  -0.1500 
 14 C       -4.6560    -3.0390     1.2600 C.3   1 <1>   0.1100 
 15 C       -6.0620    -1.1490     0.6140 C.3   1 <1>   0.1100 
 16 C       -3.9070     5.1590     0.0260 C.ar  1 <1>  -0.1500 
 17 C       -5.2900    -3.9000     0.1520 C.3   1 <1>   0.4230 
 18 C       -6.7580    -2.0090    -0.4540 C.3   1 <1>  -0.1600 
 19 N       -5.1890    -5.3580     0.4160 N.4   1 <1>  -0.9060 
 20 C       -6.7630    -3.5150    -0.0780 C.3   1 <1>  -0.1060 
 21 C       -5.7190    -6.2320    -0.6640 C.3   1 <1>   0.3430 
 22 C       -7.5390    -3.7650     1.2300 C.2   1 <1>   0.9060 
 23 C       -7.3810    -4.3630    -1.2290 C.3   1 <1>  -0.1600 
 24 C       -6.4150    -5.4310    -1.7770 C.3   1 <1>  -0.1600 
 25 O       -7.2480    -4.7680     1.9040 O.co2 1 <1>  -0.9000 
 26 O       -8.4220    -2.9870     1.5860 O.co2 1 <1>  -0.9000 
 27 H       -0.6920     1.7630    -2.0150 H     1 <1>   0.0800 
 28 H       -0.1150     0.4480    -1.0340 H     1 <1>   0.0800 
 29 H        0.2460     2.0880    -0.5640 H     1 <1>   0.0800 
 30 H       -5.0950     1.7180     1.7510 H     1 <1>   0.1500 
 31 H       -4.6440    -0.5340     2.6430 H     1 <1>   0.0800 
 32 H       -3.1410    -1.3110     2.2490 H     1 <1>   0.0800 
 33 H       -1.0900     3.9280    -1.3130 H     1 <1>   0.1500 
 34 H       -5.3020     4.0640     1.1960 H     1 <1>   0.1500 
 35 H       -2.3470     5.9970    -1.1660 H     1 <1>   0.1500 
 36 H       -3.6320    -3.3400     1.3920 H     1 <1>   0.0800 
 37 H       -5.1820    -3.1610     2.1930 H     1 <1>   0.0800 
 38 H       -6.6260    -1.1780     1.5320 H     1 <1>   0.0800 
 39 H       -6.0390    -0.1290     0.2700 H     1 <1>   0.0800 
 40 H       -4.4560     6.0830     0.0840 H     1 <1>   0.1500 
 41 H       -4.7430    -3.6830    -0.7500 H     1 <1>   0.0800 
 42 H       -7.7720    -1.6620    -0.5620 H     1 <1>   0.0800 
 43 H       -6.2580    -1.8560    -1.3940 H     1 <1>   0.0800 
 44 H       -4.2710    -5.6310     0.7650 H     1 <1>   0.4500 
 45 H       -5.8680    -5.4550     1.2140 H     1 <1>   0.4500 
 46 H       -4.9180    -6.8110    -1.0930 H     1 <1>   0.0800 
 47 H       -6.4320    -6.9160    -0.2320 H     1 <1>   0.0800 
 48 H       -8.2670    -4.8560    -0.8610 H     1 <1>   0.0800 
 49 H       -7.7010    -3.7290    -2.0380 H     1 <1>   0.0800 
 50 H       -5.6660    -4.9580    -2.3890 H     1 <1>   0.0800 
 51 H       -6.9560    -6.1090    -2.4130 H     1 <1>   0.0800 
@<TRIPOS>BOND
  1   1   2  2   
  2   2   3  am  
  3   2   4  1   
  4   3   5  1   
  5   3   6  1   
  6   4   7  2   
  7   4   8  1   
  8   5   9  ar  
  9   5  10  ar  
 10   6  27  1   
 11   6  28  1   
 12   6  29  1   
 13   7   9  1   
 14   7  30  1   
 15   8  11  1   
 16   8  31  1   
 17   8  32  1   
 18   9  12  ar  
 19  10  13  ar  
 20  10  33  1   
 21  11  14  1   
 22  11  15  1   
 23  12  16  ar  
 24  12  34  1   
 25  13  16  ar  
 26  13  35  1   
 27  14  17  1   
 28  14  36  1   
 29  14  37  1   
 30  15  18  1   
 31  15  38  1   
 32  15  39  1   
 33  16  40  1   
 34  17  19  1   
 35  17  20  1   
 36  17  41  1   
 37  18  20  1   
 38  18  42  1   
 39  18  43  1   
 40  19  21  1   
 41  19  44  1   
 42  19  45  1   
 43  20  22  1   
 44  20  23  1   
 45  21  24  1   
 46  21  46  1   
 47  21  47  1   
 48  22  25  ar  
 49  22  26  ar  
 50  23  24  1   
 51  23  48  1   
 52  23  49  1   
 53  24  50  1   
 54  24  51  1   
@<TRIPOS>SUBSTRUCTURE
  1 ****  11 GROUP 4 **** **** 0

# MOE 2024.06 (io_trps.svl 2023.06)
