@<TRIPOS>MOLECULE
NONAME
43 45 1 0 0 
SMALL
USER_CHARGES


@<TRIPOS>ATOM
  1 O        0.5500     0.4030     0.0780 O.2   1 <1>  -0.5700 
  2 C        1.3680    -0.4730    -0.1050 C.2   1 <1>   0.5690 
  3 N        1.0240    -1.7880    -0.1990 N.am  1 <1>  -0.5790 
  4 C        2.8420    -0.0590    -0.2340 C.3   1 <1>   0.2700 
  5 C       -0.3470    -2.3110    -0.0940 C.3   1 <1>   0.0490 
  6 N        3.0100     1.4290    -0.1040 N.pl3 1 <1>  -0.8690 
  7 C       -0.5420    -3.6410     0.5530 C.3   1 <1>  -0.2000 
  8 C       -0.7130    -3.4910    -0.9300 C.3   1 <1>  -0.2000 
  9 C        4.1290     2.1600    -0.1610 C.ar  1 <1>   0.4610 
 10 N        4.0470     3.4820    -0.0190 N.ar  1 <1>  -0.1790 
 11 C        5.4130     1.6050    -0.3660 C.ar  1 <1>  -0.1500 
 12 C        5.1250     4.3500    -0.0580 C.ar  1 <1>   0.3610 
 13 C        6.5280     2.3850    -0.4180 C.ar  1 <1>  -0.1430 
 14 C        6.4060     3.8020    -0.2620 C.ar  1 <1>   0.0000 
 15 C        4.9430     5.7380     0.1020 C.ar  1 <1>  -0.1430 
 16 C        7.8960     1.7510    -0.6400 C.3   1 <1>  -0.0970 
 17 C        7.4920     4.6870    -0.3000 C.ar  1 <1>  -0.1500 
 18 C        6.0420     6.5770     0.0580 C.ar  1 <1>  -0.1430 
 19 C        3.5260     6.2880     0.3220 C.3   1 <1>  -0.0970 
 20 C        7.3110     6.0360    -0.1430 C.ar  1 <1>  -0.1500 
 21 C        5.9510     8.0920     0.2210 C.3   1 <1>  -0.0970 
 22 H        1.7270    -2.5120    -0.3530 H     1 <1>   0.3700 
 23 H        3.2070    -0.3790    -1.1940 H     1 <1>   0.0800 
 24 H        3.4070    -0.5520     0.5380 H     1 <1>   0.0800 
 25 H       -1.0900    -1.5440     0.0690 H     1 <1>   0.1000 
 26 H        2.0660     1.8280     0.0460 H     1 <1>   0.4000 
 27 H       -1.4230    -3.8000     1.1500 H     1 <1>   0.1000 
 28 H        0.3130    -4.1750     0.9290 H     1 <1>   0.1000 
 29 H        0.0230    -3.9210    -1.5860 H     1 <1>   0.1000 
 30 H       -1.7090    -3.5490    -1.3320 H     1 <1>   0.1000 
 31 H        3.1290     3.8860     0.1280 H     1 <1>   0.4570 
 32 H        5.4860     0.5400    -0.4810 H     1 <1>   0.1500 
 33 H        7.8200     0.6830    -0.7390 H     1 <1>   0.0800 
 34 H        8.5450     1.9640     0.1910 H     1 <1>   0.0800 
 35 H        8.3430     2.1370    -1.5400 H     1 <1>   0.0800 
 36 H        8.4890     4.3150    -0.4530 H     1 <1>   0.1500 
 37 H        3.0990     5.8760     1.2200 H     1 <1>   0.0800 
 38 H        2.8970     6.0490    -0.5170 H     1 <1>   0.0800 
 39 H        3.5080     7.3560     0.4300 H     1 <1>   0.0800 
 40 H        8.1690     6.6880    -0.1780 H     1 <1>   0.1500 
 41 H        5.3340     8.5130    -0.5530 H     1 <1>   0.0800 
 42 H        6.9210     8.5520     0.1540 H     1 <1>   0.0800 
 43 H        5.5350     8.3400     1.1810 H     1 <1>   0.0800 
@<TRIPOS>BOND
  1   1   2  2   
  2   2   3  am  
  3   2   4  1   
  4   3   5  1   
  5   3  22  1   
  6   4   6  1   
  7   4  23  1   
  8   4  24  1   
  9   5   7  1   
 10   5   8  1   
 11   5  25  1   
 12   6   9  1   
 13   6  26  1   
 14   7   8  1   
 15   7  27  1   
 16   7  28  1   
 17   8  29  1   
 18   8  30  1   
 19   9  10  ar  
 20   9  11  ar  
 21  10  12  ar  
 22  10  31  1   
 23  11  13  ar  
 24  11  32  1   
 25  12  14  ar  
 26  12  15  ar  
 27  13  14  ar  
 28  13  16  1   
 29  14  17  ar  
 30  15  18  ar  
 31  15  19  1   
 32  16  33  1   
 33  16  34  1   
 34  16  35  1   
 35  17  20  ar  
 36  17  36  1   
 37  18  20  ar  
 38  18  21  1   
 39  19  37  1   
 40  19  38  1   
 41  19  39  1   
 42  20  40  1   
 43  21  41  1   
 44  21  42  1   
 45  21  43  1   
@<TRIPOS>SUBSTRUCTURE
  1 ****   9 GROUP 4 **** **** 0

# MOE 2024.06 (io_trps.svl 2023.06)
