@<TRIPOS>MOLECULE
NONAME
51 53 1 0 0 
SMALL
USER_CHARGES


@<TRIPOS>ATOM
  1 S        1.2740    -1.5800     0.8530 S.o2  1 <1>   1.5760 
  2 O        1.4760    -0.9240     2.1200 O.2   1 <1>  -0.6500 
  3 O        2.2340    -2.5330     0.3450 O.2   1 <1>  -0.6500 
  4 N        0.8820    -0.4780    -0.3650 N.am  1 <1>  -0.8490 
  5 N       -0.1910    -2.3660     0.9570 N.am  1 <1>  -0.9140 
  6 C       -0.0540     0.5850     0.0220 C.3   1 <1>   0.1960 
  7 C        2.0320     0.0170    -1.1220 C.3   1 <1>   0.1960 
  8 C       -0.4310    -3.3090    -0.1250 C.3   1 <1>   0.2760 
  9 C        0.6240     1.7620     0.7430 C.3   1 <1>  -0.1600 
 10 C        2.7770     1.1250    -0.3670 C.3   1 <1>  -0.1600 
 11 C       -1.9200    -3.6010    -0.2360 C.3   1 <1>  -0.0800 
 12 C        0.0820    -4.6960     0.2590 C.3   1 <1>   0.1200 
 13 C        1.8610     2.3050     0.0050 C.3   1 <1>   0.0000 
 14 C       -2.1380    -4.6860     0.8250 C.3   1 <1>   0.1200 
 15 C       -2.8550    -2.3850    -0.0980 C.3   1 <1>  -0.0170 
 16 O       -0.8770    -5.2070     1.1340 O.3   1 <1>  -0.5600 
 17 C        2.6250     3.2620     0.9320 C.3   1 <1>  -0.2400 
 18 C        1.4390     3.0910    -1.2500 C.3   1 <1>  -0.2400 
 19 C       -4.3070    -2.7930    -0.2870 C.ar  1 <1>  -0.1430 
 20 C       -4.8520    -2.9870    -1.5400 C.ar  1 <1>  -0.1500 
 21 C       -5.1540    -2.9940     0.7850 C.ar  1 <1>  -0.1500 
 22 C       -6.1790    -3.3670    -1.6570 C.ar  1 <1>   0.1600 
 23 C       -6.4660    -3.3750     0.5580 C.ar  1 <1>   0.1600 
 24 N       -6.9970    -3.5680    -0.6380 N.ar  1 <1>  -0.6200 
 25 H       -0.1090    -2.9300     1.8010 H     1 <1>   0.4200 
 26 H       -0.5300     0.9540    -0.8700 H     1 <1>   0.0800 
 27 H       -0.8300     0.1780     0.6490 H     1 <1>   0.0800 
 28 H        2.7090    -0.7930    -1.3410 H     1 <1>   0.0800 
 29 H        1.6850     0.3980    -2.0670 H     1 <1>   0.0800 
 30 H       -0.0210    -2.9510    -1.0560 H     1 <1>   0.0800 
 31 H       -0.0960     2.5500     0.8710 H     1 <1>   0.0800 
 32 H        0.9050     1.4460     1.7310 H     1 <1>   0.0800 
 33 H        3.2080     0.7020     0.5230 H     1 <1>   0.0800 
 34 H        3.5910     1.4750    -0.9760 H     1 <1>   0.0800 
 35 H       -2.0970    -4.0530    -1.1960 H     1 <1>   0.0800 
 36 H        1.0430    -4.6870     0.7420 H     1 <1>   0.0800 
 37 H        0.1190    -5.3390    -0.6030 H     1 <1>   0.0800 
 38 H       -2.7690    -5.4800     0.4630 H     1 <1>   0.0800 
 39 H       -2.5510    -4.2780     1.7310 H     1 <1>   0.0800 
 40 H       -2.5920    -1.6470    -0.8360 H     1 <1>   0.0800 
 41 H       -2.7390    -1.9280     0.8690 H     1 <1>   0.0800 
 42 H        2.0000     4.0890     1.2210 H     1 <1>   0.0800 
 43 H        3.4970     3.6520     0.4380 H     1 <1>   0.0800 
 44 H        2.9420     2.7520     1.8250 H     1 <1>   0.0800 
 45 H        0.8330     3.9360    -0.9750 H     1 <1>   0.0800 
 46 H        0.8710     2.4840    -1.9290 H     1 <1>   0.0800 
 47 H        2.3050     3.4580    -1.7710 H     1 <1>   0.0800 
 48 H       -4.2590    -2.8460    -2.4250 H     1 <1>   0.1500 
 49 H       -4.8070    -2.8600     1.7930 H     1 <1>   0.1500 
 50 H       -6.5880    -3.5150    -2.6420 H     1 <1>   0.1500 
 51 H       -7.1130    -3.5280     1.4050 H     1 <1>   0.1500 
@<TRIPOS>BOND
  1   1   2  2   
  2   1   3  2   
  3   1   4  am  
  4   1   5  am  
  5   4   6  1   
  6   4   7  1   
  7   5   8  1   
  8   5  25  1   
  9   6   9  1   
 10   6  26  1   
 11   6  27  1   
 12   7  10  1   
 13   7  28  1   
 14   7  29  1   
 15   8  11  1   
 16   8  12  1   
 17   8  30  1   
 18   9  13  1   
 19   9  31  1   
 20   9  32  1   
 21  10  13  1   
 22  10  33  1   
 23  10  34  1   
 24  11  14  1   
 25  11  15  1   
 26  11  35  1   
 27  12  16  1   
 28  12  36  1   
 29  12  37  1   
 30  13  17  1   
 31  13  18  1   
 32  14  16  1   
 33  14  38  1   
 34  14  39  1   
 35  15  19  1   
 36  15  40  1   
 37  15  41  1   
 38  17  42  1   
 39  17  43  1   
 40  17  44  1   
 41  18  45  1   
 42  18  46  1   
 43  18  47  1   
 44  19  20  ar  
 45  19  21  ar  
 46  20  22  ar  
 47  20  48  1   
 48  21  23  ar  
 49  21  49  1   
 50  22  24  ar  
 51  22  50  1   
 52  23  24  ar  
 53  23  51  1   
@<TRIPOS>SUBSTRUCTURE
  1 ****   5 GROUP 4 **** **** 0

# MOE 2024.06 (io_trps.svl 2023.06)
