@<TRIPOS>MOLECULE
NONAME
64 68 1 0 0 
SMALL
USER_CHARGES


@<TRIPOS>ATOM
  1 O       -2.2360     0.5950    -1.2330 O.2   1 <1>  -0.5700 
  2 C       -1.9770     0.6450    -0.0500 C.2   1 <1>   0.5690 
  3 N       -1.6520    -0.5040     0.6110 N.am  1 <1>  -0.7300 
  4 C       -1.9750     2.0500     0.6630 C.3   1 <1>   0.5640 
  5 C       -1.8850    -1.8610     0.0640 C.3   1 <1>   0.2200 
  6 N       -0.7110     2.8160     0.3030 N.4   1 <1>  -0.9590 
  7 C       -3.2320     2.8550     0.2360 C.3   1 <1>  -0.1600 
  8 C       -2.0080     1.9040     2.2100 C.3   1 <1>  -0.1600 
  9 C       -3.3510    -2.2110     0.2860 C.3   1 <1>  -0.0800 
 10 C       -1.1870    -2.8850     0.9470 C.3   1 <1>   0.1200 
 11 C       -0.5300     4.1840     0.8540 C.3   1 <1>   0.3430 
 12 C       -0.4810     2.9450    -1.1630 C.3   1 <1>   0.3430 
 13 C       -4.5400     2.2050     0.7230 C.3   1 <1>  -0.1600 
 14 C       -3.3140     1.2800     2.7430 C.3   1 <1>  -0.1600 
 15 C       -3.3510    -2.9330     1.6420 C.3   1 <1>   0.1200 
 16 C       -3.9200    -3.0830    -0.8480 C.3   1 <1>  -0.0170 
 17 O       -2.0180    -2.9990     2.0560 O.3   1 <1>  -0.5600 
 18 C        0.6140     4.7650     0.0360 C.3   1 <1>  -0.1600 
 19 C        0.6090     4.0010    -1.2910 C.3   1 <1>  -0.1600 
 20 C       -4.5420     2.0510     2.2470 C.3   1 <1>  -0.1600 
 21 C       -5.4350    -3.1870    -0.7190 C.ar  1 <1>  -0.1440 
 22 C       -6.2920    -2.1130    -1.0650 C.ar  1 <1>   0.0000 
 23 C       -6.0120    -4.3280    -0.2440 C.ar  1 <1>  -0.1500 
 24 C       -7.6820    -2.2910    -0.8600 C.ar  1 <1>   0.3100 
 25 C       -5.8550    -0.8780    -1.6010 C.ar  1 <1>  -0.1500 
 26 C       -7.4010    -4.4050    -0.0940 C.ar  1 <1>   0.1600 
 27 N       -8.2180    -3.4400    -0.3770 N.ar  1 <1>  -0.6200 
 28 C       -8.5550    -1.2360    -1.1690 C.ar  1 <1>  -0.1500 
 29 C       -6.7330     0.1290    -1.8950 C.ar  1 <1>  -0.1500 
 30 C       -8.1000    -0.0480    -1.6730 C.ar  1 <1>  -0.1500 
 31 H       -1.5530    -0.5250     1.6320 H     1 <1>   0.3700 
 32 H       -1.5720    -1.9150    -0.9660 H     1 <1>   0.0800 
 33 H        0.0720     2.2510     0.6500 H     1 <1>   0.4500 
 34 H       -3.2020     3.8480     0.6430 H     1 <1>   0.0800 
 35 H       -3.2800     2.9360    -0.8350 H     1 <1>   0.0800 
 36 H       -1.1740     1.3170     2.5490 H     1 <1>   0.0800 
 37 H       -1.9280     2.8730     2.6680 H     1 <1>   0.0800 
 38 H       -3.9480    -1.3200     0.3580 H     1 <1>   0.0800 
 39 H       -0.2040    -2.5770     1.2570 H     1 <1>   0.0800 
 40 H       -1.1390    -3.8460     0.4650 H     1 <1>   0.0800 
 41 H       -1.4160     4.7740     0.6880 H     1 <1>   0.0800 
 42 H       -0.2970     4.1700     1.9070 H     1 <1>   0.0800 
 43 H       -0.1850     2.0070    -1.6070 H     1 <1>   0.0800 
 44 H       -1.3780     3.2950    -1.6500 H     1 <1>   0.0800 
 45 H       -5.3770     2.8150     0.4270 H     1 <1>   0.0800 
 46 H       -4.6720     1.2400     0.2630 H     1 <1>   0.0800 
 47 H       -3.4040     0.2510     2.4420 H     1 <1>   0.0800 
 48 H       -3.3040     1.2910     3.8210 H     1 <1>   0.0800 
 49 H       -3.7300    -3.9380     1.5700 H     1 <1>   0.0800 
 50 H       -3.9110    -2.3910     2.3840 H     1 <1>   0.0800 
 51 H       -3.4750    -4.0620    -0.8190 H     1 <1>   0.0800 
 52 H       -3.6780    -2.6570    -1.8060 H     1 <1>   0.0800 
 53 H        0.4780     5.8230    -0.1100 H     1 <1>   0.0800 
 54 H        1.5460     4.6100     0.5540 H     1 <1>   0.0800 
 55 H        1.5610     3.5280    -1.4600 H     1 <1>   0.0800 
 56 H        0.3980     4.6490    -2.1240 H     1 <1>   0.0800 
 57 H       -5.4380     1.5360     2.5540 H     1 <1>   0.0800 
 58 H       -4.5620     3.0270     2.7050 H     1 <1>   0.0800 
 59 H       -5.4260    -5.1870     0.0310 H     1 <1>   0.1500 
 60 H       -4.8090    -0.7190    -1.7880 H     1 <1>   0.1500 
 61 H       -7.8170    -5.3230     0.2840 H     1 <1>   0.1500 
 62 H       -9.6030    -1.3970    -0.9950 H     1 <1>   0.1500 
 63 H       -6.3870     1.0630    -2.3020 H     1 <1>   0.1500 
 64 H       -8.7820     0.7510    -1.9060 H     1 <1>   0.1500 
@<TRIPOS>BOND
  1   1   2  2   
  2   2   3  am  
  3   2   4  1   
  4   3   5  1   
  5   3  31  1   
  6   4   6  1   
  7   4   7  1   
  8   4   8  1   
  9   5   9  1   
 10   5  10  1   
 11   5  32  1   
 12   6  11  1   
 13   6  12  1   
 14   6  33  1   
 15   7  13  1   
 16   7  34  1   
 17   7  35  1   
 18   8  14  1   
 19   8  36  1   
 20   8  37  1   
 21   9  15  1   
 22   9  16  1   
 23   9  38  1   
 24  10  17  1   
 25  10  39  1   
 26  10  40  1   
 27  11  18  1   
 28  11  41  1   
 29  11  42  1   
 30  12  19  1   
 31  12  43  1   
 32  12  44  1   
 33  13  20  1   
 34  13  45  1   
 35  13  46  1   
 36  14  20  1   
 37  14  47  1   
 38  14  48  1   
 39  15  17  1   
 40  15  49  1   
 41  15  50  1   
 42  16  21  1   
 43  16  51  1   
 44  16  52  1   
 45  18  19  1   
 46  18  53  1   
 47  18  54  1   
 48  19  55  1   
 49  19  56  1   
 50  20  57  1   
 51  20  58  1   
 52  21  22  ar  
 53  21  23  ar  
 54  22  24  ar  
 55  22  25  ar  
 56  23  26  ar  
 57  23  59  1   
 58  24  27  ar  
 59  24  28  ar  
 60  25  29  ar  
 61  25  60  1   
 62  26  27  ar  
 63  26  61  1   
 64  28  30  ar  
 65  28  62  1   
 66  29  30  ar  
 67  29  63  1   
 68  30  64  1   
@<TRIPOS>SUBSTRUCTURE
  1 ****   2 GROUP 4 **** **** 0

# MOE 2024.06 (io_trps.svl 2023.06)
