@<TRIPOS>MOLECULE
NONAME
42 43 1 0 0 
SMALL
USER_CHARGES


@<TRIPOS>ATOM
  1 S       -0.2370     0.2980    -0.6900 S.o2  1 <1>   1.3330 
  2 O       -0.7990    -1.0240    -0.8540 O.2   1 <1>  -0.6500 
  3 O       -0.2400     1.1990    -1.8220 O.2   1 <1>  -0.6500 
  4 N        1.3530     0.1170    -0.1190 N.am  1 <1>  -0.8490 
  5 C       -1.1020     1.0580     0.6950 C.3   1 <1>  -0.0550 
  6 C        1.7840    -1.2760     0.0320 C.3   1 <1>   0.1160 
  7 C        2.3530     0.8870    -0.8700 C.3   1 <1>   0.1160 
  8 C       -0.8850     2.5580     1.0130 C.3   1 <1>  -0.0800 
  9 C       -1.2440     3.5060    -0.1420 C.3   1 <1>   0.2000 
 10 C        0.5360     2.9500     1.4530 C.3   1 <1>   0.2090 
 11 O       -1.9940     4.5420     0.3920 O.3   1 <1>  -0.6800 
 12 C        0.0840     4.0910    -0.6220 C.3   1 <1>   0.2090 
 13 N        0.9490     4.0850     0.5820 N.pl3 1 <1>  -0.8380 
 14 C        2.2780     4.4650     0.4770 C.ar  1 <1>   0.4100 
 15 N        3.1970     3.6230     0.9370 N.ar  1 <1>  -0.6200 
 16 C        2.6010     5.6980    -0.0880 C.ar  1 <1>  -0.1500 
 17 C        4.4540     4.0180     0.8320 C.ar  1 <1>   0.1600 
 18 C        3.9130     6.1020    -0.1970 C.ar  1 <1>  -0.1440 
 19 C        4.8610     5.2200     0.2830 C.ar  1 <1>  -0.1500 
 20 C        4.3030     7.4400    -0.7970 C.3   1 <1>   0.2630 
 21 O        4.8450     8.2090     0.2120 O.3   1 <1>  -0.6800 
 22 H       -2.1530     0.9310     0.5190 H     1 <1>   0.0800 
 23 H       -0.8740     0.4920     1.5780 H     1 <1>   0.0800 
 24 H        2.7690    -1.3160     0.4630 H     1 <1>   0.0800 
 25 H        1.7940    -1.7690    -0.9260 H     1 <1>   0.0800 
 26 H        1.1070    -1.8020     0.6840 H     1 <1>   0.0800 
 27 H        3.3140     0.8160    -0.3910 H     1 <1>   0.0800 
 28 H        2.0770     1.9250    -0.9020 H     1 <1>   0.0800 
 29 H        2.4280     0.5200    -1.8800 H     1 <1>   0.0800 
 30 H       -1.5360     2.7650     1.8440 H     1 <1>   0.0800 
 31 H       -1.8140     3.0500    -0.9330 H     1 <1>   0.0800 
 32 H        1.2220     2.1290     1.3620 H     1 <1>   0.0800 
 33 H        0.5380     3.2750     2.4790 H     1 <1>   0.0800 
 34 H       -1.4120     5.0500     0.9960 H     1 <1>   0.4000 
 35 H       -0.0500     5.0830    -1.0170 H     1 <1>   0.0800 
 36 H        0.5240     3.4700    -1.3800 H     1 <1>   0.0800 
 37 H        1.8040     6.3320    -0.4240 H     1 <1>   0.1500 
 38 H        5.2050     3.3440     1.2070 H     1 <1>   0.1500 
 39 H        5.9070     5.4680     0.2380 H     1 <1>   0.1500 
 40 H        3.4460     7.9570    -1.1930 H     1 <1>   0.0800 
 41 H        5.0430     7.3240    -1.5700 H     1 <1>   0.0800 
 42 H        4.3360     8.0500     1.0310 H     1 <1>   0.4000 
@<TRIPOS>BOND
  1   1   2  2   
  2   1   3  2   
  3   1   4  am  
  4   1   5  1   
  5   4   6  1   
  6   4   7  1   
  7   5   8  1   
  8   5  22  1   
  9   5  23  1   
 10   6  24  1   
 11   6  25  1   
 12   6  26  1   
 13   7  27  1   
 14   7  28  1   
 15   7  29  1   
 16   8   9  1   
 17   8  10  1   
 18   8  30  1   
 19   9  11  1   
 20   9  12  1   
 21   9  31  1   
 22  10  13  1   
 23  10  32  1   
 24  10  33  1   
 25  11  34  1   
 26  12  13  1   
 27  12  35  1   
 28  12  36  1   
 29  13  14  1   
 30  14  15  ar  
 31  14  16  ar  
 32  15  17  ar  
 33  16  18  ar  
 34  16  37  1   
 35  17  19  ar  
 36  17  38  1   
 37  18  19  ar  
 38  18  20  1   
 39  19  39  1   
 40  20  21  1   
 41  20  40  1   
 42  20  41  1   
 43  21  42  1   
@<TRIPOS>SUBSTRUCTURE
  1 ****  13 GROUP 4 **** **** 0

# MOE 2024.06 (io_trps.svl 2023.06)
