@<TRIPOS>MOLECULE
NONAME
50 52 1 0 0 
SMALL
USER_CHARGES


@<TRIPOS>ATOM
  1 O        0.7060    -1.2230     0.4770 O.3   1 <1>  -0.5600 
  2 C       -0.0130    -2.0380    -0.4290 C.3   1 <1>   0.2800 
  3 C        0.3350     0.1180     0.5840 C.3   1 <1>   0.1200 
  4 C       -1.4990    -1.5570    -0.6130 C.3   1 <1>   0.2000 
  5 C        0.0300    -3.4620     0.1750 C.3   1 <1>  -0.1600 
  6 C        0.7980    -2.0710    -1.7450 C.3   1 <1>  -0.1600 
  7 C       -1.0930     0.2430     1.1430 C.3   1 <1>  -0.1600 
  8 O       -1.6150    -0.6840    -1.7070 O.3   1 <1>  -0.6800 
  9 C       -2.0490    -0.8710     0.6680 C.3   1 <1>   0.2800 
 10 C        1.3780    -4.1800     0.0490 C.3   1 <1>   0.3430 
 11 C        2.2430    -2.5570    -1.5730 C.3   1 <1>   0.3430 
 12 O       -2.1220    -1.8170     1.6710 O.3   1 <1>  -0.6800 
 13 C       -3.4840    -0.3560     0.5100 C.3   1 <1>  -0.2400 
 14 N        2.4410    -3.1880    -0.2360 N.4   1 <1>  -0.9590 
 15 C        3.8100    -3.7020     0.0220 C.3   1 <1>   0.3430 
 16 C        4.8090    -2.5480     0.0200 C.3   1 <1>  -0.1600 
 17 C        6.1870    -2.9900     0.5380 C.3   1 <1>   0.0960 
 18 N        7.1250    -1.8510     0.5430 N.pl3 1 <1>   0.3140 
 19 N        6.8380    -0.7050     1.1860 N.2   1 <1>  -0.7070 
 20 C        8.3260    -1.7840    -0.0640 C.2   1 <1>  -0.3020 
 21 C        7.8660     0.0610     0.9770 C.2   1 <1>   0.1390 
 22 C        8.8330    -0.5610     0.1970 C.2   1 <1>  -0.1500 
 23 H        1.0340     0.6060     1.2410 H     1 <1>   0.0800 
 24 H        0.4140     0.5690    -0.3910 H     1 <1>   0.0800 
 25 H       -2.1240    -2.3990    -0.8560 H     1 <1>   0.0800 
 26 H       -0.2350    -3.4190     1.2160 H     1 <1>   0.0800 
 27 H       -0.7090    -4.0800    -0.3020 H     1 <1>   0.0800 
 28 H        0.2980    -2.7190    -2.4430 H     1 <1>   0.0800 
 29 H        0.8240    -1.0980    -2.2000 H     1 <1>   0.0800 
 30 H       -1.4680     1.2000     0.8280 H     1 <1>   0.0800 
 31 H       -1.0530     0.2700     2.2180 H     1 <1>   0.0800 
 32 H       -1.3600     0.2220    -1.4500 H     1 <1>   0.4000 
 33 H        1.3340    -4.9010    -0.7510 H     1 <1>   0.0800 
 34 H        1.5870    -4.7020     0.9690 H     1 <1>   0.0800 
 35 H        2.9010    -1.7090    -1.6630 H     1 <1>   0.0800 
 36 H        2.4860    -3.2560    -2.3570 H     1 <1>   0.0800 
 37 H       -2.5560    -1.4300     2.4540 H     1 <1>   0.4000 
 38 H       -3.5330     0.4010    -0.2510 H     1 <1>   0.0800 
 39 H       -3.8410     0.0750     1.4290 H     1 <1>   0.0800 
 40 H       -4.1370    -1.1590     0.2170 H     1 <1>   0.0800 
 41 H        2.2380    -2.4140     0.4310 H     1 <1>   0.4500 
 42 H        3.8310    -4.1800     0.9880 H     1 <1>   0.0800 
 43 H        4.0810    -4.4320    -0.7250 H     1 <1>   0.0800 
 44 H        4.4400    -1.7650     0.6620 H     1 <1>   0.0800 
 45 H        4.9280    -2.1610    -0.9760 H     1 <1>   0.0800 
 46 H        6.5970    -3.7670    -0.0810 H     1 <1>   0.0800 
 47 H        6.1110    -3.3520     1.5480 H     1 <1>   0.0800 
 48 H        8.7510    -2.5890    -0.6350 H     1 <1>   0.1500 
 49 H        7.9500     1.0620     1.3670 H     1 <1>   0.1500 
 50 H        9.7700    -0.1330    -0.1120 H     1 <1>   0.1500 
@<TRIPOS>BOND
  1   1   2  1   
  2   1   3  1   
  3   2   4  1   
  4   2   5  1   
  5   2   6  1   
  6   3   7  1   
  7   3  23  1   
  8   3  24  1   
  9   4   8  1   
 10   4   9  1   
 11   4  25  1   
 12   5  10  1   
 13   5  26  1   
 14   5  27  1   
 15   6  11  1   
 16   6  28  1   
 17   6  29  1   
 18   7   9  1   
 19   7  30  1   
 20   7  31  1   
 21   8  32  1   
 22   9  12  1   
 23   9  13  1   
 24  10  14  1   
 25  10  33  1   
 26  10  34  1   
 27  11  14  1   
 28  11  35  1   
 29  11  36  1   
 30  12  37  1   
 31  13  38  1   
 32  13  39  1   
 33  13  40  1   
 34  14  15  1   
 35  14  41  1   
 36  15  16  1   
 37  15  42  1   
 38  15  43  1   
 39  16  17  1   
 40  16  44  1   
 41  16  45  1   
 42  17  18  1   
 43  17  46  1   
 44  17  47  1   
 45  18  19  1   
 46  18  20  1   
 47  19  21  2   
 48  20  22  2   
 49  20  48  1   
 50  21  22  1   
 51  21  49  1   
 52  22  50  1   
@<TRIPOS>SUBSTRUCTURE
  1 ****  14 GROUP 4 **** **** 0

# MOE 2024.06 (io_trps.svl 2023.06)
