@<TRIPOS>MOLECULE
NONAME
32 33 1 0 0 
SMALL
USER_CHARGES


@<TRIPOS>ATOM
  1 S        0.4480     0.7940     0.3750 S.3   1 <1>  -0.0800 
  2 C        1.8740     1.1990    -0.5710 C.2   1 <1>  -0.1400 
  3 C        0.7150    -0.9220     0.1220 C.2   1 <1>  -0.1100 
  4 C        2.4710     0.0820    -1.0240 C.2   1 <1>  -0.1500 
  5 C        2.2170     2.6700    -0.7420 C.3   1 <1>   0.0200 
  6 C        1.8130    -1.1270    -0.6290 C.2   1 <1>  -0.1500 
  7 C        2.6250     3.3270     0.5870 C.3   1 <1>   0.2890 
  8 N        2.7540     4.7950     0.4480 N.pl3 1 <1>  -0.8690 
  9 C        3.9080     2.7450     1.1850 C.3   1 <1>  -0.2400 
 10 C        3.7620     5.4790    -0.1390 C.ar  1 <1>   0.7200 
 11 N        4.0140     6.6390     0.4420 N.ar  1 <1>  -0.6200 
 12 N        4.3690     4.9500    -1.1990 N.ar  1 <1>  -0.6200 
 13 C        4.9790     7.3610    -0.0880 C.ar  1 <1>   0.3930 
 14 C        5.3310     5.6790    -1.7230 C.ar  1 <1>   0.1600 
 15 O        5.1920     8.5360     0.5470 O.3   1 <1>  -0.3630 
 16 C        5.6750     6.8970    -1.2000 C.ar  1 <1>   0.1900 
 17 C        6.1350     9.5070     0.1470 C.3   1 <1>   0.0400 
 18 F        6.6490     7.5660    -1.7770 F     1 <1>  -0.1900 
 19 H        0.0130    -1.6030     0.5690 H     1 <1>   0.1500 
 20 H        3.3600     0.0510    -1.6290 H     1 <1>   0.1500 
 21 H        1.3610     3.1830    -1.1410 H     1 <1>   0.0800 
 22 H        3.0190     2.7520    -1.4510 H     1 <1>   0.0800 
 23 H        2.1950    -2.0860    -0.9290 H     1 <1>   0.1500 
 24 H        1.8300     3.1490     1.2910 H     1 <1>   0.0800 
 25 H        2.4230     5.3100     1.2630 H     1 <1>   0.4000 
 26 H        4.7240     2.8240     0.4890 H     1 <1>   0.0800 
 27 H        3.7640     1.7050     1.4170 H     1 <1>   0.0800 
 28 H        4.1620     3.2610     2.0920 H     1 <1>   0.0800 
 29 H        5.8530     5.2970    -2.5830 H     1 <1>   0.1500 
 30 H        6.0620    10.3400     0.8230 H     1 <1>   0.0800 
 31 H        5.9050     9.8290    -0.8530 H     1 <1>   0.0800 
 32 H        7.1220     9.0820     0.2010 H     1 <1>   0.0800 
@<TRIPOS>BOND
  1   1   2  1   
  2   1   3  1   
  3   2   4  2   
  4   2   5  1   
  5   3   6  2   
  6   3  19  1   
  7   4   6  1   
  8   4  20  1   
  9   5   7  1   
 10   5  21  1   
 11   5  22  1   
 12   6  23  1   
 13   7   8  1   
 14   7   9  1   
 15   7  24  1   
 16   8  10  1   
 17   8  25  1   
 18   9  26  1   
 19   9  27  1   
 20   9  28  1   
 21  10  11  ar  
 22  10  12  ar  
 23  11  13  ar  
 24  12  14  ar  
 25  13  15  1   
 26  13  16  ar  
 27  14  16  ar  
 28  14  29  1   
 29  15  17  1   
 30  16  18  1   
 31  17  30  1   
 32  17  31  1   
 33  17  32  1   
@<TRIPOS>SUBSTRUCTURE
  1 ****   8 GROUP 4 **** **** 0

# MOE 2024.06 (io_trps.svl 2023.06)
