@<TRIPOS>MOLECULE
NONAME
51 53 1 0 0 
SMALL
USER_CHARGES


@<TRIPOS>ATOM
  1 O       -2.0630     0.8440    -1.1980 O.2   1 <1>  -0.5700 
  2 C       -1.9410     0.8830     0.0110 C.2   1 <1>   0.5440 
  3 N       -2.6370    -0.0240     0.7700 N.am  1 <1>  -0.6600 
  4 C       -1.2170     1.9760     0.6280 C.ar  1 <1>   0.0860 
  5 C       -2.7230    -1.4780     0.4030 C.3   1 <1>   0.3640 
  6 C       -3.9320     0.4550     1.3120 C.3   1 <1>   0.1400 
  7 C       -0.1660     1.7990     1.5370 C.ar  1 <1>   0.1660 
  8 C       -1.5750     3.2830     0.3210 C.ar  1 <1>  -0.1500 
  9 C       -1.3560    -2.0200    -0.0430 C.ar  1 <1>  -0.1440 
 10 C       -3.9090    -1.7290    -0.5740 C.3   1 <1>   0.2000 
 11 C       -5.0300     0.2040     0.2650 C.3   1 <1>   0.1200 
 12 N        0.4800     2.7820     2.1480 N.ar  1 <1>  -0.6200 
 13 C        0.3370     0.4080     1.8800 C.3   1 <1>  -0.0960 
 14 C       -0.9050     4.3120     0.9430 C.ar  1 <1>  -0.1500 
 15 C       -0.5760    -2.6950     0.8870 C.ar  1 <1>  -0.1500 
 16 C       -0.8750    -1.8840    -1.3410 C.ar  1 <1>  -0.1500 
 17 O       -5.0940    -1.1570    -0.0590 O.3   1 <1>  -0.5600 
 18 C       -4.2640    -3.2110    -0.8260 C.3   1 <1>   0.1200 
 19 C        0.1000     4.0110     1.8420 C.ar  1 <1>   0.1600 
 20 C        0.6590    -3.2170     0.5420 C.ar  1 <1>   0.0830 
 21 C        0.3650    -2.3900    -1.6930 C.ar  1 <1>  -0.1500 
 22 O       -3.1630    -4.0550    -0.9440 O.3   1 <1>  -0.6800 
 23 O        1.3430    -3.8860     1.5010 O.3   1 <1>  -0.3630 
 24 C        1.1460    -3.0410    -0.7560 C.ar  1 <1>   0.0830 
 25 C        1.5060    -5.2710     1.2900 C.3   1 <1>   0.0400 
 26 O        2.3670    -3.4780    -1.1510 O.3   1 <1>  -0.3630 
 27 C        3.4770    -2.8450    -0.5530 C.3   1 <1>   0.0400 
 28 H       -2.9760    -2.0130     1.3020 H     1 <1>   0.0800 
 29 H       -4.1670    -0.0670     2.2240 H     1 <1>   0.0800 
 30 H       -3.8760     1.5070     1.5310 H     1 <1>   0.0800 
 31 H       -2.3600     3.4770    -0.3900 H     1 <1>   0.1500 
 32 H       -3.7030    -1.2530    -1.5160 H     1 <1>   0.0800 
 33 H       -4.8340     0.7630    -0.6350 H     1 <1>   0.0800 
 34 H       -5.9900     0.4940     0.6530 H     1 <1>   0.0800 
 35 H        0.5680    -0.1290     0.9790 H     1 <1>   0.0800 
 36 H       -0.4060    -0.1270     2.4390 H     1 <1>   0.0800 
 37 H        1.2330     0.4640     2.4730 H     1 <1>   0.0800 
 38 H       -1.1540     5.3370     0.7340 H     1 <1>   0.1500 
 39 H       -0.9210    -2.8310     1.8970 H     1 <1>   0.1500 
 40 H       -1.4520    -1.3720    -2.0910 H     1 <1>   0.1500 
 41 H       -4.8380    -3.2930    -1.7320 H     1 <1>   0.0800 
 42 H       -4.8540    -3.5870    -0.0080 H     1 <1>   0.0800 
 43 H        0.6210     4.8170     2.3310 H     1 <1>   0.1500 
 44 H        0.7350    -2.2710    -2.6950 H     1 <1>   0.1500 
 45 H       -2.4280    -3.6270    -1.4310 H     1 <1>   0.4000 
 46 H        1.9720    -5.6920     2.1630 H     1 <1>   0.0800 
 47 H        2.1290    -5.4300     0.4290 H     1 <1>   0.0800 
 48 H        0.5380    -5.7150     1.1370 H     1 <1>   0.0800 
 49 H        4.3690    -3.2080    -1.0310 H     1 <1>   0.0800 
 50 H        3.5010    -3.0810     0.4950 H     1 <1>   0.0800 
 51 H        3.3880    -1.7820    -0.6950 H     1 <1>   0.0800 
@<TRIPOS>BOND
  1   1   2  2   
  2   2   3  am  
  3   2   4  1   
  4   3   5  1   
  5   3   6  1   
  6   4   7  ar  
  7   4   8  ar  
  8   5   9  1   
  9   5  10  1   
 10   5  28  1   
 11   6  11  1   
 12   6  29  1   
 13   6  30  1   
 14   7  12  ar  
 15   7  13  1   
 16   8  14  ar  
 17   8  31  1   
 18   9  15  ar  
 19   9  16  ar  
 20  10  17  1   
 21  10  18  1   
 22  10  32  1   
 23  11  17  1   
 24  11  33  1   
 25  11  34  1   
 26  12  19  ar  
 27  13  35  1   
 28  13  36  1   
 29  13  37  1   
 30  14  19  ar  
 31  14  38  1   
 32  15  20  ar  
 33  15  39  1   
 34  16  21  ar  
 35  16  40  1   
 36  18  22  1   
 37  18  41  1   
 38  18  42  1   
 39  19  43  1   
 40  20  23  1   
 41  20  24  ar  
 42  21  24  ar  
 43  21  44  1   
 44  22  45  1   
 45  23  25  1   
 46  24  26  1   
 47  25  46  1   
 48  25  47  1   
 49  25  48  1   
 50  26  27  1   
 51  27  49  1   
 52  27  50  1   
 53  27  51  1   
@<TRIPOS>SUBSTRUCTURE
  1 ****   9 GROUP 4 **** **** 0

# MOE 2024.06 (io_trps.svl 2023.06)
