@<TRIPOS>MOLECULE
NONAME
41 43 1 0 0 
SMALL
USER_CHARGES


@<TRIPOS>ATOM
  1 S       -1.3800    -0.9540    -0.7320 S.3   1 <1>  -0.3320 
  2 C       -2.1870     0.3590     0.1920 C.ar  1 <1>   0.4120 
  3 C       -0.2650    -0.0910    -1.9270 C.3   1 <1>  -0.0100 
  4 N       -1.8760     1.5840    -0.2120 N.ar  1 <1>  -0.6200 
  5 C       -3.0550     0.0290     1.2360 C.ar  1 <1>   0.0860 
  6 C       -2.4420     2.5620     0.4750 C.ar  1 <1>   0.1600 
  7 C       -3.3740    -1.3300     1.6040 C.2   1 <1>   0.5440 
  8 C       -3.6190     1.0890     1.9340 C.ar  1 <1>  -0.1500 
  9 C       -3.3040     2.3710     1.5410 C.ar  1 <1>  -0.1500 
 10 O       -3.0500    -1.7420     2.7000 O.2   1 <1>  -0.5700 
 11 N       -4.1070    -2.1530     0.7830 N.am  1 <1>  -0.6600 
 12 C       -4.7820    -1.7540    -0.4730 C.3   1 <1>   0.1400 
 13 C       -4.4630    -3.5510     1.1400 C.3   1 <1>   0.1400 
 14 C       -5.9570    -2.7220    -0.5830 C.3   1 <1>   0.2000 
 15 C       -5.4520    -4.0200     0.0570 C.3   1 <1>  -0.0800 
 16 O       -6.9920    -2.2380     0.2010 O.3   1 <1>  -0.6800 
 17 C       -4.7760    -4.9270    -0.9910 C.3   1 <1>  -0.0170 
 18 C       -4.5030    -6.3200    -0.4430 C.ar  1 <1>   0.1670 
 19 N       -3.3190    -6.5230     0.1110 N.ar  1 <1>  -0.6200 
 20 C       -5.4820    -7.3080    -0.5420 C.ar  1 <1>   0.1600 
 21 C       -3.1810    -7.7610     0.5550 C.ar  1 <1>   0.1600 
 22 N       -5.3480    -8.5470    -0.0980 N.ar  1 <1>  -0.6200 
 23 C       -4.1620    -8.7400     0.4540 C.ar  1 <1>   0.1600 
 24 H        0.2550    -0.8420    -2.4940 H     1 <1>   0.0800 
 25 H        0.4240     0.5090    -1.3590 H     1 <1>   0.0800 
 26 H       -0.8750     0.5240    -2.5640 H     1 <1>   0.0800 
 27 H       -2.2050     3.5690     0.1750 H     1 <1>   0.1500 
 28 H       -4.2810     0.9000     2.7630 H     1 <1>   0.1500 
 29 H       -3.7210     3.2190     2.0560 H     1 <1>   0.1500 
 30 H       -5.1100    -0.7290    -0.4550 H     1 <1>   0.0800 
 31 H       -4.1060    -1.9040    -1.2970 H     1 <1>   0.0800 
 32 H       -3.5740    -4.1570     1.1800 H     1 <1>   0.0800 
 33 H       -4.9320    -3.5590     2.1090 H     1 <1>   0.0800 
 34 H       -6.3220    -2.8360    -1.5890 H     1 <1>   0.0800 
 35 H       -6.2680    -4.5640     0.5000 H     1 <1>   0.0800 
 36 H       -6.6390    -2.0440     1.0930 H     1 <1>   0.4000 
 37 H       -3.8510    -4.4870    -1.3250 H     1 <1>   0.0800 
 38 H       -5.4170    -5.0210    -1.8490 H     1 <1>   0.0800 
 39 H       -6.4210    -7.0630    -1.0060 H     1 <1>   0.1500 
 40 H       -2.2450    -8.0130     1.0220 H     1 <1>   0.1500 
 41 H       -3.9550    -9.7200     0.8460 H     1 <1>   0.1500 
@<TRIPOS>BOND
  1   1   2  1   
  2   1   3  1   
  3   2   4  ar  
  4   2   5  ar  
  5   3  24  1   
  6   3  25  1   
  7   3  26  1   
  8   4   6  ar  
  9   5   7  1   
 10   5   8  ar  
 11   6   9  ar  
 12   6  27  1   
 13   7  10  2   
 14   7  11  am  
 15   8   9  ar  
 16   8  28  1   
 17   9  29  1   
 18  11  12  1   
 19  11  13  1   
 20  12  14  1   
 21  12  30  1   
 22  12  31  1   
 23  13  15  1   
 24  13  32  1   
 25  13  33  1   
 26  14  15  1   
 27  14  16  1   
 28  14  34  1   
 29  15  17  1   
 30  15  35  1   
 31  16  36  1   
 32  17  18  1   
 33  17  37  1   
 34  17  38  1   
 35  18  19  ar  
 36  18  20  ar  
 37  19  21  ar  
 38  20  22  ar  
 39  20  39  1   
 40  21  23  ar  
 41  21  40  1   
 42  22  23  ar  
 43  23  41  1   
@<TRIPOS>SUBSTRUCTURE
  1 ****  11 GROUP 4 **** **** 0

# MOE 2024.06 (io_trps.svl 2023.06)
