@<TRIPOS>MOLECULE
NONAME
44 47 1 0 0 
SMALL
USER_CHARGES


@<TRIPOS>ATOM
  1 O       -3.5610    -1.6380    -2.6970 O.2   1 <1>  -0.5700 
  2 C       -3.1730    -1.5670    -1.5570 C.2   1 <1>   0.5690 
  3 N       -3.5560    -0.5390    -0.7700 N.am  1 <1>  -0.7300 
  4 C       -2.2220    -2.6180    -1.0210 C.3   1 <1>  -0.0190 
  5 C       -3.1700    -0.4000     0.6640 C.3   1 <1>   0.2200 
  6 C       -0.8850    -1.9790    -0.6120 C.3   1 <1>   0.1200 
  7 C       -2.8520    -3.4900     0.0860 C.3   1 <1>   0.2090 
  8 C       -1.6450    -0.2020     0.7760 C.3   1 <1>   0.1200 
  9 C       -3.6530    -1.5760     1.5560 C.3   1 <1>   0.2090 
 10 O       -0.9300    -1.4020     0.6590 O.3   1 <1>  -0.5600 
 11 N       -3.9910    -2.8300     0.8030 N.pl3 1 <1>  -0.8380 
 12 C       -5.3040    -3.1640     0.5270 C.ar  1 <1>   0.7200 
 13 N       -6.2210    -2.2130     0.6880 N.ar  1 <1>  -0.6200 
 14 N       -5.5380    -4.4070     0.1210 N.ar  1 <1>  -0.6200 
 15 C       -7.4580    -2.5360     0.4060 C.ar  1 <1>   0.1670 
 16 C       -6.7780    -4.7150    -0.1590 C.ar  1 <1>   0.1670 
 17 C       -7.8070    -3.8020    -0.0260 C.ar  1 <1>  -0.1430 
 18 C       -8.4880    -1.4330     0.6000 C.3   1 <1>  -0.0170 
 19 C       -7.0060    -6.1370    -0.6370 C.3   1 <1>  -0.0970 
 20 C       -9.2560    -4.1650    -0.3520 C.3   1 <1>  -0.0170 
 21 C       -9.8330    -1.7330    -0.0730 C.3   1 <1>  -0.1600 
 22 C      -10.2670    -3.1690     0.2280 C.3   1 <1>  -0.1600 
 23 H       -4.3930    -0.0430    -1.0760 H     1 <1>   0.3700 
 24 H       -1.9970    -3.2720    -1.8430 H     1 <1>   0.0800 
 25 H       -3.6280     0.4990     1.0350 H     1 <1>   0.0800 
 26 H       -0.5760    -1.2340    -1.3270 H     1 <1>   0.0800 
 27 H       -0.1270    -2.7420    -0.5740 H     1 <1>   0.0800 
 28 H       -2.1020    -3.7650     0.8070 H     1 <1>   0.0800 
 29 H       -3.1870    -4.4050    -0.3700 H     1 <1>   0.0800 
 30 H       -1.4160     0.1930     1.7500 H     1 <1>   0.0800 
 31 H       -1.2910     0.4970     0.0380 H     1 <1>   0.0800 
 32 H       -4.5070    -1.2460     2.1190 H     1 <1>   0.0800 
 33 H       -2.8980    -1.8100     2.2860 H     1 <1>   0.0800 
 34 H       -8.6380    -1.3050     1.6570 H     1 <1>   0.0800 
 35 H       -8.0950    -0.5110     0.2100 H     1 <1>   0.0800 
 36 H       -7.6950    -6.1560    -1.4600 H     1 <1>   0.0800 
 37 H       -7.3910    -6.7310     0.1710 H     1 <1>   0.0800 
 38 H       -6.0790    -6.5690    -0.9680 H     1 <1>   0.0800 
 39 H       -9.3640    -4.1900    -1.4230 H     1 <1>   0.0800 
 40 H       -9.4870    -5.1440     0.0290 H     1 <1>   0.0800 
 41 H      -10.5760    -1.0390     0.2800 H     1 <1>   0.0800 
 42 H       -9.7350    -1.6040    -1.1380 H     1 <1>   0.0800 
 43 H      -11.2400    -3.3550    -0.1940 H     1 <1>   0.0800 
 44 H      -10.3340    -3.3070     1.2940 H     1 <1>   0.0800 
@<TRIPOS>BOND
  1   1   2  2   
  2   2   3  am  
  3   2   4  1   
  4   3   5  1   
  5   3  23  1   
  6   4   6  1   
  7   4   7  1   
  8   4  24  1   
  9   5   8  1   
 10   5   9  1   
 11   5  25  1   
 12   6  10  1   
 13   6  26  1   
 14   6  27  1   
 15   7  11  1   
 16   7  28  1   
 17   7  29  1   
 18   8  10  1   
 19   8  30  1   
 20   8  31  1   
 21   9  11  1   
 22   9  32  1   
 23   9  33  1   
 24  11  12  1   
 25  12  13  ar  
 26  12  14  ar  
 27  13  15  ar  
 28  14  16  ar  
 29  15  17  ar  
 30  15  18  1   
 31  16  17  ar  
 32  16  19  1   
 33  17  20  1   
 34  18  21  1   
 35  18  34  1   
 36  18  35  1   
 37  19  36  1   
 38  19  37  1   
 39  19  38  1   
 40  20  22  1   
 41  20  39  1   
 42  20  40  1   
 43  21  22  1   
 44  21  41  1   
 45  21  42  1   
 46  22  43  1   
 47  22  44  1   
@<TRIPOS>SUBSTRUCTURE
  1 ****  12 GROUP 4 **** **** 0

# MOE 2024.06 (io_trps.svl 2023.06)
