@<TRIPOS>MOLECULE
NONAME
45 48 1 0 0 
SMALL
USER_CHARGES


@<TRIPOS>ATOM
  1 S       -0.5650    -0.9350    -1.1290 S.o2  1 <1>   1.5000 
  2 O       -1.0470    -2.2500    -1.4940 O.2   1 <1>  -0.6500 
  3 O       -0.4150     0.0690    -2.1600 O.2   1 <1>  -0.6500 
  4 N       -1.6470    -0.3000     0.0130 N.am  1 <1>  -0.8490 
  5 C        0.9840    -1.0910    -0.2050 C.2   1 <1>  -0.0220 
  6 C       -1.3770     1.1020     0.3840 C.3   1 <1>   0.1960 
  7 C       -3.0440    -0.6000    -0.3330 C.3   1 <1>   0.1960 
  8 S        0.9790    -2.0530     1.2680 S.3   1 <1>  -0.0800 
  9 C        2.2240    -0.5990    -0.4080 C.2   1 <1>  -0.1500 
 10 C       -2.3750     2.0550    -0.2710 C.3   1 <1>  -0.1600 
 11 C       -4.0100     0.2540     0.4860 C.3   1 <1>  -0.1600 
 12 C        2.6780    -1.7400     1.5480 C.2   1 <1>  -0.1100 
 13 C        3.2060    -0.9560     0.5820 C.2   1 <1>  -0.0010 
 14 C       -3.7990     1.7570     0.2270 C.3   1 <1>   0.4180 
 15 C        4.5760    -0.5060     0.5090 C.2   1 <1>   0.1410 
 16 O       -3.9780     2.3750     1.4770 O.3   1 <1>  -0.5600 
 17 C       -4.8340     2.2600    -0.7790 C.2   1 <1>  -0.2880 
 18 O        4.9920     0.2800    -0.4590 O.3   1 <1>  -0.0190 
 19 C        5.6450    -0.7330     1.3010 C.2   1 <1>  -0.1500 
 20 C       -4.3370     3.7300     1.4950 C.3   1 <1>   0.1200 
 21 C       -5.7100     3.2370    -0.5310 C.2   1 <1>  -0.2760 
 22 N        6.2550     0.5810    -0.3560 N.2   1 <1>  -0.4100 
 23 C        6.6730    -0.0190     0.7000 C.2   1 <1>   0.1390 
 24 C       -5.6920     3.9450     0.8100 C.3   1 <1>  -0.0220 
 25 C       -6.7690     3.7140    -1.5090 C.3   1 <1>  -0.1020 
 26 H       -0.3720     1.3830     0.1160 H     1 <1>   0.0800 
 27 H       -1.4640     1.1960     1.4540 H     1 <1>   0.0800 
 28 H       -3.2360    -1.6450    -0.1510 H     1 <1>   0.0800 
 29 H       -3.2090    -0.4120    -1.3830 H     1 <1>   0.0800 
 30 H        2.4960     0.0230    -1.2440 H     1 <1>   0.1500 
 31 H       -2.3200     1.9260    -1.3370 H     1 <1>   0.0800 
 32 H       -2.1060     3.0720    -0.0640 H     1 <1>   0.0800 
 33 H       -3.8500     0.0300     1.5260 H     1 <1>   0.0800 
 34 H       -5.0210    -0.0180     0.2460 H     1 <1>   0.0800 
 35 H        3.1200    -2.1820     2.4230 H     1 <1>   0.1500 
 36 H       -4.7930     1.7340    -1.7150 H     1 <1>   0.1500 
 37 H        5.7140    -1.3240     2.1940 H     1 <1>   0.1500 
 38 H       -3.5720     4.2980     0.9950 H     1 <1>   0.0800 
 39 H       -4.3840     4.0440     2.5230 H     1 <1>   0.0800 
 40 H        7.6860     0.0320     1.0610 H     1 <1>   0.1500 
 41 H       -5.8440     5.0010     0.6770 H     1 <1>   0.0800 
 42 H       -6.4820     3.5660     1.4340 H     1 <1>   0.0800 
 43 H       -7.7490     3.5870    -1.0830 H     1 <1>   0.0800 
 44 H       -6.7190     3.1500    -2.4230 H     1 <1>   0.0800 
 45 H       -6.6210     4.7530    -1.7410 H     1 <1>   0.0800 
@<TRIPOS>BOND
  1   1   2  2   
  2   1   3  2   
  3   1   4  am  
  4   1   5  1   
  5   4   6  1   
  6   4   7  1   
  7   5   8  1   
  8   5   9  2   
  9   6  10  1   
 10   6  26  1   
 11   6  27  1   
 12   7  11  1   
 13   7  28  1   
 14   7  29  1   
 15   8  12  1   
 16   9  13  1   
 17   9  30  1   
 18  10  14  1   
 19  10  31  1   
 20  10  32  1   
 21  11  14  1   
 22  11  33  1   
 23  11  34  1   
 24  12  13  2   
 25  12  35  1   
 26  13  15  1   
 27  14  16  1   
 28  14  17  1   
 29  15  18  1   
 30  15  19  2   
 31  16  20  1   
 32  17  21  2   
 33  17  36  1   
 34  18  22  1   
 35  19  23  1   
 36  19  37  1   
 37  20  24  1   
 38  20  38  1   
 39  20  39  1   
 40  21  24  1   
 41  21  25  1   
 42  22  23  2   
 43  23  40  1   
 44  24  41  1   
 45  24  42  1   
 46  25  43  1   
 47  25  44  1   
 48  25  45  1   
@<TRIPOS>SUBSTRUCTURE
  1 ****   6 GROUP 4 **** **** 0

# MOE 2024.06 (io_trps.svl 2023.06)
