@<TRIPOS>MOLECULE
NONAME
43 46 1 0 0 
SMALL
USER_CHARGES


@<TRIPOS>ATOM
  1 O        0.6940     0.0140    -0.6040 O.2   1 <1>  -0.5700 
  2 C        1.2910    -0.9680    -0.2460 C.2   1 <1>   0.5690 
  3 N        0.6430    -2.0830     0.1480 N.am  1 <1>  -0.7300 
  4 C        2.8050    -0.9910    -0.2100 C.3   1 <1>  -0.0990 
  5 C        1.3450    -3.3050     0.5930 C.3   1 <1>   0.1400 
  6 C        3.3460    -2.3250    -0.7640 C.3   1 <1>  -0.0800 
  7 C        2.5450    -3.5740    -0.3360 C.3   1 <1>  -0.0800 
  8 C        4.7990    -2.5950    -0.3620 C.3   1 <1>  -0.1600 
  9 C        3.5680    -4.5340     0.2840 C.3   1 <1>  -0.1600 
 10 C        4.9270    -4.1160    -0.2810 C.3   1 <1>   0.1900 
 11 N        6.0400    -4.5630     0.5870 N.3   1 <1>  -0.8100 
 12 C        7.3760    -4.0930     0.1160 C.3   1 <1>   0.2900 
 13 C        6.0640    -6.0300     0.7280 C.3   1 <1>   0.0300 
 14 C        7.7220    -2.6630     0.5200 C.2   1 <1>   0.2980 
 15 O        7.6270    -2.3220     1.7790 O.3   1 <1>  -0.0190 
 16 N        8.1130    -1.7440    -0.2650 N.2   1 <1>  -0.5650 
 17 N        7.9790    -1.0730     1.7980 N.2   1 <1>  -0.4100 
 18 C        8.2640    -0.7280     0.5920 C.2   1 <1>   0.5150 
 19 C        8.6950     0.5940     0.1910 C.2   1 <1>   0.1410 
 20 O        8.9880     0.8760    -1.0770 O.3   1 <1>  -0.2800 
 21 C        8.8770     1.7200     0.9350 C.2   1 <1>  -0.1500 
 22 C        9.3490     2.1400    -1.1560 C.2   1 <1>  -0.0100 
 23 C        9.3010     2.7220     0.0590 C.2   1 <1>  -0.1500 
 24 H       -0.3780    -2.0600     0.1630 H     1 <1>   0.3700 
 25 H        3.1930    -0.1670    -0.7800 H     1 <1>   0.0800 
 26 H        3.1030    -0.8610     0.8140 H     1 <1>   0.0800 
 27 H        1.6830    -3.1530     1.6040 H     1 <1>   0.0800 
 28 H        0.6700    -4.1430     0.5780 H     1 <1>   0.0800 
 29 H        3.2990    -2.2730    -1.8400 H     1 <1>   0.0800 
 30 H        2.1620    -4.0330    -1.2320 H     1 <1>   0.0800 
 31 H        4.9900    -2.1770     0.6110 H     1 <1>   0.0800 
 32 H        5.4760    -2.1710    -1.0820 H     1 <1>   0.0800 
 33 H        3.3310    -5.5540     0.0430 H     1 <1>   0.0800 
 34 H        3.5880    -4.4080     1.3530 H     1 <1>   0.0800 
 35 H        5.0410    -4.5180    -1.2750 H     1 <1>   0.0800 
 36 H        8.1420    -4.7180     0.5400 H     1 <1>   0.0800 
 37 H        7.4380    -4.1850    -0.9540 H     1 <1>   0.0800 
 38 H        6.8900    -6.3290     1.3520 H     1 <1>   0.0800 
 39 H        6.1620    -6.5020    -0.2360 H     1 <1>   0.0800 
 40 H        5.1640    -6.3790     1.2020 H     1 <1>   0.0800 
 41 H        8.7270     1.8310     1.9940 H     1 <1>   0.1500 
 42 H        9.6230     2.5430    -2.1160 H     1 <1>   0.1500 
 43 H        9.5340     3.7370     0.3300 H     1 <1>   0.1500 
@<TRIPOS>BOND
  1   1   2  2   
  2   2   3  am  
  3   2   4  1   
  4   3   5  1   
  5   3  24  1   
  6   4   6  1   
  7   4  25  1   
  8   4  26  1   
  9   5   7  1   
 10   5  27  1   
 11   5  28  1   
 12   6   7  1   
 13   6   8  1   
 14   6  29  1   
 15   7   9  1   
 16   7  30  1   
 17   8  10  1   
 18   8  31  1   
 19   8  32  1   
 20   9  10  1   
 21   9  33  1   
 22   9  34  1   
 23  10  11  1   
 24  10  35  1   
 25  11  12  1   
 26  11  13  1   
 27  12  14  1   
 28  12  36  1   
 29  12  37  1   
 30  13  38  1   
 31  13  39  1   
 32  13  40  1   
 33  14  15  1   
 34  14  16  2   
 35  15  17  1   
 36  16  18  1   
 37  17  18  2   
 38  18  19  1   
 39  19  20  1   
 40  19  21  2   
 41  20  22  1   
 42  21  23  1   
 43  21  41  1   
 44  22  23  2   
 45  22  42  1   
 46  23  43  1   
@<TRIPOS>SUBSTRUCTURE
  1 ****   8 GROUP 4 **** **** 0

# MOE 2024.06 (io_trps.svl 2023.06)
