@<TRIPOS>MOLECULE
NONAME
35 36 1 0 0 
SMALL
USER_CHARGES


@<TRIPOS>ATOM
  1 S        0.8790     0.4530    -1.1380 S.3   1 <1>  -0.0800 
  2 C        0.9010     2.1690    -0.8050 C.2   1 <1>  -0.1100 
  3 C       -0.8580     0.4770    -1.3490 C.2   1 <1>  -0.1100 
  4 C       -0.3420     2.7160    -0.8520 C.2   1 <1>  -0.0860 
  5 C       -1.3370     1.7200    -1.1680 C.2   1 <1>  -0.1500 
  6 C       -0.6990     4.1030    -0.6270 C.2   1 <1>   0.7160 
  7 O       -1.8520     4.4730    -0.7430 O.2   1 <1>  -0.5700 
  8 N        0.2890     4.9920    -0.2790 N.am  1 <1>  -0.4940 
  9 C        0.2300     6.3830    -0.0140 C.2   1 <1>  -0.0880 
 10 N        1.2950     7.1730     0.3130 N.pl3 1 <1>   0.3140 
 11 C       -0.8490     7.2000    -0.0270 C.2   1 <1>  -0.1500 
 12 N        0.9120     8.4580     0.5040 N.2   1 <1>  -0.7070 
 13 C        2.7320     6.8010     0.4630 C.3   1 <1>   0.1760 
 14 C       -0.3650     8.4590     0.2990 C.2   1 <1>   0.1080 
 15 C        3.3170     6.3270    -0.8840 C.3   1 <1>  -0.1600 
 16 C        2.9220     5.7830     1.6030 C.3   1 <1>  -0.2400 
 17 C       -1.2010     9.7110     0.4110 C.3   1 <1>  -0.0590 
 18 C        4.8400     6.1320    -0.8520 C.3   1 <1>  -0.2400 
 19 H        1.8650     2.5990    -0.6050 H     1 <1>   0.1500 
 20 H       -1.3420    -0.4530    -1.5890 H     1 <1>   0.1500 
 21 H       -2.3760     1.9970    -1.2430 H     1 <1>   0.1500 
 22 H        1.2060     4.5650    -0.1950 H     1 <1>   0.3700 
 23 H       -1.8720     6.9500    -0.2410 H     1 <1>   0.1500 
 24 H        3.2470     7.7040     0.7450 H     1 <1>   0.0800 
 25 H        3.0910     7.0740    -1.6280 H     1 <1>   0.0800 
 26 H        2.8560     5.4070    -1.1920 H     1 <1>   0.0800 
 27 H        2.5310     4.8190     1.3410 H     1 <1>   0.0800 
 28 H        2.4260     6.1370     2.4900 H     1 <1>   0.0800 
 29 H        3.9660     5.6760     1.8330 H     1 <1>   0.0800 
 30 H       -2.2320     9.4940     0.2020 H     1 <1>   0.0800 
 31 H       -0.8450    10.4430    -0.2900 H     1 <1>   0.0800 
 32 H       -1.1170    10.1090     1.4050 H     1 <1>   0.0800 
 33 H        5.3280     7.0340    -0.5240 H     1 <1>   0.0800 
 34 H        5.1980     5.8950    -1.8390 H     1 <1>   0.0800 
 35 H        5.1160     5.3280    -0.1940 H     1 <1>   0.0800 
@<TRIPOS>BOND
  1   1   2  1   
  2   1   3  1   
  3   2   4  2   
  4   2  19  1   
  5   3   5  2   
  6   3  20  1   
  7   4   5  1   
  8   4   6  1   
  9   5  21  1   
 10   6   7  2   
 11   6   8  am  
 12   8   9  1   
 13   8  22  1   
 14   9  10  1   
 15   9  11  2   
 16  10  12  1   
 17  10  13  1   
 18  11  14  1   
 19  11  23  1   
 20  12  14  2   
 21  13  15  1   
 22  13  16  1   
 23  13  24  1   
 24  14  17  1   
 25  15  18  1   
 26  15  25  1   
 27  15  26  1   
 28  16  27  1   
 29  16  28  1   
 30  16  29  1   
 31  17  30  1   
 32  17  31  1   
 33  17  32  1   
 34  18  33  1   
 35  18  34  1   
 36  18  35  1   
@<TRIPOS>SUBSTRUCTURE
  1 ****   8 GROUP 4 **** **** 0

# MOE 2024.06 (io_trps.svl 2023.06)
