@<TRIPOS>MOLECULE
NONAME
31 32 1 0 0 
SMALL
USER_CHARGES


@<TRIPOS>ATOM
  1 CL      -1.1490    -0.7360     0.5180 Cl    1 <1>  -0.1770 
  2 C       -0.5780    -2.3750     0.4480 C.ar  1 <1>   0.7970 
  3 N       -1.5020    -3.3010     0.5890 N.ar  1 <1>  -0.6200 
  4 N        0.7230    -2.5130     0.2590 N.ar  1 <1>  -0.6200 
  5 C       -1.0660    -4.5380     0.5270 C.ar  1 <1>   0.4100 
  6 C        1.1320    -3.7650     0.2180 C.ar  1 <1>   0.1600 
  7 N       -2.0640    -5.4580     0.6670 N.pl3 1 <1>  -0.8690 
  8 C        0.2890    -4.8440     0.3500 C.ar  1 <1>   0.0730 
  9 C       -2.2930    -6.5710    -0.2700 C.3   1 <1>   0.2890 
 10 C        0.8210    -6.1760     0.3220 C.1   1 <1>  -0.0730 
 11 C       -3.6450    -6.3690    -0.9410 C.3   1 <1>  -0.1600 
 12 C       -2.4840    -7.8510     0.5310 C.3   1 <1>  -0.1600 
 13 C        1.2670    -7.2800     0.3040 C.1   1 <1>  -0.2000 
 14 C       -4.6910    -6.8970     0.0490 C.3   1 <1>  -0.1600 
 15 C       -3.9400    -7.8300     1.0080 C.3   1 <1>  -0.1600 
 16 C        1.8180    -8.6610     0.2920 C.3   1 <1>   0.3200 
 17 O        2.4150    -8.8540    -0.9340 O.3   1 <1>  -0.6800 
 18 H        2.1860    -3.9380     0.0770 H     1 <1>   0.1500 
 19 H       -2.9470    -5.0430     0.9710 H     1 <1>   0.4000 
 20 H       -1.4950    -6.6460    -0.9890 H     1 <1>   0.0800 
 21 H       -3.6750    -6.9720    -1.8310 H     1 <1>   0.0800 
 22 H       -3.8130    -5.3420    -1.2170 H     1 <1>   0.0800 
 23 H       -1.7840    -7.9230     1.3460 H     1 <1>   0.0800 
 24 H       -2.3410    -8.6900    -0.1260 H     1 <1>   0.0800 
 25 H       -5.4800    -7.4160    -0.4680 H     1 <1>   0.0800 
 26 H       -5.1200    -6.0790     0.6030 H     1 <1>   0.0800 
 27 H       -3.9860    -7.4300     2.0070 H     1 <1>   0.0800 
 28 H       -4.3620    -8.8200     1.0110 H     1 <1>   0.0800 
 29 H        1.0330    -9.3890     0.4100 H     1 <1>   0.0800 
 30 H        2.5610    -8.7950     1.0590 H     1 <1>   0.0800 
 31 H        1.8590    -8.4480    -1.6250 H     1 <1>   0.4000 
@<TRIPOS>BOND
  1   1   2  1   
  2   2   3  ar  
  3   2   4  ar  
  4   3   5  ar  
  5   4   6  ar  
  6   5   7  1   
  7   5   8  ar  
  8   6   8  ar  
  9   6  18  1   
 10   7   9  1   
 11   7  19  1   
 12   8  10  1   
 13   9  11  1   
 14   9  12  1   
 15   9  20  1   
 16  10  13  3   
 17  11  14  1   
 18  11  21  1   
 19  11  22  1   
 20  12  15  1   
 21  12  23  1   
 22  12  24  1   
 23  13  16  1   
 24  14  15  1   
 25  14  25  1   
 26  14  26  1   
 27  15  27  1   
 28  15  28  1   
 29  16  17  1   
 30  16  29  1   
 31  16  30  1   
 32  17  31  1   
@<TRIPOS>SUBSTRUCTURE
  1 ****   5 GROUP 4 **** **** 0

# MOE 2024.06 (io_trps.svl 2023.06)
