@<TRIPOS>MOLECULE
NONAME
54 57 1 0 0 
SMALL
USER_CHARGES


@<TRIPOS>ATOM
  1 N       -1.2620    -0.0020     0.9820 N.ar  1 <1>  -0.6200 
  2 C       -0.1540     0.2200     1.6600 C.ar  1 <1>   0.7710 
  3 C       -1.7390     0.9950     0.2630 C.ar  1 <1>   0.4100 
  4 N        0.4950     1.3960     1.6520 N.ar  1 <1>  -0.1790 
  5 N        0.3160    -0.7950     2.3810 N.pl3 1 <1>  -0.9000 
  6 N       -2.8850     0.7320    -0.4110 N.pl3 1 <1>  -0.8380 
  7 C       -1.1030     2.2620     0.1900 C.ar  1 <1>  -0.1430 
  8 C        0.0350     2.4360     0.9160 C.ar  1 <1>   0.2110 
  9 C       -2.9910    -0.4690    -1.2980 C.3   1 <1>   0.2090 
 10 C       -4.1970     1.3060     0.0170 C.3   1 <1>   0.2090 
 11 C       -1.6920     3.3600    -0.7050 C.3   1 <1>  -0.0170 
 12 C       -3.9390    -1.5280    -0.6970 C.3   1 <1>   0.3430 
 13 C       -5.1370     0.2120     0.5780 C.3   1 <1>   0.3430 
 14 C       -0.7790     4.5720    -0.9340 C.3   1 <1>  -0.2400 
 15 N       -5.3070    -0.9740    -0.3500 N.4   1 <1>  -0.9590 
 16 C       -6.2330    -2.0150     0.2210 C.3   1 <1>   0.4230 
 17 C       -6.2760    -3.2840    -0.6540 C.3   1 <1>  -0.0170 
 18 C       -7.6530    -1.4450     0.3520 C.3   1 <1>  -0.1600 
 19 C       -7.3810    -4.2470    -0.2490 C.ar  1 <1>  -0.1430 
 20 C       -8.5560    -2.4330     1.0980 C.3   1 <1>  -0.0170 
 21 C       -8.4420    -3.8480     0.5550 C.ar  1 <1>  -0.1430 
 22 C       -7.3240    -5.5540    -0.7100 C.ar  1 <1>  -0.1500 
 23 C       -9.4280    -4.7630     0.8900 C.ar  1 <1>  -0.1500 
 24 C       -8.3110    -6.4610    -0.3720 C.ar  1 <1>  -0.1500 
 25 C       -9.3650    -6.0650     0.4290 C.ar  1 <1>  -0.1500 
 26 H        1.3430     1.4650     2.2090 H     1 <1>   0.4570 
 27 H        1.1530    -0.8270     2.9670 H     1 <1>   0.4000 
 28 H       -0.1980    -1.6810     2.3660 H     1 <1>   0.4000 
 29 H        0.5960     3.3560     0.9320 H     1 <1>   0.1500 
 30 H       -2.0170    -0.9070    -1.4380 H     1 <1>   0.0800 
 31 H       -3.3500    -0.1660    -2.2660 H     1 <1>   0.0800 
 32 H       -4.6650     1.7920    -0.8210 H     1 <1>   0.0800 
 33 H       -4.0370     2.0490     0.7800 H     1 <1>   0.0800 
 34 H       -2.6170     3.7090    -0.2800 H     1 <1>   0.0800 
 35 H       -1.9210     2.9350    -1.6690 H     1 <1>   0.0800 
 36 H       -3.4760    -1.9250     0.1910 H     1 <1>   0.0800 
 37 H       -4.0350    -2.3330    -1.4070 H     1 <1>   0.0800 
 38 H       -6.0910     0.6670     0.7790 H     1 <1>   0.0800 
 39 H       -4.7320    -0.1260     1.5170 H     1 <1>   0.0800 
 40 H       -0.6000     5.1030    -0.0160 H     1 <1>   0.0800 
 41 H       -1.2530     5.2530    -1.6200 H     1 <1>   0.0800 
 42 H        0.1590     4.2700    -1.3670 H     1 <1>   0.0800 
 43 H       -5.7350    -0.6340    -1.2200 H     1 <1>   0.4500 
 44 H       -5.8890    -2.2990     1.2030 H     1 <1>   0.0800 
 45 H       -5.3440    -3.8110    -0.5750 H     1 <1>   0.0800 
 46 H       -6.4410    -3.0140    -1.6820 H     1 <1>   0.0800 
 47 H       -8.0680    -1.2720    -0.6260 H     1 <1>   0.0800 
 48 H       -7.6720    -0.5240     0.9020 H     1 <1>   0.0800 
 49 H       -9.5790    -2.1030     1.0250 H     1 <1>   0.0800 
 50 H       -8.2930    -2.4500     2.1410 H     1 <1>   0.0800 
 51 H       -6.5140    -5.8800    -1.3380 H     1 <1>   0.1500 
 52 H      -10.2540    -4.4700     1.5150 H     1 <1>   0.1500 
 53 H       -8.2620    -7.4740    -0.7330 H     1 <1>   0.1500 
 54 H      -10.1350    -6.7690     0.6940 H     1 <1>   0.1500 
@<TRIPOS>BOND
  1   1   2  ar  
  2   1   3  ar  
  3   2   4  ar  
  4   2   5  1   
  5   3   6  1   
  6   3   7  ar  
  7   4   8  ar  
  8   4  26  1   
  9   5  27  1   
 10   5  28  1   
 11   6   9  1   
 12   6  10  1   
 13   7   8  ar  
 14   7  11  1   
 15   8  29  1   
 16   9  12  1   
 17   9  30  1   
 18   9  31  1   
 19  10  13  1   
 20  10  32  1   
 21  10  33  1   
 22  11  14  1   
 23  11  34  1   
 24  11  35  1   
 25  12  15  1   
 26  12  36  1   
 27  12  37  1   
 28  13  15  1   
 29  13  38  1   
 30  13  39  1   
 31  14  40  1   
 32  14  41  1   
 33  14  42  1   
 34  15  16  1   
 35  15  43  1   
 36  16  17  1   
 37  16  18  1   
 38  16  44  1   
 39  17  19  1   
 40  17  45  1   
 41  17  46  1   
 42  18  20  1   
 43  18  47  1   
 44  18  48  1   
 45  19  21  ar  
 46  19  22  ar  
 47  20  21  1   
 48  20  49  1   
 49  20  50  1   
 50  21  23  ar  
 51  22  24  ar  
 52  22  51  1   
 53  23  25  ar  
 54  23  52  1   
 55  24  25  ar  
 56  24  53  1   
 57  25  54  1   
@<TRIPOS>SUBSTRUCTURE
  1 ****  15 GROUP 4 **** **** 0

# MOE 2024.06 (io_trps.svl 2023.06)
