@<TRIPOS>MOLECULE
NONAME
58 61 1 0 0 
SMALL
USER_CHARGES


@<TRIPOS>ATOM
  1 O        0.3110     0.5260     0.3440 O.3   1 <1>  -0.5600 
  2 C        1.0620    -0.3650    -0.4480 C.3   1 <1>   0.2000 
  3 C        0.9590     1.0500     1.4670 C.3   1 <1>   0.1200 
  4 C        2.0630     0.3800    -1.3760 C.3   1 <1>   0.3430 
  5 C        0.0600    -1.2130    -1.2700 C.3   1 <1>   0.3430 
  6 C        1.5290     2.4320     1.1390 C.3   1 <1>  -0.1600 
  7 N        2.8670     1.4740    -0.7240 N.4   1 <1>  -0.9590 
  8 N       -1.1790    -1.5220    -0.4870 N.4   1 <1>  -0.9590 
  9 C        2.0050     2.6180    -0.3000 C.3   1 <1>   0.3430 
 10 C        3.9720     1.9540    -1.6070 C.3   1 <1>   0.4860 
 11 C       -0.9800    -2.6370     0.5160 C.3   1 <1>   0.3430 
 12 C       -2.3510    -1.8390    -1.3900 C.3   1 <1>   0.3430 
 13 C        4.9290     2.7620    -0.7540 C.ar  1 <1>  -0.1430 
 14 C       -2.2630    -2.9660     1.3150 C.3   1 <1>   0.2090 
 15 C       -3.6460    -2.1600    -0.6080 C.3   1 <1>   0.2090 
 16 C        5.7770     2.1250     0.1420 C.ar  1 <1>  -0.1500 
 17 C        4.9600     4.1460    -0.8580 C.ar  1 <1>  -0.1500 
 18 N       -3.4200    -3.2300     0.4080 N.pl3 1 <1>  -0.8380 
 19 C        6.6320     2.8670     0.9380 C.ar  1 <1>  -0.1500 
 20 C        5.8160     4.8850    -0.0610 C.ar  1 <1>  -0.1500 
 21 C       -3.5450    -4.5300    -0.0490 C.ar  1 <1>   0.4100 
 22 C        6.6500     4.2460     0.8390 C.ar  1 <1>  -0.1500 
 23 N       -2.5890    -4.9440    -0.8740 N.ar  1 <1>  -0.6200 
 24 C       -4.6210    -5.3430     0.3430 C.ar  1 <1>   0.1600 
 25 C       -2.7830    -6.1960    -1.2680 C.ar  1 <1>   0.1600 
 26 N       -4.8100    -6.5870    -0.0520 N.ar  1 <1>  -0.6200 
 27 C       -3.8520    -6.9900    -0.8730 C.ar  1 <1>   0.1600 
 28 H        1.6040    -1.0300     0.2040 H     1 <1>   0.0800 
 29 H        1.7320     0.3770     1.7990 H     1 <1>   0.0800 
 30 H        0.2320     1.1390     2.2590 H     1 <1>   0.0800 
 31 H        1.5110     0.8040    -2.1990 H     1 <1>   0.0800 
 32 H        2.7380    -0.3500    -1.7940 H     1 <1>   0.0800 
 33 H        0.5260    -2.1260    -1.6070 H     1 <1>   0.0800 
 34 H       -0.2160    -0.6480    -2.1440 H     1 <1>   0.0800 
 35 H        2.3360     2.6530     1.8170 H     1 <1>   0.0800 
 36 H        0.7670     3.1670     1.3310 H     1 <1>   0.0800 
 37 H        3.3380     1.1340     0.1250 H     1 <1>   0.4500 
 38 H       -1.4000    -0.6640     0.0480 H     1 <1>   0.4500 
 39 H        2.5520     3.5460    -0.3560 H     1 <1>   0.0800 
 40 H        1.1520     2.6950    -0.9540 H     1 <1>   0.0800 
 41 H        3.5840     2.5600    -2.4090 H     1 <1>   0.0800 
 42 H        4.5060     1.1200    -2.0320 H     1 <1>   0.0800 
 43 H       -0.2000    -2.3740     1.2090 H     1 <1>   0.0800 
 44 H       -0.6790    -3.5340     0.0000 H     1 <1>   0.0800 
 45 H       -2.1150    -2.6990    -1.9950 H     1 <1>   0.0800 
 46 H       -2.5420    -1.0110    -2.0520 H     1 <1>   0.0800 
 47 H       -2.5060    -2.1510     1.9740 H     1 <1>   0.0800 
 48 H       -2.0840    -3.8360     1.9250 H     1 <1>   0.0800 
 49 H       -4.4040    -2.4830    -1.3030 H     1 <1>   0.0800 
 50 H       -4.0110    -1.2730    -0.1190 H     1 <1>   0.0800 
 51 H        5.7950     1.0530     0.2320 H     1 <1>   0.1500 
 52 H        4.3270     4.6690    -1.5550 H     1 <1>   0.1500 
 53 H        7.2920     2.3750     1.6340 H     1 <1>   0.1500 
 54 H        5.8400     5.9590    -0.1390 H     1 <1>   0.1500 
 55 H        7.3170     4.8220     1.4580 H     1 <1>   0.1500 
 56 H       -5.3430    -4.9160     1.0140 H     1 <1>   0.1500 
 57 H       -2.0580    -6.6210    -1.9400 H     1 <1>   0.1500 
 58 H       -3.9220    -7.9970    -1.2480 H     1 <1>   0.1500 
@<TRIPOS>BOND
  1   1   2  1   
  2   1   3  1   
  3   2   4  1   
  4   2   5  1   
  5   2  28  1   
  6   3   6  1   
  7   3  29  1   
  8   3  30  1   
  9   4   7  1   
 10   4  31  1   
 11   4  32  1   
 12   5   8  1   
 13   5  33  1   
 14   5  34  1   
 15   6   9  1   
 16   6  35  1   
 17   6  36  1   
 18   7   9  1   
 19   7  10  1   
 20   7  37  1   
 21   8  11  1   
 22   8  12  1   
 23   8  38  1   
 24   9  39  1   
 25   9  40  1   
 26  10  13  1   
 27  10  41  1   
 28  10  42  1   
 29  11  14  1   
 30  11  43  1   
 31  11  44  1   
 32  12  15  1   
 33  12  45  1   
 34  12  46  1   
 35  13  16  ar  
 36  13  17  ar  
 37  14  18  1   
 38  14  47  1   
 39  14  48  1   
 40  15  18  1   
 41  15  49  1   
 42  15  50  1   
 43  16  19  ar  
 44  16  51  1   
 45  17  20  ar  
 46  17  52  1   
 47  18  21  1   
 48  19  22  ar  
 49  19  53  1   
 50  20  22  ar  
 51  20  54  1   
 52  21  23  ar  
 53  21  24  ar  
 54  22  55  1   
 55  23  25  ar  
 56  24  26  ar  
 57  24  56  1   
 58  25  27  ar  
 59  25  57  1   
 60  26  27  ar  
 61  27  58  1   
@<TRIPOS>SUBSTRUCTURE
  1 ****   2 GROUP 4 **** **** 0

# MOE 2024.06 (io_trps.svl 2023.06)
