@<TRIPOS>MOLECULE
NONAME
54 58 1 0 0 
SMALL
USER_CHARGES


@<TRIPOS>ATOM
  1 O        0.9100     0.0500    -0.9420 O.2   1 <1>  -0.5700 
  2 C        1.8650    -0.6890    -0.7880 C.2   1 <1>   0.5440 
  3 N        3.1230    -0.1300    -0.6630 N.am  1 <1>  -0.6600 
  4 C        1.6430    -2.1220    -0.7290 C.ar  1 <1>   0.0860 
  5 C        4.2630    -0.8270     0.0120 C.3   1 <1>   0.1400 
  6 C        3.3650     1.2800    -1.0790 C.3   1 <1>   0.1400 
  7 C        0.6430    -2.6510     0.0930 C.ar  1 <1>  -0.1500 
  8 C        2.4060    -3.0140    -1.4940 C.ar  1 <1>  -0.1500 
  9 C        4.7250    -0.1010     1.2830 C.3   1 <1>   0.1400 
 10 C        3.3070     2.2090     0.1380 C.3   1 <1>  -0.1600 
 11 C        0.4420    -4.0160     0.1490 C.ar  1 <1>  -0.1440 
 12 C        2.2030    -4.3830    -1.4350 C.ar  1 <1>  -0.1500 
 13 N        5.4660     1.1560     0.9600 N.am  1 <1>  -0.6600 
 14 C        4.6590     2.4070     0.8360 C.3   1 <1>   0.1400 
 15 C        1.2120    -4.8640    -0.6010 C.ar  1 <1>   0.0830 
 16 C       -0.5420    -4.8320     0.9320 C.3   1 <1>  -0.0170 
 17 C        6.8430     1.1330     0.8020 C.2   1 <1>   0.7150 
 18 O        0.8870    -6.1520    -0.4330 O.3   1 <1>  -0.3630 
 19 C       -0.1960    -6.2630     0.4800 C.3   1 <1>   0.1200 
 20 O        7.3530     0.0480     0.5660 O.2   1 <1>  -0.5700 
 21 C        7.6840     2.3160     0.8870 C.2   1 <1>   0.1020 
 22 N        7.4000     3.4350     1.5080 N.2   1 <1>  -0.3380 
 23 N        8.9050     2.4210     0.3240 N.pl3 1 <1>   0.0480 
 24 N        8.4090     4.2760     1.3320 N.2   1 <1>  -0.3380 
 25 C        9.2890     3.6580     0.6260 C.2   1 <1>   0.0060 
 26 C        9.6730     1.4690    -0.5210 C.3   1 <1>   0.0960 
 27 C       10.6160     4.2430     0.1790 C.3   1 <1>   0.0200 
 28 C       11.1200     1.9460    -0.7430 C.3   1 <1>  -0.1600 
 29 C       11.1920     3.4580    -1.0100 C.3   1 <1>  -0.1600 
 30 H        5.0890    -0.9170    -0.6720 H     1 <1>   0.0800 
 31 H        3.9670    -1.8200     0.2980 H     1 <1>   0.0800 
 32 H        2.6060     1.5760    -1.7830 H     1 <1>   0.0800 
 33 H        4.3170     1.3590    -1.5760 H     1 <1>   0.0800 
 34 H        0.0320    -1.9830     0.6750 H     1 <1>   0.1500 
 35 H        3.1660    -2.6200    -2.1460 H     1 <1>   0.1500 
 36 H        5.3780    -0.7580     1.8330 H     1 <1>   0.0800 
 37 H        3.8810     0.1120     1.9150 H     1 <1>   0.0800 
 38 H        2.5690     1.8540     0.8350 H     1 <1>   0.0800 
 39 H        2.9740     3.1760    -0.1920 H     1 <1>   0.0800 
 40 H        2.7890    -5.0690    -2.0190 H     1 <1>   0.1500 
 41 H        4.5050     2.8270     1.8160 H     1 <1>   0.0800 
 42 H        5.2150     3.1250     0.2580 H     1 <1>   0.0800 
 43 H       -1.5550    -4.5790     0.6730 H     1 <1>   0.0800 
 44 H       -0.3930    -4.7150     1.9900 H     1 <1>   0.0800 
 45 H       -1.0200    -6.7250    -0.0350 H     1 <1>   0.0800 
 46 H        0.1200    -6.8750     1.3050 H     1 <1>   0.0800 
 47 H        9.1680     1.3830    -1.4660 H     1 <1>   0.0800 
 48 H        9.6850     0.5020    -0.0510 H     1 <1>   0.0800 
 49 H       11.3000     4.2000     1.0080 H     1 <1>   0.0800 
 50 H       10.4830     5.2770    -0.0880 H     1 <1>   0.0800 
 51 H       11.5480     1.4060    -1.5690 H     1 <1>   0.0800 
 52 H       11.7030     1.7090     0.1320 H     1 <1>   0.0800 
 53 H       12.2130     3.7570    -1.1780 H     1 <1>   0.0800 
 54 H       10.6260     3.6920    -1.8950 H     1 <1>   0.0800 
@<TRIPOS>BOND
  1   1   2  2   
  2   2   3  am  
  3   2   4  1   
  4   3   5  1   
  5   3   6  1   
  6   4   7  ar  
  7   4   8  ar  
  8   5   9  1   
  9   5  30  1   
 10   5  31  1   
 11   6  10  1   
 12   6  32  1   
 13   6  33  1   
 14   7  11  ar  
 15   7  34  1   
 16   8  12  ar  
 17   8  35  1   
 18   9  13  1   
 19   9  36  1   
 20   9  37  1   
 21  10  14  1   
 22  10  38  1   
 23  10  39  1   
 24  11  15  ar  
 25  11  16  1   
 26  12  15  ar  
 27  12  40  1   
 28  13  14  1   
 29  13  17  am  
 30  14  41  1   
 31  14  42  1   
 32  15  18  1   
 33  16  19  1   
 34  16  43  1   
 35  16  44  1   
 36  17  20  2   
 37  17  21  1   
 38  18  19  1   
 39  19  45  1   
 40  19  46  1   
 41  21  22  2   
 42  21  23  1   
 43  22  24  1   
 44  23  25  1   
 45  23  26  1   
 46  24  25  2   
 47  25  27  1   
 48  26  28  1   
 49  26  47  1   
 50  26  48  1   
 51  27  29  1   
 52  27  49  1   
 53  27  50  1   
 54  28  29  1   
 55  28  51  1   
 56  28  52  1   
 57  29  53  1   
 58  29  54  1   
@<TRIPOS>SUBSTRUCTURE
  1 ****   5 GROUP 4 **** **** 0

# MOE 2024.06 (io_trps.svl 2023.06)
