@<TRIPOS>MOLECULE
NONAME
46 49 1 0 0 
SMALL
USER_CHARGES


@<TRIPOS>ATOM
  1 S        0.4760     1.1800    -0.8400 S.3   1 <1>  -0.0800 
  2 C        0.8210     2.5450     0.1800 C.2   1 <1>   0.4620 
  3 C       -1.1170     1.8310    -1.0720 C.2   1 <1>   0.1980 
  4 N       -0.1930     3.3340     0.2730 N.2   1 <1>  -0.3380 
  5 N        2.0590     2.6790     0.7750 N.pl3 1 <1>  -0.8220 
  6 N       -1.2850     2.9260    -0.4380 N.2   1 <1>  -0.3380 
  7 C       -2.0720     1.0390    -1.9720 C.3   1 <1>   1.2000 
  8 C        2.3530     3.8350     1.6840 C.3   1 <1>   0.2090 
  9 C        3.2490     1.7990     0.5270 C.3   1 <1>   0.2090 
 10 F       -2.3010    -0.1870    -1.5100 F     1 <1>  -0.3400 
 11 F       -3.2650     1.6080    -2.1130 F     1 <1>  -0.3400 
 12 F       -1.5920     0.8830    -3.2020 F     1 <1>  -0.3400 
 13 C        3.5780     4.6340     1.2020 C.3   1 <1>   0.2090 
 14 C        4.4740     2.6170     0.0690 C.3   1 <1>   0.2090 
 15 N        4.7720     3.7500     0.9990 N.pl3 1 <1>  -0.8380 
 16 C        6.0170     4.3420     0.8790 C.ar  1 <1>   0.4100 
 17 N        6.0660     5.4990     0.2440 N.ar  1 <1>  -0.6200 
 18 C        7.1580     3.7190     1.4040 C.ar  1 <1>   0.1600 
 19 C        7.3030     6.0190     0.1400 C.ar  1 <1>   0.3960 
 20 N        8.3840     4.1910     1.3200 N.ar  1 <1>  -0.6200 
 21 C        7.5410     7.2960    -0.5440 C.2   1 <1>   0.5440 
 22 C        8.4110     5.3500     0.6730 C.ar  1 <1>   0.1600 
 23 O        8.6550     7.5290    -0.9850 O.2   1 <1>  -0.5700 
 24 N        6.5870     8.2860    -0.7160 N.am  1 <1>  -0.6600 
 25 C        6.8650     9.5390    -1.4540 C.3   1 <1>   0.1400 
 26 C        5.2040     8.2830    -0.1880 C.3   1 <1>   0.1400 
 27 C        5.5130    10.2330    -1.5740 C.3   1 <1>  -0.1600 
 28 C        4.7040     9.7090    -0.3910 C.3   1 <1>  -0.1600 
 29 H        2.5460     3.4620     2.6740 H     1 <1>   0.0800 
 30 H        1.5060     4.4960     1.7430 H     1 <1>   0.0800 
 31 H        3.0340     1.0550    -0.2170 H     1 <1>   0.0800 
 32 H        3.4970     1.2860     1.4400 H     1 <1>   0.0800 
 33 H        3.8150     5.3930     1.9270 H     1 <1>   0.0800 
 34 H        3.3340     5.1240     0.2750 H     1 <1>   0.0800 
 35 H        4.2830     3.0110    -0.9150 H     1 <1>   0.0800 
 36 H        5.3290     1.9670     0.0030 H     1 <1>   0.0800 
 37 H        7.0160     2.7850     1.9150 H     1 <1>   0.1500 
 38 H        9.3800     5.8050     0.5570 H     1 <1>   0.1500 
 39 H        7.2920     9.3270    -2.4190 H     1 <1>   0.0800 
 40 H        7.5510    10.1370    -0.8790 H     1 <1>   0.0800 
 41 H        5.1860     8.0030     0.8520 H     1 <1>   0.0800 
 42 H        4.6110     7.5920    -0.7630 H     1 <1>   0.0800 
 43 H        5.0490     9.9330    -2.4970 H     1 <1>   0.0800 
 44 H        5.6120    11.3040    -1.5630 H     1 <1>   0.0800 
 45 H        4.9280    10.2860     0.4890 H     1 <1>   0.0800 
 46 H        3.6450     9.7380    -0.5720 H     1 <1>   0.0800 
@<TRIPOS>BOND
  1   1   2  1   
  2   1   3  1   
  3   2   4  2   
  4   2   5  1   
  5   3   6  2   
  6   3   7  1   
  7   4   6  1   
  8   5   8  1   
  9   5   9  1   
 10   7  10  1   
 11   7  11  1   
 12   7  12  1   
 13   8  13  1   
 14   8  29  1   
 15   8  30  1   
 16   9  14  1   
 17   9  31  1   
 18   9  32  1   
 19  13  15  1   
 20  13  33  1   
 21  13  34  1   
 22  14  15  1   
 23  14  35  1   
 24  14  36  1   
 25  15  16  1   
 26  16  17  ar  
 27  16  18  ar  
 28  17  19  ar  
 29  18  20  ar  
 30  18  37  1   
 31  19  21  1   
 32  19  22  ar  
 33  20  22  ar  
 34  21  23  2   
 35  21  24  am  
 36  22  38  1   
 37  24  25  1   
 38  24  26  1   
 39  25  27  1   
 40  25  39  1   
 41  25  40  1   
 42  26  28  1   
 43  26  41  1   
 44  26  42  1   
 45  27  28  1   
 46  27  43  1   
 47  27  44  1   
 48  28  45  1   
 49  28  46  1   
@<TRIPOS>SUBSTRUCTURE
  1 ****  13 GROUP 4 **** **** 0

# MOE 2024.06 (io_trps.svl 2023.06)
