@<TRIPOS>MOLECULE
NONAME
47 49 1 0 0 
SMALL
USER_CHARGES


@<TRIPOS>ATOM
  1 O       -0.6410     2.7680    -2.1540 O.2   1 <1>  -0.5700 
  2 C       -1.0990     2.4720    -1.0740 C.2   1 <1>   0.6900 
  3 N       -2.4290     2.3910    -0.7850 N.am  1 <1>  -0.4200 
  4 N       -0.3410     2.1370    -0.0120 N.am  1 <1>  -0.7300 
  5 C       -2.5830     1.9130     0.4820 C.2   1 <1>   0.5690 
  6 C       -3.5130     2.5240    -1.7990 C.3   1 <1>   0.2010 
  7 C       -1.1880     1.6790     1.0950 C.3   1 <1>   0.3610 
  8 O       -3.6430     1.6750     1.0170 O.2   1 <1>  -0.5700 
  9 C       -4.0370     1.1640    -2.2510 C.2   1 <1>   0.5690 
 10 C       -0.8950     0.2010     1.3620 C.3   1 <1>  -0.2400 
 11 C       -0.9120     2.5480     2.3230 C.3   1 <1>  -0.2400 
 12 O       -4.0070     0.8660    -3.4200 O.2   1 <1>  -0.5700 
 13 N       -4.5020     0.3000    -1.3150 N.am  1 <1>  -0.7300 
 14 C       -4.6800    -1.1500    -1.5290 C.3   1 <1>   0.2200 
 15 C       -5.4960    -1.7220    -0.3830 C.3   1 <1>  -0.0800 
 16 C       -3.3390    -1.8570    -1.3390 C.3   1 <1>   0.1200 
 17 C       -4.4250    -1.9130     0.6960 C.3   1 <1>   0.1200 
 18 C       -6.1680    -3.0510    -0.7800 C.3   1 <1>  -0.0170 
 19 O       -3.2110    -2.1150     0.0310 O.3   1 <1>  -0.5600 
 20 C       -6.9950    -3.6210     0.3620 C.ar  1 <1>  -0.1440 
 21 C       -6.5550    -4.6840     1.1250 C.ar  1 <1>  -0.1500 
 22 C       -8.2320    -3.1050     0.6930 C.ar  1 <1>  -0.1500 
 23 C       -7.3470    -5.1620     2.1550 C.ar  1 <1>   0.1600 
 24 C       -8.9460    -3.6580     1.7440 C.ar  1 <1>   0.1600 
 25 N       -8.5320    -4.6740     2.4840 N.ar  1 <1>  -0.6200 
 26 H        0.6410     1.8810    -0.1080 H     1 <1>   0.3700 
 27 H       -4.3240     3.0870    -1.3770 H     1 <1>   0.0800 
 28 H       -3.1400     3.0550    -2.6570 H     1 <1>   0.0800 
 29 H       -1.5630    -0.1710     2.1180 H     1 <1>   0.0800 
 30 H        0.1150     0.0670     1.7030 H     1 <1>   0.0800 
 31 H       -1.0500    -0.3810     0.4700 H     1 <1>   0.0800 
 32 H       -1.5700     2.2640     3.1240 H     1 <1>   0.0800 
 33 H       -1.0860     3.5850     2.0940 H     1 <1>   0.0800 
 34 H        0.1040     2.4240     2.6530 H     1 <1>   0.0800 
 35 H       -4.4320     0.5800    -0.3250 H     1 <1>   0.3700 
 36 H       -5.1050    -1.3310    -2.5020 H     1 <1>   0.0800 
 37 H       -6.2550    -1.0330    -0.0580 H     1 <1>   0.0800 
 38 H       -2.5070    -1.2620    -1.6750 H     1 <1>   0.0800 
 39 H       -3.3340    -2.8030    -1.8500 H     1 <1>   0.0800 
 40 H       -4.6150    -2.7500     1.3440 H     1 <1>   0.0800 
 41 H       -4.3230    -1.0210     1.2900 H     1 <1>   0.0800 
 42 H       -5.4260    -3.7710    -1.0780 H     1 <1>   0.0800 
 43 H       -6.8160    -2.8860    -1.6240 H     1 <1>   0.0800 
 44 H       -5.6040    -5.1450     0.9300 H     1 <1>   0.1500 
 45 H       -8.6480    -2.2790     0.1460 H     1 <1>   0.1500 
 46 H       -6.9860    -5.9910     2.7400 H     1 <1>   0.1500 
 47 H       -9.9080    -3.2420     1.9880 H     1 <1>   0.1500 
@<TRIPOS>BOND
  1   1   2  2   
  2   2   3  am  
  3   2   4  am  
  4   3   5  am  
  5   3   6  1   
  6   4   7  1   
  7   4  26  1   
  8   5   7  1   
  9   5   8  2   
 10   6   9  1   
 11   6  27  1   
 12   6  28  1   
 13   7  10  1   
 14   7  11  1   
 15   9  12  2   
 16   9  13  am  
 17  10  29  1   
 18  10  30  1   
 19  10  31  1   
 20  11  32  1   
 21  11  33  1   
 22  11  34  1   
 23  13  14  1   
 24  13  35  1   
 25  14  15  1   
 26  14  16  1   
 27  14  36  1   
 28  15  17  1   
 29  15  18  1   
 30  15  37  1   
 31  16  19  1   
 32  16  38  1   
 33  16  39  1   
 34  17  19  1   
 35  17  40  1   
 36  17  41  1   
 37  18  20  1   
 38  18  42  1   
 39  18  43  1   
 40  20  21  ar  
 41  20  22  ar  
 42  21  23  ar  
 43  21  44  1   
 44  22  24  ar  
 45  22  45  1   
 46  23  25  ar  
 47  23  46  1   
 48  24  25  ar  
 49  24  47  1   
@<TRIPOS>SUBSTRUCTURE
  1 ****  17 GROUP 4 **** **** 0

# MOE 2024.06 (io_trps.svl 2023.06)
