@<TRIPOS>MOLECULE
NONAME
42 44 1 0 0 
SMALL
USER_CHARGES


@<TRIPOS>ATOM
  1 S       -1.5740     0.1730     0.5490 S.3   1 <1>  -0.0800 
  2 C       -1.3680    -0.7450    -0.9430 C.2   1 <1>  -0.0450 
  3 C       -0.8450     1.6340    -0.1180 C.2   1 <1>  -0.0450 
  4 C       -1.7830    -2.1250    -1.0290 C.2   1 <1>   0.7150 
  5 C       -0.7610     0.0600    -1.8520 C.2   1 <1>  -0.1500 
  6 C       -0.7230     2.8220     0.6770 C.2   1 <1>   0.5940 
  7 C       -0.4790     1.3740    -1.4000 C.2   1 <1>  -0.1500 
  8 O       -1.1510    -2.8780    -1.7490 O.2   1 <1>  -0.5700 
  9 N       -2.8590    -2.6450    -0.3350 N.am  1 <1>  -0.6600 
 10 O       -0.2450     3.8430     0.2510 O.2   1 <1>  -0.5700 
 11 C       -1.2060     2.8340     2.1130 C.3   1 <1>  -0.1790 
 12 C       -4.1080    -1.8670    -0.0530 C.3   1 <1>   0.2200 
 13 C       -2.7900    -4.0590     0.1460 C.3   1 <1>   0.0600 
 14 C       -5.3500    -2.7340     0.1760 C.3   1 <1>  -0.1600 
 15 C       -4.5330    -0.9820    -1.2280 C.3   1 <1>  -0.1600 
 16 C       -6.5410    -1.8050    -0.0820 C.3   1 <1>  -0.0800 
 17 C       -6.0180    -0.6850    -0.9930 C.3   1 <1>  -0.0800 
 18 C       -7.0750    -1.1230     1.1850 C.3   1 <1>  -0.1600 
 19 C       -6.2640     0.6340    -0.2460 C.3   1 <1>  -0.1600 
 20 C       -7.3580     0.3090     0.7580 C.3   1 <1>   0.2000 
 21 O       -7.2760     1.1540     1.8420 O.3   1 <1>  -0.6800 
 22 H       -0.4990    -0.2570    -2.8470 H     1 <1>   0.1500 
 23 H       -0.0050     2.0960    -2.0440 H     1 <1>   0.1500 
 24 H       -0.6820     2.0880     2.6800 H     1 <1>   0.0800 
 25 H       -2.2610     2.6390     2.1450 H     1 <1>   0.0800 
 26 H       -1.0180     3.7960     2.5530 H     1 <1>   0.0800 
 27 H       -3.9580    -1.2560     0.8210 H     1 <1>   0.0800 
 28 H       -3.1370    -4.1240     1.1620 H     1 <1>   0.0800 
 29 H       -1.7740    -4.4160     0.1130 H     1 <1>   0.0800 
 30 H       -3.3910    -4.6900    -0.4850 H     1 <1>   0.0800 
 31 H       -5.3810    -3.5200    -0.5590 H     1 <1>   0.0800 
 32 H       -5.3750    -3.1610     1.1620 H     1 <1>   0.0800 
 33 H       -3.9580    -0.0780    -1.3020 H     1 <1>   0.0800 
 34 H       -4.4340    -1.5410    -2.1430 H     1 <1>   0.0800 
 35 H       -7.3410    -2.3390    -0.5700 H     1 <1>   0.0800 
 36 H       -6.5570    -0.6810    -1.9270 H     1 <1>   0.0800 
 37 H       -6.3250    -1.1310     1.9570 H     1 <1>   0.0800 
 38 H       -7.9670    -1.6040     1.5440 H     1 <1>   0.0800 
 39 H       -6.5740     1.4140    -0.9190 H     1 <1>   0.0800 
 40 H       -5.3730     0.9400     0.2730 H     1 <1>   0.0800 
 41 H       -8.3350     0.3980     0.3120 H     1 <1>   0.0800 
 42 H       -6.4040     1.0670     2.2670 H     1 <1>   0.4000 
@<TRIPOS>BOND
  1   1   2  1   
  2   1   3  1   
  3   2   4  1   
  4   2   5  2   
  5   3   6  1   
  6   3   7  2   
  7   4   8  2   
  8   4   9  am  
  9   5   7  1   
 10   5  22  1   
 11   6  10  2   
 12   6  11  1   
 13   7  23  1   
 14   9  12  1   
 15   9  13  1   
 16  11  24  1   
 17  11  25  1   
 18  11  26  1   
 19  12  14  1   
 20  12  15  1   
 21  12  27  1   
 22  13  28  1   
 23  13  29  1   
 24  13  30  1   
 25  14  16  1   
 26  14  31  1   
 27  14  32  1   
 28  15  17  1   
 29  15  33  1   
 30  15  34  1   
 31  16  17  1   
 32  16  18  1   
 33  16  35  1   
 34  17  19  1   
 35  17  36  1   
 36  18  20  1   
 37  18  37  1   
 38  18  38  1   
 39  19  20  1   
 40  19  39  1   
 41  19  40  1   
 42  20  21  1   
 43  20  41  1   
 44  21  42  1   
@<TRIPOS>SUBSTRUCTURE
  1 ****  12 GROUP 4 **** **** 0

# MOE 2024.06 (io_trps.svl 2023.06)
