@<TRIPOS>MOLECULE
NONAME
55 57 1 0 0 
SMALL
USER_CHARGES


@<TRIPOS>ATOM
  1 O        3.6880    -0.9060     1.3980 O.co2 1 <1>  -0.9000 
  2 C        3.5000    -0.5000     0.2540 C.2   1 <1>   0.9060 
  3 O        4.1140    -0.9900    -0.7100 O.co2 1 <1>  -0.9000 
  4 C        2.6880     0.7920     0.0470 C.3   1 <1>  -0.1060 
  5 C        2.5970     1.2030    -1.4550 C.3   1 <1>   0.2000 
  6 C        3.4800     1.9240     0.7580 C.3   1 <1>  -0.1600 
  7 C        1.2830     0.5890     0.6660 C.3   1 <1>  -0.0160 
  8 O        2.3230     0.0920    -2.2360 O.3   1 <1>  -0.6800 
  9 C        3.8910     1.8740    -1.9780 C.3   1 <1>   0.3430 
 10 C        4.9400     1.9900     0.2660 C.3   1 <1>   0.3430 
 11 C        0.3720     1.8110     0.5890 C.ar  1 <1>  -0.1440 
 12 N        5.0690     1.4970    -1.1430 N.4   1 <1>  -0.9590 
 13 C        0.4020     2.7750     1.5850 C.ar  1 <1>  -0.1500 
 14 C       -0.5080     1.9620    -0.4720 C.ar  1 <1>  -0.1500 
 15 C        6.3930     1.7700    -1.7520 C.3   1 <1>   0.4860 
 16 C       -0.4220     3.8850     1.5120 C.ar  1 <1>  -0.1500 
 17 C       -1.3340     3.0700    -0.5470 C.ar  1 <1>  -0.1500 
 18 C        6.5920     3.2580    -1.9960 C.ar  1 <1>  -0.1430 
 19 C       -1.2890     4.0340     0.4440 C.ar  1 <1>  -0.1500 
 20 C        7.2200     4.0410    -1.0330 C.ar  1 <1>   0.0820 
 21 C        6.1650     3.8380    -3.1820 C.ar  1 <1>  -0.1500 
 22 O        7.6330     3.4200     0.1030 O.3   1 <1>  -0.3620 
 23 C        7.4000     5.4030    -1.2610 C.ar  1 <1>  -0.1500 
 24 C        6.3460     5.1910    -3.4030 C.ar  1 <1>  -0.1500 
 25 C        8.2260     4.1370     1.1660 C.3   1 <1>   0.1200 
 26 C        6.9620     5.9730    -2.4420 C.ar  1 <1>  -0.1500 
 27 C        8.4870     3.1670     2.3180 C.3   1 <1>   0.1200 
 28 O        9.0230     3.8670     3.3870 O.3   1 <1>  -0.6800 
 29 H        1.7950     1.8980    -1.6200 H     1 <1>   0.0800 
 30 H        3.4890     1.7550     1.8210 H     1 <1>   0.0800 
 31 H        3.0090     2.8760     0.5880 H     1 <1>   0.0800 
 32 H        0.8040    -0.2390     0.1720 H     1 <1>   0.0800 
 33 H        1.3900     0.3020     1.6990 H     1 <1>   0.0800 
 34 H        2.9260    -0.6400    -1.9140 H     1 <1>   0.4000 
 35 H        3.7700     2.9440    -1.9390 H     1 <1>   0.0800 
 36 H        4.0410     1.5840    -3.0040 H     1 <1>   0.0800 
 37 H        5.5510     1.3710     0.9050 H     1 <1>   0.0800 
 38 H        5.2910     3.0050     0.3420 H     1 <1>   0.0800 
 39 H        4.9870     0.4490    -1.0640 H     1 <1>   0.4500 
 40 H        1.0650     2.6620     2.4240 H     1 <1>   0.1500 
 41 H       -0.5520     1.2120    -1.2440 H     1 <1>   0.1500 
 42 H        7.1700     1.4060    -1.1000 H     1 <1>   0.0800 
 43 H        6.4730     1.2420    -2.6880 H     1 <1>   0.0800 
 44 H       -0.3920     4.6300     2.2880 H     1 <1>   0.1500 
 45 H       -2.0120     3.1790    -1.3750 H     1 <1>   0.1500 
 46 H       -1.9310     4.8960     0.3860 H     1 <1>   0.1500 
 47 H        5.6930     3.2450    -3.9470 H     1 <1>   0.1500 
 48 H        7.8790     6.0380    -0.5390 H     1 <1>   0.1500 
 49 H        6.0120     5.6400    -4.3240 H     1 <1>   0.1500 
 50 H        9.1480     4.5640     0.8120 H     1 <1>   0.0800 
 51 H        7.5420     4.9060     1.4810 H     1 <1>   0.0800 
 52 H        7.1020     7.0270    -2.6180 H     1 <1>   0.1500 
 53 H        9.1820     2.3960     2.0320 H     1 <1>   0.0800 
 54 H        7.5640     2.7240     2.6500 H     1 <1>   0.0800 
 55 H        9.9610     4.0940     3.2300 H     1 <1>   0.4000 
@<TRIPOS>BOND
  1   1   2  ar  
  2   2   3  ar  
  3   2   4  1   
  4   4   5  1   
  5   4   6  1   
  6   4   7  1   
  7   5   8  1   
  8   5   9  1   
  9   5  29  1   
 10   6  10  1   
 11   6  30  1   
 12   6  31  1   
 13   7  11  1   
 14   7  32  1   
 15   7  33  1   
 16   8  34  1   
 17   9  12  1   
 18   9  35  1   
 19   9  36  1   
 20  10  12  1   
 21  10  37  1   
 22  10  38  1   
 23  11  13  ar  
 24  11  14  ar  
 25  12  15  1   
 26  12  39  1   
 27  13  16  ar  
 28  13  40  1   
 29  14  17  ar  
 30  14  41  1   
 31  15  18  1   
 32  15  42  1   
 33  15  43  1   
 34  16  19  ar  
 35  16  44  1   
 36  17  19  ar  
 37  17  45  1   
 38  18  20  ar  
 39  18  21  ar  
 40  19  46  1   
 41  20  22  1   
 42  20  23  ar  
 43  21  24  ar  
 44  21  47  1   
 45  22  25  1   
 46  23  26  ar  
 47  23  48  1   
 48  24  26  ar  
 49  24  49  1   
 50  25  27  1   
 51  25  50  1   
 52  25  51  1   
 53  26  52  1   
 54  27  28  1   
 55  27  53  1   
 56  27  54  1   
 57  28  55  1   
@<TRIPOS>SUBSTRUCTURE
  1 ****  10 GROUP 4 **** **** 0

# MOE 2024.06 (io_trps.svl 2023.06)
