@<TRIPOS>MOLECULE
NONAME
46 48 1 0 0 
SMALL
USER_CHARGES


@<TRIPOS>ATOM
  1 O       -1.0490     1.0300    -0.8020 O.2   1 <1>  -0.5700 
  2 C       -0.7090     2.2150    -0.7380 C.2   1 <1>   0.5440 
  3 N       -1.6350     3.1260    -1.2310 N.am  1 <1>  -0.6600 
  4 C        0.5200     2.5600    -0.0560 C.ar  1 <1>   0.0860 
  5 C       -2.5700     2.7410    -2.3210 C.3   1 <1>   0.1400 
  6 C       -1.5210     4.5860    -0.9870 C.3   1 <1>   0.1400 
  7 C        1.4300     3.5670    -0.4940 C.ar  1 <1>  -0.1710 
  8 C        0.8680     1.8830     1.1300 C.ar  1 <1>   0.0820 
  9 C       -3.7380     3.7340    -2.4350 C.3   1 <1>  -0.1600 
 10 C       -2.8800     5.1700    -0.5710 C.3   1 <1>  -0.1600 
 11 O        1.2820     4.1990    -1.5670 O.3   1 <1>  -0.8290 
 12 C        2.5540     3.8840     0.2830 C.ar  1 <1>  -0.1500 
 13 O        0.1050     0.8610     1.5600 O.3   1 <1>  -0.5320 
 14 C        1.9790     2.2080     1.8790 C.ar  1 <1>  -0.1500 
 15 C       -4.1010     4.3620    -1.0810 C.3   1 <1>   0.2800 
 16 C        2.8270     3.2240     1.4530 C.ar  1 <1>  -0.1500 
 17 O       -5.1390     5.2550    -1.3580 O.3   1 <1>  -0.5600 
 18 C       -4.5820     3.2650    -0.0860 C.3   1 <1>  -0.1600 
 19 C       -5.7780     5.9370    -0.3040 C.3   1 <1>   0.1200 
 20 C       -5.8890     3.5750     0.6620 C.3   1 <1>   0.2800 
 21 C       -5.9900     5.0880     0.9670 C.3   1 <1>   0.2000 
 22 O       -6.9500     3.2270    -0.1550 O.3   1 <1>  -0.6800 
 23 C       -6.0390     2.6960     1.9080 C.3   1 <1>  -0.2400 
 24 O       -5.0400     5.4620     1.9210 O.3   1 <1>  -0.6800 
 25 H       -2.0260     2.7000    -3.2490 H     1 <1>   0.0800 
 26 H       -2.9570     1.7580    -2.1190 H     1 <1>   0.0800 
 27 H       -0.7960     4.7950    -0.2210 H     1 <1>   0.0800 
 28 H       -1.1720     5.0510    -1.8940 H     1 <1>   0.0800 
 29 H       -4.5910     3.2330    -2.8550 H     1 <1>   0.0800 
 30 H       -3.4510     4.5160    -3.1160 H     1 <1>   0.0800 
 31 H       -2.9210     6.1710    -0.9590 H     1 <1>   0.0800 
 32 H       -2.8850     5.2380     0.4960 H     1 <1>   0.0800 
 33 H        3.1920     4.6650    -0.0860 H     1 <1>   0.1500 
 34 H       -0.5250     0.6180     0.8340 H     1 <1>   0.4500 
 35 H        2.1900     1.6700     2.7840 H     1 <1>   0.1500 
 36 H        3.6930     3.4810     2.0350 H     1 <1>   0.1500 
 37 H       -4.6840     2.3190    -0.5840 H     1 <1>   0.0800 
 38 H       -3.7970     3.1130     0.6330 H     1 <1>   0.0800 
 39 H       -5.2200     6.8290    -0.0820 H     1 <1>   0.0800 
 40 H       -6.7400     6.2280    -0.6840 H     1 <1>   0.0800 
 41 H       -6.9510     5.3100     1.3960 H     1 <1>   0.0800 
 42 H       -6.7920     2.3410    -0.5280 H     1 <1>   0.4000 
 43 H       -5.2460     2.8990     2.6050 H     1 <1>   0.0800 
 44 H       -5.9960     1.6540     1.6480 H     1 <1>   0.0800 
 45 H       -6.9730     2.9050     2.3980 H     1 <1>   0.0800 
 46 H       -4.1480     5.2360     1.5940 H     1 <1>   0.4000 
@<TRIPOS>BOND
  1   1   2  2   
  2   2   3  am  
  3   2   4  1   
  4   3   5  1   
  5   3   6  1   
  6   4   7  ar  
  7   4   8  ar  
  8   5   9  1   
  9   5  25  1   
 10   5  26  1   
 11   6  10  1   
 12   6  27  1   
 13   6  28  1   
 14   7  11  1   
 15   7  12  ar  
 16   8  13  1   
 17   8  14  ar  
 18   9  15  1   
 19   9  29  1   
 20   9  30  1   
 21  10  15  1   
 22  10  31  1   
 23  10  32  1   
 24  12  16  ar  
 25  12  33  1   
 26  13  34  1   
 27  14  16  ar  
 28  14  35  1   
 29  15  17  1   
 30  15  18  1   
 31  16  36  1   
 32  17  19  1   
 33  18  20  1   
 34  18  37  1   
 35  18  38  1   
 36  19  21  1   
 37  19  39  1   
 38  19  40  1   
 39  20  21  1   
 40  20  22  1   
 41  20  23  1   
 42  21  24  1   
 43  21  41  1   
 44  22  42  1   
 45  23  43  1   
 46  23  44  1   
 47  23  45  1   
 48  24  46  1   
@<TRIPOS>SUBSTRUCTURE
  1 ****   3 GROUP 4 **** **** 0

# MOE 2024.06 (io_trps.svl 2023.06)
