@<TRIPOS>MOLECULE
NONAME
44 46 1 0 0 
SMALL
USER_CHARGES


@<TRIPOS>ATOM
  1 O        0.3690    -0.1600    -0.3540 O.3   1 <1>  -0.6800 
  2 C        1.7000    -0.2410    -0.7390 C.3   1 <1>   0.2000 
  3 C        2.3870    -1.4180    -0.0600 C.3   1 <1>  -0.0800 
  4 C        2.4840     0.9770    -0.2590 C.3   1 <1>   0.2090 
  5 C        3.8610    -1.0080    -0.0610 C.3   1 <1>   0.2090 
  6 C        2.1170    -2.7690    -0.7450 C.3   1 <1>  -0.0170 
  7 N        3.8780     0.4890    -0.0360 N.pl3 1 <1>  -0.8380 
  8 C        2.8540    -3.9070    -0.0570 C.ar  1 <1>   0.1660 
  9 C        5.0290     1.2090    -0.0540 C.ar  1 <1>   0.4100 
 10 N        4.1020    -4.1200    -0.4420 N.ar  1 <1>  -0.6200 
 11 C        2.2100    -4.6630     0.9220 C.ar  1 <1>   0.1600 
 12 N        6.1200     0.4950    -0.3680 N.ar  1 <1>  -0.6200 
 13 C        5.1470     2.5990     0.2050 C.ar  1 <1>  -0.1430 
 14 C        4.6560    -5.1310     0.2080 C.ar  1 <1>   0.1600 
 15 N        2.7630    -5.6720     1.5730 N.ar  1 <1>  -0.6200 
 16 C        7.2520     1.0970    -0.5180 C.ar  1 <1>   0.5280 
 17 C        6.3670     3.1990     0.0040 C.ar  1 <1>   0.2180 
 18 C        3.9650     3.4110     0.7480 C.3   1 <1>  -0.0970 
 19 C        4.0090    -5.8810     1.1820 C.ar  1 <1>   0.1600 
 20 N        7.4040     2.4220    -0.3610 N.ar  1 <1>  -0.1790 
 21 C        8.4630     0.2680    -0.8920 C.3   1 <1>  -0.0970 
 22 C        6.6560     4.6860     0.1750 C.3   1 <1>  -0.0970 
 23 H       -0.1490    -0.8930    -0.7370 H     1 <1>   0.4000 
 24 H        1.7540    -0.3090    -1.8120 H     1 <1>   0.0800 
 25 H        2.0710    -1.4640     0.9690 H     1 <1>   0.0800 
 26 H        2.0680     1.3170     0.6730 H     1 <1>   0.0800 
 27 H        2.4590     1.7550    -1.0000 H     1 <1>   0.0800 
 28 H        4.3430    -1.3530    -0.9610 H     1 <1>   0.0800 
 29 H        4.3790    -1.4120     0.7920 H     1 <1>   0.0800 
 30 H        2.4260    -2.7270    -1.7750 H     1 <1>   0.0800 
 31 H        1.0610    -2.9710    -0.7320 H     1 <1>   0.0800 
 32 H        1.1940    -4.4230     1.1790 H     1 <1>   0.1500 
 33 H        5.6720    -5.3800    -0.0430 H     1 <1>   0.1500 
 34 H        4.2750     4.3110     1.2440 H     1 <1>   0.0800 
 35 H        3.4350     2.8360     1.4860 H     1 <1>   0.0800 
 36 H        3.2910     3.6780    -0.0460 H     1 <1>   0.0800 
 37 H        4.5440    -6.6850     1.6550 H     1 <1>   0.1500 
 38 H        8.3260     2.8280    -0.5080 H     1 <1>   0.4570 
 39 H        8.1850    -0.7690    -0.9790 H     1 <1>   0.0800 
 40 H        9.2220     0.3480    -0.1360 H     1 <1>   0.0800 
 41 H        8.8590     0.5890    -1.8380 H     1 <1>   0.0800 
 42 H        5.8010     5.2780    -0.1010 H     1 <1>   0.0800 
 43 H        7.4710     4.9990    -0.4520 H     1 <1>   0.0800 
 44 H        6.9060     4.8980     1.2000 H     1 <1>   0.0800 
@<TRIPOS>BOND
  1   1   2  1   
  2   1  23  1   
  3   2   3  1   
  4   2   4  1   
  5   2  24  1   
  6   3   5  1   
  7   3   6  1   
  8   3  25  1   
  9   4   7  1   
 10   4  26  1   
 11   4  27  1   
 12   5   7  1   
 13   5  28  1   
 14   5  29  1   
 15   6   8  1   
 16   6  30  1   
 17   6  31  1   
 18   7   9  1   
 19   8  10  ar  
 20   8  11  ar  
 21   9  12  ar  
 22   9  13  ar  
 23  10  14  ar  
 24  11  15  ar  
 25  11  32  1   
 26  12  16  ar  
 27  13  17  ar  
 28  13  18  1   
 29  14  19  ar  
 30  14  33  1   
 31  15  19  ar  
 32  16  20  ar  
 33  16  21  1   
 34  17  20  ar  
 35  17  22  1   
 36  18  34  1   
 37  18  35  1   
 38  18  36  1   
 39  19  37  1   
 40  20  38  1   
 41  21  39  1   
 42  21  40  1   
 43  21  41  1   
 44  22  42  1   
 45  22  43  1   
 46  22  44  1   
@<TRIPOS>SUBSTRUCTURE
  1 ****   5 GROUP 4 **** **** 0

# MOE 2024.06 (io_trps.svl 2023.06)
