@<TRIPOS>MOLECULE
NONAME
56 58 1 0 0 
SMALL
USER_CHARGES


@<TRIPOS>ATOM
  1 O       -1.0850     0.3000    -1.8450 O.2   1 <1>  -0.5700 
  2 C       -2.0420     0.9520    -1.5040 C.2   1 <1>   0.5690 
  3 N       -3.3110     0.4250    -1.5400 N.am  1 <1>  -0.6600 
  4 C       -1.8000     2.3830    -1.0380 C.3   1 <1>  -0.0190 
  5 C       -3.5260    -0.9750    -2.0400 C.3   1 <1>   0.3210 
  6 C       -4.5660     1.1360    -1.1530 C.3   1 <1>   0.1400 
  7 C       -1.8620     3.3470    -2.2240 C.3   1 <1>   0.1200 
  8 C       -0.4510     2.5830    -0.3340 C.3   1 <1>  -0.0170 
  9 C       -4.0110    -1.9030    -0.9280 C.2   1 <1>   0.0460 
 10 C       -4.8140     1.0150     0.3640 C.3   1 <1>   0.3430 
 11 O       -1.8480     4.6770    -1.7440 O.3   1 <1>  -0.3630 
 12 C       -0.2480     4.0640    -0.0520 C.ar  1 <1>  -0.1440 
 13 N       -5.3090    -1.9440    -0.5440 N.2   1 <1>  -0.5650 
 14 C       -3.2740    -2.7910    -0.2200 C.2   1 <1>  -0.3320 
 15 N       -6.2020     1.4280     0.7620 N.4   1 <1>  -0.9590 
 16 C       -0.9560     5.0220    -0.7770 C.ar  1 <1>   0.0820 
 17 C        0.6430     4.4720     0.9280 C.ar  1 <1>  -0.1500 
 18 C       -5.3330    -2.8750     0.3560 C.2   1 <1>   0.0360 
 19 N       -4.1270    -3.4260     0.6030 N.pl3 1 <1>   0.0330 
 20 C       -1.7870    -3.1090    -0.2670 C.3   1 <1>  -0.0600 
 21 C       -6.2780     1.6130     2.2430 C.3   1 <1>   0.2630 
 22 C       -7.2010     0.3960     0.3270 C.3   1 <1>   0.2630 
 23 C       -0.7760     6.3690    -0.5130 C.ar  1 <1>  -0.1500 
 24 C        0.8260     5.8270     1.1930 C.ar  1 <1>   0.0820 
 25 C        0.1120     6.7680     0.4690 C.ar  1 <1>  -0.1500 
 26 O        1.6790     6.3050     2.1370 O.3   1 <1>  -0.3630 
 27 C        2.5060     5.4380     2.8790 C.3   1 <1>   0.0400 
 28 H       -2.5640     2.6610    -0.3400 H     1 <1>   0.0800 
 29 H       -2.6180    -1.3750    -2.4560 H     1 <1>   0.0800 
 30 H       -4.2530    -0.9680    -2.8320 H     1 <1>   0.0800 
 31 H       -5.3850     0.6960    -1.6940 H     1 <1>   0.0800 
 32 H       -4.5030     2.1720    -1.4340 H     1 <1>   0.0800 
 33 H       -2.7640     3.2150    -2.7940 H     1 <1>   0.0800 
 34 H       -1.0130     3.2150    -2.8730 H     1 <1>   0.0800 
 35 H        0.3540     2.2430    -0.9630 H     1 <1>   0.0800 
 36 H       -0.4260     2.0180     0.5810 H     1 <1>   0.0800 
 37 H       -4.0950     1.6330     0.8760 H     1 <1>   0.0800 
 38 H       -4.6470    -0.0050     0.6670 H     1 <1>   0.0800 
 39 H       -6.4310     2.3260     0.3090 H     1 <1>   0.4500 
 40 H        1.1880     3.7270     1.4760 H     1 <1>   0.1500 
 41 H       -6.2180    -3.2070     0.8710 H     1 <1>   0.1500 
 42 H       -3.9110    -4.1830     1.2590 H     1 <1>   0.2700 
 43 H       -1.2720    -2.4430    -0.9350 H     1 <1>   0.0800 
 44 H       -1.6340    -4.1180    -0.6080 H     1 <1>   0.0800 
 45 H       -1.3520    -3.0030     0.7110 H     1 <1>   0.0800 
 46 H       -6.0420     0.6890     2.7470 H     1 <1>   0.0800 
 47 H       -7.2700     1.9200     2.5320 H     1 <1>   0.0800 
 48 H       -5.5790     2.3680     2.5630 H     1 <1>   0.0800 
 49 H       -6.9780    -0.5540     0.7870 H     1 <1>   0.0800 
 50 H       -7.1710     0.2630    -0.7420 H     1 <1>   0.0800 
 51 H       -8.1980     0.6910     0.6100 H     1 <1>   0.0800 
 52 H       -1.3300     7.0970    -1.0770 H     1 <1>   0.1500 
 53 H        0.2580     7.8120     0.6790 H     1 <1>   0.1500 
 54 H        3.1110     6.0360     3.5370 H     1 <1>   0.0800 
 55 H        3.1350     4.8890     2.2010 H     1 <1>   0.0800 
 56 H        1.8870     4.7740     3.4560 H     1 <1>   0.0800 
@<TRIPOS>BOND
  1   1   2  2   
  2   2   3  am  
  3   2   4  1   
  4   3   5  1   
  5   3   6  1   
  6   4   7  1   
  7   4   8  1   
  8   4  28  1   
  9   5   9  1   
 10   5  29  1   
 11   5  30  1   
 12   6  10  1   
 13   6  31  1   
 14   6  32  1   
 15   7  11  1   
 16   7  33  1   
 17   7  34  1   
 18   8  12  1   
 19   8  35  1   
 20   8  36  1   
 21   9  13  1   
 22   9  14  2   
 23  10  15  1   
 24  10  37  1   
 25  10  38  1   
 26  11  16  1   
 27  12  16  ar  
 28  12  17  ar  
 29  13  18  2   
 30  14  19  1   
 31  14  20  1   
 32  15  21  1   
 33  15  22  1   
 34  15  39  1   
 35  16  23  ar  
 36  17  24  ar  
 37  17  40  1   
 38  18  19  1   
 39  18  41  1   
 40  19  42  1   
 41  20  43  1   
 42  20  44  1   
 43  20  45  1   
 44  21  46  1   
 45  21  47  1   
 46  21  48  1   
 47  22  49  1   
 48  22  50  1   
 49  22  51  1   
 50  23  25  ar  
 51  23  52  1   
 52  24  25  ar  
 53  24  26  1   
 54  25  53  1   
 55  26  27  1   
 56  27  54  1   
 57  27  55  1   
 58  27  56  1   
@<TRIPOS>SUBSTRUCTURE
  1 ****   4 GROUP 4 **** **** 0

# MOE 2024.06 (io_trps.svl 2023.06)
