@<TRIPOS>MOLECULE
Untitled Document
55 59 1 0 0 
SMALL
USER_CHARGES


@<TRIPOS>ATOM
  1 O       -0.7620     0.0880     0.6560 O.2   1 <1>  -0.5700 
  2 C       -1.5950     0.6120    -0.0710 C.2   1 <1>   0.5440 
  3 N       -1.4870     1.9530    -0.3650 N.am  1 <1>  -0.4200 
  4 C       -2.7020    -0.1190    -0.6130 C.ar  1 <1>   0.0860 
  5 C       -2.5230     2.5570    -1.0280 C.2   1 <1>   0.4500 
  6 C       -0.2780     2.7130     0.0970 C.3   1 <1>   0.2200 
  7 C       -3.6610     0.5780    -1.3290 C.ar  1 <1>   0.1790 
  8 C       -2.8420    -1.5110    -0.4510 C.ar  1 <1>  -0.1500 
  9 N       -3.5470     1.9460    -1.4950 N.2   1 <1>  -0.6290 
 10 C       -0.4750     3.3030     1.5110 C.3   1 <1>   0.2000 
 11 C        0.1670     3.8050    -0.8960 C.3   1 <1>  -0.1600 
 12 C       -4.7710    -0.1110    -1.8970 C.ar  1 <1>   0.0000 
 13 C       -3.8910    -2.2000    -0.9880 C.ar  1 <1>  -0.1440 
 14 O       -0.7920     2.3080     2.4220 O.3   1 <1>  -0.6800 
 15 C        0.7970     4.0010     2.0050 C.3   1 <1>  -0.1600 
 16 C        1.4530     4.4870    -0.4040 C.3   1 <1>  -0.1600 
 17 C       -4.8910    -1.5120    -1.7290 C.ar  1 <1>   0.0000 
 18 C       -5.7700     0.5610    -2.6360 C.ar  1 <1>  -0.1500 
 19 C       -3.9520    -3.7150    -0.7870 C.3   1 <1>   0.1270 
 20 C        1.2710     5.0690     1.0060 C.3   1 <1>  -0.1600 
 21 C       -6.0060    -2.1590    -2.3090 C.ar  1 <1>  -0.1500 
 22 C       -6.8350    -0.0970    -3.1850 C.ar  1 <1>  -0.1500 
 23 C       -5.1180    -4.1820     0.0780 C.ar  1 <1>  -0.1430 
 24 C       -6.9540    -1.4750    -3.0180 C.ar  1 <1>  -0.1500 
 25 C       -5.6330    -3.3990     1.1030 C.ar  1 <1>   0.1600 
 26 C       -5.6860    -5.4200    -0.1490 C.ar  1 <1>  -0.1500 
 27 N       -6.6380    -3.7460     1.8920 N.ar  1 <1>  -0.6200 
 28 C       -6.7350    -5.7930     0.6630 C.ar  1 <1>  -0.1500 
 29 C       -7.1700    -4.9320     1.6580 C.ar  1 <1>   0.1670 
 30 C       -8.3210    -5.3260     2.5580 C.3   1 <1>  -0.0970 
 31 H       -2.4660     3.6220    -1.1620 H     1 <1>   0.0600 
 32 H        0.5480     2.0240     0.1550 H     1 <1>   0.0800 
 33 H       -2.0780    -2.0170     0.1170 H     1 <1>   0.1500 
 34 H       -1.2890     4.0080     1.5030 H     1 <1>   0.0800 
 35 H        0.3460     3.3650    -1.8610 H     1 <1>   0.0800 
 36 H       -0.5890     4.5630    -0.9930 H     1 <1>   0.0800 
 37 H       -0.6880     1.4190     2.0020 H     1 <1>   0.4000 
 38 H        0.6010     4.4640     2.9570 H     1 <1>   0.0800 
 39 H        1.5770     3.2710     2.1370 H     1 <1>   0.0800 
 40 H        2.2580     3.7710    -0.3920 H     1 <1>   0.0800 
 41 H        1.7270     5.2750    -1.0850 H     1 <1>   0.0800 
 42 H       -5.6880     1.6250    -2.7680 H     1 <1>   0.1500 
 43 H       -3.0430    -4.0600    -0.3260 H     1 <1>   0.0800 
 44 H       -4.0060    -4.1850    -1.7530 H     1 <1>   0.0800 
 45 H        0.5500     5.8690     0.9720 H     1 <1>   0.0800 
 46 H        2.2040     5.4870     1.3460 H     1 <1>   0.0800 
 47 H       -6.1280    -3.2180    -2.1930 H     1 <1>   0.1500 
 48 H       -7.5860     0.4350    -3.7430 H     1 <1>   0.1500 
 49 H       -7.7970    -1.9860    -3.4490 H     1 <1>   0.1500 
 50 H       -5.1990    -2.4310     1.2890 H     1 <1>   0.1500 
 51 H       -5.3310    -6.0750    -0.9250 H     1 <1>   0.1500 
 52 H       -7.2090    -6.7470     0.5240 H     1 <1>   0.1500 
 53 H       -8.6980    -6.2990     2.3050 H     1 <1>   0.0800 
 54 H       -9.1140    -4.6070     2.4590 H     1 <1>   0.0800 
 55 H       -7.9890    -5.3340     3.5800 H     1 <1>   0.0800 
@<TRIPOS>BOND
  1   1   2  2   
  2   2   3  am  
  3   2   4  1   
  4   3   5  1   
  5   3   6  1   
  6   4   7  ar  
  7   4   8  ar  
  8   5   9  2   
  9   5  31  1   
 10   6  10  1   
 11   6  11  1   
 12   6  32  1   
 13   7   9  1   
 14   7  12  ar  
 15   8  13  ar  
 16   8  33  1   
 17  10  14  1   
 18  10  15  1   
 19  10  34  1   
 20  11  16  1   
 21  11  35  1   
 22  11  36  1   
 23  12  17  ar  
 24  12  18  ar  
 25  13  17  ar  
 26  13  19  1   
 27  14  37  1   
 28  15  20  1   
 29  15  38  1   
 30  15  39  1   
 31  16  20  1   
 32  16  40  1   
 33  16  41  1   
 34  17  21  ar  
 35  18  22  ar  
 36  18  42  1   
 37  19  23  1   
 38  19  43  1   
 39  19  44  1   
 40  20  45  1   
 41  20  46  1   
 42  21  24  ar  
 43  21  47  1   
 44  22  24  ar  
 45  22  48  1   
 46  23  25  ar  
 47  23  26  ar  
 48  24  49  1   
 49  25  27  ar  
 50  25  50  1   
 51  26  28  ar  
 52  26  51  1   
 53  27  29  ar  
 54  28  29  ar  
 55  28  52  1   
 56  29  30  1   
 57  30  53  1   
 58  30  54  1   
 59  30  55  1   
@<TRIPOS>SUBSTRUCTURE
  1 ****   4 GROUP 4 **** **** 0

# MOE 2024.06 (io_trps.svl 2023.06)
