@<TRIPOS>MOLECULE
NONAME
58 60 1 0 0 
SMALL
USER_CHARGES


@<TRIPOS>ATOM
  1 O       -0.5900     0.2350    -0.4190 O.2   1 <1>  -0.5700 
  2 C       -1.5240     0.8990    -0.0140 C.2   1 <1>   0.5440 
  3 N       -2.6620     0.2540     0.4150 N.am  1 <1>  -0.6600 
  4 C       -1.4140     2.3470    -0.0110 C.ar  1 <1>   0.0860 
  5 C       -2.6810    -1.2230     0.6660 C.3   1 <1>   0.1400 
  6 C       -4.0340     0.8190     0.2520 C.3   1 <1>   0.1400 
  7 C       -0.8620     3.0240    -1.0960 C.ar  1 <1>  -0.1500 
  8 C       -1.8380     3.1150     1.0730 C.ar  1 <1>  -0.1500 
  9 C       -3.5540    -1.9470    -0.3740 C.3   1 <1>   0.3440 
 10 C       -4.8430    -0.0080    -0.7750 C.3   1 <1>   0.2000 
 11 C       -0.7360     4.4010    -1.1040 C.ar  1 <1>  -0.1500 
 12 C       -1.7160     4.4930     1.0760 C.ar  1 <1>  -0.1500 
 13 O       -4.8310    -1.3620    -0.4180 O.3   1 <1>  -0.5600 
 14 C       -3.6790    -3.4290    -0.0320 C.ar  1 <1>  -0.1430 
 15 C       -6.3180     0.4330    -0.9270 C.3   1 <1>  -0.0800 
 16 C       -1.1550     5.1460    -0.0120 C.ar  1 <1>  -0.1430 
 17 C       -2.7540    -4.3280    -0.5440 C.ar  1 <1>  -0.1500 
 18 C       -4.6900    -3.9010     0.7950 C.ar  1 <1>  -0.1500 
 19 C       -6.4380     1.8670    -1.4660 C.3   1 <1>  -0.2400 
 20 C       -7.1390     0.2970     0.3670 C.3   1 <1>  -0.2400 
 21 C       -0.9890     6.6550    -0.0070 C.3   1 <1>   0.4860 
 22 C       -2.8380    -5.6750    -0.2370 C.ar  1 <1>  -0.1500 
 23 C       -4.7750    -5.2480     1.1030 C.ar  1 <1>  -0.1500 
 24 N        0.1720     7.0070     0.8630 N.4   1 <1>  -0.9590 
 25 C       -3.8480    -6.1360     0.5880 C.ar  1 <1>  -0.1500 
 26 C        0.2560     8.4810     1.0930 C.3   1 <1>   0.2630 
 27 C        1.4590     6.4720     0.3150 C.3   1 <1>   0.2630 
 28 H       -1.6850    -1.6280     0.6350 H     1 <1>   0.0800 
 29 H       -3.0770    -1.4120     1.6470 H     1 <1>   0.0800 
 30 H       -4.5330     0.8030     1.2050 H     1 <1>   0.0800 
 31 H       -3.9820     1.8380    -0.0820 H     1 <1>   0.0800 
 32 H       -0.5250     2.4470    -1.9420 H     1 <1>   0.1500 
 33 H       -2.2630     2.6130     1.9260 H     1 <1>   0.1500 
 34 H       -3.1090    -1.8450    -1.3490 H     1 <1>   0.0800 
 35 H       -4.3670     0.0760    -1.7380 H     1 <1>   0.0800 
 36 H       -0.3070     4.8760    -1.9700 H     1 <1>   0.1500 
 37 H       -2.0620     5.0430     1.9350 H     1 <1>   0.1500 
 38 H       -6.7570    -0.2210    -1.6630 H     1 <1>   0.0800 
 39 H       -1.9610    -3.9840    -1.1860 H     1 <1>   0.1500 
 40 H       -5.4170    -3.2180     1.1980 H     1 <1>   0.1500 
 41 H       -6.0860     2.5850    -0.7480 H     1 <1>   0.0800 
 42 H       -7.4670     2.0900    -1.6880 H     1 <1>   0.0800 
 43 H       -5.8710     1.9750    -2.3740 H     1 <1>   0.0800 
 44 H       -6.7970     0.9790     1.1240 H     1 <1>   0.0800 
 45 H       -7.0690    -0.7060     0.7490 H     1 <1>   0.0800 
 46 H       -8.1760     0.5060     0.1680 H     1 <1>   0.0800 
 47 H       -1.8900     7.1090     0.3750 H     1 <1>   0.0800 
 48 H       -0.8260     7.0130    -1.0100 H     1 <1>   0.0800 
 49 H       -2.1170    -6.3650    -0.6390 H     1 <1>   0.1500 
 50 H       -5.5640    -5.6030     1.7430 H     1 <1>   0.1500 
 51 H        0.0060     6.5360     1.7640 H     1 <1>   0.4500 
 52 H       -3.9150    -7.1830     0.8270 H     1 <1>   0.1500 
 53 H        0.4240     8.9990     0.1610 H     1 <1>   0.0800 
 54 H        1.0690     8.7090     1.7630 H     1 <1>   0.0800 
 55 H       -0.6590     8.8470     1.5310 H     1 <1>   0.0800 
 56 H        1.6650     6.9000    -0.6530 H     1 <1>   0.0800 
 57 H        1.4060     5.3990     0.2130 H     1 <1>   0.0800 
 58 H        2.2760     6.7090     0.9780 H     1 <1>   0.0800 
@<TRIPOS>BOND
  1   1   2  2   
  2   2   3  am  
  3   2   4  1   
  4   3   5  1   
  5   3   6  1   
  6   4   7  ar  
  7   4   8  ar  
  8   5   9  1   
  9   5  28  1   
 10   5  29  1   
 11   6  10  1   
 12   6  30  1   
 13   6  31  1   
 14   7  11  ar  
 15   7  32  1   
 16   8  12  ar  
 17   8  33  1   
 18   9  13  1   
 19   9  14  1   
 20   9  34  1   
 21  10  13  1   
 22  10  15  1   
 23  10  35  1   
 24  11  16  ar  
 25  11  36  1   
 26  12  16  ar  
 27  12  37  1   
 28  14  17  ar  
 29  14  18  ar  
 30  15  19  1   
 31  15  20  1   
 32  15  38  1   
 33  16  21  1   
 34  17  22  ar  
 35  17  39  1   
 36  18  23  ar  
 37  18  40  1   
 38  19  41  1   
 39  19  42  1   
 40  19  43  1   
 41  20  44  1   
 42  20  45  1   
 43  20  46  1   
 44  21  24  1   
 45  21  47  1   
 46  21  48  1   
 47  22  25  ar  
 48  22  49  1   
 49  23  25  ar  
 50  23  50  1   
 51  24  26  1   
 52  24  27  1   
 53  24  51  1   
 54  25  52  1   
 55  26  53  1   
 56  26  54  1   
 57  26  55  1   
 58  27  56  1   
 59  27  57  1   
 60  27  58  1   
@<TRIPOS>SUBSTRUCTURE
  1 ****   3 GROUP 4 **** **** 0

# MOE 2024.06 (io_trps.svl 2023.06)
