@<TRIPOS>MOLECULE
NONAME
44 46 1 0 0 
SMALL
USER_CHARGES


@<TRIPOS>ATOM
  1 O        2.3560    -0.6930    -1.9370 O.2   1 <1>  -0.5700 
  2 C        1.8310    -1.2040    -0.9620 C.2   1 <1>   0.5440 
  3 N        1.4680    -0.3660     0.0860 N.am  1 <1>  -0.6600 
  4 C        1.6480    -2.6570    -0.9490 C.ar  1 <1>   0.3960 
  5 C        1.4700     1.1180    -0.0530 C.3   1 <1>   0.0600 
  6 C        1.0730    -0.8560     1.4350 C.3   1 <1>   0.0600 
  7 N        0.5770    -3.2180    -0.3630 N.ar  1 <1>  -0.6200 
  8 C        2.6210    -3.4380    -1.5780 C.ar  1 <1>   0.1600 
  9 C        0.5430    -4.5380    -0.4330 C.ar  1 <1>   0.4100 
 10 N        2.6220    -4.7610    -1.6530 N.ar  1 <1>  -0.6200 
 11 N       -0.5550    -5.1530     0.1670 N.pl3 1 <1>  -0.8380 
 12 C        1.5630    -5.2750    -1.0630 C.ar  1 <1>   0.1600 
 13 C       -1.7480    -4.3670     0.6020 C.3   1 <1>   0.2090 
 14 C       -0.9700    -6.5370    -0.1720 C.3   1 <1>   0.2090 
 15 C       -2.9290    -5.3410     0.5510 C.3   1 <1>   0.2000 
 16 C       -2.3160    -6.7380     0.5210 C.3   1 <1>  -0.0800 
 17 O       -3.7550    -5.2180     1.6600 O.3   1 <1>  -0.6800 
 18 C       -3.2280    -7.7700    -0.1660 C.3   1 <1>  -0.0170 
 19 C       -2.6160    -9.1620    -0.1660 C.ar  1 <1>   0.1670 
 20 N       -1.6570    -9.3890    -1.0510 N.ar  1 <1>  -0.6200 
 21 C       -3.0730   -10.1230     0.7350 C.ar  1 <1>   0.1600 
 22 C       -1.1960   -10.6270    -0.9780 C.ar  1 <1>   0.1600 
 23 N       -2.6090   -11.3590     0.8130 N.ar  1 <1>  -0.6200 
 24 C       -1.6560   -11.5790    -0.0760 C.ar  1 <1>   0.1600 
 25 H        0.5530     1.5220     0.3390 H     1 <1>   0.0800 
 26 H        1.5530     1.4060    -1.0870 H     1 <1>   0.0800 
 27 H        2.3020     1.5310     0.4880 H     1 <1>   0.0800 
 28 H        1.3770    -0.1520     2.1900 H     1 <1>   0.0800 
 29 H        1.5420    -1.8010     1.6470 H     1 <1>   0.0800 
 30 H        0.0050    -0.9790     1.4750 H     1 <1>   0.0800 
 31 H        3.4490    -2.9300    -2.0420 H     1 <1>   0.1500 
 32 H        1.4830    -6.3440    -1.0680 H     1 <1>   0.1500 
 33 H       -1.5840    -4.0020     1.6000 H     1 <1>   0.0800 
 34 H       -1.9250    -3.5400    -0.0650 H     1 <1>   0.0800 
 35 H       -1.0760    -6.6270    -1.2410 H     1 <1>   0.0800 
 36 H       -0.2490    -7.2560     0.1800 H     1 <1>   0.0800 
 37 H       -3.5150    -5.1490    -0.3320 H     1 <1>   0.0800 
 38 H       -2.1070    -7.0580     1.5260 H     1 <1>   0.0800 
 39 H       -3.2360    -5.3320     2.4800 H     1 <1>   0.4000 
 40 H       -3.4160    -7.4740    -1.1840 H     1 <1>   0.0800 
 41 H       -4.1760    -7.7920     0.3410 H     1 <1>   0.0800 
 42 H       -3.8550    -9.8580     1.4240 H     1 <1>   0.1500 
 43 H       -0.4150   -10.9030    -1.6640 H     1 <1>   0.1500 
 44 H       -1.2170   -12.5610    -0.0920 H     1 <1>   0.1500 
@<TRIPOS>BOND
  1   1   2  2   
  2   2   3  am  
  3   2   4  1   
  4   3   5  1   
  5   3   6  1   
  6   4   7  ar  
  7   4   8  ar  
  8   5  25  1   
  9   5  26  1   
 10   5  27  1   
 11   6  28  1   
 12   6  29  1   
 13   6  30  1   
 14   7   9  ar  
 15   8  10  ar  
 16   8  31  1   
 17   9  11  1   
 18   9  12  ar  
 19  10  12  ar  
 20  11  13  1   
 21  11  14  1   
 22  12  32  1   
 23  13  15  1   
 24  13  33  1   
 25  13  34  1   
 26  14  16  1   
 27  14  35  1   
 28  14  36  1   
 29  15  16  1   
 30  15  17  1   
 31  15  37  1   
 32  16  18  1   
 33  16  38  1   
 34  17  39  1   
 35  18  19  1   
 36  18  40  1   
 37  18  41  1   
 38  19  20  ar  
 39  19  21  ar  
 40  20  22  ar  
 41  21  23  ar  
 42  21  42  1   
 43  22  24  ar  
 44  22  43  1   
 45  23  24  ar  
 46  24  44  1   
@<TRIPOS>SUBSTRUCTURE
  1 ****  11 GROUP 4 **** **** 0

# MOE 2024.06 (io_trps.svl 2023.06)
