@<TRIPOS>MOLECULE
NONAME
44 46 1 0 0 
SMALL
USER_CHARGES


@<TRIPOS>ATOM
  1 F       -0.1500    -0.5540     0.1680 F     1 <1>  -0.3400 
  2 C       -0.5530    -1.7130    -0.3320 C.3   1 <1>   0.8800 
  3 F       -1.7130    -1.4680    -0.9290 F     1 <1>  -0.3400 
  4 O       -0.7780    -2.5950     0.7430 O.3   1 <1>  -0.3630 
  5 C       -0.9500    -3.9200     0.5420 C.ar  1 <1>   0.0830 
  6 C       -1.1570    -4.5020    -0.7070 C.ar  1 <1>  -0.1500 
  7 C       -0.9100    -4.7310     1.6650 C.ar  1 <1>  -0.1500 
  8 C       -1.3200    -5.8710    -0.8110 C.ar  1 <1>  -0.1500 
  9 C       -1.0750    -6.0980     1.5500 C.ar  1 <1>  -0.1500 
 10 C       -1.2950    -6.6990     0.3120 C.ar  1 <1>   0.0860 
 11 C       -1.5000    -8.1290     0.2020 C.2   1 <1>   0.5440 
 12 O       -0.6180    -8.8800     0.5720 O.2   1 <1>  -0.5700 
 13 N       -2.6730    -8.6620    -0.2990 N.am  1 <1>  -0.6600 
 14 C       -3.9220    -7.8480    -0.4090 C.3   1 <1>   0.2200 
 15 C       -2.7550   -10.1290    -0.5820 C.3   1 <1>   0.0600 
 16 C       -5.1340    -8.4550     0.2950 C.3   1 <1>  -0.1600 
 17 C       -4.3820    -7.6480    -1.8490 C.3   1 <1>  -0.1600 
 18 C       -6.3350    -7.7560    -0.3520 C.3   1 <1>  -0.0800 
 19 C       -5.8590    -7.2520    -1.7270 C.3   1 <1>  -0.0800 
 20 C       -6.8140    -6.5190     0.4210 C.3   1 <1>  -0.1600 
 21 C       -6.0850    -5.7320    -1.7330 C.3   1 <1>  -0.1600 
 22 C       -7.1330    -5.4970    -0.6580 C.3   1 <1>   0.2000 
 23 O       -7.0220    -4.2200    -0.1540 O.3   1 <1>  -0.6800 
 24 H        0.1680    -2.0800    -1.0400 H     1 <1>   0.0800 
 25 H       -1.2020    -3.9150    -1.6060 H     1 <1>   0.1500 
 26 H       -0.7460    -4.2840     2.6300 H     1 <1>   0.1500 
 27 H       -1.4730    -6.3210    -1.7770 H     1 <1>   0.1500 
 28 H       -1.0350    -6.7220     2.4270 H     1 <1>   0.1500 
 29 H       -3.7660    -6.8760     0.0250 H     1 <1>   0.0800 
 30 H       -3.4450   -10.3280    -1.3810 H     1 <1>   0.0800 
 31 H       -3.0770   -10.6470     0.3050 H     1 <1>   0.0800 
 32 H       -1.7880   -10.5060    -0.8670 H     1 <1>   0.0800 
 33 H       -5.2100    -9.5060     0.0890 H     1 <1>   0.0800 
 34 H       -5.0920    -8.3060     1.3600 H     1 <1>   0.0800 
 35 H       -3.7980    -6.9020    -2.3580 H     1 <1>   0.0800 
 36 H       -4.3180    -8.5730    -2.3920 H     1 <1>   0.0800 
 37 H       -7.1550    -8.4450    -0.4740 H     1 <1>   0.0800 
 38 H       -6.4400    -7.7080    -2.5120 H     1 <1>   0.0800 
 39 H       -6.0260    -6.1470     1.0530 H     1 <1>   0.0800 
 40 H       -7.6810    -6.7400     1.0180 H     1 <1>   0.0800 
 41 H       -6.4290    -5.3900    -2.6930 H     1 <1>   0.0800 
 42 H       -5.1760    -5.2190    -1.4710 H     1 <1>   0.0800 
 43 H       -8.1290    -5.6380    -1.0460 H     1 <1>   0.0800 
 44 H       -6.1220    -4.0750     0.1930 H     1 <1>   0.4000 
@<TRIPOS>BOND
  1   1   2  1   
  2   2   3  1   
  3   2   4  1   
  4   2  24  1   
  5   4   5  1   
  6   5   6  ar  
  7   5   7  ar  
  8   6   8  ar  
  9   6  25  1   
 10   7   9  ar  
 11   7  26  1   
 12   8  10  ar  
 13   8  27  1   
 14   9  10  ar  
 15   9  28  1   
 16  10  11  1   
 17  11  12  2   
 18  11  13  am  
 19  13  14  1   
 20  13  15  1   
 21  14  16  1   
 22  14  17  1   
 23  14  29  1   
 24  15  30  1   
 25  15  31  1   
 26  15  32  1   
 27  16  18  1   
 28  16  33  1   
 29  16  34  1   
 30  17  19  1   
 31  17  35  1   
 32  17  36  1   
 33  18  19  1   
 34  18  20  1   
 35  18  37  1   
 36  19  21  1   
 37  19  38  1   
 38  20  22  1   
 39  20  39  1   
 40  20  40  1   
 41  21  22  1   
 42  21  41  1   
 43  21  42  1   
 44  22  23  1   
 45  22  43  1   
 46  23  44  1   
@<TRIPOS>SUBSTRUCTURE
  1 ****   8 GROUP 4 **** **** 0

# MOE 2024.06 (io_trps.svl 2023.06)
