@<TRIPOS>MOLECULE
NONAME
37 38 1 0 0 
SMALL
USER_CHARGES


@<TRIPOS>ATOM
  1 CL       1.4270     0.5790     1.6330 Cl    1 <1>  -0.1770 
  2 C        2.1850    -0.4960     0.4760 C.ar  1 <1>   0.1770 
  3 C        2.1610    -1.8610     0.7080 C.ar  1 <1>   0.1770 
  4 C        2.8010     0.0260    -0.6600 C.ar  1 <1>   0.0860 
  5 CL       1.4000    -2.5090     2.1430 Cl    1 <1>  -0.1770 
  6 C        2.7390    -2.7430    -0.1840 C.ar  1 <1>  -0.1500 
  7 C        2.8530     1.4440    -0.9300 C.2   1 <1>   0.5440 
  8 C        3.3710    -0.8810    -1.5560 C.ar  1 <1>  -0.1500 
  9 C        3.3460    -2.2460    -1.3250 C.ar  1 <1>  -0.1500 
 10 O        2.2700     1.8710    -1.9070 O.2   1 <1>  -0.5700 
 11 N        3.5740     2.3170    -0.1440 N.am  1 <1>  -0.6600 
 12 C        3.5180     3.7990    -0.3420 C.3   1 <1>   0.1400 
 13 C        4.5050     1.9120     0.9490 C.3   1 <1>   0.1400 
 14 C        4.9370     4.3950    -0.4350 C.3   1 <1>   0.2000 
 15 C        5.8670     2.6070     0.7800 C.3   1 <1>   0.1200 
 16 O        5.7080     3.9930     0.6650 O.3   1 <1>  -0.5600 
 17 C        4.9070     5.9260    -0.4650 C.3   1 <1>  -0.1600 
 18 C        6.3120     6.5220    -0.4950 C.3   1 <1>   0.1200 
 19 O        6.1880     7.8940    -0.6740 O.3   1 <1>  -0.5600 
 20 C        7.4010     8.5730    -0.6690 C.3   1 <1>   0.0400 
 21 H        2.7110    -3.8010     0.0110 H     1 <1>   0.1500 
 22 H        3.8360    -0.4980    -2.4500 H     1 <1>   0.1500 
 23 H        3.7960    -2.9220    -2.0340 H     1 <1>   0.1500 
 24 H        2.9990     4.2430     0.4890 H     1 <1>   0.0800 
 25 H        2.9740     4.0450    -1.2360 H     1 <1>   0.0800 
 26 H        4.6550     0.8480     0.9510 H     1 <1>   0.0800 
 27 H        4.0810     2.1930     1.8970 H     1 <1>   0.0800 
 28 H        5.4160     4.0330    -1.3290 H     1 <1>   0.0800 
 29 H        6.3710     2.2450    -0.0990 H     1 <1>   0.0800 
 30 H        6.4880     2.4200     1.6380 H     1 <1>   0.0800 
 31 H        4.3850     6.2930     0.4000 H     1 <1>   0.0800 
 32 H        4.3760     6.2440    -1.3440 H     1 <1>   0.0800 
 33 H        6.8820     6.1180    -1.3140 H     1 <1>   0.0800 
 34 H        6.8220     6.3340     0.4360 H     1 <1>   0.0800 
 35 H        7.1990     9.6190    -0.8170 H     1 <1>   0.0800 
 36 H        8.0180     8.2050    -1.4710 H     1 <1>   0.0800 
 37 H        7.8850     8.4270     0.2810 H     1 <1>   0.0800 
@<TRIPOS>BOND
  1   1   2  1   
  2   2   3  ar  
  3   2   4  ar  
  4   3   5  1   
  5   3   6  ar  
  6   4   7  1   
  7   4   8  ar  
  8   6   9  ar  
  9   6  21  1   
 10   7  10  2   
 11   7  11  am  
 12   8   9  ar  
 13   8  22  1   
 14   9  23  1   
 15  11  12  1   
 16  11  13  1   
 17  12  14  1   
 18  12  24  1   
 19  12  25  1   
 20  13  15  1   
 21  13  26  1   
 22  13  27  1   
 23  14  16  1   
 24  14  17  1   
 25  14  28  1   
 26  15  16  1   
 27  15  29  1   
 28  15  30  1   
 29  17  18  1   
 30  17  31  1   
 31  17  32  1   
 32  18  19  1   
 33  18  33  1   
 34  18  34  1   
 35  19  20  1   
 36  20  35  1   
 37  20  36  1   
 38  20  37  1   
@<TRIPOS>SUBSTRUCTURE
  1 ****  11 GROUP 4 **** **** 0

# MOE 2024.06 (io_trps.svl 2023.06)
