@<TRIPOS>MOLECULE
NONAME
51 52 1 0 0 
SMALL
USER_CHARGES


@<TRIPOS>ATOM
  1 O       -2.0950     0.3190    -0.5700 O.2   1 <1>  -0.5700 
  2 C       -3.2490     0.6800    -0.5400 C.2   1 <1>   0.5690 
  3 N       -4.2520    -0.1220    -1.0380 N.am  1 <1>  -0.6600 
  4 C       -3.5420     2.0640     0.0670 C.3   1 <1>  -0.0190 
  5 C       -5.6760     0.3020    -1.1710 C.3   1 <1>   0.2840 
  6 C       -3.9330    -1.4450    -1.6530 C.3   1 <1>   0.1400 
  7 C       -3.3630     3.1630    -1.0050 C.3   1 <1>  -0.1600 
  8 C       -2.7120     2.3430     1.3510 C.3   1 <1>  -0.1600 
  9 C       -6.4630     0.2400     0.1360 C.ar  1 <1>  -0.1440 
 10 C       -4.3750    -2.5860    -0.7330 C.3   1 <1>  -0.1600 
 11 C       -3.1990     4.5430    -0.3640 C.3   1 <1>   0.2000 
 12 C       -1.4950     3.2430     1.0840 C.3   1 <1>  -0.1600 
 13 C       -5.9410    -0.2720     1.3200 C.ar  1 <1>   0.1600 
 14 C       -7.7580     0.7200     0.1470 C.ar  1 <1>  -0.1500 
 15 C       -4.0560    -3.9530    -1.3520 C.3   1 <1>  -0.1600 
 16 O       -3.1510     5.4800    -1.4070 O.3   1 <1>  -0.5600 
 17 C       -1.9210     4.6090     0.5190 C.3   1 <1>   0.2000 
 18 N       -6.5880    -0.3320     2.4730 N.ar  1 <1>  -0.6200 
 19 C       -8.4480     0.6590     1.3380 C.ar  1 <1>  -0.1500 
 20 C       -4.4990    -5.0900    -0.4270 C.3   1 <1>  -0.2400 
 21 C       -3.4830     6.7850    -1.0430 C.3   1 <1>   0.0400 
 22 O       -0.8730     5.0970    -0.2380 O.3   1 <1>  -0.6800 
 23 C       -7.8260     0.1320     2.4550 C.ar  1 <1>   0.1600 
 24 H       -4.5650     2.0880     0.3860 H     1 <1>   0.0800 
 25 H       -5.7060     1.3080    -1.5520 H     1 <1>   0.0800 
 26 H       -6.1690    -0.3220    -1.8950 H     1 <1>   0.0800 
 27 H       -4.4240    -1.5280    -2.6070 H     1 <1>   0.0800 
 28 H       -2.8740    -1.5280    -1.8310 H     1 <1>   0.0800 
 29 H       -4.2090     3.1680    -1.6670 H     1 <1>   0.0800 
 30 H       -2.4810     2.9530    -1.5870 H     1 <1>   0.0800 
 31 H       -3.3410     2.8270     2.0780 H     1 <1>   0.0800 
 32 H       -2.3860     1.4140     1.7890 H     1 <1>   0.0800 
 33 H       -3.8570    -2.4960     0.2060 H     1 <1>   0.0800 
 34 H       -5.4340    -2.5200    -0.5540 H     1 <1>   0.0800 
 35 H       -4.0700     4.7390     0.2400 H     1 <1>   0.0800 
 36 H       -0.8510     2.7400     0.3810 H     1 <1>   0.0800 
 37 H       -0.9410     3.3910     1.9940 H     1 <1>   0.0800 
 38 H       -4.9340    -0.6520     1.3320 H     1 <1>   0.1500 
 39 H       -8.2220     1.1270    -0.7360 H     1 <1>   0.1500 
 40 H       -4.5590    -4.0510    -2.2990 H     1 <1>   0.0800 
 41 H       -2.9950    -4.0320    -1.5250 H     1 <1>   0.0800 
 42 H       -2.0900     5.2990     1.3270 H     1 <1>   0.0800 
 43 H       -9.4600     1.0160     1.4050 H     1 <1>   0.1500 
 44 H       -5.5600    -5.0430    -0.2540 H     1 <1>   0.0800 
 45 H       -3.9910    -5.0240     0.5190 H     1 <1>   0.0800 
 46 H       -4.2660    -6.0400    -0.8740 H     1 <1>   0.0800 
 47 H       -3.4040     7.4070    -1.9170 H     1 <1>   0.0800 
 48 H       -2.7990     7.1350    -0.2880 H     1 <1>   0.0800 
 49 H       -4.4950     6.8050    -0.6770 H     1 <1>   0.0800 
 50 H       -1.2710     5.3920    -1.0890 H     1 <1>   0.4000 
 51 H       -8.3740     0.0890     3.3810 H     1 <1>   0.1500 
@<TRIPOS>BOND
  1   1   2  2   
  2   2   3  am  
  3   2   4  1   
  4   3   5  1   
  5   3   6  1   
  6   4   7  1   
  7   4   8  1   
  8   4  24  1   
  9   5   9  1   
 10   5  25  1   
 11   5  26  1   
 12   6  10  1   
 13   6  27  1   
 14   6  28  1   
 15   7  11  1   
 16   7  29  1   
 17   7  30  1   
 18   8  12  1   
 19   8  31  1   
 20   8  32  1   
 21   9  13  ar  
 22   9  14  ar  
 23  10  15  1   
 24  10  33  1   
 25  10  34  1   
 26  11  16  1   
 27  11  17  1   
 28  11  35  1   
 29  12  17  1   
 30  12  36  1   
 31  12  37  1   
 32  13  18  ar  
 33  13  38  1   
 34  14  19  ar  
 35  14  39  1   
 36  15  20  1   
 37  15  40  1   
 38  15  41  1   
 39  16  21  1   
 40  17  22  1   
 41  17  42  1   
 42  18  23  ar  
 43  19  23  ar  
 44  19  43  1   
 45  20  44  1   
 46  20  45  1   
 47  20  46  1   
 48  21  47  1   
 49  21  48  1   
 50  21  49  1   
 51  22  50  1   
 52  23  51  1   
@<TRIPOS>SUBSTRUCTURE
  1 ****   4 GROUP 4 **** **** 0

# MOE 2024.06 (io_trps.svl 2023.06)
