@<TRIPOS>MOLECULE
NONAME
47 49 1 0 0 
SMALL
USER_CHARGES


@<TRIPOS>ATOM
  1 S       -0.2580     0.1430    -1.3300 S.3   1 <1>  -0.0800 
  2 C        0.4940    -1.0360    -0.2630 C.2   1 <1>  -0.0130 
  3 C        0.3010     1.5190    -0.3810 C.2   1 <1>  -0.0450 
  4 C        0.3620    -2.4300    -0.5990 C.ar  1 <1>   0.0530 
  5 C        1.1110    -0.3730     0.7500 C.2   1 <1>  -0.1810 
  6 C       -0.0320     2.8520    -0.8110 C.2   1 <1>   0.7150 
  7 C        1.0070     1.0420     0.6770 C.2   1 <1>  -0.1500 
  8 C        1.4690    -3.2780    -0.6030 C.ar  1 <1>  -0.1500 
  9 C       -0.8740    -2.9810    -0.9330 C.ar  1 <1>  -0.1500 
 10 C        1.8530    -1.0160     1.9090 C.3   1 <1>  -0.0590 
 11 O       -0.7430     3.0700    -1.7740 O.2   1 <1>  -0.5700 
 12 N        0.4720     3.9220    -0.1320 N.am  1 <1>  -0.7300 
 13 C        1.3480    -4.6190    -0.9160 C.ar  1 <1>  -0.1500 
 14 C       -1.0020    -4.3210    -1.2490 C.ar  1 <1>  -0.1500 
 15 C        0.2470     5.3430    -0.4870 C.3   1 <1>   0.2200 
 16 C        0.1090    -5.1440    -1.2400 C.ar  1 <1>  -0.1500 
 17 C        1.5000     5.8910    -1.1930 C.3   1 <1>   0.1400 
 18 C        0.1390     6.1540     0.8090 C.3   1 <1>  -0.0990 
 19 N        2.2930     6.4620    -0.0880 N.am  1 <1>  -0.6600 
 20 C        1.5550     6.6030     1.0360 C.2   1 <1>   0.5690 
 21 C        3.7400     6.7690    -0.2400 C.3   1 <1>   0.1400 
 22 O        1.9510     7.0230     2.0940 O.2   1 <1>  -0.5700 
 23 C        4.0000     8.2660    -0.0670 C.3   1 <1>   0.1200 
 24 O        5.3270     8.5230    -0.4030 O.3   1 <1>  -0.5600 
 25 C        5.7090     9.8450    -0.2010 C.3   1 <1>   0.0400 
 26 H        1.4640     1.6590     1.4290 H     1 <1>   0.1500 
 27 H        2.4350    -2.8730    -0.3620 H     1 <1>   0.1500 
 28 H       -1.7430    -2.3480    -0.9410 H     1 <1>   0.1500 
 29 H        1.7060    -2.0800     1.9160 H     1 <1>   0.0800 
 30 H        1.4890    -0.6220     2.8410 H     1 <1>   0.0800 
 31 H        2.9060    -0.8110     1.8310 H     1 <1>   0.0800 
 32 H        1.1760     3.7550     0.5870 H     1 <1>   0.3700 
 33 H        2.2160    -5.2550    -0.9120 H     1 <1>   0.1500 
 34 H       -1.9680    -4.7240    -1.5030 H     1 <1>   0.1500 
 35 H       -0.6330     5.4410    -1.1020 H     1 <1>   0.0800 
 36 H        0.0120    -6.1880    -1.4850 H     1 <1>   0.1500 
 37 H        1.2340     6.6750    -1.8810 H     1 <1>   0.0800 
 38 H        2.0360     5.1140    -1.7110 H     1 <1>   0.0800 
 39 H       -0.2380     5.5800     1.6340 H     1 <1>   0.0800 
 40 H       -0.4730     7.0240     0.6590 H     1 <1>   0.0800 
 41 H        4.0730     6.4610    -1.2150 H     1 <1>   0.0800 
 42 H        4.2940     6.2280     0.5080 H     1 <1>   0.0800 
 43 H        3.8360     8.5540     0.9570 H     1 <1>   0.0800 
 44 H        3.3660     8.8350    -0.7240 H     1 <1>   0.0800 
 45 H        6.7400     9.9440    -0.4920 H     1 <1>   0.0800 
 46 H        5.6020    10.0900     0.8420 H     1 <1>   0.0800 
 47 H        5.0970    10.4900    -0.8070 H     1 <1>   0.0800 
@<TRIPOS>BOND
  1   1   2  1   
  2   1   3  1   
  3   2   4  1   
  4   2   5  2   
  5   3   6  1   
  6   3   7  2   
  7   4   8  ar  
  8   4   9  ar  
  9   5   7  1   
 10   5  10  1   
 11   6  11  2   
 12   6  12  am  
 13   7  26  1   
 14   8  13  ar  
 15   8  27  1   
 16   9  14  ar  
 17   9  28  1   
 18  10  29  1   
 19  10  30  1   
 20  10  31  1   
 21  12  15  1   
 22  12  32  1   
 23  13  16  ar  
 24  13  33  1   
 25  14  16  ar  
 26  14  34  1   
 27  15  17  1   
 28  15  18  1   
 29  15  35  1   
 30  16  36  1   
 31  17  19  1   
 32  17  37  1   
 33  17  38  1   
 34  18  20  1   
 35  18  39  1   
 36  18  40  1   
 37  19  20  am  
 38  19  21  1   
 39  20  22  2   
 40  21  23  1   
 41  21  41  1   
 42  21  42  1   
 43  23  24  1   
 44  23  43  1   
 45  23  44  1   
 46  24  25  1   
 47  25  45  1   
 48  25  46  1   
 49  25  47  1   
@<TRIPOS>SUBSTRUCTURE
  1 ****   3 GROUP 4 **** **** 0

# MOE 2024.06 (io_trps.svl 2023.06)
