@<TRIPOS>MOLECULE
NONAME
46 49 1 0 0 
SMALL
USER_CHARGES


@<TRIPOS>ATOM
  1 O        3.7180    -1.8460     1.2310 O.2   1 <1>  -0.5700 
  2 C        2.9590    -1.6320     0.3030 C.2   1 <1>   0.5440 
  3 N        3.0390    -0.3820    -0.2580 N.am  1 <1>  -0.6600 
  4 C        2.1250    -2.6900    -0.2370 C.ar  1 <1>   0.0860 
  5 C        3.2520     0.8120     0.6380 C.3   1 <1>   0.2200 
  6 C        3.2640    -0.2490    -1.7220 C.3   1 <1>   0.1400 
  7 C        0.8260    -2.4680    -0.7150 C.ar  1 <1>   0.0830 
  8 C        2.6210    -3.9950    -0.2970 C.ar  1 <1>  -0.1500 
  9 C        2.6900     2.1140     0.0450 C.3   1 <1>   0.1200 
 10 C        4.7490     0.9800     0.9930 C.3   1 <1>   0.3430 
 11 C        4.3270     0.8060    -2.0830 C.3   1 <1>  -0.0800 
 12 O        0.2900    -1.2190    -0.6690 O.3   1 <1>  -0.3630 
 13 C        0.0740    -3.5270    -1.2330 C.ar  1 <1>   0.0830 
 14 C        1.8800    -5.0370    -0.8230 C.ar  1 <1>  -0.1500 
 15 O        3.6400     2.7290    -0.7770 O.3   1 <1>  -0.5600 
 16 N        5.6300     0.1850     0.0720 N.4   1 <1>  -0.9590 
 17 C        3.7430     2.2290    -2.0680 C.3   1 <1>   0.1200 
 18 C        5.6800     0.7090    -1.3340 C.3   1 <1>   0.3430 
 19 C       -0.9180    -0.9710    -1.3660 C.3   1 <1>   0.1200 
 20 O       -1.1950    -3.3430    -1.6750 O.3   1 <1>  -0.3630 
 21 C        0.6030    -4.8010    -1.2970 C.ar  1 <1>  -0.1500 
 22 C        6.9830    -0.0140     0.6570 C.3   1 <1>   0.2630 
 23 C       -1.8590    -2.1740    -1.2430 C.3   1 <1>   0.1200 
 24 H        2.7120     0.6310     1.5520 H     1 <1>   0.0800 
 25 H        3.5760    -1.2040    -2.1130 H     1 <1>   0.0800 
 26 H        2.3280    -0.0040    -2.1950 H     1 <1>   0.0800 
 27 H        3.6100    -4.1960     0.0810 H     1 <1>   0.1500 
 28 H        2.4870     2.8050     0.8440 H     1 <1>   0.0800 
 29 H        1.7750     1.9460    -0.4970 H     1 <1>   0.0800 
 30 H        4.8830     0.6230     2.0010 H     1 <1>   0.0800 
 31 H        5.0200     2.0220     0.9730 H     1 <1>   0.0800 
 32 H        4.5580     0.6320    -3.1190 H     1 <1>   0.0800 
 33 H        2.2910    -6.0320    -0.8610 H     1 <1>   0.1500 
 34 H        5.1350    -0.7290     0.0530 H     1 <1>   0.4500 
 35 H        2.7730     2.2670    -2.5340 H     1 <1>   0.0800 
 36 H        4.3950     2.8960    -2.6060 H     1 <1>   0.0800 
 37 H        6.1390     1.6850    -1.3320 H     1 <1>   0.0800 
 38 H        6.3210     0.0580    -1.9060 H     1 <1>   0.0800 
 39 H       -1.3700    -0.0900    -0.9470 H     1 <1>   0.0800 
 40 H       -0.6790    -0.7910    -2.3990 H     1 <1>   0.0800 
 41 H        0.0120    -5.6020    -1.7060 H     1 <1>   0.1500 
 42 H        7.4950     0.9300     0.7480 H     1 <1>   0.0800 
 43 H        7.5680    -0.6680     0.0310 H     1 <1>   0.0800 
 44 H        6.9020    -0.4620     1.6350 H     1 <1>   0.0800 
 45 H       -2.7330    -2.0420    -1.8550 H     1 <1>   0.0800 
 46 H       -2.1600    -2.3160    -0.2200 H     1 <1>   0.0800 
@<TRIPOS>BOND
  1   1   2  2   
  2   2   3  am  
  3   2   4  1   
  4   3   5  1   
  5   3   6  1   
  6   4   7  ar  
  7   4   8  ar  
  8   5   9  1   
  9   5  10  1   
 10   5  24  1   
 11   6  11  1   
 12   6  25  1   
 13   6  26  1   
 14   7  12  1   
 15   7  13  ar  
 16   8  14  ar  
 17   8  27  1   
 18   9  15  1   
 19   9  28  1   
 20   9  29  1   
 21  10  16  1   
 22  10  30  1   
 23  10  31  1   
 24  11  17  1   
 25  11  18  1   
 26  11  32  1   
 27  12  19  1   
 28  13  20  1   
 29  13  21  ar  
 30  14  21  ar  
 31  14  33  1   
 32  15  17  1   
 33  16  18  1   
 34  16  22  1   
 35  16  34  1   
 36  17  35  1   
 37  17  36  1   
 38  18  37  1   
 39  18  38  1   
 40  19  23  1   
 41  19  39  1   
 42  19  40  1   
 43  20  23  1   
 44  21  41  1   
 45  22  42  1   
 46  22  43  1   
 47  22  44  1   
 48  23  45  1   
 49  23  46  1   
@<TRIPOS>SUBSTRUCTURE
  1 ****   3 GROUP 4 **** **** 0

# MOE 2024.06 (io_trps.svl 2023.06)
