@<TRIPOS>MOLECULE
NONAME
54 55 1 0 0 
SMALL
USER_CHARGES


@<TRIPOS>ATOM
  1 S       -1.6010    -1.0780    -1.5440 S.o2  1 <1>   1.0900 
  2 O       -1.5540     0.0670    -0.6650 O.2   1 <1>  -0.6500 
  3 O       -0.4110    -1.5110    -2.2360 O.2   1 <1>  -0.6500 
  4 C       -2.2570    -2.4710    -0.6260 C.3   1 <1>  -0.0550 
  5 C       -2.8470    -0.7600    -2.7800 C.3   1 <1>  -0.1350 
  6 C       -3.4570    -2.1080     0.2720 C.3   1 <1>  -0.0990 
  7 C       -4.0240    -3.2960     1.0330 C.2   1 <1>   0.5690 
  8 O       -3.6180    -4.4010     0.7550 O.2   1 <1>  -0.5700 
  9 N       -4.9900    -3.1160     1.9870 N.am  1 <1>  -0.6600 
 10 C       -5.5110    -4.2810     2.7590 C.3   1 <1>   0.1400 
 11 C       -5.6280    -1.8170     2.3420 C.3   1 <1>   0.1400 
 12 C       -6.6860    -4.9860     2.0530 C.3   1 <1>   0.1400 
 13 C       -7.0160    -1.6820     1.7050 C.3   1 <1>  -0.1600 
 14 N       -7.5870    -4.0680     1.2680 N.am  1 <1>  -0.6600 
 15 C       -7.9820    -2.8340     2.0190 C.3   1 <1>   0.1400 
 16 C       -7.9800    -4.1930    -0.0520 C.2   1 <1>   0.5690 
 17 O       -8.7300    -3.3700    -0.5280 O.2   1 <1>  -0.5700 
 18 C       -7.5950    -5.3800    -0.9730 C.3   1 <1>   0.0610 
 19 C       -8.1740    -6.6480    -0.3470 C.3   1 <1>   0.3430 
 20 C       -8.3640    -5.3600    -2.3090 C.3   1 <1>  -0.1600 
 21 C       -6.0870    -5.4530    -1.3030 C.3   1 <1>  -0.2400 
 22 N       -9.6040    -6.7430    -0.8000 N.4   1 <1>  -0.9590 
 23 C       -9.7730    -5.7920    -1.9400 C.3   1 <1>   0.3430 
 24 C      -10.5560    -6.4000     0.3010 C.3   1 <1>   0.2630 
 25 H       -1.4810    -2.8660     0.0030 H     1 <1>   0.0800 
 26 H       -2.5390    -3.2520    -1.3060 H     1 <1>   0.0800 
 27 H       -2.5320     0.0480    -3.4120 H     1 <1>   0.0800 
 28 H       -3.7770    -0.4860    -2.3250 H     1 <1>   0.0800 
 29 H       -2.9990    -1.6270    -3.3940 H     1 <1>   0.0800 
 30 H       -4.2450    -1.6840    -0.3210 H     1 <1>   0.0800 
 31 H       -3.1290    -1.3720     0.9830 H     1 <1>   0.0800 
 32 H       -5.8280    -3.9520     3.7330 H     1 <1>   0.0800 
 33 H       -4.7190    -4.9940     2.9180 H     1 <1>   0.0800 
 34 H       -5.0160    -0.9910     2.0290 H     1 <1>   0.0800 
 35 H       -5.7160    -1.7500     3.4130 H     1 <1>   0.0800 
 36 H       -7.2730    -5.4850     2.8040 H     1 <1>   0.0800 
 37 H       -6.2780    -5.7510     1.4290 H     1 <1>   0.0800 
 38 H       -6.9190    -1.5710     0.6400 H     1 <1>   0.0800 
 39 H       -7.4550    -0.7720     2.0730 H     1 <1>   0.0800 
 40 H       -8.9780    -2.5410     1.7290 H     1 <1>   0.0800 
 41 H       -8.0050    -3.0270     3.0770 H     1 <1>   0.0800 
 42 H       -8.1040    -6.6280     0.7270 H     1 <1>   0.0800 
 43 H       -7.6270    -7.4990    -0.7170 H     1 <1>   0.0800 
 44 H       -7.9600    -6.0750    -3.0040 H     1 <1>   0.0800 
 45 H       -8.3580    -4.3940    -2.7830 H     1 <1>   0.0800 
 46 H       -5.4830    -5.6330    -0.4390 H     1 <1>   0.0800 
 47 H       -5.7650    -4.5230    -1.7380 H     1 <1>   0.0800 
 48 H       -5.8790    -6.2410    -2.0050 H     1 <1>   0.0800 
 49 H       -9.7890    -7.7010    -1.1310 H     1 <1>   0.4500 
 50 H      -10.2790    -6.2510    -2.7750 H     1 <1>   0.0800 
 51 H      -10.3300    -4.9250    -1.6190 H     1 <1>   0.0800 
 52 H      -10.3780    -5.3930     0.6470 H     1 <1>   0.0800 
 53 H      -10.4330    -7.0770     1.1300 H     1 <1>   0.0800 
 54 H      -11.5730    -6.4660    -0.0500 H     1 <1>   0.0800 
@<TRIPOS>BOND
  1   1   2  2   
  2   1   3  2   
  3   1   4  1   
  4   1   5  1   
  5   4   6  1   
  6   4  25  1   
  7   4  26  1   
  8   5  27  1   
  9   5  28  1   
 10   5  29  1   
 11   6   7  1   
 12   6  30  1   
 13   6  31  1   
 14   7   8  2   
 15   7   9  am  
 16   9  10  1   
 17   9  11  1   
 18  10  12  1   
 19  10  32  1   
 20  10  33  1   
 21  11  13  1   
 22  11  34  1   
 23  11  35  1   
 24  12  14  1   
 25  12  36  1   
 26  12  37  1   
 27  13  15  1   
 28  13  38  1   
 29  13  39  1   
 30  14  15  1   
 31  14  16  am  
 32  15  40  1   
 33  15  41  1   
 34  16  17  2   
 35  16  18  1   
 36  18  19  1   
 37  18  20  1   
 38  18  21  1   
 39  19  22  1   
 40  19  42  1   
 41  19  43  1   
 42  20  23  1   
 43  20  44  1   
 44  20  45  1   
 45  21  46  1   
 46  21  47  1   
 47  21  48  1   
 48  22  23  1   
 49  22  24  1   
 50  22  49  1   
 51  23  50  1   
 52  23  51  1   
 53  24  52  1   
 54  24  53  1   
 55  24  54  1   
@<TRIPOS>SUBSTRUCTURE
  1 ****  14 GROUP 4 **** **** 0

# MOE 2024.06 (io_trps.svl 2023.06)
