@<TRIPOS>MOLECULE
NONAME
56 58 1 0 0 
SMALL
USER_CHARGES


@<TRIPOS>ATOM
  1 O        0.2380     1.1120     1.2230 O.2   1 <1>  -0.5700 
  2 C        0.1390     2.2710     0.9090 C.2   1 <1>   0.5690 
  3 N       -0.7460     3.0820     1.5270 N.am  1 <1>  -0.7300 
  4 C        0.9900     2.8350    -0.2300 C.3   1 <1>   0.1810 
  5 C       -0.9890     4.4940     1.1400 C.3   1 <1>   0.3640 
  6 O        1.0750     4.2440    -0.2040 O.3   1 <1>  -0.5600 
  7 C       -2.4890     4.6590     0.8990 C.ar  1 <1>  -0.1440 
  8 C       -0.1750     4.9180    -0.1160 C.3   1 <1>   0.2610 
  9 C       -3.1960     3.7530     0.1160 C.ar  1 <1>  -0.1500 
 10 C       -3.1690     5.7290     1.4620 C.ar  1 <1>  -0.1500 
 11 C        0.0670     6.4350    -0.1690 C.2   1 <1>   0.5690 
 12 C       -4.5540     3.9170    -0.0990 C.ar  1 <1>  -0.1500 
 13 C       -4.5270     5.8940     1.2490 C.ar  1 <1>  -0.1500 
 14 O       -0.5340     7.1960     0.5540 O.2   1 <1>  -0.5700 
 15 N        0.9940     6.9100    -1.0480 N.am  1 <1>  -0.7300 
 16 C       -5.2200     4.9870     0.4680 C.ar  1 <1>  -0.1500 
 17 C        1.2710     8.3350    -1.2990 C.3   1 <1>   0.1400 
 18 C        2.3240     8.8190    -0.3020 C.3   1 <1>  -0.1600 
 19 C        2.5180    10.3290    -0.4290 C.3   1 <1>   0.3430 
 20 N        3.4200    10.8400     0.6460 N.4   1 <1>  -0.9590 
 21 C        3.2690    12.3230     0.7920 C.3   1 <1>   0.4230 
 22 C        4.8400    10.3810     0.4680 C.3   1 <1>   0.2630 
 23 C        3.8240    13.1030    -0.4110 C.3   1 <1>  -0.1600 
 24 C        4.0330    12.8390     2.0140 C.3   1 <1>  -0.1600 
 25 C        4.9470    14.0100     0.1100 C.3   1 <1>  -0.1600 
 26 C        5.3200    13.4740     1.4880 C.3   1 <1>  -0.1600 
 27 H       -1.3490     2.6900     2.2510 H     1 <1>   0.3700 
 28 H        0.5700     2.5350    -1.1730 H     1 <1>   0.0800 
 29 H        1.9880     2.4440    -0.1530 H     1 <1>   0.0800 
 30 H       -0.6940     5.1140     1.9700 H     1 <1>   0.0800 
 31 H       -0.7370     4.6550    -0.9930 H     1 <1>   0.0800 
 32 H       -2.6970     2.9110    -0.3310 H     1 <1>   0.1500 
 33 H       -2.6450     6.4490     2.0690 H     1 <1>   0.1500 
 34 H       -5.0920     3.2090    -0.7050 H     1 <1>   0.1500 
 35 H       -5.0430     6.7290     1.6900 H     1 <1>   0.1500 
 36 H        1.5780     6.2190    -1.5310 H     1 <1>   0.3700 
 37 H       -6.2760     5.1160     0.3020 H     1 <1>   0.1500 
 38 H        1.6110     8.4600    -2.3140 H     1 <1>   0.0800 
 39 H        0.3560     8.8930    -1.1740 H     1 <1>   0.0800 
 40 H        3.2440     8.2990    -0.4950 H     1 <1>   0.0800 
 41 H        1.9800     8.5890     0.6920 H     1 <1>   0.0800 
 42 H        1.5550    10.8070    -0.3420 H     1 <1>   0.0800 
 43 H        2.9240    10.5690    -1.3990 H     1 <1>   0.0800 
 44 H        3.0780    10.4390     1.5300 H     1 <1>   0.4500 
 45 H        2.2230    12.5580     0.9180 H     1 <1>   0.0800 
 46 H        5.2570    10.7820    -0.4410 H     1 <1>   0.0800 
 47 H        4.8870     9.3060     0.4230 H     1 <1>   0.0800 
 48 H        5.4450    10.7080     1.2970 H     1 <1>   0.0800 
 49 H        4.2020    12.4580    -1.1830 H     1 <1>   0.0800 
 50 H        3.0470    13.7150    -0.8370 H     1 <1>   0.0800 
 51 H        3.4430    13.6170     2.4670 H     1 <1>   0.0800 
 52 H        4.2190    12.0850     2.7580 H     1 <1>   0.0800 
 53 H        5.7950    14.0290    -0.5550 H     1 <1>   0.0800 
 54 H        4.5730    15.0160     0.2130 H     1 <1>   0.0800 
 55 H        5.6750    14.2590     2.1360 H     1 <1>   0.0800 
 56 H        6.0970    12.7350     1.3930 H     1 <1>   0.0800 
@<TRIPOS>BOND
  1   1   2  2   
  2   2   3  am  
  3   2   4  1   
  4   3   5  1   
  5   3  27  1   
  6   4   6  1   
  7   4  28  1   
  8   4  29  1   
  9   5   7  1   
 10   5   8  1   
 11   5  30  1   
 12   6   8  1   
 13   7   9  ar  
 14   7  10  ar  
 15   8  11  1   
 16   8  31  1   
 17   9  12  ar  
 18   9  32  1   
 19  10  13  ar  
 20  10  33  1   
 21  11  14  2   
 22  11  15  am  
 23  12  16  ar  
 24  12  34  1   
 25  13  16  ar  
 26  13  35  1   
 27  15  17  1   
 28  15  36  1   
 29  16  37  1   
 30  17  18  1   
 31  17  38  1   
 32  17  39  1   
 33  18  19  1   
 34  18  40  1   
 35  18  41  1   
 36  19  20  1   
 37  19  42  1   
 38  19  43  1   
 39  20  21  1   
 40  20  22  1   
 41  20  44  1   
 42  21  23  1   
 43  21  24  1   
 44  21  45  1   
 45  22  46  1   
 46  22  47  1   
 47  22  48  1   
 48  23  25  1   
 49  23  49  1   
 50  23  50  1   
 51  24  26  1   
 52  24  51  1   
 53  24  52  1   
 54  25  26  1   
 55  25  53  1   
 56  25  54  1   
 57  26  55  1   
 58  26  56  1   
@<TRIPOS>SUBSTRUCTURE
  1 ****  11 GROUP 4 **** **** 0

# MOE 2024.06 (io_trps.svl 2023.06)
