@<TRIPOS>MOLECULE
NONAME
50 53 1 0 0 
SMALL
USER_CHARGES


@<TRIPOS>ATOM
  1 F       -1.0140    -1.4150    -2.4600 F     1 <1>  -0.1900 
  2 C       -0.4300    -2.0430    -1.4710 C.ar  1 <1>   0.1900 
  3 C       -0.0340    -3.3440    -1.6520 C.ar  1 <1>  -0.1500 
  4 C       -0.2430    -1.3460    -0.2750 C.ar  1 <1>  -0.1500 
  5 C        0.5780    -4.0020    -0.5780 C.ar  1 <1>   0.0000 
  6 C        0.3690    -1.9840     0.7800 C.ar  1 <1>  -0.1500 
  7 C        0.7780    -3.3130     0.6170 C.ar  1 <1>  -0.1520 
  8 C        1.0760    -5.3110    -0.3730 C.2   1 <1>  -0.1810 
  9 N        1.3970    -4.1610     1.5000 N.pl3 1 <1>   0.0330 
 10 C        1.5700    -5.3700     0.8890 C.2   1 <1>  -0.3320 
 11 C        1.0240    -6.4270    -1.4140 C.3   1 <1>   0.0820 
 12 C        2.2220    -6.5340     1.6150 C.3   1 <1>  -0.0600 
 13 C        0.2530    -7.6710    -0.9680 C.2   1 <1>   0.5690 
 14 O        0.8850    -8.7030    -0.9230 O.2   1 <1>  -0.5700 
 15 N       -1.0940    -7.6490    -0.6620 N.am  1 <1>  -0.6600 
 16 C       -1.9190    -6.4050    -0.7100 C.3   1 <1>   0.2200 
 17 C       -1.7690    -8.9070    -0.2120 C.3   1 <1>   0.0600 
 18 C       -3.2950    -6.5610    -1.3520 C.3   1 <1>  -0.1600 
 19 C       -2.2210    -5.8420     0.6730 C.3   1 <1>  -0.1600 
 20 C       -4.0600    -5.3140    -0.8870 C.3   1 <1>  -0.0800 
 21 C       -3.3810    -4.8680     0.4340 C.3   1 <1>  -0.0800 
 22 C       -5.5840    -5.5360    -0.8120 C.3   1 <1>   0.1400 
 23 C       -4.3350    -4.7600     1.6390 C.3   1 <1>  -0.0990 
 24 N       -6.1950    -4.5160     0.0650 N.am  1 <1>  -0.7300 
 25 C       -5.6420    -4.1170     1.2290 C.2   1 <1>   0.5690 
 26 O       -6.1690    -3.2900     1.9270 O.2   1 <1>  -0.5700 
 27 H       -0.1890    -3.8430    -2.5890 H     1 <1>   0.1500 
 28 H       -0.5770    -0.3280    -0.2000 H     1 <1>   0.1500 
 29 H        0.5330    -1.4790     1.7150 H     1 <1>   0.1500 
 30 H        1.6750    -3.9190     2.4550 H     1 <1>   0.2700 
 31 H        2.0340    -6.7170    -1.6380 H     1 <1>   0.0800 
 32 H        0.5920    -6.0710    -2.3270 H     1 <1>   0.0800 
 33 H        2.3530    -7.3730     0.9560 H     1 <1>   0.0800 
 34 H        1.6070    -6.8450     2.4400 H     1 <1>   0.0800 
 35 H        3.1890    -6.2450     1.9860 H     1 <1>   0.0800 
 36 H       -1.4070    -5.6480    -1.2730 H     1 <1>   0.0800 
 37 H       -2.4620    -8.7050     0.5830 H     1 <1>   0.0800 
 38 H       -1.0480    -9.6200     0.1500 H     1 <1>   0.0800 
 39 H       -2.2960    -9.3480    -1.0400 H     1 <1>   0.0800 
 40 H       -3.2260    -6.6100    -2.4240 H     1 <1>   0.0800 
 41 H       -3.7890    -7.4400    -0.9810 H     1 <1>   0.0800 
 42 H       -2.5270    -6.6310     1.3340 H     1 <1>   0.0800 
 43 H       -1.3690    -5.3400     1.0940 H     1 <1>   0.0800 
 44 H       -3.8860    -4.5350    -1.6100 H     1 <1>   0.0800 
 45 H       -2.9650    -3.8890     0.2600 H     1 <1>   0.0800 
 46 H       -5.8020    -6.5070    -0.4020 H     1 <1>   0.0800 
 47 H       -6.0140    -5.4770    -1.7980 H     1 <1>   0.0800 
 48 H       -3.8780    -4.1800     2.4210 H     1 <1>   0.0800 
 49 H       -4.5630    -5.7340     2.0300 H     1 <1>   0.0800 
 50 H       -7.0920    -4.1030    -0.1990 H     1 <1>   0.3700 
@<TRIPOS>BOND
  1   1   2  1   
  2   2   3  ar  
  3   2   4  ar  
  4   3   5  ar  
  5   3  27  1   
  6   4   6  ar  
  7   4  28  1   
  8   5   7  ar  
  9   5   8  1   
 10   6   7  ar  
 11   6  29  1   
 12   7   9  1   
 13   8  10  2   
 14   8  11  1   
 15   9  10  1   
 16   9  30  1   
 17  10  12  1   
 18  11  13  1   
 19  11  31  1   
 20  11  32  1   
 21  12  33  1   
 22  12  34  1   
 23  12  35  1   
 24  13  14  2   
 25  13  15  am  
 26  15  16  1   
 27  15  17  1   
 28  16  18  1   
 29  16  19  1   
 30  16  36  1   
 31  17  37  1   
 32  17  38  1   
 33  17  39  1   
 34  18  20  1   
 35  18  40  1   
 36  18  41  1   
 37  19  21  1   
 38  19  42  1   
 39  19  43  1   
 40  20  21  1   
 41  20  22  1   
 42  20  44  1   
 43  21  23  1   
 44  21  45  1   
 45  22  24  1   
 46  22  46  1   
 47  22  47  1   
 48  23  25  1   
 49  23  48  1   
 50  23  49  1   
 51  24  25  am  
 52  24  50  1   
 53  25  26  2   
@<TRIPOS>SUBSTRUCTURE
  1 ****  19 GROUP 4 **** **** 0

# MOE 2024.06 (io_trps.svl 2023.06)
