@<TRIPOS>MOLECULE
NONAME
53 56 1 0 0 
SMALL
USER_CHARGES


@<TRIPOS>ATOM
  1 O        1.5650    -0.5830     0.8000 O.3   1 <1>  -0.5600 
  2 C        2.4520    -1.5110     0.2110 C.3   1 <1>   0.4240 
  3 C        0.3430    -0.3600     0.1560 C.3   1 <1>   0.1200 
  4 C        1.7140    -2.7170    -0.4040 C.ar  1 <1>  -0.1440 
  5 C        3.3690    -1.9710     1.3540 C.3   1 <1>  -0.1600 
  6 C        3.2990    -0.7520    -0.8300 C.3   1 <1>  -0.1600 
  7 C       -0.4790    -1.6450     0.1900 C.3   1 <1>  -0.0160 
  8 C        0.3250    -2.7810    -0.4090 C.ar  1 <1>  -0.1440 
  9 C        2.4280    -3.7710    -0.9660 C.ar  1 <1>  -0.1500 
 10 C        4.0940    -0.8130     2.0500 C.3   1 <1>   0.3430 
 11 C        4.3610     0.1690    -0.2160 C.3   1 <1>   0.3430 
 12 C       -0.3330    -3.8720    -0.9550 C.ar  1 <1>  -0.1500 
 13 C        1.7720    -4.8580    -1.5140 C.ar  1 <1>  -0.1500 
 14 N        4.0560     0.4220     1.2180 N.4   1 <1>  -0.9590 
 15 C        0.3910    -4.9200    -1.5130 C.ar  1 <1>   0.0830 
 16 C        4.8100     1.5610     1.7980 C.3   1 <1>   0.5240 
 17 O       -0.1730    -6.0210    -2.0680 O.3   1 <1>  -0.3630 
 18 C        4.4780     2.7970     0.9950 C.2   1 <1>  -0.1810 
 19 C       -1.5720    -6.1920    -2.1030 C.3   1 <1>   0.0400 
 20 C        5.2330     3.5080     0.1250 C.2   1 <1>  -0.3320 
 21 C        3.2470     3.4410     1.0070 C.2   1 <1>   0.1390 
 22 N        4.4500     4.5120    -0.3340 N.pl3 1 <1>   0.3140 
 23 C        6.6790     3.3060    -0.3070 C.3   1 <1>  -0.0600 
 24 N        3.2230     4.4560     0.2070 N.2   1 <1>  -0.7070 
 25 C        4.8090     5.5730    -1.2870 C.3   1 <1>   0.0160 
 26 H        0.5220    -0.0490    -0.8580 H     1 <1>   0.0800 
 27 H       -0.1730     0.4260     0.6790 H     1 <1>   0.0800 
 28 H        4.1080    -2.6490     0.9710 H     1 <1>   0.0800 
 29 H        2.7910    -2.5200     2.0750 H     1 <1>   0.0800 
 30 H        2.6590    -0.1840    -1.4800 H     1 <1>   0.0800 
 31 H        3.8120    -1.4540    -1.4600 H     1 <1>   0.0800 
 32 H       -1.3870    -1.4970    -0.3670 H     1 <1>   0.0800 
 33 H       -0.7420    -1.8800     1.2060 H     1 <1>   0.0800 
 34 H        3.5020    -3.7670    -0.9890 H     1 <1>   0.1500 
 35 H        5.1140    -1.0980     2.2520 H     1 <1>   0.0800 
 36 H        3.6060    -0.6160     2.9910 H     1 <1>   0.0800 
 37 H        4.3810     1.0970    -0.7670 H     1 <1>   0.0800 
 38 H        5.3320    -0.2920    -0.3000 H     1 <1>   0.0800 
 39 H       -1.4050    -3.8950    -0.9400 H     1 <1>   0.1500 
 40 H        2.3260    -5.6710    -1.9480 H     1 <1>   0.1500 
 41 H        3.0550     0.6920     1.2100 H     1 <1>   0.4500 
 42 H        5.8690     1.3690     1.7550 H     1 <1>   0.0800 
 43 H        4.5250     1.7150     2.8260 H     1 <1>   0.0800 
 44 H       -1.7810    -7.1330    -2.5800 H     1 <1>   0.0800 
 45 H       -2.0080    -5.3900    -2.6720 H     1 <1>   0.0800 
 46 H       -1.9480    -6.2020    -1.0960 H     1 <1>   0.0800 
 47 H        2.3940     3.1530     1.6000 H     1 <1>   0.1500 
 48 H        7.1140     2.4520     0.1790 H     1 <1>   0.0800 
 49 H        7.2640     4.1720    -0.0520 H     1 <1>   0.0800 
 50 H        6.7330     3.1570    -1.3720 H     1 <1>   0.0800 
 51 H        5.6190     6.1510    -0.8840 H     1 <1>   0.0800 
 52 H        3.9570     6.2100    -1.4410 H     1 <1>   0.0800 
 53 H        5.0980     5.1300    -2.2200 H     1 <1>   0.0800 
@<TRIPOS>BOND
  1   1   2  1   
  2   1   3  1   
  3   2   4  1   
  4   2   5  1   
  5   2   6  1   
  6   3   7  1   
  7   3  26  1   
  8   3  27  1   
  9   4   8  ar  
 10   4   9  ar  
 11   5  10  1   
 12   5  28  1   
 13   5  29  1   
 14   6  11  1   
 15   6  30  1   
 16   6  31  1   
 17   7   8  1   
 18   7  32  1   
 19   7  33  1   
 20   8  12  ar  
 21   9  13  ar  
 22   9  34  1   
 23  10  14  1   
 24  10  35  1   
 25  10  36  1   
 26  11  14  1   
 27  11  37  1   
 28  11  38  1   
 29  12  15  ar  
 30  12  39  1   
 31  13  15  ar  
 32  13  40  1   
 33  14  16  1   
 34  14  41  1   
 35  15  17  1   
 36  16  18  1   
 37  16  42  1   
 38  16  43  1   
 39  17  19  1   
 40  18  20  2   
 41  18  21  1   
 42  19  44  1   
 43  19  45  1   
 44  19  46  1   
 45  20  22  1   
 46  20  23  1   
 47  21  24  2   
 48  21  47  1   
 49  22  24  1   
 50  22  25  1   
 51  23  48  1   
 52  23  49  1   
 53  23  50  1   
 54  25  51  1   
 55  25  52  1   
 56  25  53  1   
@<TRIPOS>SUBSTRUCTURE
  1 ****   6 GROUP 4 **** **** 0

# MOE 2024.06 (io_trps.svl 2023.06)
