@<TRIPOS>MOLECULE
NONAME
48 50 1 0 0 
SMALL
USER_CHARGES


@<TRIPOS>ATOM
  1 CL      -2.9960    -0.3920    -1.5990 Cl    1 <1>  -0.1770 
  2 C       -2.8580    -2.0590    -1.1070 C.ar  1 <1>   0.1770 
  3 C       -3.9930    -2.8410    -1.0170 C.ar  1 <1>  -0.1500 
  4 C       -1.6140    -2.5810    -0.8110 C.ar  1 <1>  -0.1500 
  5 C       -3.8770    -4.1630    -0.6250 C.ar  1 <1>  -0.1500 
  6 C       -1.5120    -3.9050    -0.4220 C.ar  1 <1>  -0.1500 
  7 C       -2.6370    -4.7300    -0.3200 C.ar  1 <1>   0.0530 
  8 C       -2.4980    -6.1100     0.0850 C.2   1 <1>   0.0870 
  9 O       -1.4330    -6.4920     0.7580 O.3   1 <1>  -0.0190 
 10 C       -3.2650    -7.2190    -0.0720 C.2   1 <1>  -0.2330 
 11 N       -1.4420    -7.7670     1.0530 N.2   1 <1>  -0.4100 
 12 C       -2.5270    -8.2180     0.5440 C.2   1 <1>   0.3720 
 13 C       -4.5490    -7.5050    -0.6080 C.2   1 <1>   1.0330 
 14 N       -2.9490    -9.5380     0.6050 N.pl3 1 <1>  -0.8520 
 15 O       -5.5670    -6.9940    -0.1230 O.co2 1 <1>  -0.9000 
 16 O       -4.7240    -8.4920    -1.3510 O.co2 1 <1>  -0.9000 
 17 C       -3.7550    -9.8490     1.8180 C.3   1 <1>   0.2090 
 18 C       -5.2850    -9.7090     1.6000 C.3   1 <1>   0.3430 
 19 N       -5.8150   -10.3110     0.3220 N.4   1 <1>  -0.9590 
 20 C       -7.3100   -10.2270     0.1970 C.3   1 <1>   0.4230 
 21 C       -5.2680   -11.6700     0.0470 C.3   1 <1>   0.3430 
 22 C       -7.7440   -10.7530    -1.1830 C.3   1 <1>  -0.1600 
 23 C       -7.8680    -8.7970     0.3910 C.3   1 <1>   0.1200 
 24 C       -5.6770   -12.1430    -1.3440 C.3   1 <1>  -0.1600 
 25 C       -7.1980   -12.1490    -1.4970 C.3   1 <1>  -0.1600 
 26 O       -9.2450    -8.8540     0.5950 O.3   1 <1>  -0.6800 
 27 H       -4.9550    -2.4200    -1.2490 H     1 <1>   0.1500 
 28 H       -0.7420    -1.9580    -0.8860 H     1 <1>   0.1500 
 29 H       -4.7700    -4.7560    -0.5520 H     1 <1>   0.1500 
 30 H       -0.5400    -4.3090    -0.1960 H     1 <1>   0.1500 
 31 H       -3.5230    -9.6690    -0.2460 H     1 <1>   0.4000 
 32 H       -3.4580    -9.1970     2.6230 H     1 <1>   0.0800 
 33 H       -3.5290   -10.8530     2.1310 H     1 <1>   0.0800 
 34 H       -5.5130    -8.6550     1.6050 H     1 <1>   0.0800 
 35 H       -5.7920   -10.1490     2.4410 H     1 <1>   0.0800 
 36 H       -5.4770    -9.6790    -0.4490 H     1 <1>   0.4500 
 37 H       -7.7460   -10.8510     0.9580 H     1 <1>   0.0800 
 38 H       -5.6360   -12.3640     0.7850 H     1 <1>   0.0800 
 39 H       -4.1920   -11.6540     0.1010 H     1 <1>   0.0800 
 40 H       -7.4090   -10.0620    -1.9390 H     1 <1>   0.0800 
 41 H       -8.8190   -10.7790    -1.2290 H     1 <1>   0.0800 
 42 H       -7.6840    -8.2000    -0.4870 H     1 <1>   0.0800 
 43 H       -7.4430    -8.3060     1.2460 H     1 <1>   0.0800 
 44 H       -5.2940   -13.1350    -1.5090 H     1 <1>   0.0800 
 45 H       -5.2330   -11.4940    -2.0810 H     1 <1>   0.0800 
 46 H       -7.4640   -12.4250    -2.5040 H     1 <1>   0.0800 
 47 H       -7.6340   -12.8700    -0.8270 H     1 <1>   0.0800 
 48 H       -9.6180    -7.9480     0.5980 H     1 <1>   0.4000 
@<TRIPOS>BOND
  1   1   2  1   
  2   2   3  ar  
  3   2   4  ar  
  4   3   5  ar  
  5   3  27  1   
  6   4   6  ar  
  7   4  28  1   
  8   5   7  ar  
  9   5  29  1   
 10   6   7  ar  
 11   6  30  1   
 12   7   8  1   
 13   8   9  1   
 14   8  10  2   
 15   9  11  1   
 16  10  12  1   
 17  10  13  1   
 18  11  12  2   
 19  12  14  1   
 20  13  15  ar  
 21  13  16  ar  
 22  14  17  1   
 23  14  31  1   
 24  17  18  1   
 25  17  32  1   
 26  17  33  1   
 27  18  19  1   
 28  18  34  1   
 29  18  35  1   
 30  19  20  1   
 31  19  21  1   
 32  19  36  1   
 33  20  22  1   
 34  20  23  1   
 35  20  37  1   
 36  21  24  1   
 37  21  38  1   
 38  21  39  1   
 39  22  25  1   
 40  22  40  1   
 41  22  41  1   
 42  23  26  1   
 43  23  42  1   
 44  23  43  1   
 45  24  25  1   
 46  24  44  1   
 47  24  45  1   
 48  25  46  1   
 49  25  47  1   
 50  26  48  1   
@<TRIPOS>SUBSTRUCTURE
  1 ****  13 GROUP 4 **** **** 0

# MOE 2024.06 (io_trps.svl 2023.06)
