@<TRIPOS>MOLECULE
NONAME
42 45 1 0 0 
SMALL
USER_CHARGES


@<TRIPOS>ATOM
  1 O       -0.1260     0.0220     0.4510 O.2   1 <1>  -0.5700 
  2 C       -1.1630     0.6480     0.6050 C.2   1 <1>   0.7160 
  3 N       -2.3560    -0.0470     0.5420 N.am  1 <1>  -0.6600 
  4 C       -1.1370     2.0580     0.8340 C.2   1 <1>  -0.0860 
  5 C       -3.6250     0.5560     0.0570 C.3   1 <1>   0.1400 
  6 C       -2.3880    -1.5230     0.3630 C.3   1 <1>   0.1400 
  7 C       -0.2820     3.0160     0.3490 C.2   1 <1>  -0.0680 
  8 C       -2.0080     2.8080     1.6400 C.2   1 <1>   0.1390 
  9 C       -4.3970    -0.6000    -0.5790 C.3   1 <1>   0.2000 
 10 C       -3.8520    -1.8650     0.0790 C.3   1 <1>  -0.0800 
 11 N       -0.6780     4.1980     0.8450 N.pl3 1 <1>   0.6010 
 12 N        0.8230     3.2010    -0.4570 N.pl3 1 <1>  -0.5530 
 13 N       -1.7610     4.0840     1.6530 N.2   1 <1>  -0.7070 
 14 O       -5.7590    -0.4950    -0.3490 O.3   1 <1>  -0.6800 
 15 C       -4.0530    -3.1170    -0.7930 C.3   1 <1>  -0.0170 
 16 C        0.1810     5.1670     0.3620 C.2   1 <1>  -0.1810 
 17 C        1.0940     4.5600    -0.4250 C.2   1 <1>  -0.0500 
 18 C        1.6230     2.1300    -1.0900 C.3   1 <1>   0.1290 
 19 C       -3.5960    -4.3820    -0.0840 C.ar  1 <1>   0.1670 
 20 N       -2.2960    -4.6270    -0.0900 N.ar  1 <1>  -0.6200 
 21 C       -4.5320    -5.2150     0.5270 C.ar  1 <1>   0.1600 
 22 C       -1.9970    -5.7460     0.5490 C.ar  1 <1>   0.1600 
 23 N       -4.2360    -6.3320     1.1700 N.ar  1 <1>  -0.6200 
 24 C       -2.9360    -6.5700     1.1590 C.ar  1 <1>   0.1600 
 25 H       -4.1690     0.9590     0.8930 H     1 <1>   0.0800 
 26 H       -3.4300     1.3280    -0.6680 H     1 <1>   0.0800 
 27 H       -1.7620    -1.7940    -0.4720 H     1 <1>   0.0800 
 28 H       -2.0280    -2.0240     1.2470 H     1 <1>   0.0800 
 29 H       -2.8110     2.3690     2.2070 H     1 <1>   0.1500 
 30 H       -4.2300    -0.6080    -1.6430 H     1 <1>   0.0800 
 31 H       -4.3350    -2.0100     1.0290 H     1 <1>   0.0800 
 32 H       -5.9470    -0.4830     0.6100 H     1 <1>   0.4000 
 33 H       -3.5070    -3.0160    -1.7150 H     1 <1>   0.0800 
 34 H       -5.0950    -3.2060    -1.0450 H     1 <1>   0.0800 
 35 H        0.0480     6.1930     0.6390 H     1 <1>   0.1500 
 36 H        1.9220     4.9890    -0.9660 H     1 <1>   0.1500 
 37 H        2.3820     2.5590    -1.7200 H     1 <1>   0.0800 
 38 H        0.9800     1.5030    -1.6820 H     1 <1>   0.0800 
 39 H        2.0870     1.5310    -0.3260 H     1 <1>   0.0800 
 40 H       -5.5730    -4.9450     0.4850 H     1 <1>   0.1500 
 41 H       -0.9590    -6.0260     0.5930 H     1 <1>   0.1500 
 42 H       -2.5950    -7.4610     1.6570 H     1 <1>   0.1500 
@<TRIPOS>BOND
  1   1   2  2   
  2   2   3  am  
  3   2   4  1   
  4   3   5  1   
  5   3   6  1   
  6   4   7  2   
  7   4   8  1   
  8   5   9  1   
  9   5  25  1   
 10   5  26  1   
 11   6  10  1   
 12   6  27  1   
 13   6  28  1   
 14   7  11  1   
 15   7  12  1   
 16   8  13  2   
 17   8  29  1   
 18   9  10  1   
 19   9  14  1   
 20   9  30  1   
 21  10  15  1   
 22  10  31  1   
 23  11  13  1   
 24  11  16  1   
 25  12  17  1   
 26  12  18  1   
 27  14  32  1   
 28  15  19  1   
 29  15  33  1   
 30  15  34  1   
 31  16  17  2   
 32  16  35  1   
 33  17  36  1   
 34  18  37  1   
 35  18  38  1   
 36  18  39  1   
 37  19  20  ar  
 38  19  21  ar  
 39  20  22  ar  
 40  21  23  ar  
 41  21  40  1   
 42  22  24  ar  
 43  22  41  1   
 44  23  24  ar  
 45  24  42  1   
@<TRIPOS>SUBSTRUCTURE
  1 ****   3 GROUP 4 **** **** 0

# MOE 2024.06 (io_trps.svl 2023.06)
