@<TRIPOS>MOLECULE
NONAME
57 60 1 0 0 
SMALL
USER_CHARGES


@<TRIPOS>ATOM
  1 O        0.3650    -3.4630    -1.5010 O.2   1 <1>  -0.5700 
  2 C        1.5500    -3.6750    -1.4050 C.2   1 <1>   0.5690 
  3 N        2.3470    -3.9940    -2.4700 N.am  1 <1>  -0.6600 
  4 C        2.2020    -3.5930    -0.0400 C.3   1 <1>  -0.0990 
  5 C        3.7930    -4.2680    -2.2710 C.3   1 <1>   0.1400 
  6 C        1.8220    -4.1350    -3.8540 C.3   1 <1>   0.0600 
  7 C        3.5260    -2.8130    -0.1220 C.3   1 <1>  -0.0800 
  8 C        4.4110    -3.2230    -1.3220 C.3   1 <1>  -0.0800 
  9 C        4.3910    -2.9580     1.1380 C.3   1 <1>  -0.1600 
 10 C        5.7450    -3.6850    -0.7250 C.3   1 <1>  -0.1600 
 11 C        5.8240    -2.9650     0.6180 C.3   1 <1>   0.2200 
 12 N        6.7960    -3.5770     1.5740 N.am  1 <1>  -0.6600 
 13 C        7.8370    -2.8510     2.1240 C.2   1 <1>   0.5440 
 14 C        6.7110    -5.0520     1.8160 C.3   1 <1>   0.0600 
 15 O        8.7070    -3.4430     2.7370 O.2   1 <1>  -0.5700 
 16 C        7.9330    -1.4100     2.0230 C.ar  1 <1>   0.0860 
 17 C        8.3250    -0.7460     0.8520 C.ar  1 <1>   0.0820 
 18 C        7.6210    -0.6260     3.1340 C.ar  1 <1>  -0.1500 
 19 O        8.6380    -1.4120    -0.2780 O.3   1 <1>  -0.3630 
 20 C        8.3640     0.6380     0.7990 C.ar  1 <1>  -0.1500 
 21 C        7.6720     0.7540     3.0840 C.ar  1 <1>  -0.1500 
 22 C        9.7880    -2.2380    -0.2930 C.3   1 <1>   0.2630 
 23 C        8.0400     1.3900     1.9120 C.ar  1 <1>  -0.1500 
 24 C        9.4840    -3.4740    -1.1240 C.ar  1 <1>  -0.1440 
 25 C        9.2330    -3.3620    -2.4830 C.ar  1 <1>  -0.1500 
 26 C        9.4550    -4.7250    -0.5290 C.ar  1 <1>  -0.1500 
 27 C        8.9540    -4.4880    -3.2390 C.ar  1 <1>  -0.1500 
 28 C        9.1770    -5.8530    -1.2830 C.ar  1 <1>  -0.1500 
 29 C        8.9270    -5.7340    -2.6390 C.ar  1 <1>  -0.1500 
 30 H        1.5320    -3.1140     0.6510 H     1 <1>   0.0800 
 31 H        2.3760    -4.5980     0.2990 H     1 <1>   0.0800 
 32 H        3.8920    -5.2540    -1.8510 H     1 <1>   0.0800 
 33 H        4.3120    -4.2490    -3.2140 H     1 <1>   0.0800 
 34 H        2.0040    -5.1320    -4.2130 H     1 <1>   0.0800 
 35 H        2.3080    -3.4260    -4.5010 H     1 <1>   0.0800 
 36 H        0.7610    -3.9490    -3.8750 H     1 <1>   0.0800 
 37 H        3.2820    -1.7700    -0.2480 H     1 <1>   0.0800 
 38 H        4.6030    -2.3340    -1.9010 H     1 <1>   0.0800 
 39 H        4.1660    -3.8820     1.6350 H     1 <1>   0.0800 
 40 H        4.2330    -2.1420     1.8200 H     1 <1>   0.0800 
 41 H        6.5740    -3.4220    -1.3560 H     1 <1>   0.0800 
 42 H        5.7270    -4.7500    -0.5850 H     1 <1>   0.0800 
 43 H        6.0910    -1.9450     0.4100 H     1 <1>   0.0800 
 44 H        5.6910    -5.3880     1.8030 H     1 <1>   0.0800 
 45 H        7.1330    -5.2990     2.7750 H     1 <1>   0.0800 
 46 H        7.2620    -5.5730     1.0540 H     1 <1>   0.0800 
 47 H        7.3370    -1.1190     4.0480 H     1 <1>   0.1500 
 48 H        8.6500     1.1220    -0.1180 H     1 <1>   0.1500 
 49 H        7.4250     1.3360     3.9560 H     1 <1>   0.1500 
 50 H       10.5910    -1.6750    -0.7330 H     1 <1>   0.0800 
 51 H       10.0610    -2.5040     0.7130 H     1 <1>   0.0800 
 52 H        8.0760     2.4660     1.8680 H     1 <1>   0.1500 
 53 H        9.2500    -2.3940    -2.9530 H     1 <1>   0.1500 
 54 H        9.6440    -4.8250     0.5280 H     1 <1>   0.1500 
 55 H        8.7610    -4.3930    -4.2930 H     1 <1>   0.1500 
 56 H        9.1600    -6.8200    -0.8130 H     1 <1>   0.1500 
 57 H        8.7140    -6.6110    -3.2250 H     1 <1>   0.1500 
@<TRIPOS>BOND
  1   1   2  2   
  2   2   3  am  
  3   2   4  1   
  4   3   5  1   
  5   3   6  1   
  6   4   7  1   
  7   4  30  1   
  8   4  31  1   
  9   5   8  1   
 10   5  32  1   
 11   5  33  1   
 12   6  34  1   
 13   6  35  1   
 14   6  36  1   
 15   7   8  1   
 16   7   9  1   
 17   7  37  1   
 18   8  10  1   
 19   8  38  1   
 20   9  11  1   
 21   9  39  1   
 22   9  40  1   
 23  10  11  1   
 24  10  41  1   
 25  10  42  1   
 26  11  12  1   
 27  11  43  1   
 28  12  13  am  
 29  12  14  1   
 30  13  15  2   
 31  13  16  1   
 32  14  44  1   
 33  14  45  1   
 34  14  46  1   
 35  16  17  ar  
 36  16  18  ar  
 37  17  19  1   
 38  17  20  ar  
 39  18  21  ar  
 40  18  47  1   
 41  19  22  1   
 42  20  23  ar  
 43  20  48  1   
 44  21  23  ar  
 45  21  49  1   
 46  22  24  1   
 47  22  50  1   
 48  22  51  1   
 49  23  52  1   
 50  24  25  ar  
 51  24  26  ar  
 52  25  27  ar  
 53  25  53  1   
 54  26  28  ar  
 55  26  54  1   
 56  27  29  ar  
 57  27  55  1   
 58  28  29  ar  
 59  28  56  1   
 60  29  57  1   
@<TRIPOS>SUBSTRUCTURE
  1 ****  11 GROUP 4 **** **** 0

# MOE 2024.06 (io_trps.svl 2023.06)
