@<TRIPOS>MOLECULE
NONAME
49 52 1 0 0 
SMALL
USER_CHARGES


@<TRIPOS>ATOM
  1 O       -0.6230    -0.6460     1.0830 O.2   1 <1>  -0.5700 
  2 C       -1.4110    -1.0070     0.2310 C.2   1 <1>   0.7160 
  3 N       -1.0810    -2.0860    -0.5380 N.am  1 <1>  -0.7300 
  4 C       -2.6750    -0.3360     0.0220 C.2   1 <1>  -0.0860 
  5 C        0.1970    -2.8310    -0.4610 C.3   1 <1>   0.1400 
  6 C       -3.1340     0.8570     0.4990 C.2   1 <1>  -0.0400 
  7 C       -3.7470    -0.8190    -0.7630 C.2   1 <1>  -0.1500 
  8 C        0.1260    -3.8940     0.6440 C.3   1 <1>  -0.0800 
  9 O       -4.3470     1.1030     0.0670 O.3   1 <1>  -0.2800 
 10 C       -2.4980     1.8980     1.4000 C.3   1 <1>  -0.0600 
 11 C       -4.7260     0.1020    -0.6920 C.2   1 <1>  -0.0400 
 12 C       -0.8510    -5.0240     0.2850 C.3   1 <1>   0.2000 
 13 C        1.4220    -4.7080     0.8670 C.3   1 <1>  -0.0800 
 14 C       -6.1040     0.1470    -1.3140 C.3   1 <1>  -0.0600 
 15 O       -0.0150    -5.8850    -0.3920 O.3   1 <1>  -0.5600 
 16 C       -1.2090    -5.8650     1.5180 C.3   1 <1>  -0.1600 
 17 C        0.9360    -6.1270     0.5830 C.3   1 <1>   0.2800 
 18 C        2.6150    -4.5340    -0.0860 C.3   1 <1>   0.1400 
 19 C        0.0740    -6.6790     1.7190 C.3   1 <1>  -0.1600 
 20 C        2.1390    -6.9220     0.0750 C.3   1 <1>   0.1400 
 21 N        3.1610    -5.9000    -0.2750 N.am  1 <1>  -0.6600 
 22 C        4.4570    -6.2220    -0.5740 C.2   1 <1>   0.5690 
 23 O        4.8420    -7.3680    -0.5490 O.2   1 <1>  -0.5700 
 24 C        5.4680    -5.1330    -0.9450 C.3   1 <1>   0.1810 
 25 O        5.9320    -4.4360     0.1780 O.3   1 <1>  -0.6800 
 26 H       -1.7120    -2.3470    -1.2940 H     1 <1>   0.3700 
 27 H        0.3880    -3.2920    -1.4150 H     1 <1>   0.0800 
 28 H        0.9940    -2.1390    -0.2460 H     1 <1>   0.0800 
 29 H       -3.7620    -1.7480    -1.3020 H     1 <1>   0.1500 
 30 H       -0.1690    -3.4140     1.5610 H     1 <1>   0.0800 
 31 H       -1.4960     1.6240     1.6690 H     1 <1>   0.0800 
 32 H       -3.0810     2.0000     2.2970 H     1 <1>   0.0800 
 33 H       -2.4730     2.8450     0.8940 H     1 <1>   0.0800 
 34 H       -1.6940    -4.7360    -0.3200 H     1 <1>   0.0800 
 35 H        1.7700    -4.6250     1.8810 H     1 <1>   0.0800 
 36 H       -6.2760    -0.7330    -1.9050 H     1 <1>   0.0800 
 37 H       -6.1890     1.0150    -1.9420 H     1 <1>   0.0800 
 38 H       -6.8480     0.2030    -0.5400 H     1 <1>   0.0800 
 39 H       -1.4500    -5.2490     2.3670 H     1 <1>   0.0800 
 40 H       -2.0410    -6.5080     1.2950 H     1 <1>   0.0800 
 41 H        3.3510    -3.8700     0.3360 H     1 <1>   0.0800 
 42 H        2.3110    -4.1700    -1.0500 H     1 <1>   0.0800 
 43 H       -0.1070    -7.7290     1.5700 H     1 <1>   0.0800 
 44 H        0.5260    -6.5200     2.6820 H     1 <1>   0.0800 
 45 H        1.8770    -7.5170    -0.7820 H     1 <1>   0.0800 
 46 H        2.5290    -7.5530     0.8540 H     1 <1>   0.0800 
 47 H        5.0180    -4.4250    -1.6160 H     1 <1>   0.0800 
 48 H        6.3150    -5.5830    -1.4310 H     1 <1>   0.0800 
 49 H        6.3030    -5.0720     0.8230 H     1 <1>   0.4000 
@<TRIPOS>BOND
  1   1   2  2   
  2   2   3  am  
  3   2   4  1   
  4   3   5  1   
  5   3  26  1   
  6   4   6  2   
  7   4   7  1   
  8   5   8  1   
  9   5  27  1   
 10   5  28  1   
 11   6   9  1   
 12   6  10  1   
 13   7  11  2   
 14   7  29  1   
 15   8  12  1   
 16   8  13  1   
 17   8  30  1   
 18   9  11  1   
 19  10  31  1   
 20  10  32  1   
 21  10  33  1   
 22  11  14  1   
 23  12  15  1   
 24  12  16  1   
 25  12  34  1   
 26  13  17  1   
 27  13  18  1   
 28  13  35  1   
 29  14  36  1   
 30  14  37  1   
 31  14  38  1   
 32  15  17  1   
 33  16  19  1   
 34  16  39  1   
 35  16  40  1   
 36  17  19  1   
 37  17  20  1   
 38  18  21  1   
 39  18  41  1   
 40  18  42  1   
 41  19  43  1   
 42  19  44  1   
 43  20  21  1   
 44  20  45  1   
 45  20  46  1   
 46  21  22  am  
 47  22  23  2   
 48  22  24  1   
 49  24  25  1   
 50  24  47  1   
 51  24  48  1   
 52  25  49  1   
@<TRIPOS>SUBSTRUCTURE
  1 ****   5 GROUP 4 **** **** 0

# MOE 2024.06 (io_trps.svl 2023.06)
