@<TRIPOS>MOLECULE
NONAME
44 46 1 0 0 
SMALL
USER_CHARGES


@<TRIPOS>ATOM
  1 CL      -2.3390     3.3060     2.0820 Cl    1 <1>  -0.1770 
  2 C       -3.1370     2.3720     0.8360 C.ar  1 <1>   0.1770 
  3 C       -2.5610     2.2090    -0.4130 C.ar  1 <1>   0.1900 
  4 C       -4.3600     1.7900     1.1080 C.ar  1 <1>  -0.1500 
  5 F       -1.4020     2.7580    -0.6770 F     1 <1>  -0.1900 
  6 C       -3.1840     1.4720    -1.4030 C.ar  1 <1>  -0.1500 
  7 C       -5.0030     1.0480     0.1260 C.ar  1 <1>   0.0830 
  8 C       -4.4120     0.8890    -1.1300 C.ar  1 <1>  -0.1500 
  9 O       -6.2000     0.5130     0.4670 O.3   1 <1>  -0.3630 
 10 C       -6.9770    -0.2260    -0.4670 C.3   1 <1>   0.1810 
 11 C       -8.2910    -0.7040     0.1460 C.2   1 <1>   0.5690 
 12 O       -8.4760    -1.9000     0.1680 O.2   1 <1>  -0.5700 
 13 N       -9.2370     0.1780     0.6150 N.am  1 <1>  -0.6600 
 14 C      -10.5160    -0.3010     1.2180 C.3   1 <1>   0.1400 
 15 C       -9.1290     1.6620     0.5680 C.3   1 <1>   0.1400 
 16 C      -11.7180     0.1880     0.3870 C.3   1 <1>   0.0000 
 17 C      -10.2890     2.2350    -0.2540 C.3   1 <1>  -0.1600 
 18 C      -13.0360    -0.3210     1.0010 C.3   1 <1>   0.2000 
 19 C      -11.6560     1.7380     0.2540 C.3   1 <1>  -0.1600 
 20 C      -11.7640    -0.4810    -0.9990 C.3   1 <1>  -0.1600 
 21 O      -13.4990     0.4770     2.0310 O.3   1 <1>  -0.6800 
 22 C      -14.0560    -0.3620    -0.1360 C.3   1 <1>  -0.1600 
 23 C      -13.2350    -0.4510    -1.4290 C.3   1 <1>  -0.1600 
 24 H       -4.8130     1.9090     2.0750 H     1 <1>   0.1500 
 25 H       -2.7140     1.3600    -2.3640 H     1 <1>   0.1500 
 26 H       -4.8870     0.3160    -1.9050 H     1 <1>   0.1500 
 27 H       -7.1860     0.4010    -1.3130 H     1 <1>   0.0800 
 28 H       -6.4020    -1.0790    -0.7770 H     1 <1>   0.0800 
 29 H      -10.5270    -1.3750     1.2810 H     1 <1>   0.0800 
 30 H      -10.5940     0.0820     2.2210 H     1 <1>   0.0800 
 31 H       -9.1730     2.0430     1.5750 H     1 <1>   0.0800 
 32 H       -8.1970     1.9780     0.1380 H     1 <1>   0.0800 
 33 H      -10.2590     3.3090    -0.1990 H     1 <1>   0.0800 
 34 H      -10.1520     1.9670    -1.2860 H     1 <1>   0.0800 
 35 H      -12.8990    -1.3160     1.3910 H     1 <1>   0.0800 
 36 H      -12.4330     2.0940    -0.4000 H     1 <1>   0.0800 
 37 H      -11.8130     2.1830     1.2200 H     1 <1>   0.0800 
 38 H      -11.1250    -0.0110    -1.7240 H     1 <1>   0.0800 
 39 H      -11.4550    -1.5090    -0.9070 H     1 <1>   0.0800 
 40 H      -13.6940     1.3690     1.6880 H     1 <1>   0.4000 
 41 H      -14.6940    -1.2210    -0.0280 H     1 <1>   0.0800 
 42 H      -14.6570     0.5310    -0.1520 H     1 <1>   0.0800 
 43 H      -13.4860    -1.3300    -1.9980 H     1 <1>   0.0800 
 44 H      -13.4210     0.4190    -2.0370 H     1 <1>   0.0800 
@<TRIPOS>BOND
  1   1   2  1   
  2   2   3  ar  
  3   2   4  ar  
  4   3   5  1   
  5   3   6  ar  
  6   4   7  ar  
  7   4  24  1   
  8   6   8  ar  
  9   6  25  1   
 10   7   8  ar  
 11   7   9  1   
 12   8  26  1   
 13   9  10  1   
 14  10  11  1   
 15  10  27  1   
 16  10  28  1   
 17  11  12  2   
 18  11  13  am  
 19  13  14  1   
 20  13  15  1   
 21  14  16  1   
 22  14  29  1   
 23  14  30  1   
 24  15  17  1   
 25  15  31  1   
 26  15  32  1   
 27  16  18  1   
 28  16  19  1   
 29  16  20  1   
 30  17  19  1   
 31  17  33  1   
 32  17  34  1   
 33  18  21  1   
 34  18  22  1   
 35  18  35  1   
 36  19  36  1   
 37  19  37  1   
 38  20  23  1   
 39  20  38  1   
 40  20  39  1   
 41  21  40  1   
 42  22  23  1   
 43  22  41  1   
 44  22  42  1   
 45  23  43  1   
 46  23  44  1   
@<TRIPOS>SUBSTRUCTURE
  1 ****  13 GROUP 4 **** **** 0

# MOE 2024.06 (io_trps.svl 2023.06)
