@<TRIPOS>MOLECULE
NONAME
41 43 1 0 0 
SMALL
USER_CHARGES


@<TRIPOS>ATOM
  1 O       -0.8660     0.4090     1.2030 O.2   1 <1>  -0.5700 
  2 C       -1.7750     0.8620     0.5350 C.2   1 <1>   0.7160 
  3 N       -2.9220     0.1180     0.3830 N.am  1 <1>  -0.6600 
  4 C       -1.6360     2.1420    -0.1060 C.2   1 <1>  -0.0860 
  5 C       -3.9680     0.3900    -0.6370 C.3   1 <1>   0.1400 
  6 C       -3.0510    -1.2700     0.8970 C.3   1 <1>   0.1400 
  7 C       -2.3450     3.2860    -0.0120 C.2   1 <1>  -0.0400 
  8 C       -0.6710     2.4980    -1.0330 C.2   1 <1>   0.1080 
  9 C       -4.9580    -0.7660    -0.4900 C.3   1 <1>   0.2000 
 10 C       -4.1110    -1.9390     0.0100 C.3   1 <1>  -0.0800 
 11 O       -1.8870     4.2200    -0.8110 O.3   1 <1>  -0.0190 
 12 C       -3.5320     3.6230     0.8690 C.3   1 <1>  -0.0600 
 13 N       -0.8500     3.7000    -1.4290 N.2   1 <1>  -0.4100 
 14 C        0.4480     1.6020    -1.5210 C.3   1 <1>  -0.0590 
 15 O       -5.8660    -0.4390     0.5030 O.3   1 <1>  -0.6800 
 16 C       -3.4670    -2.6900    -1.1710 C.3   1 <1>   0.0200 
 17 C       -2.6740    -3.9140    -0.7450 C.2   1 <1>  -0.0400 
 18 O       -1.9660    -4.5430    -1.6450 O.3   1 <1>  -0.0190 
 19 C       -2.5140    -4.5570     0.4230 C.2   1 <1>  -0.1500 
 20 N       -1.3390    -5.5670    -1.1430 N.2   1 <1>  -0.4100 
 21 C       -1.6510    -5.6000     0.1020 C.2   1 <1>   0.1080 
 22 C       -1.1420    -6.6380     1.0780 C.3   1 <1>  -0.0590 
 23 H       -4.4480     1.3400    -0.4830 H     1 <1>   0.0800 
 24 H       -3.5200     0.3710    -1.6150 H     1 <1>   0.0800 
 25 H       -2.1040    -1.7830     0.8610 H     1 <1>   0.0800 
 26 H       -3.3860    -1.2310     1.9200 H     1 <1>   0.0800 
 27 H       -5.5080    -0.9730    -1.3930 H     1 <1>   0.0800 
 28 H       -4.7130    -2.6330     0.5710 H     1 <1>   0.0800 
 29 H       -3.7840     2.7920     1.5020 H     1 <1>   0.0800 
 30 H       -4.3820     3.8710     0.2590 H     1 <1>   0.0800 
 31 H       -3.2920     4.4680     1.4890 H     1 <1>   0.0800 
 32 H        0.0410     0.7190    -1.9780 H     1 <1>   0.0800 
 33 H        1.0710     1.3150    -0.6930 H     1 <1>   0.0800 
 34 H        1.0500     2.1240    -2.2440 H     1 <1>   0.0800 
 35 H       -5.3820    -0.1470     1.3010 H     1 <1>   0.4000 
 36 H       -2.8080    -2.0320    -1.7100 H     1 <1>   0.0800 
 37 H       -4.2340    -3.0150    -1.8510 H     1 <1>   0.0800 
 38 H       -2.9290    -4.3560     1.3930 H     1 <1>   0.1500 
 39 H       -1.9690    -7.1400     1.5430 H     1 <1>   0.0800 
 40 H       -0.5420    -6.1640     1.8330 H     1 <1>   0.0800 
 41 H       -0.5400    -7.3630     0.5610 H     1 <1>   0.0800 
@<TRIPOS>BOND
  1   1   2  2   
  2   2   3  am  
  3   2   4  1   
  4   3   5  1   
  5   3   6  1   
  6   4   7  2   
  7   4   8  1   
  8   5   9  1   
  9   5  23  1   
 10   5  24  1   
 11   6  10  1   
 12   6  25  1   
 13   6  26  1   
 14   7  11  1   
 15   7  12  1   
 16   8  13  2   
 17   8  14  1   
 18   9  10  1   
 19   9  15  1   
 20   9  27  1   
 21  10  16  1   
 22  10  28  1   
 23  11  13  1   
 24  12  29  1   
 25  12  30  1   
 26  12  31  1   
 27  14  32  1   
 28  14  33  1   
 29  14  34  1   
 30  15  35  1   
 31  16  17  1   
 32  16  36  1   
 33  16  37  1   
 34  17  18  1   
 35  17  19  2   
 36  18  20  1   
 37  19  21  1   
 38  19  38  1   
 39  20  21  2   
 40  21  22  1   
 41  22  39  1   
 42  22  40  1   
 43  22  41  1   
@<TRIPOS>SUBSTRUCTURE
  1 ****   3 GROUP 4 **** **** 0

# MOE 2024.06 (io_trps.svl 2023.06)
