@<TRIPOS>MOLECULE
NONAME
48 50 1 0 0 
SMALL
USER_CHARGES


@<TRIPOS>ATOM
  1 F        2.5800     4.5500     3.1500 F     1 <1>  -0.1900 
  2 C        3.7740     4.6590     2.6260 C.ar  1 <1>   0.1900 
  3 C        4.4480     3.5190     2.2590 C.ar  1 <1>  -0.1500 
  4 C        4.3020     5.9450     2.4670 C.ar  1 <1>  -0.1500 
  5 C        5.7160     3.6730     1.7050 C.ar  1 <1>   0.2270 
  6 C        5.5570     6.0930     1.9200 C.ar  1 <1>  -0.1500 
  7 N        6.5850     2.7260     1.2550 N.2   1 <1>  -0.5650 
  8 C        6.2540     4.9390     1.5460 C.ar  1 <1>  -0.1520 
  9 C        7.6050     3.3980     0.8390 C.2   1 <1>   0.0060 
 10 N        7.4760     4.7420     0.9910 N.pl3 1 <1>   0.0330 
 11 C        8.8490     2.7700     0.2350 C.3   1 <1>   0.3000 
 12 O        9.4310     3.6750    -0.6530 O.3   1 <1>  -0.5600 
 13 C       10.6570     3.2620    -1.2130 C.3   1 <1>   0.1810 
 14 C       11.3880     4.4650    -1.8030 C.2   1 <1>   0.5690 
 15 O       12.5960     4.5020    -1.7840 O.2   1 <1>  -0.5700 
 16 N       10.6350     5.4910    -2.2620 N.am  1 <1>  -0.7300 
 17 C       11.0000     6.8980    -2.0570 C.3   1 <1>   0.2840 
 18 C       10.4670     7.2800    -0.6810 C.ar  1 <1>  -0.1430 
 19 C        9.0870     7.3720    -0.4940 C.ar  1 <1>   0.3930 
 20 C       11.3030     7.4910     0.4020 C.ar  1 <1>  -0.1430 
 21 O        8.2860     7.1740    -1.5680 O.3   1 <1>  -0.3630 
 22 N        8.4990     7.6170     0.6720 N.ar  1 <1>  -0.6200 
 23 C       10.6900     7.7680     1.6080 C.ar  1 <1>  -0.1500 
 24 C       12.8210     7.4140     0.3210 C.3   1 <1>  -0.0970 
 25 C        6.8820     7.3410    -1.4950 C.3   1 <1>   0.0400 
 26 C        9.3100     7.8160     1.6930 C.ar  1 <1>   0.1670 
 27 C        8.6420     8.1040     3.0210 C.3   1 <1>  -0.0970 
 28 H        4.0310     2.5390     2.3850 H     1 <1>   0.1500 
 29 H        3.7200     6.7950     2.7740 H     1 <1>   0.1500 
 30 H        6.0010     7.0630     1.7760 H     1 <1>   0.1500 
 31 H        8.1440     5.4740     0.7100 H     1 <1>   0.2700 
 32 H        8.5900     1.8720    -0.2990 H     1 <1>   0.0800 
 33 H        9.5530     2.5430     1.0170 H     1 <1>   0.0800 
 34 H       10.4610     2.5360    -1.9810 H     1 <1>   0.0800 
 35 H       11.2710     2.8280    -0.4440 H     1 <1>   0.0800 
 36 H        9.6220     5.3540    -2.1720 H     1 <1>   0.3700 
 37 H       10.5420     7.5040    -2.8200 H     1 <1>   0.0800 
 38 H       12.0660     7.0140    -2.1290 H     1 <1>   0.0800 
 39 H       11.2860     7.9420     2.4850 H     1 <1>   0.1500 
 40 H       13.1250     6.4350    -0.0050 H     1 <1>   0.0800 
 41 H       13.2690     7.6010     1.2800 H     1 <1>   0.0800 
 42 H       13.1940     8.1450    -0.3730 H     1 <1>   0.0800 
 43 H        6.4740     7.2110    -2.4810 H     1 <1>   0.0800 
 44 H        6.6670     8.3320    -1.1340 H     1 <1>   0.0800 
 45 H        6.4740     6.6020    -0.8300 H     1 <1>   0.0800 
 46 H        7.9710     8.9360     2.9140 H     1 <1>   0.0800 
 47 H        9.3680     8.3410     3.7770 H     1 <1>   0.0800 
 48 H        8.0820     7.2430     3.3380 H     1 <1>   0.0800 
@<TRIPOS>BOND
  1   1   2  1   
  2   2   3  ar  
  3   2   4  ar  
  4   3   5  ar  
  5   3  28  1   
  6   4   6  ar  
  7   4  29  1   
  8   5   7  1   
  9   5   8  ar  
 10   6   8  ar  
 11   6  30  1   
 12   7   9  2   
 13   8  10  1   
 14   9  10  1   
 15   9  11  1   
 16  10  31  1   
 17  11  12  1   
 18  11  32  1   
 19  11  33  1   
 20  12  13  1   
 21  13  14  1   
 22  13  34  1   
 23  13  35  1   
 24  14  15  2   
 25  14  16  am  
 26  16  17  1   
 27  16  36  1   
 28  17  18  1   
 29  17  37  1   
 30  17  38  1   
 31  18  19  ar  
 32  18  20  ar  
 33  19  21  1   
 34  19  22  ar  
 35  20  23  ar  
 36  20  24  1   
 37  21  25  1   
 38  22  26  ar  
 39  23  26  ar  
 40  23  39  1   
 41  24  40  1   
 42  24  41  1   
 43  24  42  1   
 44  25  43  1   
 45  25  44  1   
 46  25  45  1   
 47  26  27  1   
 48  27  46  1   
 49  27  47  1   
 50  27  48  1   
@<TRIPOS>SUBSTRUCTURE
  1 ****  10 GROUP 4 **** **** 0

# MOE 2024.06 (io_trps.svl 2023.06)
