@<TRIPOS>MOLECULE
NONAME
51 53 1 0 0 
SMALL
USER_CHARGES


@<TRIPOS>ATOM
  1 O        1.1450    -0.3860     2.0590 O.2   1 <1>  -0.5700 
  2 C        1.6490    -0.8240     1.0410 C.2   1 <1>   0.5440 
  3 N        2.3370     0.0390     0.2140 N.am  1 <1>  -0.6600 
  4 C        1.5390    -2.2360     0.7520 C.ar  1 <1>   0.0860 
  5 C        3.0420    -0.3830    -1.0380 C.3   1 <1>   0.1400 
  6 C        2.5220     1.4710     0.5630 C.3   1 <1>   0.1400 
  7 C        0.7480    -2.7640    -0.2820 C.ar  1 <1>   0.0820 
  8 C        2.2780    -3.1340     1.5230 C.ar  1 <1>  -0.1500 
  9 C        4.5490    -0.5760    -0.8140 C.3   1 <1>   0.1400 
 10 C        3.6980     1.6580     1.5310 C.3   1 <1>  -0.1600 
 11 O       -0.0440    -2.0150    -1.0840 O.3   1 <1>  -0.3620 
 12 C        0.7550    -4.1260    -0.5450 C.ar  1 <1>  -0.1500 
 13 C        2.2700    -4.4920     1.2660 C.ar  1 <1>  -0.1500 
 14 N        5.1930     0.6340    -0.2060 N.am  1 <1>  -0.6600 
 15 C        4.9290     0.7810     1.2550 C.3   1 <1>   0.1400 
 16 C       -0.8850    -1.0210    -0.5400 C.3   1 <1>   0.1200 
 17 C        1.5110    -4.9900     0.2230 C.ar  1 <1>  -0.1500 
 18 C        5.9250     1.5010    -0.9800 C.2   1 <1>   0.5690 
 19 C       -2.0980    -0.8790    -1.4550 C.3   1 <1>  -0.2400 
 20 O        6.0250     1.3290    -2.1730 O.2   1 <1>  -0.5700 
 21 C        6.6420     2.7020    -0.3580 C.3   1 <1>  -0.0190 
 22 C        6.8530     3.9190    -1.2890 C.3   1 <1>  -0.0220 
 23 C        8.0340     2.3460     0.2030 C.3   1 <1>  -0.0220 
 24 C        8.1800     4.4630    -0.8200 C.2   1 <1>  -0.2880 
 25 C        8.8160     3.6170    -0.0190 C.2   1 <1>  -0.2880 
 26 H        2.8960     0.3630    -1.8000 H     1 <1>   0.0800 
 27 H        2.6260    -1.2990    -1.4150 H     1 <1>   0.0800 
 28 H        1.6210     1.8560     1.0090 H     1 <1>   0.0800 
 29 H        2.7070     2.0350    -0.3360 H     1 <1>   0.0800 
 30 H        2.8690    -2.7500     2.3370 H     1 <1>   0.1500 
 31 H        5.0100    -0.8040    -1.7590 H     1 <1>   0.0800 
 32 H        4.7060    -1.4270    -0.1760 H     1 <1>   0.0800 
 33 H        3.3520     1.4440     2.5270 H     1 <1>   0.0800 
 34 H        3.9830     2.6930     1.5220 H     1 <1>   0.0800 
 35 H        0.1570    -4.5040    -1.3550 H     1 <1>   0.1500 
 36 H        2.8520    -5.1630     1.8750 H     1 <1>   0.1500 
 37 H        4.7550    -0.1950     1.6760 H     1 <1>   0.0800 
 38 H        5.7900     1.1870     1.7540 H     1 <1>   0.0800 
 39 H       -0.3390    -0.0950    -0.4940 H     1 <1>   0.0800 
 40 H       -1.1870    -1.3190     0.4500 H     1 <1>   0.0800 
 41 H        1.5050    -6.0470     0.0140 H     1 <1>   0.1500 
 42 H       -1.7840    -0.5880    -2.4410 H     1 <1>   0.0800 
 43 H       -2.7570    -0.1240    -1.0670 H     1 <1>   0.0800 
 44 H       -2.6320    -1.8100    -1.5050 H     1 <1>   0.0800 
 45 H        6.0560     3.0700     0.4610 H     1 <1>   0.0800 
 46 H        6.0620     4.6380    -1.1710 H     1 <1>   0.0800 
 47 H        6.9350     3.6360    -2.3250 H     1 <1>   0.0800 
 48 H        8.4860     1.5410    -0.3520 H     1 <1>   0.0800 
 49 H        7.9820     2.0900     1.2460 H     1 <1>   0.0800 
 50 H        8.4960     5.4330    -1.1670 H     1 <1>   0.1500 
 51 H        9.7800     3.7250     0.4490 H     1 <1>   0.1500 
@<TRIPOS>BOND
  1   1   2  2   
  2   2   3  am  
  3   2   4  1   
  4   3   5  1   
  5   3   6  1   
  6   4   7  ar  
  7   4   8  ar  
  8   5   9  1   
  9   5  26  1   
 10   5  27  1   
 11   6  10  1   
 12   6  28  1   
 13   6  29  1   
 14   7  11  1   
 15   7  12  ar  
 16   8  13  ar  
 17   8  30  1   
 18   9  14  1   
 19   9  31  1   
 20   9  32  1   
 21  10  15  1   
 22  10  33  1   
 23  10  34  1   
 24  11  16  1   
 25  12  17  ar  
 26  12  35  1   
 27  13  17  ar  
 28  13  36  1   
 29  14  15  1   
 30  14  18  am  
 31  15  37  1   
 32  15  38  1   
 33  16  19  1   
 34  16  39  1   
 35  16  40  1   
 36  17  41  1   
 37  18  20  2   
 38  18  21  1   
 39  19  42  1   
 40  19  43  1   
 41  19  44  1   
 42  21  22  1   
 43  21  23  1   
 44  21  45  1   
 45  22  24  1   
 46  22  46  1   
 47  22  47  1   
 48  23  25  1   
 49  23  48  1   
 50  23  49  1   
 51  24  25  2   
 52  24  50  1   
 53  25  51  1   
@<TRIPOS>SUBSTRUCTURE
  1 ****   5 GROUP 4 **** **** 0

# MOE 2024.06 (io_trps.svl 2023.06)
