@<TRIPOS>MOLECULE
NONAME
49 51 1 0 0 
SMALL
USER_CHARGES


@<TRIPOS>ATOM
  1 S       -0.5980     0.6780    -0.5930 S.3   1 <1>  -0.0800 
  2 C       -1.9260    -0.2800     0.0520 C.2   1 <1>  -0.1400 
  3 C       -1.3740     0.7810    -2.1620 C.2   1 <1>  -0.1100 
  4 C       -2.8710    -0.4630    -0.8900 C.2   1 <1>  -0.1500 
  5 C       -1.8410    -0.7190     1.5030 C.3   1 <1>   0.0200 
  6 C       -2.5530     0.1340    -2.1510 C.2   1 <1>  -0.1500 
  7 C       -0.5740    -1.5400     1.8240 C.3   1 <1>  -0.1600 
  8 C        0.0640    -2.3680     0.6820 C.3   1 <1>   0.4230 
  9 N       -0.6220    -3.6770     0.4320 N.4   1 <1>  -0.9590 
 10 C        1.5350    -2.6370     1.0440 C.3   1 <1>  -0.1600 
 11 C        0.0480    -4.4660    -0.6510 C.3   1 <1>   0.3430 
 12 C       -2.0760    -3.5560     0.1210 C.3   1 <1>   0.5230 
 13 C        2.2680    -3.4690    -0.0130 C.3   1 <1>  -0.1600 
 14 C        1.4980    -4.7620    -0.2810 C.3   1 <1>  -0.1600 
 15 C       -2.7020    -4.9300     0.0280 C.2   1 <1>  -0.0400 
 16 O       -2.5510    -5.7520     1.0290 O.3   1 <1>  -0.0190 
 17 C       -3.4180    -5.5560    -0.9200 C.2   1 <1>  -0.1500 
 18 N       -3.1160    -6.8970     0.8010 N.2   1 <1>  -0.4100 
 19 C       -3.6560    -6.8130    -0.3660 C.2   1 <1>   0.1080 
 20 C       -4.4420    -7.9290    -1.0490 C.3   1 <1>   0.1010 
 21 C       -5.6560    -8.3360    -0.2050 C.3   1 <1>  -0.2400 
 22 C       -3.5440    -9.1440    -1.3120 C.3   1 <1>  -0.2400 
 23 H       -0.8610     1.3290    -2.9340 H     1 <1>   0.1500 
 24 H       -3.8040    -0.9850    -0.7610 H     1 <1>   0.1500 
 25 H       -2.7250    -1.2740     1.7580 H     1 <1>   0.0800 
 26 H       -1.8520     0.1610     2.1240 H     1 <1>   0.0800 
 27 H       -3.2270     0.0590    -2.9880 H     1 <1>   0.1500 
 28 H       -0.7430    -2.1590     2.6870 H     1 <1>   0.0800 
 29 H        0.1590    -0.8090     2.1220 H     1 <1>   0.0800 
 30 H        0.0510    -1.7880    -0.2260 H     1 <1>   0.0800 
 31 H       -0.5500    -4.2380     1.2890 H     1 <1>   0.4500 
 32 H        1.5890    -3.1380     1.9950 H     1 <1>   0.0800 
 33 H        2.0530    -1.6990     1.1470 H     1 <1>   0.0800 
 34 H        0.0210    -3.9120    -1.5750 H     1 <1>   0.0800 
 35 H       -0.4660    -5.4030    -0.8030 H     1 <1>   0.0800 
 36 H       -2.2170    -3.0210    -0.8030 H     1 <1>   0.0800 
 37 H       -2.5770    -3.0250     0.9080 H     1 <1>   0.0800 
 38 H        3.2650    -3.7000     0.3270 H     1 <1>   0.0800 
 39 H        2.3550    -2.9010    -0.9250 H     1 <1>   0.0800 
 40 H        1.9660    -5.2950    -1.0900 H     1 <1>   0.0800 
 41 H        1.5260    -5.4000     0.5850 H     1 <1>   0.0800 
 42 H       -3.7520    -5.2200    -1.8850 H     1 <1>   0.1500 
 43 H       -4.8000    -7.5630    -1.9960 H     1 <1>   0.0800 
 44 H       -5.3370    -8.7230     0.7470 H     1 <1>   0.0800 
 45 H       -6.2290    -9.0930    -0.7110 H     1 <1>   0.0800 
 46 H       -6.2890    -7.4840    -0.0320 H     1 <1>   0.0800 
 47 H       -3.1760    -9.5440    -0.3830 H     1 <1>   0.0800 
 48 H       -2.7020    -8.8590    -1.9180 H     1 <1>   0.0800 
 49 H       -4.0930    -9.9120    -1.8260 H     1 <1>   0.0800 
@<TRIPOS>BOND
  1   1   2  1   
  2   1   3  1   
  3   2   4  2   
  4   2   5  1   
  5   3   6  2   
  6   3  23  1   
  7   4   6  1   
  8   4  24  1   
  9   5   7  1   
 10   5  25  1   
 11   5  26  1   
 12   6  27  1   
 13   7   8  1   
 14   7  28  1   
 15   7  29  1   
 16   8   9  1   
 17   8  10  1   
 18   8  30  1   
 19   9  11  1   
 20   9  12  1   
 21   9  31  1   
 22  10  13  1   
 23  10  32  1   
 24  10  33  1   
 25  11  14  1   
 26  11  34  1   
 27  11  35  1   
 28  12  15  1   
 29  12  36  1   
 30  12  37  1   
 31  13  14  1   
 32  13  38  1   
 33  13  39  1   
 34  14  40  1   
 35  14  41  1   
 36  15  16  1   
 37  15  17  2   
 38  16  18  1   
 39  17  19  1   
 40  17  42  1   
 41  18  19  2   
 42  19  20  1   
 43  20  21  1   
 44  20  22  1   
 45  20  43  1   
 46  21  44  1   
 47  21  45  1   
 48  21  46  1   
 49  22  47  1   
 50  22  48  1   
 51  22  49  1   
@<TRIPOS>SUBSTRUCTURE
  1 ****  12 GROUP 4 **** **** 0

# MOE 2024.06 (io_trps.svl 2023.06)
