@<TRIPOS>MOLECULE
NONAME
59 61 1 0 0 
SMALL
USER_CHARGES


@<TRIPOS>ATOM
  1 F       -0.8920     0.0310     1.1890 F     1 <1>  -0.1900 
  2 C       -2.1020     0.4160     0.8740 C.ar  1 <1>   0.1900 
  3 C       -2.3420     1.3760    -0.1160 C.ar  1 <1>   0.0830 
  4 C       -3.1360    -0.1770     1.5730 C.ar  1 <1>  -0.1500 
  5 O       -1.4120     2.0300    -0.8690 O.3   1 <1>  -0.3630 
  6 C       -3.6600     1.7150    -0.3750 C.ar  1 <1>  -0.1500 
  7 C       -4.4400     0.1850     1.2890 C.ar  1 <1>  -0.1500 
  8 C       -0.0260     1.7870    -0.7620 C.3   1 <1>   0.0400 
  9 C       -4.7300     1.1330     0.3070 C.ar  1 <1>   0.0530 
 10 C       -6.0840     1.5210     0.0050 C.2   1 <1>   0.0870 
 11 O       -6.3730     2.7900    -0.1260 O.3   1 <1>  -0.0190 
 12 C       -7.2380     0.8270    -0.1950 C.2   1 <1>  -0.0860 
 13 N       -7.6330     3.0030    -0.3890 N.2   1 <1>  -0.4100 
 14 C       -8.1770     1.8390    -0.4360 C.2   1 <1>   0.3720 
 15 C       -7.4980    -0.5810    -0.2060 C.2   1 <1>   0.7160 
 16 N       -9.5420     1.6500    -0.7070 N.pl3 1 <1>  -0.8210 
 17 O       -6.6130    -1.4080    -0.0950 O.2   1 <1>  -0.5700 
 18 N       -8.7690    -1.0510    -0.3470 N.am  1 <1>  -0.7300 
 19 C       -9.9050     2.0890    -2.0860 C.3   1 <1>   0.1290 
 20 C      -10.4180     2.3190     0.2980 C.3   1 <1>   0.1290 
 21 C       -9.1380    -2.4600    -0.6380 C.3   1 <1>   0.1400 
 22 C       -8.6930    -3.4170     0.5020 C.3   1 <1>   0.4230 
 23 N       -8.8950    -4.8650     0.1890 N.4   1 <1>  -0.9590 
 24 C       -9.5500    -3.2320     1.7520 C.3   1 <1>  -0.1600 
 25 C       -8.3600    -5.3470    -1.1110 C.3   1 <1>   0.4230 
 26 C      -10.3310    -5.1450     0.4500 C.3   1 <1>   0.3430 
 27 C      -10.7060    -4.2270     1.6090 C.3   1 <1>  -0.1600 
 28 C       -8.6290    -6.8440    -1.2520 C.3   1 <1>  -0.2400 
 29 C       -6.8530    -5.0940    -1.1580 C.3   1 <1>  -0.2400 
 30 H       -2.9190    -0.9100     2.3290 H     1 <1>   0.1500 
 31 H       -3.8590     2.4530    -1.1310 H     1 <1>   0.1500 
 32 H       -5.2450    -0.2720     1.8360 H     1 <1>   0.1500 
 33 H        0.4790     2.4160    -1.4730 H     1 <1>   0.0800 
 34 H        0.1670     0.7540    -0.9870 H     1 <1>   0.0800 
 35 H        0.2960     2.0330     0.2350 H     1 <1>   0.0800 
 36 H       -9.4640    -0.3080    -0.5440 H     1 <1>   0.3700 
 37 H       -9.2520     1.6220    -2.8030 H     1 <1>   0.0800 
 38 H       -9.8050     3.1580    -2.1740 H     1 <1>   0.0800 
 39 H      -10.9210     1.8100    -2.3090 H     1 <1>   0.0800 
 40 H      -10.1130     2.0420     1.2930 H     1 <1>   0.0800 
 41 H      -11.4420     2.0210     0.1540 H     1 <1>   0.0800 
 42 H      -10.3450     3.3890     0.2030 H     1 <1>   0.0800 
 43 H       -8.6530    -2.7330    -1.5580 H     1 <1>   0.0800 
 44 H      -10.2030    -2.5180    -0.7790 H     1 <1>   0.0800 
 45 H       -7.6550    -3.2330     0.7260 H     1 <1>   0.0800 
 46 H       -8.3670    -5.3680     0.9110 H     1 <1>   0.4500 
 47 H       -9.8960    -2.2190     1.8650 H     1 <1>   0.0800 
 48 H       -8.9570    -3.4770     2.6160 H     1 <1>   0.0800 
 49 H       -8.8370    -4.8250    -1.9250 H     1 <1>   0.0800 
 50 H      -10.4920    -6.1820     0.7000 H     1 <1>   0.0800 
 51 H      -10.9190    -4.8930    -0.4190 H     1 <1>   0.0800 
 52 H      -11.6310    -3.7230     1.3870 H     1 <1>   0.0800 
 53 H      -10.8380    -4.7950     2.5140 H     1 <1>   0.0800 
 54 H       -8.2170    -7.3930    -0.4250 H     1 <1>   0.0800 
 55 H       -8.1690    -7.2090    -2.1540 H     1 <1>   0.0800 
 56 H       -9.6810    -7.0470    -1.3340 H     1 <1>   0.0800 
 57 H       -6.3520    -5.5780    -0.3390 H     1 <1>   0.0800 
 58 H       -6.6250    -4.0440    -1.1440 H     1 <1>   0.0800 
 59 H       -6.4490    -5.4900    -2.0740 H     1 <1>   0.0800 
@<TRIPOS>BOND
  1   1   2  1   
  2   2   3  ar  
  3   2   4  ar  
  4   3   5  1   
  5   3   6  ar  
  6   4   7  ar  
  7   4  30  1   
  8   5   8  1   
  9   6   9  ar  
 10   6  31  1   
 11   7   9  ar  
 12   7  32  1   
 13   8  33  1   
 14   8  34  1   
 15   8  35  1   
 16   9  10  1   
 17  10  11  1   
 18  10  12  2   
 19  11  13  1   
 20  12  14  1   
 21  12  15  1   
 22  13  14  2   
 23  14  16  1   
 24  15  17  2   
 25  15  18  am  
 26  16  19  1   
 27  16  20  1   
 28  18  21  1   
 29  18  36  1   
 30  19  37  1   
 31  19  38  1   
 32  19  39  1   
 33  20  40  1   
 34  20  41  1   
 35  20  42  1   
 36  21  22  1   
 37  21  43  1   
 38  21  44  1   
 39  22  23  1   
 40  22  24  1   
 41  22  45  1   
 42  23  25  1   
 43  23  26  1   
 44  23  46  1   
 45  24  27  1   
 46  24  47  1   
 47  24  48  1   
 48  25  28  1   
 49  25  29  1   
 50  25  49  1   
 51  26  27  1   
 52  26  50  1   
 53  26  51  1   
 54  27  52  1   
 55  27  53  1   
 56  28  54  1   
 57  28  55  1   
 58  28  56  1   
 59  29  57  1   
 60  29  58  1   
 61  29  59  1   
@<TRIPOS>SUBSTRUCTURE
  1 ****  17 GROUP 4 **** **** 0

# MOE 2024.06 (io_trps.svl 2023.06)
