@<TRIPOS>MOLECULE
NONAME
45 46 1 0 0 
SMALL
USER_CHARGES


@<TRIPOS>ATOM
  1 O        0.7440     2.9130     1.1480 O.co2 1 <1>  -0.9000 
  2 C       -0.4430     3.2380     1.1220 C.2   1 <1>   0.9060 
  3 O       -0.9050     4.0860     1.8930 O.co2 1 <1>  -0.9000 
  4 C       -1.2450     2.7900    -0.0730 C.3   1 <1>  -0.1860 
  5 C       -2.7240     3.2260    -0.1690 C.3   1 <1>   0.2000 
  6 C       -0.4710     3.3290    -1.2700 C.3   1 <1>   0.3430 
  7 O       -3.2430     3.4060     1.0890 O.3   1 <1>  -0.6800 
  8 C       -2.9280     4.5300    -0.9520 C.3   1 <1>  -0.1600 
  9 N       -0.4850     4.8400    -1.3360 N.4   1 <1>  -0.9590 
 10 C       -1.7310     5.4540    -0.7560 C.3   1 <1>   0.3430 
 11 C        0.7040     5.3570    -0.5880 C.3   1 <1>   0.3430 
 12 C        1.0510     6.7750    -1.0230 C.3   1 <1>  -0.1600 
 13 C        2.1930     7.2950    -0.1540 C.3   1 <1>   0.1200 
 14 O        2.5190     8.5870    -0.6040 O.3   1 <1>  -0.3630 
 15 C        3.5000     9.3050     0.0040 C.ar  1 <1>   0.0830 
 16 C        3.7760    10.5550    -0.5260 C.ar  1 <1>  -0.1500 
 17 C        4.2220     8.8540     1.1060 C.ar  1 <1>  -0.1500 
 18 C        4.7600    11.3550     0.0280 C.ar  1 <1>  -0.1500 
 19 C        5.2050     9.6540     1.6600 C.ar  1 <1>  -0.1500 
 20 C        5.4820    10.9040     1.1290 C.ar  1 <1>   0.0830 
 21 O        6.4640    11.6200     1.7370 O.3   1 <1>  -0.3620 
 22 C        6.8190    12.9030     1.2740 C.3   1 <1>   0.0400 
 23 H       -1.2030     1.7190    -0.0890 H     1 <1>   0.0800 
 24 H       -3.3100     2.4490    -0.6330 H     1 <1>   0.0800 
 25 H       -0.9170     2.9310    -2.1660 H     1 <1>   0.0800 
 26 H        0.5470     2.9720    -1.2200 H     1 <1>   0.0800 
 27 H       -2.5010     3.7540     1.6730 H     1 <1>   0.4000 
 28 H       -3.0400     4.3170    -1.9990 H     1 <1>   0.0800 
 29 H       -3.8290     5.0160    -0.6230 H     1 <1>   0.0800 
 30 H       -0.3890     5.1180    -2.3170 H     1 <1>   0.4500 
 31 H       -1.5990     5.6090     0.3050 H     1 <1>   0.0800 
 32 H       -1.9190     6.4110    -1.2120 H     1 <1>   0.0800 
 33 H        0.5020     5.3470     0.4730 H     1 <1>   0.0800 
 34 H        1.5520     4.7110    -0.7560 H     1 <1>   0.0800 
 35 H        0.2060     7.4250    -0.8940 H     1 <1>   0.0800 
 36 H        1.3630     6.7740    -2.0520 H     1 <1>   0.0800 
 37 H        3.0680     6.6740    -0.2480 H     1 <1>   0.0800 
 38 H        1.8900     7.3590     0.8780 H     1 <1>   0.0800 
 39 H        3.2140    10.8970    -1.3770 H     1 <1>   0.1500 
 40 H        4.0380     7.8930     1.5480 H     1 <1>   0.1500 
 41 H        4.9470    12.3180    -0.4080 H     1 <1>   0.1500 
 42 H        5.7670     9.3140     2.5110 H     1 <1>   0.1500 
 43 H        7.6100    13.2770     1.8990 H     1 <1>   0.0800 
 44 H        5.9620    13.5490     1.3430 H     1 <1>   0.0800 
 45 H        7.1640    12.8240     0.2580 H     1 <1>   0.0800 
@<TRIPOS>BOND
  1   1   2  ar  
  2   2   3  ar  
  3   2   4  1   
  4   4   5  1   
  5   4   6  1   
  6   4  23  1   
  7   5   7  1   
  8   5   8  1   
  9   5  24  1   
 10   6   9  1   
 11   6  25  1   
 12   6  26  1   
 13   7  27  1   
 14   8  10  1   
 15   8  28  1   
 16   8  29  1   
 17   9  10  1   
 18   9  11  1   
 19   9  30  1   
 20  10  31  1   
 21  10  32  1   
 22  11  12  1   
 23  11  33  1   
 24  11  34  1   
 25  12  13  1   
 26  12  35  1   
 27  12  36  1   
 28  13  14  1   
 29  13  37  1   
 30  13  38  1   
 31  14  15  1   
 32  15  16  ar  
 33  15  17  ar  
 34  16  18  ar  
 35  16  39  1   
 36  17  19  ar  
 37  17  40  1   
 38  18  20  ar  
 39  18  41  1   
 40  19  20  ar  
 41  19  42  1   
 42  20  21  1   
 43  21  22  1   
 44  22  43  1   
 45  22  44  1   
 46  22  45  1   
@<TRIPOS>SUBSTRUCTURE
  1 ****  13 GROUP 4 **** **** 0

# MOE 2024.06 (io_trps.svl 2023.06)
