@<TRIPOS>MOLECULE
NONAME
54 57 1 0 0 
SMALL
USER_CHARGES


@<TRIPOS>ATOM
  1 O        0.5550     0.1590    -0.1450 O.3   1 <1>  -0.6800 
  2 C        1.8180    -0.1010    -0.6600 C.3   1 <1>   0.2000 
  3 C        2.4310    -1.3210     0.0230 C.3   1 <1>  -0.0800 
  4 C        2.7860     1.0400    -0.3530 C.3   1 <1>   0.2090 
  5 C        3.9400    -1.0870    -0.0800 C.3   1 <1>   0.2090 
  6 C        1.9770    -2.6600    -0.5800 C.3   1 <1>  -0.0170 
  7 N        4.1130     0.3880    -0.1420 N.pl3 1 <1>  -0.8380 
  8 C        2.7560    -3.8220     0.0170 C.ar  1 <1>  -0.1440 
  9 C        5.2600     1.0860     0.0560 C.ar  1 <1>   0.4100 
 10 C        3.6730    -4.5450    -0.7210 C.ar  1 <1>  -0.1500 
 11 C        2.5900    -4.2100     1.3310 C.ar  1 <1>  -0.1500 
 12 N        5.1790     2.4020     0.0470 N.ar  1 <1>  -0.6200 
 13 C        6.4900     0.4310     0.2610 C.ar  1 <1>  -0.1500 
 14 C        4.3650    -5.5850    -0.1220 C.ar  1 <1>   0.1600 
 15 C        3.3340    -5.2640     1.8330 C.ar  1 <1>   0.1600 
 16 C        6.2830     3.1030     0.2480 C.ar  1 <1>   0.7710 
 17 C        7.6090     1.1660     0.4670 C.ar  1 <1>   0.2180 
 18 N        4.2210    -5.9580     1.1390 N.ar  1 <1>  -0.6200 
 19 N        7.4710     2.5120     0.4570 N.ar  1 <1>  -0.1790 
 20 N        6.2170     4.4570     0.2440 N.pl3 1 <1>  -0.8380 
 21 C        8.9870     0.5620     0.7030 C.3   1 <1>  -0.0170 
 22 C        7.3220     5.4440     0.3860 C.3   1 <1>   0.2090 
 23 C        4.9210     5.1690     0.0560 C.3   1 <1>   0.2090 
 24 C        9.9740     0.9170    -0.4170 C.3   1 <1>  -0.2400 
 25 C        6.7090     6.7810    -0.0060 C.3   1 <1>  -0.1600 
 26 C        5.2290     6.6360     0.3210 C.3   1 <1>  -0.1600 
 27 H       -0.0670    -0.5570    -0.3730 H     1 <1>   0.4000 
 28 H        1.7420    -0.2330    -1.7250 H     1 <1>   0.0800 
 29 H        2.1810    -1.2930     1.0700 H     1 <1>   0.0800 
 30 H        2.4940     1.5480     0.5510 H     1 <1>   0.0800 
 31 H        2.8300     1.7380    -1.1710 H     1 <1>   0.0800 
 32 H        4.3290    -1.5240    -0.9840 H     1 <1>   0.0800 
 33 H        4.4450    -1.5070     0.7740 H     1 <1>   0.0800 
 34 H        2.1150    -2.6450    -1.6480 H     1 <1>   0.0800 
 35 H        0.9280    -2.8050    -0.3900 H     1 <1>   0.0800 
 36 H        3.8560    -4.3160    -1.7540 H     1 <1>   0.1500 
 37 H        1.8900    -3.7040     1.9710 H     1 <1>   0.1500 
 38 H        6.5200    -0.6410     0.2500 H     1 <1>   0.1500 
 39 H        5.0750    -6.1400    -0.7120 H     1 <1>   0.1500 
 40 H        3.1920    -5.5530     2.8610 H     1 <1>   0.1500 
 41 H        8.2500     3.1380     0.6040 H     1 <1>   0.4570 
 42 H        9.3750     0.8990     1.6500 H     1 <1>   0.0800 
 43 H        8.9010    -0.5110     0.7590 H     1 <1>   0.0800 
 44 H        7.6410     5.4820     1.4150 H     1 <1>   0.0800 
 45 H        8.1550     5.2090    -0.2560 H     1 <1>   0.0800 
 46 H        4.5850     5.0340    -0.9590 H     1 <1>   0.0800 
 47 H        4.1680     4.7990     0.7330 H     1 <1>   0.0800 
 48 H       10.1530     1.9760    -0.4670 H     1 <1>   0.0800 
 49 H        9.5980     0.5820    -1.3690 H     1 <1>   0.0800 
 50 H       10.9160     0.4270    -0.2410 H     1 <1>   0.0800 
 51 H        7.1650     7.6030     0.5190 H     1 <1>   0.0800 
 52 H        6.8350     6.9320    -1.0640 H     1 <1>   0.0800 
 53 H        4.6100     7.2860    -0.2720 H     1 <1>   0.0800 
 54 H        5.0570     6.8460     1.3630 H     1 <1>   0.0800 
@<TRIPOS>BOND
  1   1   2  1   
  2   1  27  1   
  3   2   3  1   
  4   2   4  1   
  5   2  28  1   
  6   3   5  1   
  7   3   6  1   
  8   3  29  1   
  9   4   7  1   
 10   4  30  1   
 11   4  31  1   
 12   5   7  1   
 13   5  32  1   
 14   5  33  1   
 15   6   8  1   
 16   6  34  1   
 17   6  35  1   
 18   7   9  1   
 19   8  10  ar  
 20   8  11  ar  
 21   9  12  ar  
 22   9  13  ar  
 23  10  14  ar  
 24  10  36  1   
 25  11  15  ar  
 26  11  37  1   
 27  12  16  ar  
 28  13  17  ar  
 29  13  38  1   
 30  14  18  ar  
 31  14  39  1   
 32  15  18  ar  
 33  15  40  1   
 34  16  19  ar  
 35  16  20  1   
 36  17  19  ar  
 37  17  21  1   
 38  19  41  1   
 39  20  22  1   
 40  20  23  1   
 41  21  24  1   
 42  21  42  1   
 43  21  43  1   
 44  22  25  1   
 45  22  44  1   
 46  22  45  1   
 47  23  26  1   
 48  23  46  1   
 49  23  47  1   
 50  24  48  1   
 51  24  49  1   
 52  24  50  1   
 53  25  26  1   
 54  25  51  1   
 55  25  52  1   
 56  26  53  1   
 57  26  54  1   
@<TRIPOS>SUBSTRUCTURE
  1 ****   7 GROUP 4 **** **** 0

# MOE 2024.06 (io_trps.svl 2023.06)
