@<TRIPOS>MOLECULE
NONAME
42 43 1 0 0 
SMALL
USER_CHARGES


@<TRIPOS>ATOM
  1 O       -1.0270     0.5050     1.9550 O.2   1 <1>  -0.5700 
  2 C       -1.6380     0.9540     1.0020 C.2   1 <1>   0.5440 
  3 N       -2.5750     0.1600     0.3760 N.am  1 <1>  -0.6600 
  4 C       -1.3530     2.3060     0.5620 C.ar  1 <1>   0.0860 
  5 C       -2.6600    -1.3100     0.6910 C.3   1 <1>   0.1400 
  6 C       -3.5840     0.6670    -0.6000 C.3   1 <1>   0.1400 
  7 C       -1.4280     3.3790     1.4510 C.ar  1 <1>  -0.1500 
  8 C       -0.9820     2.5870    -0.7530 C.ar  1 <1>  -0.1500 
  9 C       -3.9800    -1.9790     0.2550 C.3   1 <1>   0.2000 
 10 C       -5.0150     0.3350    -0.1470 C.3   1 <1>  -0.1600 
 11 C       -1.1620     4.6750     1.0480 C.ar  1 <1>  -0.1500 
 12 C       -0.7150     3.8790    -1.1640 C.ar  1 <1>  -0.1500 
 13 O       -3.9440    -2.2800    -1.0990 O.3   1 <1>  -0.6800 
 14 C       -5.1730    -1.0560     0.5210 C.3   1 <1>  -0.1860 
 15 C       -0.8040     4.9360    -0.2720 C.ar  1 <1>   0.0820 
 16 C       -6.4690    -1.7470     0.1420 C.2   1 <1>   0.9060 
 17 O       -0.5300     6.1680    -0.7610 O.3   1 <1>  -0.3630 
 18 O       -7.3650    -1.8340     0.9840 O.co2 1 <1>  -0.9000 
 19 O       -6.5750    -2.2160    -1.0000 O.co2 1 <1>  -0.9000 
 20 C       -0.5050     7.3370     0.0260 C.3   1 <1>   0.2000 
 21 C       -0.6590     8.5210    -0.9250 C.3   1 <1>  -0.2400 
 22 C        0.8290     7.4020     0.7740 C.3   1 <1>  -0.2400 
 23 H       -1.8320    -1.8240     0.2370 H     1 <1>   0.0800 
 24 H       -2.5740    -1.4270     1.7560 H     1 <1>   0.0800 
 25 H       -3.5000     1.7300    -0.7340 H     1 <1>   0.0800 
 26 H       -3.3970     0.1980    -1.5510 H     1 <1>   0.0800 
 27 H       -1.6980     3.1770     2.4730 H     1 <1>   0.1500 
 28 H       -0.9030     1.7740    -1.4540 H     1 <1>   0.1500 
 29 H       -4.1110    -2.9100     0.7790 H     1 <1>   0.0800 
 30 H       -5.3570     1.0900     0.5370 H     1 <1>   0.0800 
 31 H       -5.6510     0.3860    -1.0140 H     1 <1>   0.0800 
 32 H       -1.2350     5.4630     1.7730 H     1 <1>   0.1500 
 33 H       -0.4320     4.0810    -2.1820 H     1 <1>   0.1500 
 34 H       -4.9040    -2.3880    -1.3710 H     1 <1>   0.4000 
 35 H       -5.2110    -0.9000     1.5830 H     1 <1>   0.0800 
 36 H       -1.3400     7.3200     0.7050 H     1 <1>   0.0800 
 37 H        0.1480     8.5380    -1.6360 H     1 <1>   0.0800 
 38 H       -0.6510     9.4430    -0.3720 H     1 <1>   0.0800 
 39 H       -1.5930     8.4470    -1.4510 H     1 <1>   0.0800 
 40 H        1.6460     7.4020     0.0760 H     1 <1>   0.0800 
 41 H        0.9340     6.5630     1.4370 H     1 <1>   0.0800 
 42 H        0.8770     8.3020     1.3600 H     1 <1>   0.0800 
@<TRIPOS>BOND
  1   1   2  2   
  2   2   3  am  
  3   2   4  1   
  4   3   5  1   
  5   3   6  1   
  6   4   7  ar  
  7   4   8  ar  
  8   5   9  1   
  9   5  23  1   
 10   5  24  1   
 11   6  10  1   
 12   6  25  1   
 13   6  26  1   
 14   7  11  ar  
 15   7  27  1   
 16   8  12  ar  
 17   8  28  1   
 18   9  13  1   
 19   9  14  1   
 20   9  29  1   
 21  10  14  1   
 22  10  30  1   
 23  10  31  1   
 24  11  15  ar  
 25  11  32  1   
 26  12  15  ar  
 27  12  33  1   
 28  13  34  1   
 29  14  16  1   
 30  14  35  1   
 31  15  17  1   
 32  16  18  ar  
 33  16  19  ar  
 34  17  20  1   
 35  20  21  1   
 36  20  22  1   
 37  20  36  1   
 38  21  37  1   
 39  21  38  1   
 40  21  39  1   
 41  22  40  1   
 42  22  41  1   
 43  22  42  1   
@<TRIPOS>SUBSTRUCTURE
  1 ****   4 GROUP 4 **** **** 0

# MOE 2024.06 (io_trps.svl 2023.06)
