@<TRIPOS>MOLECULE
NONAME
47 49 1 0 0 
SMALL
USER_CHARGES


@<TRIPOS>ATOM
  1 F       -1.0510    -0.2590     0.5600 F     1 <1>  -0.1900 
  2 C       -2.2590     0.2370     0.4830 C.ar  1 <1>   0.1900 
  3 C       -2.5070     1.6090     0.5940 C.ar  1 <1>   0.0830 
  4 C       -3.2840    -0.6680     0.2910 C.ar  1 <1>  -0.1500 
  5 O       -1.5860     2.5980     0.7830 O.3   1 <1>  -0.3630 
  6 C       -3.8230     2.0330     0.5040 C.ar  1 <1>  -0.1500 
  7 C       -4.5860    -0.2110     0.2060 C.ar  1 <1>  -0.1500 
  8 C       -0.1980     2.3550     0.8450 C.3   1 <1>   0.0400 
  9 C       -4.8880     1.1500     0.3080 C.ar  1 <1>   0.0530 
 10 C       -6.2440     1.6410     0.2250 C.2   1 <1>   0.0870 
 11 O       -6.5570     2.7970     0.7550 O.3   1 <1>  -0.0190 
 12 C       -7.3880     1.1410    -0.3150 C.2   1 <1>  -0.0860 
 13 N       -7.8160     3.1080     0.6060 N.2   1 <1>  -0.4100 
 14 C       -8.3400     2.1310    -0.0480 C.2   1 <1>   0.3720 
 15 C       -7.6210    -0.0810    -1.0180 C.2   1 <1>   0.7160 
 16 N       -9.6890     2.0830    -0.4340 N.pl3 1 <1>  -0.8210 
 17 O       -6.9800    -0.3030    -2.0300 O.2   1 <1>  -0.5700 
 18 N       -8.5130    -1.0430    -0.5770 N.am  1 <1>  -0.6600 
 19 C      -10.6100     2.9650     0.3380 C.3   1 <1>   0.1290 
 20 C       -9.9050     2.2100    -1.9010 C.3   1 <1>   0.1290 
 21 C       -9.2930    -0.9180     0.6900 C.3   1 <1>   0.1400 
 22 C       -8.8800    -2.2180    -1.4210 C.3   1 <1>   0.1400 
 23 C       -9.0970    -2.1780     1.5320 C.3   1 <1>  -0.1600 
 24 C       -8.6640    -3.5020    -0.6220 C.3   1 <1>  -0.1600 
 25 C       -9.4080    -3.4210     0.7060 C.3   1 <1>   0.6800 
 26 F      -10.7140    -3.4720     0.4750 F     1 <1>  -0.3400 
 27 F       -9.1510    -4.5040     1.4240 F     1 <1>  -0.3400 
 28 H       -3.0620    -1.7170     0.2080 H     1 <1>   0.1500 
 29 H       -4.0190     3.0880     0.5850 H     1 <1>   0.1500 
 30 H       -5.3730    -0.9280     0.0590 H     1 <1>   0.1500 
 31 H        0.3010     3.2990     0.9700 H     1 <1>   0.0800 
 32 H        0.1190     1.8940    -0.0740 H     1 <1>   0.0800 
 33 H        0.0100     1.7190     1.6880 H     1 <1>   0.0800 
 34 H      -10.4380     2.8390     1.3940 H     1 <1>   0.0800 
 35 H      -11.6320     2.7090     0.1230 H     1 <1>   0.0800 
 36 H      -10.4380     3.9970     0.0800 H     1 <1>   0.0800 
 37 H       -9.2410     1.5560    -2.4390 H     1 <1>   0.0800 
 38 H       -9.7190     3.2230    -2.2140 H     1 <1>   0.0800 
 39 H      -10.9180     1.9430    -2.1460 H     1 <1>   0.0800 
 40 H      -10.3350    -0.7870     0.4480 H     1 <1>   0.0800 
 41 H       -8.9790    -0.0630     1.2620 H     1 <1>   0.0800 
 42 H       -8.2900    -2.2520    -2.3210 H     1 <1>   0.0800 
 43 H       -9.9150    -2.1320    -1.7080 H     1 <1>   0.0800 
 44 H       -9.7320    -2.1470     2.3980 H     1 <1>   0.0800 
 45 H       -8.0730    -2.2160     1.8570 H     1 <1>   0.0800 
 46 H       -7.6120    -3.6150    -0.4350 H     1 <1>   0.0800 
 47 H       -9.0080    -4.3510    -1.1820 H     1 <1>   0.0800 
@<TRIPOS>BOND
  1   1   2  1   
  2   2   3  ar  
  3   2   4  ar  
  4   3   5  1   
  5   3   6  ar  
  6   4   7  ar  
  7   4  28  1   
  8   5   8  1   
  9   6   9  ar  
 10   6  29  1   
 11   7   9  ar  
 12   7  30  1   
 13   8  31  1   
 14   8  32  1   
 15   8  33  1   
 16   9  10  1   
 17  10  11  1   
 18  10  12  2   
 19  11  13  1   
 20  12  14  1   
 21  12  15  1   
 22  13  14  2   
 23  14  16  1   
 24  15  17  2   
 25  15  18  am  
 26  16  19  1   
 27  16  20  1   
 28  18  21  1   
 29  18  22  1   
 30  19  34  1   
 31  19  35  1   
 32  19  36  1   
 33  20  37  1   
 34  20  38  1   
 35  20  39  1   
 36  21  23  1   
 37  21  40  1   
 38  21  41  1   
 39  22  24  1   
 40  22  42  1   
 41  22  43  1   
 42  23  25  1   
 43  23  44  1   
 44  23  45  1   
 45  24  25  1   
 46  24  46  1   
 47  24  47  1   
 48  25  26  1   
 49  25  27  1   
@<TRIPOS>SUBSTRUCTURE
  1 ****  12 GROUP 4 **** **** 0

# MOE 2024.06 (io_trps.svl 2023.06)
