@<TRIPOS>MOLECULE
NONAME
55 57 1 0 0 
SMALL
USER_CHARGES


@<TRIPOS>ATOM
  1 O       -4.5270    -0.1760    -1.3500 O.2   1 <1>  -0.5700 
  2 C       -3.9340     0.6330    -0.6730 C.2   1 <1>   0.5690 
  3 N       -3.3720     0.2940     0.5290 N.am  1 <1>  -0.6600 
  4 C       -3.8320     2.0540    -1.2000 C.3   1 <1>  -0.0990 
  5 C       -2.7400     1.2730     1.4480 C.3   1 <1>   0.1400 
  6 C       -3.3560    -1.1240     0.9780 C.3   1 <1>   0.1400 
  7 C       -2.3830     2.5020    -1.4540 C.3   1 <1>  -0.1600 
  8 C       -1.4350     1.8090     0.8520 C.3   1 <1>  -0.1600 
  9 C       -4.6330    -1.4340     1.7550 C.3   1 <1>  -0.0990 
 10 C       -1.6380     2.9290    -0.1810 C.3   1 <1>  -0.1600 
 11 C       -4.8400    -2.9300     1.8270 C.2   1 <1>   0.5690 
 12 O       -4.4540    -3.5080     2.8150 O.2   1 <1>  -0.5700 
 13 N       -5.4310    -3.5920     0.7870 N.am  1 <1>  -0.6600 
 14 C       -5.8310    -3.0140    -0.5250 C.3   1 <1>   0.1400 
 15 C       -5.7230    -5.0400     0.8110 C.3   1 <1>   0.1400 
 16 C       -6.5020    -4.1580    -1.2970 C.3   1 <1>   0.2000 
 17 C       -5.9150    -5.4230    -0.6590 C.3   1 <1>  -0.0800 
 18 O       -7.8850    -4.1420    -1.0780 O.3   1 <1>  -0.5600 
 19 C       -6.7630    -6.6920    -0.8600 C.3   1 <1>   0.0200 
 20 C       -8.6020    -3.2760    -1.9010 C.3   1 <1>   0.0400 
 21 C       -6.0750    -7.9580    -0.3790 C.2   1 <1>  -0.0400 
 22 O       -6.7310    -9.0870    -0.4330 O.3   1 <1>  -0.0190 
 23 C       -4.8570    -8.2200     0.1240 C.2   1 <1>  -0.1500 
 24 N       -6.0220   -10.0860     0.0080 N.2   1 <1>  -0.4100 
 25 C       -4.8880    -9.5930     0.3520 C.2   1 <1>   0.1080 
 26 C       -3.7470   -10.4020     0.9270 C.3   1 <1>  -0.0590 
 27 H       -4.3660     2.0930    -2.1330 H     1 <1>   0.0800 
 28 H       -4.3260     2.7250    -0.5230 H     1 <1>   0.0800 
 29 H       -3.4230     2.0820     1.6450 H     1 <1>   0.0800 
 30 H       -2.5280     0.7930     2.3880 H     1 <1>   0.0800 
 31 H       -3.2870    -1.7620     0.1140 H     1 <1>   0.0800 
 32 H       -2.4910    -1.3180     1.5890 H     1 <1>   0.0800 
 33 H       -1.8430     1.7100    -1.9470 H     1 <1>   0.0800 
 34 H       -2.4020     3.3430    -2.1260 H     1 <1>   0.0800 
 35 H       -0.8490     2.2140     1.6580 H     1 <1>   0.0800 
 36 H       -0.8700     0.9990     0.4230 H     1 <1>   0.0800 
 37 H       -5.4830    -0.9830     1.2790 H     1 <1>   0.0800 
 38 H       -4.5560    -1.0420     2.7510 H     1 <1>   0.0800 
 39 H       -2.1640     3.7490     0.2800 H     1 <1>   0.0800 
 40 H       -0.6690     3.2990    -0.4690 H     1 <1>   0.0800 
 41 H       -6.4900    -2.1740    -0.4010 H     1 <1>   0.0800 
 42 H       -4.9480    -2.7020    -1.0530 H     1 <1>   0.0800 
 43 H       -4.9210    -5.5870     1.2750 H     1 <1>   0.0800 
 44 H       -6.6330    -5.1980     1.3650 H     1 <1>   0.0800 
 45 H       -6.3080    -4.1130    -2.3550 H     1 <1>   0.0800 
 46 H       -4.9410    -5.5820    -1.0880 H     1 <1>   0.0800 
 47 H       -6.9870    -6.8060    -1.9060 H     1 <1>   0.0800 
 48 H       -7.6990    -6.5910    -0.3380 H     1 <1>   0.0800 
 49 H       -9.6410    -3.3440    -1.6310 H     1 <1>   0.0800 
 50 H       -8.4760    -3.5740    -2.9270 H     1 <1>   0.0800 
 51 H       -8.2590    -2.2670    -1.7550 H     1 <1>   0.0800 
 52 H       -4.0280    -7.5670     0.3210 H     1 <1>   0.1500 
 53 H       -2.8850   -10.3190     0.2910 H     1 <1>   0.0800 
 54 H       -4.0310   -11.4370     0.9970 H     1 <1>   0.0800 
 55 H       -3.5030   -10.0410     1.9080 H     1 <1>   0.0800 
@<TRIPOS>BOND
  1   1   2  2   
  2   2   3  am  
  3   2   4  1   
  4   3   5  1   
  5   3   6  1   
  6   4   7  1   
  7   4  27  1   
  8   4  28  1   
  9   5   8  1   
 10   5  29  1   
 11   5  30  1   
 12   6   9  1   
 13   6  31  1   
 14   6  32  1   
 15   7  10  1   
 16   7  33  1   
 17   7  34  1   
 18   8  10  1   
 19   8  35  1   
 20   8  36  1   
 21   9  11  1   
 22   9  37  1   
 23   9  38  1   
 24  10  39  1   
 25  10  40  1   
 26  11  12  2   
 27  11  13  am  
 28  13  14  1   
 29  13  15  1   
 30  14  16  1   
 31  14  41  1   
 32  14  42  1   
 33  15  17  1   
 34  15  43  1   
 35  15  44  1   
 36  16  17  1   
 37  16  18  1   
 38  16  45  1   
 39  17  19  1   
 40  17  46  1   
 41  18  20  1   
 42  19  21  1   
 43  19  47  1   
 44  19  48  1   
 45  20  49  1   
 46  20  50  1   
 47  20  51  1   
 48  21  22  1   
 49  21  23  2   
 50  22  24  1   
 51  23  25  1   
 52  23  52  1   
 53  24  25  2   
 54  25  26  1   
 55  26  53  1   
 56  26  54  1   
 57  26  55  1   
@<TRIPOS>SUBSTRUCTURE
  1 ****  13 GROUP 4 **** **** 0

# MOE 2024.06 (io_trps.svl 2023.06)
