@<TRIPOS>MOLECULE
NONAME
32 32 1 0 0 
SMALL
USER_CHARGES


@<TRIPOS>ATOM
  1 O       -2.4200    -2.0360     1.2430 O.2   1 <1>  -0.5700 
  2 C       -1.7780    -1.5700     0.3330 C.2   1 <1>   0.6590 
  3 O       -0.4820    -1.8330     0.1890 O.3   1 <1>  -0.4300 
  4 C       -2.4300    -0.6160    -0.6800 C.3   1 <1>   0.2610 
  5 C        0.1940    -2.7530     1.0160 C.3   1 <1>   0.2640 
  6 O       -1.9330    -0.7660    -1.9870 O.3   1 <1>  -0.6800 
  7 C       -2.3140     0.8770    -0.2550 C.3   1 <1>   0.2800 
  8 C       -0.0110    -4.1600     0.4770 C.ar  1 <1>  -0.1440 
  9 O       -2.8100     1.6570    -1.2860 O.3   1 <1>  -0.6800 
 10 C       -3.1710     1.2020     0.9710 C.3   1 <1>  -0.2400 
 11 C       -0.8720     1.3470    -0.0370 C.3   1 <1>  -0.2400 
 12 C       -0.9770    -4.9890     1.0270 C.ar  1 <1>  -0.1500 
 13 C        0.7690    -4.6290    -0.5700 C.ar  1 <1>  -0.1500 
 14 C       -1.1550    -6.2740     0.5450 C.ar  1 <1>  -0.1500 
 15 C        0.5930    -5.9140    -1.0530 C.ar  1 <1>  -0.1500 
 16 C       -0.3680    -6.7380    -0.4950 C.ar  1 <1>  -0.1500 
 17 H       -3.4730    -0.8690    -0.7220 H     1 <1>   0.0800 
 18 H        1.2380    -2.4980     0.9990 H     1 <1>   0.0800 
 19 H       -0.1680    -2.6600     2.0260 H     1 <1>   0.0800 
 20 H       -2.1970     0.0430    -2.4770 H     1 <1>   0.4000 
 21 H       -2.7610     2.5980    -1.0320 H     1 <1>   0.4000 
 22 H       -2.8230     0.6510     1.8260 H     1 <1>   0.0800 
 23 H       -4.1970     0.9280     0.7940 H     1 <1>   0.0800 
 24 H       -3.1220     2.2490     1.2090 H     1 <1>   0.0800 
 25 H       -0.4360     0.8410     0.8060 H     1 <1>   0.0800 
 26 H       -0.8360     2.4030     0.1580 H     1 <1>   0.0800 
 27 H       -0.2710     1.1270    -0.9020 H     1 <1>   0.0800 
 28 H       -1.6000    -4.6330     1.8310 H     1 <1>   0.1500 
 29 H        1.5130    -3.9910    -1.0140 H     1 <1>   0.1500 
 30 H       -1.9070    -6.9100     0.9770 H     1 <1>   0.1500 
 31 H        1.2010    -6.2700    -1.8660 H     1 <1>   0.1500 
 32 H       -0.5060    -7.7370    -0.8700 H     1 <1>   0.1500 
@<TRIPOS>BOND
  1   1   2  2   
  2   2   3  1   
  3   2   4  1   
  4   3   5  1   
  5   4   6  1   
  6   4   7  1   
  7   4  17  1   
  8   5   8  1   
  9   5  18  1   
 10   5  19  1   
 11   6  20  1   
 12   7   9  1   
 13   7  10  1   
 14   7  11  1   
 15   8  12  ar  
 16   8  13  ar  
 17   9  21  1   
 18  10  22  1   
 19  10  23  1   
 20  10  24  1   
 21  11  25  1   
 22  11  26  1   
 23  11  27  1   
 24  12  14  ar  
 25  12  28  1   
 26  13  15  ar  
 27  13  29  1   
 28  14  16  ar  
 29  14  30  1   
 30  15  16  ar  
 31  15  31  1   
 32  16  32  1   
@<TRIPOS>SUBSTRUCTURE
  1 ****   3 GROUP 4 **** **** 0

# MOE 2024.06 (io_trps.svl 2023.06)
