@<TRIPOS>MOLECULE
NONAME
46 47 1 0 0 
SMALL
USER_CHARGES


@<TRIPOS>ATOM
  1 O        0.9280    -0.0750     2.3510 O.2   1 <1>  -0.5700 
  2 C        1.4930    -0.7230     1.5020 C.2   1 <1>   0.5690 
  3 N        2.3490    -0.1780     0.5920 N.am  1 <1>  -0.4930 
  4 C        1.2390    -2.2210     1.4040 C.3   1 <1>  -0.0190 
  5 C        2.7470     1.1720     0.4320 C.2   1 <1>   0.0630 
  6 C        0.1990    -2.4790     0.3110 C.3   1 <1>   0.1400 
  7 C        0.7860    -2.8750     2.7290 C.3   1 <1>  -0.1600 
  8 C        3.5130     1.6650    -0.5660 C.2   1 <1>  -0.3320 
  9 C        2.4580     2.2730     1.2370 C.2   1 <1>   0.1390 
 10 N        0.0270    -3.9480     0.1460 N.am  1 <1>  -0.6600 
 11 C        0.4940    -4.3740     2.5300 C.3   1 <1>  -0.1600 
 12 N        3.6470     2.9970    -0.3270 N.pl3 1 <1>   0.3140 
 13 C        4.1340     0.9430    -1.7550 C.3   1 <1>  -0.0600 
 14 N        2.9960     3.3670     0.7890 N.2   1 <1>  -0.7070 
 15 C        0.3660    -4.5820    -1.0280 C.2   1 <1>   0.5690 
 16 C       -0.4810    -4.6260     1.3710 C.3   1 <1>   0.1400 
 17 C        4.3930     3.9900    -1.1310 C.3   1 <1>   0.0960 
 18 O        0.9260    -3.9800    -1.9180 O.2   1 <1>  -0.5700 
 19 C        0.1150    -6.0780    -1.2540 C.3   1 <1>   0.1810 
 20 C        3.5100     4.5880    -2.2330 C.3   1 <1>  -0.2400 
 21 O       -1.2260    -6.4480    -1.0400 O.3   1 <1>  -0.5600 
 22 C       -1.5060    -7.7720    -1.3600 C.3   1 <1>   0.0400 
 23 H        2.7420    -0.8110    -0.1020 H     1 <1>   0.3700 
 24 H        2.1600    -2.6850     1.0990 H     1 <1>   0.0800 
 25 H        0.5100    -2.0270    -0.6150 H     1 <1>   0.0800 
 26 H       -0.7440    -2.0400     0.5900 H     1 <1>   0.0800 
 27 H       -0.1070    -2.3860     3.0810 H     1 <1>   0.0800 
 28 H        1.5480    -2.7460     3.4780 H     1 <1>   0.0800 
 29 H        1.8580     2.2280     2.1300 H     1 <1>   0.1500 
 30 H        0.0800    -4.7820     3.4350 H     1 <1>   0.0800 
 31 H        1.4120    -4.8960     2.3280 H     1 <1>   0.0800 
 32 H        3.8700    -0.0980    -1.7520 H     1 <1>   0.0800 
 33 H        5.2060     1.0210    -1.7170 H     1 <1>   0.0800 
 34 H        3.7850     1.3760    -2.6750 H     1 <1>   0.0800 
 35 H       -0.5890    -5.6840     1.2190 H     1 <1>   0.0800 
 36 H       -1.4520    -4.2260     1.6130 H     1 <1>   0.0800 
 37 H        5.2560     3.5150    -1.5570 H     1 <1>   0.0800 
 38 H        4.7260     4.7690    -0.4690 H     1 <1>   0.0800 
 39 H        0.7370    -6.6460    -0.5870 H     1 <1>   0.0800 
 40 H        0.3720    -6.3180    -2.2700 H     1 <1>   0.0800 
 41 H        3.1710     3.8200    -2.9050 H     1 <1>   0.0800 
 42 H        4.0670     5.3160    -2.7940 H     1 <1>   0.0800 
 43 H        2.6570     5.0760    -1.7930 H     1 <1>   0.0800 
 44 H       -2.5460    -7.9550    -1.1510 H     1 <1>   0.0800 
 45 H       -0.8960    -8.4230    -0.7580 H     1 <1>   0.0800 
 46 H       -1.3160    -7.9330    -2.4070 H     1 <1>   0.0800 
@<TRIPOS>BOND
  1   1   2  2   
  2   2   3  am  
  3   2   4  1   
  4   3   5  1   
  5   3  23  1   
  6   4   6  1   
  7   4   7  1   
  8   4  24  1   
  9   5   8  2   
 10   5   9  1   
 11   6  10  1   
 12   6  25  1   
 13   6  26  1   
 14   7  11  1   
 15   7  27  1   
 16   7  28  1   
 17   8  12  1   
 18   8  13  1   
 19   9  14  2   
 20   9  29  1   
 21  10  15  am  
 22  10  16  1   
 23  11  16  1   
 24  11  30  1   
 25  11  31  1   
 26  12  14  1   
 27  12  17  1   
 28  13  32  1   
 29  13  33  1   
 30  13  34  1   
 31  15  18  2   
 32  15  19  1   
 33  16  35  1   
 34  16  36  1   
 35  17  20  1   
 36  17  37  1   
 37  17  38  1   
 38  19  21  1   
 39  19  39  1   
 40  19  40  1   
 41  20  41  1   
 42  20  42  1   
 43  20  43  1   
 44  21  22  1   
 45  22  44  1   
 46  22  45  1   
 47  22  46  1   
@<TRIPOS>SUBSTRUCTURE
  1 ****   2 GROUP 4 **** **** 0

# MOE 2024.06 (io_trps.svl 2023.06)
