@<TRIPOS>MOLECULE
NONAME
43 45 1 0 0 
SMALL
USER_CHARGES


@<TRIPOS>ATOM
  1 O        0.8230     0.0920    -0.6620 O.2   1 <1>  -0.5700 
  2 C        1.5290    -0.6540    -0.0240 C.2   1 <1>   0.5690 
  3 N        2.4980    -0.1750     0.8230 N.am  1 <1>  -0.6600 
  4 C        1.3230    -2.1530    -0.1830 C.3   1 <1>  -0.0990 
  5 C        2.6400     1.2880     1.0460 C.3   1 <1>   0.1400 
  6 C        3.4610    -1.0200     1.5900 C.3   1 <1>   0.0600 
  7 C        0.0390    -2.5140    -0.9470 C.3   1 <1>   0.0200 
  8 C        3.6620     1.8600     0.0630 C.3   1 <1>  -0.1600 
  9 C       -0.1290    -4.0170    -1.0440 C.2   1 <1>   0.2980 
 10 C        3.7450     3.3860     0.1890 C.3   1 <1>   0.0960 
 11 O        0.6710    -4.6890    -1.8300 O.3   1 <1>  -0.0190 
 12 N       -0.9840    -4.7090    -0.4130 N.2   1 <1>  -0.5650 
 13 N        4.8010     3.9230    -0.6880 N.pl3 1 <1>   0.3140 
 14 N        0.2930    -5.9210    -1.6870 N.2   1 <1>  -0.4100 
 15 C       -0.6870    -5.9370    -0.8530 C.2   1 <1>   0.5150 
 16 N        6.0520     4.1340    -0.2420 N.2   1 <1>  -0.7070 
 17 C        4.6820     4.2560    -1.9890 C.2   1 <1>  -0.3020 
 18 C       -1.4160    -7.1030    -0.4020 C.2   1 <1>   0.1410 
 19 C        6.6970     4.5980    -1.2690 C.2   1 <1>   0.1390 
 20 C        5.8910     4.6970    -2.3960 C.2   1 <1>  -0.1500 
 21 O       -1.1060    -8.3230    -0.8320 O.3   1 <1>  -0.2800 
 22 C       -2.4610    -7.2040     0.4650 C.2   1 <1>  -0.1500 
 23 C       -1.9200    -9.1900    -0.2670 C.2   1 <1>  -0.0100 
 24 C       -2.7880    -8.5600     0.5520 C.2   1 <1>  -0.1500 
 25 H        1.2750    -2.6000     0.7930 H     1 <1>   0.0800 
 26 H        2.1710    -2.5560    -0.7050 H     1 <1>   0.0800 
 27 H        2.9510     1.4720     2.0610 H     1 <1>   0.0800 
 28 H        1.6870     1.7680     0.9010 H     1 <1>   0.0800 
 29 H        3.5450    -2.0040     1.1640 H     1 <1>   0.0800 
 30 H        3.1310    -1.1060     2.6110 H     1 <1>   0.0800 
 31 H        4.4370    -0.5680     1.5760 H     1 <1>   0.0800 
 32 H        0.0670    -2.1000    -1.9390 H     1 <1>   0.0800 
 33 H       -0.8130    -2.0990    -0.4370 H     1 <1>   0.0800 
 34 H        3.3660     1.6060    -0.9400 H     1 <1>   0.0800 
 35 H        4.6300     1.4370     0.2640 H     1 <1>   0.0800 
 36 H        3.9830     3.6630     1.2000 H     1 <1>   0.0800 
 37 H        2.8090     3.8380    -0.0840 H     1 <1>   0.0800 
 38 H        3.7640     4.1620    -2.5390 H     1 <1>   0.1500 
 39 H        7.7390     4.8700    -1.2400 H     1 <1>   0.1500 
 40 H        6.1930     5.0510    -3.3650 H     1 <1>   0.1500 
 41 H       -2.9520    -6.4030     0.9890 H     1 <1>   0.1500 
 42 H       -1.8120   -10.2340    -0.5030 H     1 <1>   0.1500 
 43 H       -3.5730    -8.9810     1.1550 H     1 <1>   0.1500 
@<TRIPOS>BOND
  1   1   2  2   
  2   2   3  am  
  3   2   4  1   
  4   3   5  1   
  5   3   6  1   
  6   4   7  1   
  7   4  25  1   
  8   4  26  1   
  9   5   8  1   
 10   5  27  1   
 11   5  28  1   
 12   6  29  1   
 13   6  30  1   
 14   6  31  1   
 15   7   9  1   
 16   7  32  1   
 17   7  33  1   
 18   8  10  1   
 19   8  34  1   
 20   8  35  1   
 21   9  11  1   
 22   9  12  2   
 23  10  13  1   
 24  10  36  1   
 25  10  37  1   
 26  11  14  1   
 27  12  15  1   
 28  13  16  1   
 29  13  17  1   
 30  14  15  2   
 31  15  18  1   
 32  16  19  2   
 33  17  20  2   
 34  17  38  1   
 35  18  21  1   
 36  18  22  2   
 37  19  20  1   
 38  19  39  1   
 39  20  40  1   
 40  21  23  1   
 41  22  24  1   
 42  22  41  1   
 43  23  24  2   
 44  23  42  1   
 45  24  43  1   
@<TRIPOS>SUBSTRUCTURE
  1 ****   4 GROUP 4 **** **** 0

# MOE 2024.06 (io_trps.svl 2023.06)
