@<TRIPOS>MOLECULE
NONAME
25 27 1 0 0 
SMALL
USER_CHARGES


@<TRIPOS>ATOM
  1 C       -0.1370    -0.1540    -0.1660 C.2   1 <1>  -0.2880 
  2 C        0.4360    -1.2220    -0.7170 C.2   1 <1>  -0.2880 
  3 C       -1.3340    -0.4940     0.7010 C.3   1 <1>   0.0580 
  4 C       -0.2120    -2.5560    -0.3870 C.3   1 <1>   0.0580 
  5 C       -1.4080    -2.1840     0.5380 C.3   1 <1>  -0.0800 
  6 C       -2.7960     0.1030     0.2020 C.3   1 <1>   0.0580 
  7 C        0.7990    -3.4690     0.3120 C.3   1 <1>  -0.2400 
  8 C       -2.9260    -2.5380    -0.0410 C.3   1 <1>   0.0580 
  9 C       -4.2720    -0.4220    -0.2070 C.2   1 <1>  -0.2880 
 10 C       -2.7630    -1.2250     0.1050 C.3   1 <1>  -0.1600 
 11 C       -4.3400    -1.8060    -0.3340 C.2   1 <1>  -0.2880 
 12 H        0.1460     0.8800    -0.2620 H     1 <1>   0.1500 
 13 H        1.2960    -1.2380    -1.3650 H     1 <1>   0.1500 
 14 H       -1.1280    -0.2120     1.7220 H     1 <1>   0.0800 
 15 H       -0.5480    -3.0200    -1.2970 H     1 <1>   0.0800 
 16 H       -1.2750    -2.6420     1.5070 H     1 <1>   0.0800 
 17 H       -2.5300     0.7300    -0.6380 H     1 <1>   0.0800 
 18 H        1.1780    -2.9950     1.2000 H     1 <1>   0.0800 
 19 H        1.6240    -3.6750    -0.3460 H     1 <1>   0.0800 
 20 H        0.3340    -4.3990     0.5830 H     1 <1>   0.0800 
 21 H       -2.7350    -3.0290    -0.9840 H     1 <1>   0.0800 
 22 H       -5.0540     0.3060    -0.3470 H     1 <1>   0.1500 
 23 H       -3.1400    -1.3160     1.2560 H     1 <1>   0.0800 
 24 H       -2.4390    -1.1390    -1.0180 H     1 <1>   0.0800 
 25 H       -5.1890    -2.4160    -0.5950 H     1 <1>   0.1500 
@<TRIPOS>BOND
  1   1   2  2   
  2   1   3  1   
  3   1  12  1   
  4   2   4  1   
  5   2  13  1   
  6   3   5  1   
  7   3   6  1   
  8   3  14  1   
  9   4   5  1   
 10   4   7  1   
 11   4  15  1   
 12   5   8  1   
 13   5  16  1   
 14   6   9  1   
 15   6  10  1   
 16   6  17  1   
 17   7  18  1   
 18   7  19  1   
 19   7  20  1   
 20   8  10  1   
 21   8  11  1   
 22   8  21  1   
 23   9  11  2   
 24   9  22  1   
 25  10  23  1   
 26  10  24  1   
 27  11  25  1   
@<TRIPOS>SUBSTRUCTURE
  1 ****   5 GROUP 4 **** **** 0

# MOE 2024.06 (io_trps.svl 2023.06)
