@<TRIPOS>MOLECULE
NONAME
55 59 1 0 0 
SMALL
USER_CHARGES


@<TRIPOS>ATOM
  1 O       -0.5120    -0.0840    -1.9320 O.2   1 <1>  -0.5700 
  2 C       -1.1460     0.5830    -1.1390 C.2   1 <1>   0.5440 
  3 N       -2.0010    -0.0540    -0.2650 N.am  1 <1>  -0.6600 
  4 C       -1.0200     2.0200    -1.1570 C.ar  1 <1>   0.0860 
  5 C       -2.0790    -1.5460    -0.1600 C.3   1 <1>   0.1400 
  6 C       -3.1050     0.6370     0.4740 C.3   1 <1>   0.1400 
  7 C       -0.5420     2.7520    -0.0590 C.ar  1 <1>   0.0000 
  8 C       -1.3920     2.7770    -2.2490 C.ar  1 <1>  -0.1500 
  9 C       -3.5010    -2.0520    -0.4670 C.3   1 <1>   0.3440 
 10 C       -4.4700     0.0120     0.1260 C.3   1 <1>   0.2950 
 11 C       -0.5530     4.1290    -0.1260 C.ar  1 <1>   0.1050 
 12 C       -0.0030     2.4790     1.2140 C.2   1 <1>   0.1080 
 13 C       -1.3390     4.1740    -2.2160 C.ar  1 <1>   0.1660 
 14 O       -4.4400    -1.3710     0.3250 O.3   1 <1>  -0.5600 
 15 C       -3.6010    -3.5530    -0.2070 C.ar  1 <1>  -0.1440 
 16 C       -5.5860     0.5820     1.0060 C.3   1 <1>  -0.1950 
 17 N       -0.9460     4.8680    -1.1790 N.ar  1 <1>  -0.5670 
 18 N       -0.0780     4.5700     1.0730 N.pl3 1 <1>   0.3140 
 19 N        0.2560     3.5470     1.8910 N.2   1 <1>  -0.7070 
 20 C        0.2920     1.1030     1.7730 C.3   1 <1>  -0.0590 
 21 C       -1.7600     4.9670    -3.4350 C.3   1 <1>  -0.0970 
 22 C       -3.3160    -4.4450    -1.2310 C.ar  1 <1>  -0.1500 
 23 C       -3.9580    -4.0510     1.0390 C.ar  1 <1>  -0.1500 
 24 C       -7.0150     0.5430     0.5670 C.3   1 <1>  -0.2000 
 25 C       -6.2840     1.8550     0.6410 C.3   1 <1>  -0.2000 
 26 C        0.0980     5.9730     1.4630 C.3   1 <1>   0.0160 
 27 C       -3.3850    -5.8100    -1.0140 C.ar  1 <1>  -0.1500 
 28 C       -4.0270    -5.4160     1.2580 C.ar  1 <1>  -0.1500 
 29 C       -3.7400    -6.2970     0.2310 C.ar  1 <1>  -0.1500 
 30 H       -1.3870    -2.0150    -0.8370 H     1 <1>   0.0800 
 31 H       -1.8100    -1.8460     0.8370 H     1 <1>   0.0800 
 32 H       -2.9360     0.5440     1.5320 H     1 <1>   0.0800 
 33 H       -3.1340     1.6850     0.2360 H     1 <1>   0.0800 
 34 H       -1.7330     2.2780    -3.1380 H     1 <1>   0.1500 
 35 H       -3.7360    -1.8580    -1.4990 H     1 <1>   0.0800 
 36 H       -4.7010     0.1960    -0.9100 H     1 <1>   0.0800 
 37 H       -5.3940     0.4150     2.0520 H     1 <1>   0.1000 
 38 H        0.6910     0.4660     1.0050 H     1 <1>   0.0800 
 39 H       -0.6040     0.6660     2.1710 H     1 <1>   0.0800 
 40 H        1.0160     1.1810     2.5630 H     1 <1>   0.0800 
 41 H       -2.0600     4.3210    -4.2390 H     1 <1>   0.0800 
 42 H       -0.9390     5.5750    -3.7680 H     1 <1>   0.0800 
 43 H       -2.5830     5.6100    -3.1800 H     1 <1>   0.0800 
 44 H       -3.0370    -4.0830    -2.2060 H     1 <1>   0.1500 
 45 H       -4.1870    -3.3750     1.8450 H     1 <1>   0.1500 
 46 H       -7.2470     0.1220    -0.3960 H     1 <1>   0.1000 
 47 H       -7.7680     0.3210     1.3040 H     1 <1>   0.1000 
 48 H       -6.5470     2.5460     1.4230 H     1 <1>   0.1000 
 49 H       -6.0420     2.3520    -0.2830 H     1 <1>   0.1000 
 50 H       -0.8450     6.4800     1.3820 H     1 <1>   0.0800 
 51 H        0.8140     6.4310     0.8070 H     1 <1>   0.0800 
 52 H        0.4510     6.0180     2.4760 H     1 <1>   0.0800 
 53 H       -3.1620    -6.4940    -1.8140 H     1 <1>   0.1500 
 54 H       -4.3060    -5.7910     2.2270 H     1 <1>   0.1500 
 55 H       -3.7940    -7.3580     0.4000 H     1 <1>   0.1500 
@<TRIPOS>BOND
  1   1   2  2   
  2   2   3  am  
  3   2   4  1   
  4   3   5  1   
  5   3   6  1   
  6   4   7  ar  
  7   4   8  ar  
  8   5   9  1   
  9   5  30  1   
 10   5  31  1   
 11   6  10  1   
 12   6  32  1   
 13   6  33  1   
 14   7  11  ar  
 15   7  12  1   
 16   8  13  ar  
 17   8  34  1   
 18   9  14  1   
 19   9  15  1   
 20   9  35  1   
 21  10  14  1   
 22  10  16  1   
 23  10  36  1   
 24  11  17  ar  
 25  11  18  1   
 26  12  19  2   
 27  12  20  1   
 28  13  17  ar  
 29  13  21  1   
 30  15  22  ar  
 31  15  23  ar  
 32  16  24  1   
 33  16  25  1   
 34  16  37  1   
 35  18  19  1   
 36  18  26  1   
 37  20  38  1   
 38  20  39  1   
 39  20  40  1   
 40  21  41  1   
 41  21  42  1   
 42  21  43  1   
 43  22  27  ar  
 44  22  44  1   
 45  23  28  ar  
 46  23  45  1   
 47  24  25  1   
 48  24  46  1   
 49  24  47  1   
 50  25  48  1   
 51  25  49  1   
 52  26  50  1   
 53  26  51  1   
 54  26  52  1   
 55  27  29  ar  
 56  27  53  1   
 57  28  29  ar  
 58  28  54  1   
 59  29  55  1   
@<TRIPOS>SUBSTRUCTURE
  1 ****   3 GROUP 4 **** **** 0

# MOE 2024.06 (io_trps.svl 2023.06)
