@<TRIPOS>MOLECULE
NONAME
37 39 1 0 0 
SMALL
USER_CHARGES


@<TRIPOS>ATOM
  1 S       -0.0840    -0.0180    -0.7510 S.3   1 <1>  -0.0800 
  2 C       -0.6840     1.4250     0.0310 C.2   1 <1>   0.4620 
  3 C       -1.3080    -0.9720     0.0670 C.2   1 <1>  -0.0450 
  4 N       -1.6790     1.2250     0.8130 N.2   1 <1>  -0.5650 
  5 N       -0.0890     2.6080    -0.2250 N.pl3 1 <1>  -0.8840 
  6 C       -1.3710    -2.3890    -0.1650 C.2   1 <1>   0.7150 
  7 C       -2.0110    -0.1040     0.8330 C.2   1 <1>   0.0770 
  8 O       -0.3860    -2.9890    -0.5530 O.2   1 <1>  -0.5700 
  9 N       -2.5290    -3.1100     0.0440 N.am  1 <1>  -0.6600 
 10 C       -3.9030    -2.5470     0.0110 C.3   1 <1>   0.1400 
 11 C       -2.5740    -4.5840    -0.1480 C.3   1 <1>   0.1400 
 12 C       -4.8070    -3.7220    -0.3670 C.3   1 <1>   0.2000 
 13 C       -4.0410    -4.9740     0.0490 C.3   1 <1>  -0.0800 
 14 O       -6.0220    -3.6640     0.2980 O.3   1 <1>  -0.6800 
 15 C       -4.4730    -6.2230    -0.7390 C.3   1 <1>  -0.0170 
 16 C       -3.7430    -7.4680    -0.2650 C.ar  1 <1>   0.1670 
 17 N       -2.5220    -7.6510    -0.7440 N.ar  1 <1>  -0.6200 
 18 C       -4.3640    -8.3340     0.6230 C.ar  1 <1>  -0.1500 
 19 C       -1.8960    -8.7380    -0.3220 C.ar  1 <1>   0.1600 
 20 C       -3.7000    -9.4620     1.0550 C.ar  1 <1>  -0.1500 
 21 C       -2.4290    -9.6600     0.5620 C.ar  1 <1>  -0.1500 
 22 H        0.7190     2.7000    -0.8400 H     1 <1>   0.4000 
 23 H       -0.4160     3.4570     0.2380 H     1 <1>   0.4000 
 24 H       -2.8230    -0.3930     1.4760 H     1 <1>   0.1500 
 25 H       -4.1580    -2.1780     0.9880 H     1 <1>   0.0800 
 26 H       -3.9760    -1.7600    -0.7200 H     1 <1>   0.0800 
 27 H       -2.2450    -4.8220    -1.1460 H     1 <1>   0.0800 
 28 H       -1.9340    -5.0850     0.5590 H     1 <1>   0.0800 
 29 H       -4.9960    -3.7110    -1.4270 H     1 <1>   0.0800 
 30 H       -4.1830    -5.1500     1.1000 H     1 <1>   0.0800 
 31 H       -5.8860    -3.7160     1.2640 H     1 <1>   0.4000 
 32 H       -4.2810    -6.0840    -1.7880 H     1 <1>   0.0800 
 33 H       -5.5330    -6.3650    -0.6220 H     1 <1>   0.0800 
 34 H       -5.3590    -8.1310     0.9760 H     1 <1>   0.1500 
 35 H       -0.9010    -8.9020    -0.7020 H     1 <1>   0.1500 
 36 H       -4.1520   -10.1550     1.7430 H     1 <1>   0.1500 
 37 H       -1.8540   -10.5190     0.8570 H     1 <1>   0.1500 
@<TRIPOS>BOND
  1   1   2  1   
  2   1   3  1   
  3   2   4  2   
  4   2   5  1   
  5   3   6  1   
  6   3   7  2   
  7   4   7  1   
  8   5  22  1   
  9   5  23  1   
 10   6   8  2   
 11   6   9  am  
 12   7  24  1   
 13   9  10  1   
 14   9  11  1   
 15  10  12  1   
 16  10  25  1   
 17  10  26  1   
 18  11  13  1   
 19  11  27  1   
 20  11  28  1   
 21  12  13  1   
 22  12  14  1   
 23  12  29  1   
 24  13  15  1   
 25  13  30  1   
 26  14  31  1   
 27  15  16  1   
 28  15  32  1   
 29  15  33  1   
 30  16  17  ar  
 31  16  18  ar  
 32  17  19  ar  
 33  18  20  ar  
 34  18  34  1   
 35  19  21  ar  
 36  19  35  1   
 37  20  21  ar  
 38  20  36  1   
 39  21  37  1   
@<TRIPOS>SUBSTRUCTURE
  1 ****  11 GROUP 4 **** **** 0

# MOE 2024.06 (io_trps.svl 2023.06)
