@<TRIPOS>MOLECULE
NONAME
40 42 1 0 0 
SMALL
USER_CHARGES


@<TRIPOS>ATOM
  1 F        0.2880     0.4900    -1.8090 F     1 <1>  -0.1900 
  2 C        1.3010     1.1170    -1.2480 C.ar  1 <1>   0.1900 
  3 C        2.4740     0.4470    -0.9070 C.ar  1 <1>   0.4100 
  4 C        1.2010     2.4570    -0.9960 C.ar  1 <1>   0.1600 
  5 N        3.4670     1.1130    -0.3470 N.ar  1 <1>  -0.6200 
  6 N        2.6630    -0.9140    -1.1160 N.pl3 1 <1>  -0.8380 
  7 N        2.1890     3.1270    -0.4340 N.ar  1 <1>  -0.6200 
  8 C        3.2640     2.4020    -0.1400 C.ar  1 <1>   0.7200 
  9 C        1.7640    -1.8800    -0.4170 C.3   1 <1>   0.2090 
 10 C        4.0390    -1.4680    -1.3160 C.3   1 <1>   0.2090 
 11 N        4.3090     3.0270     0.4440 N.pl3 1 <1>  -0.8690 
 12 C        2.4440    -2.4500     0.8430 C.3   1 <1>   0.1200 
 13 C        4.5910    -2.0570    -0.0060 C.3   1 <1>   0.1200 
 14 C        4.6540     4.4350     0.1090 C.3   1 <1>   0.2890 
 15 O        3.7000    -2.9930     0.5380 O.3   1 <1>  -0.5600 
 16 C        6.0530     4.8030     0.5690 C.3   1 <1>   0.2000 
 17 C        3.7980     5.4650     0.8480 C.3   1 <1>   0.1200 
 18 O        7.0060     4.4520    -0.3970 O.3   1 <1>  -0.5600 
 19 C        5.9430     6.3100     0.7640 C.3   1 <1>   0.1200 
 20 O        4.6260     6.5560     1.1580 O.3   1 <1>  -0.5600 
 21 C        8.3280     4.5110     0.0370 C.3   1 <1>   0.0400 
 22 H        0.3030     2.9870    -1.2570 H     1 <1>   0.1500 
 23 H        0.8460    -1.3980    -0.1330 H     1 <1>   0.0800 
 24 H        1.5220    -2.6870    -1.0860 H     1 <1>   0.0800 
 25 H        4.0020    -2.2410    -2.0630 H     1 <1>   0.0800 
 26 H        4.7010    -0.6990    -1.6750 H     1 <1>   0.0800 
 27 H        5.1240     2.4150     0.4100 H     1 <1>   0.4000 
 28 H        1.8430    -3.2330     1.2670 H     1 <1>   0.0800 
 29 H        2.5750    -1.6750     1.5780 H     1 <1>   0.0800 
 30 H        4.7530    -1.2730     0.7150 H     1 <1>   0.0800 
 31 H        5.5240    -2.5580    -0.1880 H     1 <1>   0.0800 
 32 H        4.5620     4.6000    -0.9510 H     1 <1>   0.0800 
 33 H        6.2800     4.3190     1.5040 H     1 <1>   0.0800 
 34 H        3.4260     5.0600     1.7730 H     1 <1>   0.0800 
 35 H        2.9820     5.8090     0.2380 H     1 <1>   0.0800 
 36 H        6.1080     6.8280    -0.1650 H     1 <1>   0.0800 
 37 H        6.6070     6.6730     1.5280 H     1 <1>   0.0800 
 38 H        8.9610     4.2050    -0.7770 H     1 <1>   0.0800 
 39 H        8.4610     3.8410     0.8690 H     1 <1>   0.0800 
 40 H        8.5700     5.5210     0.3200 H     1 <1>   0.0800 
@<TRIPOS>BOND
  1   1   2  1   
  2   2   3  ar  
  3   2   4  ar  
  4   3   5  ar  
  5   3   6  1   
  6   4   7  ar  
  7   4  22  1   
  8   5   8  ar  
  9   6   9  1   
 10   6  10  1   
 11   7   8  ar  
 12   8  11  1   
 13   9  12  1   
 14   9  23  1   
 15   9  24  1   
 16  10  13  1   
 17  10  25  1   
 18  10  26  1   
 19  11  14  1   
 20  11  27  1   
 21  12  15  1   
 22  12  28  1   
 23  12  29  1   
 24  13  15  1   
 25  13  30  1   
 26  13  31  1   
 27  14  16  1   
 28  14  17  1   
 29  14  32  1   
 30  16  18  1   
 31  16  19  1   
 32  16  33  1   
 33  17  20  1   
 34  17  34  1   
 35  17  35  1   
 36  18  21  1   
 37  19  20  1   
 38  19  36  1   
 39  19  37  1   
 40  21  38  1   
 41  21  39  1   
 42  21  40  1   
@<TRIPOS>SUBSTRUCTURE
  1 ****   8 GROUP 4 **** **** 0

# MOE 2024.06 (io_trps.svl 2023.06)
