@<TRIPOS>MOLECULE
NONAME
47 49 1 0 0 
SMALL
USER_CHARGES


@<TRIPOS>ATOM
  1 O        0.2090     0.7050     0.7490 O.2   1 <1>  -0.5700 
  2 C        0.1880     1.7600     0.1570 C.2   1 <1>   0.5690 
  3 N       -0.8850     2.6140     0.2760 N.am  1 <1>  -0.6600 
  4 C        1.3620     2.1130    -0.7570 C.3   1 <1>   0.0440 
  5 C       -1.9790     2.3360     1.2560 C.3   1 <1>   0.1400 
  6 C       -1.1630     3.7980    -0.5840 C.3   1 <1>   0.1400 
  7 C        2.6750     1.3940    -0.4510 C.ar  1 <1>  -0.1440 
  8 C       -3.2970     2.0270     0.5200 C.3   1 <1>   0.0000 
  9 C       -2.4640     3.5720    -1.3640 C.3   1 <1>  -0.1600 
 10 C        3.7310     2.0770     0.1330 C.ar  1 <1>  -0.1500 
 11 C        2.8300     0.0520    -0.7620 C.ar  1 <1>  -0.1500 
 12 C       -4.4160     1.7180     1.5340 C.3   1 <1>   0.2000 
 13 C       -3.6390     3.2040    -0.4380 C.3   1 <1>  -0.1600 
 14 C       -3.2250     0.6940    -0.2490 C.3   1 <1>  -0.1600 
 15 C        4.9320     1.4390     0.4000 C.ar  1 <1>   0.0820 
 16 C        4.0250    -0.5950    -0.4990 C.ar  1 <1>  -0.1500 
 17 O       -5.0260     2.8550     2.0320 O.3   1 <1>  -0.6800 
 18 C       -5.4350     0.8470     0.8010 C.3   1 <1>  -0.1600 
 19 C       -4.6700     0.1960    -0.3590 C.3   1 <1>  -0.1600 
 20 O        5.9080     2.1900     0.9700 O.3   1 <1>  -0.3630 
 21 C        5.0770     0.0920     0.0790 C.ar  1 <1>  -0.1500 
 22 C        7.1430     1.6200     1.3420 C.3   1 <1>   0.0400 
 23 H        1.0730     1.8900    -1.7670 H     1 <1>   0.0800 
 24 H        1.5430     3.1680    -0.6920 H     1 <1>   0.0800 
 25 H       -1.7140     1.5120     1.8970 H     1 <1>   0.0800 
 26 H       -2.1140     3.2000     1.8830 H     1 <1>   0.0800 
 27 H       -1.2630     4.6670     0.0440 H     1 <1>   0.0800 
 28 H       -0.3660     3.9800    -1.2800 H     1 <1>   0.0800 
 29 H       -2.7070     4.4680    -1.9070 H     1 <1>   0.0800 
 30 H       -2.3040     2.7960    -2.0910 H     1 <1>   0.0800 
 31 H        3.6390     3.1160     0.3910 H     1 <1>   0.1500 
 32 H        2.0140    -0.4950    -1.2010 H     1 <1>   0.1500 
 33 H       -4.0120     1.1670     2.3680 H     1 <1>   0.0800 
 34 H       -4.5050     2.9700    -1.0320 H     1 <1>   0.0800 
 35 H       -3.8680     4.0800     0.1430 H     1 <1>   0.0800 
 36 H       -2.7540     0.7780    -1.2110 H     1 <1>   0.0800 
 37 H       -2.6590    -0.0170     0.3300 H     1 <1>   0.0800 
 38 H        4.1310    -1.6380    -0.7430 H     1 <1>   0.1500 
 39 H       -5.4680     3.3300     1.3040 H     1 <1>   0.4000 
 40 H       -5.8270     0.0980     1.4680 H     1 <1>   0.0800 
 41 H       -6.2450     1.4380     0.4120 H     1 <1>   0.0800 
 42 H       -4.7100    -0.8780    -0.3070 H     1 <1>   0.0800 
 43 H       -5.0950     0.5130    -1.2960 H     1 <1>   0.0800 
 44 H        5.9920    -0.4330     0.2710 H     1 <1>   0.1500 
 45 H        7.7420     2.3900     1.7930 H     1 <1>   0.0800 
 46 H        7.6320     1.2440     0.4610 H     1 <1>   0.0800 
 47 H        6.9630     0.8330     2.0510 H     1 <1>   0.0800 
@<TRIPOS>BOND
  1   1   2  2   
  2   2   3  am  
  3   2   4  1   
  4   3   5  1   
  5   3   6  1   
  6   4   7  1   
  7   4  23  1   
  8   4  24  1   
  9   5   8  1   
 10   5  25  1   
 11   5  26  1   
 12   6   9  1   
 13   6  27  1   
 14   6  28  1   
 15   7  10  ar  
 16   7  11  ar  
 17   8  12  1   
 18   8  13  1   
 19   8  14  1   
 20   9  13  1   
 21   9  29  1   
 22   9  30  1   
 23  10  15  ar  
 24  10  31  1   
 25  11  16  ar  
 26  11  32  1   
 27  12  17  1   
 28  12  18  1   
 29  12  33  1   
 30  13  34  1   
 31  13  35  1   
 32  14  19  1   
 33  14  36  1   
 34  14  37  1   
 35  15  20  1   
 36  15  21  ar  
 37  16  21  ar  
 38  16  38  1   
 39  17  39  1   
 40  18  19  1   
 41  18  40  1   
 42  18  41  1   
 43  19  42  1   
 44  19  43  1   
 45  20  22  1   
 46  21  44  1   
 47  22  45  1   
 48  22  46  1   
 49  22  47  1   
@<TRIPOS>SUBSTRUCTURE
  1 ****   2 GROUP 4 **** **** 0

# MOE 2024.06 (io_trps.svl 2023.06)
