@<TRIPOS>MOLECULE
NONAME
36 37 1 0 0 
SMALL
USER_CHARGES


@<TRIPOS>ATOM
  1 O       -0.0690     0.7250     0.0470 O.2   1 <1>  -0.5700 
  2 C       -1.2850     0.7950     0.0710 C.2   1 <1>   0.7800 
  3 O       -2.0500    -0.2900     0.1660 O.3   1 <1>  -0.4300 
  4 N       -1.9050     2.0070    -0.0480 N.am  1 <1>  -0.5090 
  5 C       -1.6340    -1.6320     0.2950 C.3   1 <1>   0.2800 
  6 C       -1.2440     3.3180     0.2180 C.3   1 <1>   0.2200 
  7 C       -3.3640     2.1820    -0.1200 C.3   1 <1>   0.0490 
  8 C       -2.9260    -2.4450     0.3810 C.3   1 <1>  -0.2400 
  9 C       -0.8450    -2.0640    -0.9460 C.3   1 <1>  -0.2400 
 10 C       -0.8330    -1.8140     1.5890 C.3   1 <1>  -0.2400 
 11 C       -2.3810     4.2930     0.5830 C.3   1 <1>  -0.0650 
 12 C       -0.4590     3.7960    -1.0250 C.3   1 <1>   0.3430 
 13 C       -3.6780     3.5980     0.1850 C.3   1 <1>  -0.1950 
 14 C       -3.9630     3.0510    -1.1800 C.3   1 <1>  -0.2000 
 15 N        0.7330     2.9430    -1.3150 N.4   1 <1>  -0.8530 
 16 H       -0.5760     3.2260     1.0580 H     1 <1>   0.0800 
 17 H       -3.9450     1.3990     0.3440 H     1 <1>   0.1000 
 18 H       -2.7040    -3.4920     0.4830 H     1 <1>   0.0800 
 19 H       -3.5140    -2.3100    -0.5090 H     1 <1>   0.0800 
 20 H       -3.5050    -2.1380     1.2340 H     1 <1>   0.0800 
 21 H       -0.6550    -3.1210    -0.9060 H     1 <1>   0.0800 
 22 H        0.1060    -1.5690    -0.9980 H     1 <1>   0.0800 
 23 H       -1.4080    -1.8570    -1.8390 H     1 <1>   0.0800 
 24 H       -0.6350    -2.8580     1.7510 H     1 <1>   0.0800 
 25 H       -1.3890    -1.4430     2.4300 H     1 <1>   0.0800 
 26 H        0.1150    -1.3110     1.5390 H     1 <1>   0.0800 
 27 H       -2.3800     4.4480     1.6480 H     1 <1>   0.0800 
 28 H       -2.2860     5.2510     0.1030 H     1 <1>   0.0800 
 29 H       -0.1410     4.8150    -0.8740 H     1 <1>   0.0800 
 30 H       -1.1320     3.7830    -1.8670 H     1 <1>   0.0800 
 31 H       -4.5300     3.8360     0.8000 H     1 <1>   0.1000 
 32 H       -3.3630     3.3390    -2.0230 H     1 <1>   0.1000 
 33 H       -4.9900     2.8800    -1.4540 H     1 <1>   0.1000 
 34 H        1.5350     3.1790    -0.7230 H     1 <1>   0.4500 
 35 H        1.0180     2.9780    -2.2990 H     1 <1>   0.4500 
 36 H        0.5050     1.9550    -1.0830 H     1 <1>   0.4500 
@<TRIPOS>BOND
  1   1   2  2   
  2   2   3  1   
  3   2   4  am  
  4   3   5  1   
  5   4   6  1   
  6   4   7  1   
  7   5   8  1   
  8   5   9  1   
  9   5  10  1   
 10   6  11  1   
 11   6  12  1   
 12   6  16  1   
 13   7  13  1   
 14   7  14  1   
 15   7  17  1   
 16   8  18  1   
 17   8  19  1   
 18   8  20  1   
 19   9  21  1   
 20   9  22  1   
 21   9  23  1   
 22  10  24  1   
 23  10  25  1   
 24  10  26  1   
 25  11  13  1   
 26  11  27  1   
 27  11  28  1   
 28  12  15  1   
 29  12  29  1   
 30  12  30  1   
 31  13  14  1   
 32  13  31  1   
 33  14  32  1   
 34  14  33  1   
 35  15  34  1   
 36  15  35  1   
 37  15  36  1   
@<TRIPOS>SUBSTRUCTURE
  1 ****   2 GROUP 4 **** **** 0

# MOE 2024.06 (io_trps.svl 2023.06)
