@<TRIPOS>MOLECULE
NONAME
61 64 1 0 0 
SMALL
USER_CHARGES


@<TRIPOS>ATOM
  1 O        0.4050    -1.4430    -2.4210 O.2   1 <1>  -0.5700 
  2 C        0.9960    -1.8530    -1.4520 C.2   1 <1>   0.5690 
  3 N        1.9710    -1.0950    -0.8570 N.am  1 <1>  -0.6600 
  4 C        0.5690    -3.2290    -0.9670 C.3   1 <1>  -0.0990 
  5 C        2.6800    -1.4460     0.4080 C.3   1 <1>   0.1400 
  6 C        2.2570     0.2890    -1.3580 C.3   1 <1>   0.2840 
  7 C        1.3350    -3.8740     0.1890 C.3   1 <1>   0.1200 
  8 C        3.4800    -2.7740     0.3280 C.3   1 <1>   0.2800 
  9 C        1.7700     1.3390    -0.3670 C.ar  1 <1>   0.1660 
 10 O        2.7040    -3.8740    -0.0920 O.3   1 <1>  -0.5600 
 11 C        4.6230    -2.6480    -0.6940 C.3   1 <1>  -0.1600 
 12 C        4.0820    -3.1400     1.6980 C.3   1 <1>  -0.1600 
 13 N        2.6630     1.8270     0.4890 N.ar  1 <1>  -0.6200 
 14 C        0.4370     1.7210    -0.4000 C.ar  1 <1>  -0.1500 
 15 C        5.5090    -3.8950    -0.7920 C.3   1 <1>   0.3430 
 16 C        5.2150    -4.1750     1.6290 C.3   1 <1>   0.3430 
 17 C        2.2030     2.7380     1.3340 C.ar  1 <1>   0.1600 
 18 C       -0.0250     2.6670     0.4890 C.ar  1 <1>  -0.1500 
 19 N        5.2110    -4.8550     0.3080 N.4   1 <1>  -0.9590 
 20 C        0.8940     3.1840     1.3760 C.ar  1 <1>  -0.1500 
 21 C        6.0820    -6.0620     0.2550 C.3   1 <1>   0.5240 
 22 C        7.5180    -5.6690     0.5300 C.2   1 <1>  -0.1810 
 23 C        8.1290    -5.6580     1.7780 C.2   1 <1>   0.1390 
 24 C        8.4840    -5.2600    -0.3240 C.2   1 <1>  -0.3020 
 25 N        9.3560    -5.2550     1.7160 N.2   1 <1>  -0.7070 
 26 N        9.5910    -5.0160     0.4120 N.pl3 1 <1>   0.3140 
 27 C       10.9220    -4.5510    -0.0710 C.3   1 <1>   0.1760 
 28 C       10.8130    -3.1620    -0.7160 C.3   1 <1>  -0.2400 
 29 C       11.5320    -5.5650    -1.0480 C.3   1 <1>  -0.2400 
 30 H        0.6190    -3.8930    -1.8090 H     1 <1>   0.0800 
 31 H       -0.4660    -3.1630    -0.6890 H     1 <1>   0.0800 
 32 H        1.9710    -1.4660     1.2170 H     1 <1>   0.0800 
 33 H        3.3780    -0.6630     0.6490 H     1 <1>   0.0800 
 34 H        1.7850     0.4610    -2.3090 H     1 <1>   0.0800 
 35 H        3.3160     0.4040    -1.5040 H     1 <1>   0.0800 
 36 H        1.0260    -4.9010     0.2790 H     1 <1>   0.0800 
 37 H        1.1390    -3.3910     1.1300 H     1 <1>   0.0800 
 38 H        5.2460    -1.8130    -0.4250 H     1 <1>   0.0800 
 39 H        4.2200    -2.4280    -1.6670 H     1 <1>   0.0800 
 40 H        3.3070    -3.4960     2.3530 H     1 <1>   0.0800 
 41 H        4.4880    -2.2560     2.1580 H     1 <1>   0.0800 
 42 H       -0.2320     1.2760    -1.1170 H     1 <1>   0.1500 
 43 H        6.5450    -3.5990    -0.7540 H     1 <1>   0.0800 
 44 H        5.3320    -4.3760    -1.7400 H     1 <1>   0.0800 
 45 H        5.0890    -4.8960     2.4210 H     1 <1>   0.0800 
 46 H        6.1640    -3.6830     1.7720 H     1 <1>   0.0800 
 47 H        2.9100     3.1540     2.0320 H     1 <1>   0.1500 
 48 H       -1.0530     2.9850     0.4890 H     1 <1>   0.1500 
 49 H        4.2240    -5.1260     0.1410 H     1 <1>   0.4500 
 50 H        0.6000     3.9270     2.0950 H     1 <1>   0.1500 
 51 H        6.0170    -6.5170    -0.7200 H     1 <1>   0.0800 
 52 H        5.7590    -6.7860     0.9860 H     1 <1>   0.0800 
 53 H        7.6620    -5.9450     2.7070 H     1 <1>   0.1500 
 54 H        8.4670    -5.1320    -1.3910 H     1 <1>   0.1500 
 55 H       11.5640    -4.4790     0.7910 H     1 <1>   0.0800 
 56 H       10.1990    -3.1940    -1.5970 H     1 <1>   0.0800 
 57 H       11.7910    -2.8130    -0.9960 H     1 <1>   0.0800 
 58 H       10.3960    -2.4630    -0.0130 H     1 <1>   0.0800 
 59 H       10.9330    -5.6550    -1.9360 H     1 <1>   0.0800 
 60 H       11.6130    -6.5280    -0.5740 H     1 <1>   0.0800 
 61 H       12.5200    -5.2500    -1.3350 H     1 <1>   0.0800 
@<TRIPOS>BOND
  1   1   2  2   
  2   2   3  am  
  3   2   4  1   
  4   3   5  1   
  5   3   6  1   
  6   4   7  1   
  7   4  30  1   
  8   4  31  1   
  9   5   8  1   
 10   5  32  1   
 11   5  33  1   
 12   6   9  1   
 13   6  34  1   
 14   6  35  1   
 15   7  10  1   
 16   7  36  1   
 17   7  37  1   
 18   8  10  1   
 19   8  11  1   
 20   8  12  1   
 21   9  13  ar  
 22   9  14  ar  
 23  11  15  1   
 24  11  38  1   
 25  11  39  1   
 26  12  16  1   
 27  12  40  1   
 28  12  41  1   
 29  13  17  ar  
 30  14  18  ar  
 31  14  42  1   
 32  15  19  1   
 33  15  43  1   
 34  15  44  1   
 35  16  19  1   
 36  16  45  1   
 37  16  46  1   
 38  17  20  ar  
 39  17  47  1   
 40  18  20  ar  
 41  18  48  1   
 42  19  21  1   
 43  19  49  1   
 44  20  50  1   
 45  21  22  1   
 46  21  51  1   
 47  21  52  1   
 48  22  23  1   
 49  22  24  2   
 50  23  25  2   
 51  23  53  1   
 52  24  26  1   
 53  24  54  1   
 54  25  26  1   
 55  26  27  1   
 56  27  28  1   
 57  27  29  1   
 58  27  55  1   
 59  28  56  1   
 60  28  57  1   
 61  28  58  1   
 62  29  59  1   
 63  29  60  1   
 64  29  61  1   
@<TRIPOS>SUBSTRUCTURE
  1 ****  11 GROUP 4 **** **** 0

# MOE 2024.06 (io_trps.svl 2023.06)
