@<TRIPOS>MOLECULE
NONAME
44 46 1 0 0 
SMALL
USER_CHARGES


@<TRIPOS>ATOM
  1 O       -0.4220     0.2930     1.1160 O.2   1 <1>  -0.5700 
  2 C       -1.4190     0.9110     0.7870 C.2   1 <1>   0.5440 
  3 N       -2.5450     0.2010     0.4370 N.am  1 <1>  -0.6600 
  4 C       -1.4050     2.3520     0.7610 C.ar  1 <1>   0.0860 
  5 C       -3.6810     0.7660    -0.3380 C.3   1 <1>   0.1400 
  6 C       -2.5600    -1.2840     0.3440 C.3   1 <1>   0.1400 
  7 C       -0.5180     3.0430    -0.0830 C.ar  1 <1>   0.4100 
  8 C       -2.2690     3.0960     1.5530 C.ar  1 <1>  -0.1500 
  9 C       -4.6620    -0.3960    -0.4740 C.3   1 <1>   0.2000 
 10 C       -3.7480    -1.6200    -0.5640 C.3   1 <1>  -0.0800 
 11 N       -0.4820     4.3710    -0.1860 N.ar  1 <1>  -0.6200 
 12 N        0.3790     2.3490    -0.8630 N.pl3 1 <1>  -0.8690 
 13 C       -2.2200     4.4680     1.4530 C.ar  1 <1>  -0.1500 
 14 O       -5.4080    -0.4580     0.6950 O.3   1 <1>  -0.6800 
 15 C       -4.4130    -2.9720    -0.2460 C.3   1 <1>   0.0210 
 16 C       -1.3200     5.0460     0.5750 C.ar  1 <1>   0.1600 
 17 C        1.4850     2.9840    -1.6210 C.3   1 <1>   0.1290 
 18 C       -3.4120    -4.1060    -0.3520 C.2   1 <1>   0.1080 
 19 N       -2.7700    -4.3800    -1.4440 N.2   1 <1>  -0.7070 
 20 C       -3.0660    -4.9600     0.6900 C.2   1 <1>  -0.1500 
 21 N       -1.9870    -5.4280    -1.1260 N.pl3 1 <1>   0.3000 
 22 C       -2.1480    -5.7970     0.1630 C.2   1 <1>  -0.3320 
 23 C       -1.4030    -6.9440     0.8200 C.3   1 <1>  -0.0600 
 24 H       -4.1330     1.6090     0.1550 H     1 <1>   0.0800 
 25 H       -3.3260     1.0640    -1.3100 H     1 <1>   0.0800 
 26 H       -1.6380    -1.6570    -0.0710 H     1 <1>   0.0800 
 27 H       -2.6950    -1.6960     1.3290 H     1 <1>   0.0800 
 28 H       -2.9520     2.6070     2.2240 H     1 <1>   0.1500 
 29 H       -5.3330    -0.2940    -1.3100 H     1 <1>   0.0800 
 30 H       -3.3690    -1.6690    -1.5710 H     1 <1>   0.0800 
 31 H        0.5740     1.3910    -0.5330 H     1 <1>   0.4000 
 32 H       -2.8690     5.0880     2.0460 H     1 <1>   0.1500 
 33 H       -4.7900    -0.4270     1.4530 H     1 <1>   0.4000 
 34 H       -5.2110    -3.1510    -0.9440 H     1 <1>   0.0800 
 35 H       -4.8310    -2.9660     0.7430 H     1 <1>   0.0800 
 36 H       -1.2890     6.1200     0.4990 H     1 <1>   0.1500 
 37 H        1.1060     3.8050    -2.2040 H     1 <1>   0.0800 
 38 H        1.9360     2.2650    -2.2820 H     1 <1>   0.0800 
 39 H        2.2280     3.3550    -0.9350 H     1 <1>   0.0800 
 40 H       -3.4590    -4.9350     1.6900 H     1 <1>   0.1500 
 41 H       -1.3550    -5.8640    -1.8070 H     1 <1>   0.2700 
 42 H       -1.7050    -7.0400     1.8480 H     1 <1>   0.0800 
 43 H       -0.3430    -6.7660     0.7900 H     1 <1>   0.0800 
 44 H       -1.6190    -7.8680     0.3120 H     1 <1>   0.0800 
@<TRIPOS>BOND
  1   1   2  2   
  2   2   3  am  
  3   2   4  1   
  4   3   5  1   
  5   3   6  1   
  6   4   7  ar  
  7   4   8  ar  
  8   5   9  1   
  9   5  24  1   
 10   5  25  1   
 11   6  10  1   
 12   6  26  1   
 13   6  27  1   
 14   7  11  ar  
 15   7  12  1   
 16   8  13  ar  
 17   8  28  1   
 18   9  10  1   
 19   9  14  1   
 20   9  29  1   
 21  10  15  1   
 22  10  30  1   
 23  11  16  ar  
 24  12  17  1   
 25  12  31  1   
 26  13  16  ar  
 27  13  32  1   
 28  14  33  1   
 29  15  18  1   
 30  15  34  1   
 31  15  35  1   
 32  16  36  1   
 33  17  37  1   
 34  17  38  1   
 35  17  39  1   
 36  18  19  2   
 37  18  20  1   
 38  19  21  1   
 39  20  22  2   
 40  20  40  1   
 41  21  22  1   
 42  21  41  1   
 43  22  23  1   
 44  23  42  1   
 45  23  43  1   
 46  23  44  1   
@<TRIPOS>SUBSTRUCTURE
  1 ****   3 GROUP 4 **** **** 0

# MOE 2024.06 (io_trps.svl 2023.06)
