@<TRIPOS>MOLECULE
NONAME
51 53 1 0 0 
SMALL
USER_CHARGES


@<TRIPOS>ATOM
  1 O       -1.0980    -4.3850     1.4410 O.co2 1 <1>  -0.9000 
  2 C       -0.8820    -4.2930     0.2250 C.2   1 <1>   1.0330 
  3 O       -1.7330    -4.8340    -0.5100 O.co2 1 <1>  -0.9000 
  4 C        0.3860    -3.9030    -0.2890 C.2   1 <1>  -0.2330 
  5 C        1.0730    -4.7200    -1.1770 C.2   1 <1>   0.3720 
  6 C        1.2370    -2.8620    -0.0900 C.2   1 <1>   0.0870 
  7 N        2.2340    -4.2540    -1.4550 N.2   1 <1>  -0.4100 
  8 N        0.5560    -5.9050    -1.6830 N.pl3 1 <1>  -0.8520 
  9 O        2.3140    -3.1260    -0.7980 O.3   1 <1>  -0.0190 
 10 C        1.1740    -1.6370     0.6730 C.ar  1 <1>   0.0530 
 11 C        1.1970    -7.1340    -1.1920 C.3   1 <1>   0.2090 
 12 C        0.4260    -1.5160     1.8440 C.ar  1 <1>  -0.1500 
 13 C        1.8810    -0.5080     0.2540 C.ar  1 <1>  -0.1500 
 14 C        0.1570    -8.1760    -0.7680 C.3   1 <1>  -0.1600 
 15 C        0.3780    -0.3310     2.5560 C.ar  1 <1>  -0.1500 
 16 C        1.8410     0.6800     0.9600 C.ar  1 <1>  -0.1500 
 17 C       -0.4520    -7.9360     0.6240 C.3   1 <1>   0.3430 
 18 C        1.0860     0.7720     2.1160 C.ar  1 <1>  -0.1500 
 19 N       -1.7900    -7.2920     0.6150 N.4   1 <1>  -0.9590 
 20 C       -2.2640    -6.9790     2.0040 C.3   1 <1>   0.3430 
 21 C       -2.8700    -7.9370    -0.1950 C.3   1 <1>   0.3430 
 22 C       -3.6360    -6.2680     1.9980 C.3   1 <1>   0.2000 
 23 C       -4.2050    -7.1630    -0.0820 C.3   1 <1>   0.2000 
 24 O       -4.5560    -7.0230     1.2610 O.3   1 <1>  -0.5600 
 25 C       -4.2090    -6.1120     3.4040 C.3   1 <1>  -0.2400 
 26 C       -5.3550    -7.8960    -0.7690 C.3   1 <1>  -0.2400 
 27 H       -0.4670    -5.8780    -1.5270 H     1 <1>   0.4000 
 28 H        1.7950    -7.5310    -1.9960 H     1 <1>   0.0800 
 29 H        1.8630    -6.9080    -0.3740 H     1 <1>   0.0800 
 30 H       -0.1260    -2.3600     2.2130 H     1 <1>   0.1500 
 31 H        2.4690    -0.5630    -0.6450 H     1 <1>   0.1500 
 32 H        0.6890    -9.1070    -0.7030 H     1 <1>   0.0800 
 33 H       -0.5800    -8.3000    -1.5380 H     1 <1>   0.0800 
 34 H       -0.2110    -0.2710     3.4540 H     1 <1>   0.1500 
 35 H        2.3950     1.5330     0.6110 H     1 <1>   0.1500 
 36 H        0.2270    -7.3280     1.2010 H     1 <1>   0.0800 
 37 H       -0.5400    -8.8870     1.1230 H     1 <1>   0.0800 
 38 H        1.0510     1.6940     2.6690 H     1 <1>   0.1500 
 39 H       -1.6910    -6.3290     0.2060 H     1 <1>   0.4500 
 40 H       -2.3500    -7.8860     2.5770 H     1 <1>   0.0800 
 41 H       -1.5500    -6.3370     2.4940 H     1 <1>   0.0800 
 42 H       -2.5820    -7.9650    -1.2320 H     1 <1>   0.0800 
 43 H       -3.0280    -8.9470     0.1420 H     1 <1>   0.0800 
 44 H       -3.5410    -5.2950     1.5410 H     1 <1>   0.0800 
 45 H       -4.0950    -6.1790    -0.5120 H     1 <1>   0.0800 
 46 H       -4.3370    -7.0720     3.8710 H     1 <1>   0.0800 
 47 H       -5.1590    -5.6110     3.3530 H     1 <1>   0.0800 
 48 H       -3.5450    -5.5150     4.0030 H     1 <1>   0.0800 
 49 H       -5.5010    -8.8670    -0.3300 H     1 <1>   0.0800 
 50 H       -5.1480    -8.0130    -1.8170 H     1 <1>   0.0800 
 51 H       -6.2590    -7.3230    -0.6660 H     1 <1>   0.0800 
@<TRIPOS>BOND
  1   1   2  ar  
  2   2   3  ar  
  3   2   4  1   
  4   4   5  1   
  5   4   6  2   
  6   5   7  2   
  7   5   8  1   
  8   6   9  1   
  9   6  10  1   
 10   7   9  1   
 11   8  11  1   
 12   8  27  1   
 13  10  12  ar  
 14  10  13  ar  
 15  11  14  1   
 16  11  28  1   
 17  11  29  1   
 18  12  15  ar  
 19  12  30  1   
 20  13  16  ar  
 21  13  31  1   
 22  14  17  1   
 23  14  32  1   
 24  14  33  1   
 25  15  18  ar  
 26  15  34  1   
 27  16  18  ar  
 28  16  35  1   
 29  17  19  1   
 30  17  36  1   
 31  17  37  1   
 32  18  38  1   
 33  19  20  1   
 34  19  21  1   
 35  19  39  1   
 36  20  22  1   
 37  20  40  1   
 38  20  41  1   
 39  21  23  1   
 40  21  42  1   
 41  21  43  1   
 42  22  24  1   
 43  22  25  1   
 44  22  44  1   
 45  23  24  1   
 46  23  26  1   
 47  23  45  1   
 48  25  46  1   
 49  25  47  1   
 50  25  48  1   
 51  26  49  1   
 52  26  50  1   
 53  26  51  1   
@<TRIPOS>SUBSTRUCTURE
  1 ****   2 GROUP 4 **** **** 0

# MOE 2024.06 (io_trps.svl 2023.06)
