@<TRIPOS>MOLECULE
NONAME
49 51 1 0 0 
SMALL
USER_CHARGES


@<TRIPOS>ATOM
  1 O       -2.0990     1.1030     0.5840 O.co2 1 <1>  -0.9000 
  2 C       -0.9040     1.4210     0.6820 C.2   1 <1>   0.9060 
  3 O        0.0230     0.6130     0.6330 O.co2 1 <1>  -0.9000 
  4 C       -0.6130     2.9090     0.9190 C.3   1 <1>   0.3170 
  5 N       -1.7900     3.6150     1.6040 N.4   1 <1>  -0.9590 
  6 C       -0.2810     3.5200    -0.4570 C.3   1 <1>   0.1100 
  7 C       -1.7180     5.1060     1.5210 C.3   1 <1>   0.3430 
  8 C       -1.9540     3.0990     2.9890 C.3   1 <1>   0.2630 
  9 N       -0.1710     4.9950    -0.4150 N.3   1 <1>  -0.8100 
 10 C       -1.4230     5.5910     0.0920 C.3   1 <1>   0.1100 
 11 C        0.2230     5.5380    -1.7270 C.3   1 <1>   0.2530 
 12 C        0.4800     7.0350    -1.6310 C.ar  1 <1>  -0.1430 
 13 C        1.3260     7.5300    -0.6520 C.ar  1 <1>  -0.1500 
 14 C       -0.1290     7.9190    -2.5080 C.ar  1 <1>  -0.1500 
 15 C        1.5590     8.8890    -0.5290 C.ar  1 <1>   0.0820 
 16 C        0.1020     9.2800    -2.4000 C.ar  1 <1>  -0.1500 
 17 O        2.3900     9.2710     0.4730 O.3   1 <1>  -0.3620 
 18 C        0.9420     9.7680    -1.4140 C.ar  1 <1>  -0.1500 
 19 C        2.7840    10.6140     0.6690 C.3   1 <1>   0.2000 
 20 C        3.8930    10.9690    -0.3220 C.3   1 <1>  -0.1600 
 21 C        3.4810    10.7000     2.0220 C.3   1 <1>  -0.1600 
 22 C        5.1800    10.3940     0.2790 C.3   1 <1>  -0.1600 
 23 C        4.9100    10.2050     1.7780 C.3   1 <1>  -0.1600 
 24 H        0.2630     2.9730     1.5380 H     1 <1>   0.0800 
 25 H       -2.5880     3.2370     1.0580 H     1 <1>   0.4500 
 26 H       -1.0430     3.2290    -1.1620 H     1 <1>   0.0800 
 27 H        0.6510     3.0980    -0.7930 H     1 <1>   0.0800 
 28 H       -0.9290     5.4620     2.1620 H     1 <1>   0.0800 
 29 H       -2.6450     5.5350     1.8590 H     1 <1>   0.0800 
 30 H       -1.0890     3.3410     3.5830 H     1 <1>   0.0800 
 31 H       -2.0710     2.0250     2.9670 H     1 <1>   0.0800 
 32 H       -2.8300     3.5280     3.4470 H     1 <1>   0.0800 
 33 H       -1.3320     6.6640     0.1190 H     1 <1>   0.0800 
 34 H       -2.2440     5.3420    -0.5580 H     1 <1>   0.0800 
 35 H       -0.5470     5.3360    -2.4530 H     1 <1>   0.0800 
 36 H        1.1290     5.0570    -2.0540 H     1 <1>   0.0800 
 37 H        1.8090     6.8580     0.0340 H     1 <1>   0.1500 
 38 H       -0.7860     7.5560    -3.2790 H     1 <1>   0.1500 
 39 H       -0.3720     9.9610    -3.0850 H     1 <1>   0.1500 
 40 H        1.1030    10.8270    -1.3530 H     1 <1>   0.1500 
 41 H        1.9210    11.2540     0.6200 H     1 <1>   0.0800 
 42 H        3.9790    12.0390    -0.3710 H     1 <1>   0.0800 
 43 H        3.7010    10.5910    -1.3100 H     1 <1>   0.0800 
 44 H        2.9680    10.1280     2.7750 H     1 <1>   0.0800 
 45 H        3.5140    11.7300     2.3280 H     1 <1>   0.0800 
 46 H        6.0140    11.0510     0.1060 H     1 <1>   0.0800 
 47 H        5.3900     9.4370    -0.1680 H     1 <1>   0.0800 
 48 H        4.9730     9.1570     2.0210 H     1 <1>   0.0800 
 49 H        5.6170    10.7470     2.3810 H     1 <1>   0.0800 
@<TRIPOS>BOND
  1   1   2  ar  
  2   2   3  ar  
  3   2   4  1   
  4   4   5  1   
  5   4   6  1   
  6   4  24  1   
  7   5   7  1   
  8   5   8  1   
  9   5  25  1   
 10   6   9  1   
 11   6  26  1   
 12   6  27  1   
 13   7  10  1   
 14   7  28  1   
 15   7  29  1   
 16   8  30  1   
 17   8  31  1   
 18   8  32  1   
 19   9  10  1   
 20   9  11  1   
 21  10  33  1   
 22  10  34  1   
 23  11  12  1   
 24  11  35  1   
 25  11  36  1   
 26  12  13  ar  
 27  12  14  ar  
 28  13  15  ar  
 29  13  37  1   
 30  14  16  ar  
 31  14  38  1   
 32  15  17  1   
 33  15  18  ar  
 34  16  18  ar  
 35  16  39  1   
 36  17  19  1   
 37  18  40  1   
 38  19  20  1   
 39  19  21  1   
 40  19  41  1   
 41  20  22  1   
 42  20  42  1   
 43  20  43  1   
 44  21  23  1   
 45  21  44  1   
 46  21  45  1   
 47  22  23  1   
 48  22  46  1   
 49  22  47  1   
 50  23  48  1   
 51  23  49  1   
@<TRIPOS>SUBSTRUCTURE
  1 ****  13 GROUP 4 **** **** 0

# MOE 2024.06 (io_trps.svl 2023.06)
