@<TRIPOS>MOLECULE
NONAME
48 50 1 0 0 
SMALL
USER_CHARGES


@<TRIPOS>ATOM
  1 F       -1.2820    -0.8500    -1.6920 F     1 <1>  -0.1900 
  2 C       -1.6240    -1.9830    -1.1320 C.ar  1 <1>   0.1900 
  3 C       -0.6720    -2.8920    -0.6550 C.ar  1 <1>   0.0820 
  4 C       -2.9780    -2.2350    -1.0320 C.ar  1 <1>  -0.1500 
  5 O        0.6850    -2.7560    -0.6950 O.3   1 <1>  -0.3630 
  6 C       -1.1360    -4.0620    -0.0770 C.ar  1 <1>  -0.1500 
  7 C       -3.4060    -3.4120    -0.4490 C.ar  1 <1>  -0.1500 
  8 C        1.3300    -1.6530    -1.2920 C.3   1 <1>   0.0400 
  9 C       -2.4970    -4.3550     0.0380 C.ar  1 <1>   0.0530 
 10 C       -2.9400    -5.5880     0.6410 C.2   1 <1>   0.0870 
 11 O       -2.1890    -6.2160     1.5170 O.3   1 <1>  -0.0190 
 12 C       -4.0670    -6.3280     0.5010 C.2   1 <1>  -0.2330 
 13 N       -2.7470    -7.3100     1.9740 N.2   1 <1>  -0.4100 
 14 C       -3.8810    -7.3930     1.3780 C.2   1 <1>   0.3720 
 15 C       -5.2230    -6.1630    -0.3020 C.2   1 <1>   1.0330 
 16 N       -4.7850    -8.4350     1.6210 N.pl3 1 <1>  -0.8210 
 17 O       -6.1590    -5.4420     0.0730 O.co2 1 <1>  -0.9000 
 18 O       -5.4410    -6.9000    -1.2810 O.co2 1 <1>  -0.9000 
 19 C       -4.9270    -9.4100     0.4900 C.3   1 <1>   0.2090 
 20 C       -6.0460    -8.0230     2.3240 C.3   1 <1>   0.2090 
 21 C       -6.3860    -9.7020     0.0740 C.3   1 <1>   0.3430 
 22 C       -7.2960    -7.8270     1.4260 C.3   1 <1>   0.3430 
 23 N       -7.2240    -8.4620     0.0620 N.4   1 <1>  -0.9590 
 24 C       -8.5120    -8.5190    -0.6630 C.3   1 <1>   0.4230 
 25 C       -8.2870    -9.0430    -2.0810 C.3   1 <1>  -0.2400 
 26 C       -9.1160    -7.1160    -0.7420 C.3   1 <1>  -0.2400 
 27 H       -3.6890    -1.5190    -1.4050 H     1 <1>   0.1500 
 28 H       -0.4150    -4.7700     0.2910 H     1 <1>   0.1500 
 29 H       -4.4640    -3.5970    -0.3660 H     1 <1>   0.1500 
 30 H        2.3920    -1.8030    -1.2130 H     1 <1>   0.0800 
 31 H        1.0500    -0.7570    -0.7670 H     1 <1>   0.0800 
 32 H        1.0460    -1.6000    -2.3280 H     1 <1>   0.0800 
 33 H       -4.4520   -10.3330     0.7720 H     1 <1>   0.0800 
 34 H       -4.3970    -9.0380    -0.3710 H     1 <1>   0.0800 
 35 H       -5.8690    -7.1060     2.8620 H     1 <1>   0.0800 
 36 H       -6.2710    -8.7710     3.0630 H     1 <1>   0.0800 
 37 H       -6.8110   -10.4170     0.7570 H     1 <1>   0.0800 
 38 H       -6.3630   -10.1450    -0.9050 H     1 <1>   0.0800 
 39 H       -7.4520    -6.7680     1.3040 H     1 <1>   0.0800 
 40 H       -8.1510    -8.2080     1.9550 H     1 <1>   0.0800 
 41 H       -6.6540    -7.7770    -0.5020 H     1 <1>   0.4500 
 42 H       -9.1950    -9.1720    -0.1450 H     1 <1>   0.0800 
 43 H       -7.5210    -8.4690    -2.5760 H     1 <1>   0.0800 
 44 H       -9.1930    -8.9510    -2.6530 H     1 <1>   0.0800 
 45 H       -8.0200   -10.0820    -2.0780 H     1 <1>   0.0800 
 46 H       -8.4100    -6.4270    -1.1770 H     1 <1>   0.0800 
 47 H       -9.4080    -6.7550     0.2270 H     1 <1>   0.0800 
 48 H       -9.9970    -7.1270    -1.3570 H     1 <1>   0.0800 
@<TRIPOS>BOND
  1   1   2  1   
  2   2   3  ar  
  3   2   4  ar  
  4   3   5  1   
  5   3   6  ar  
  6   4   7  ar  
  7   4  27  1   
  8   5   8  1   
  9   6   9  ar  
 10   6  28  1   
 11   7   9  ar  
 12   7  29  1   
 13   8  30  1   
 14   8  31  1   
 15   8  32  1   
 16   9  10  1   
 17  10  11  1   
 18  10  12  2   
 19  11  13  1   
 20  12  14  1   
 21  12  15  1   
 22  13  14  2   
 23  14  16  1   
 24  15  17  ar  
 25  15  18  ar  
 26  16  19  1   
 27  16  20  1   
 28  19  21  1   
 29  19  33  1   
 30  19  34  1   
 31  20  22  1   
 32  20  35  1   
 33  20  36  1   
 34  21  23  1   
 35  21  37  1   
 36  21  38  1   
 37  22  23  1   
 38  22  39  1   
 39  22  40  1   
 40  23  24  1   
 41  23  41  1   
 42  24  25  1   
 43  24  26  1   
 44  24  42  1   
 45  25  43  1   
 46  25  44  1   
 47  25  45  1   
 48  26  46  1   
 49  26  47  1   
 50  26  48  1   
@<TRIPOS>SUBSTRUCTURE
  1 ****  12 GROUP 4 **** **** 0

# MOE 2024.06 (io_trps.svl 2023.06)
