@<TRIPOS>MOLECULE
NONAME
27 28 1 0 0 
SMALL
USER_CHARGES


@<TRIPOS>ATOM
  1 F        0.3120     0.4190    -0.3680 F     1 <1>  -0.1900 
  2 C        1.4810     1.0010    -0.2760 C.ar  1 <1>   0.1900 
  3 C        2.5940     0.2270    -0.0180 C.ar  1 <1>  -0.1500 
  4 C        1.5610     2.3680    -0.4460 C.ar  1 <1>  -0.1500 
  5 C        3.8320     0.8420     0.0820 C.ar  1 <1>  -0.1440 
  6 C        2.8000     2.9720    -0.3430 C.ar  1 <1>  -0.1500 
  7 C        3.9510     2.2320    -0.0590 C.ar  1 <1>   0.1000 
  8 C        5.0650    -0.0060     0.3340 C.3   1 <1>  -0.0160 
  9 N        5.2000     2.8710     0.0590 N.pl3 1 <1>  -0.8380 
 10 C        6.2720     0.6490    -0.3340 C.3   1 <1>  -0.1600 
 11 C        6.4530     2.0720     0.1890 C.3   1 <1>   0.2090 
 12 C        5.2830     4.2040     0.7130 C.3   1 <1>   0.2090 
 13 C        5.6750     5.2370    -0.3360 C.3   1 <1>  -0.2400 
 14 H        2.4850    -0.8360     0.0970 H     1 <1>   0.1500 
 15 H        0.6760     2.9390    -0.6580 H     1 <1>   0.1500 
 16 H        2.8780     4.0310    -0.4930 H     1 <1>   0.1500 
 17 H        4.9260    -0.9950    -0.0660 H     1 <1>   0.0800 
 18 H        5.2270    -0.0840     1.3940 H     1 <1>   0.0800 
 19 H        6.1230     0.6850    -1.3990 H     1 <1>   0.0800 
 20 H        7.1600     0.0760    -0.1380 H     1 <1>   0.0800 
 21 H        6.7400     2.0330     1.2260 H     1 <1>   0.0800 
 22 H        7.2390     2.5580    -0.3630 H     1 <1>   0.0800 
 23 H        6.0160     4.1850     1.5010 H     1 <1>   0.0800 
 24 H        4.3380     4.4640     1.1570 H     1 <1>   0.0800 
 25 H        6.6400     5.0030    -0.7460 H     1 <1>   0.0800 
 26 H        5.7170     6.2130     0.1110 H     1 <1>   0.0800 
 27 H        4.9490     5.2510    -1.1290 H     1 <1>   0.0800 
@<TRIPOS>BOND
  1   1   2  1   
  2   2   3  ar  
  3   2   4  ar  
  4   3   5  ar  
  5   3  14  1   
  6   4   6  ar  
  7   4  15  1   
  8   5   7  ar  
  9   5   8  1   
 10   6   7  ar  
 11   6  16  1   
 12   7   9  1   
 13   8  10  1   
 14   8  17  1   
 15   8  18  1   
 16   9  11  1   
 17   9  12  1   
 18  10  11  1   
 19  10  19  1   
 20  10  20  1   
 21  11  21  1   
 22  11  22  1   
 23  12  13  1   
 24  12  23  1   
 25  12  24  1   
 26  13  25  1   
 27  13  26  1   
 28  13  27  1   
@<TRIPOS>SUBSTRUCTURE
  1 ****   7 GROUP 4 **** **** 0

# MOE 2024.06 (io_trps.svl 2023.06)
