@<TRIPOS>MOLECULE
NONAME
49 50 1 0 0 
SMALL
USER_CHARGES


@<TRIPOS>ATOM
  1 O        0.6230    -0.6340    -2.3190 O.2   1 <1>  -0.5700 
  2 C        1.2370    -1.0630    -1.3720 C.2   1 <1>   0.5690 
  3 N        2.0040    -0.2920    -0.5530 N.am  1 <1>  -0.4930 
  4 C        1.1410    -2.5400    -1.0610 C.3   1 <1>  -0.0990 
  5 C        2.2530     1.1020    -0.6110 C.2   1 <1>   0.0630 
  6 C       -0.0420    -2.8330    -0.1210 C.3   1 <1>  -0.0990 
  7 C        2.9960     1.8220     0.2590 C.2   1 <1>  -0.3320 
  8 C        1.8070     2.0340    -1.5500 C.2   1 <1>   0.1390 
  9 C       -0.1110    -4.3000     0.2860 C.2   1 <1>   0.4230 
 10 N        2.9660     3.1060    -0.1780 N.pl3 1 <1>   0.3140 
 11 C        3.7480     1.3690     1.5030 C.3   1 <1>  -0.0600 
 12 N        2.2320     3.2350    -1.2950 N.2   1 <1>  -0.7070 
 13 O        0.9210    -4.8150     0.6410 O.2   1 <1>  -0.5700 
 14 C       -1.3510    -5.0310     0.2030 C.ar  1 <1>   0.0860 
 15 C        3.6230     4.2700     0.4300 C.3   1 <1>   0.0160 
 16 C       -2.5870    -4.5220     0.6340 C.ar  1 <1>   0.0830 
 17 C       -1.3350    -6.3220    -0.3250 C.ar  1 <1>  -0.1500 
 18 O       -2.5960    -3.2920     1.2100 O.3   1 <1>  -0.3630 
 19 C       -3.7530    -5.2710     0.4900 C.ar  1 <1>  -0.1500 
 20 C       -2.4850    -7.0720    -0.4540 C.ar  1 <1>   0.0830 
 21 C       -3.7670    -2.6780     1.7050 C.3   1 <1>   0.0400 
 22 C       -3.7190    -6.5460    -0.0610 C.ar  1 <1>   0.0830 
 23 O       -2.3640    -8.3120    -0.9910 O.3   1 <1>  -0.3630 
 24 O       -4.8360    -7.3000    -0.2390 O.3   1 <1>  -0.3620 
 25 C       -2.5730    -9.3970    -0.1150 C.3   1 <1>   0.0400 
 26 C       -6.1340    -6.7990    -0.0130 C.3   1 <1>   0.0400 
 27 H        2.4680    -0.7690     0.2160 H     1 <1>   0.3700 
 28 H        2.0620    -2.8690    -0.6140 H     1 <1>   0.0800 
 29 H        1.0120    -3.0810    -1.9810 H     1 <1>   0.0800 
 30 H       -0.9500    -2.5490    -0.6220 H     1 <1>   0.0800 
 31 H        0.0460    -2.2420     0.7730 H     1 <1>   0.0800 
 32 H        1.1830     1.7900    -2.3920 H     1 <1>   0.1500 
 33 H        3.6280     0.3120     1.6590 H     1 <1>   0.0800 
 34 H        3.3740     1.8840     2.3700 H     1 <1>   0.0800 
 35 H        4.7980     1.5790     1.3970 H     1 <1>   0.0800 
 36 H        3.2480     4.4070     1.4260 H     1 <1>   0.0800 
 37 H        3.4080     5.1420    -0.1590 H     1 <1>   0.0800 
 38 H        4.6830     4.1040     0.4520 H     1 <1>   0.0800 
 39 H       -0.4000    -6.7480    -0.6440 H     1 <1>   0.1500 
 40 H       -4.6890    -4.8650     0.8110 H     1 <1>   0.1500 
 41 H       -3.4960    -1.7210     2.1120 H     1 <1>   0.0800 
 42 H       -4.1870    -3.2970     2.4790 H     1 <1>   0.0800 
 43 H       -4.4620    -2.5450     0.8950 H     1 <1>   0.0800 
 44 H       -2.3310   -10.3030    -0.6410 H     1 <1>   0.0800 
 45 H       -3.6040    -9.4160     0.1880 H     1 <1>   0.0800 
 46 H       -1.9310    -9.2840     0.7400 H     1 <1>   0.0800 
 47 H       -6.8380    -7.5640    -0.2880 H     1 <1>   0.0800 
 48 H       -6.2840    -5.9290    -0.6270 H     1 <1>   0.0800 
 49 H       -6.2420    -6.5630     1.0300 H     1 <1>   0.0800 
@<TRIPOS>BOND
  1   1   2  2   
  2   2   3  am  
  3   2   4  1   
  4   3   5  1   
  5   3  27  1   
  6   4   6  1   
  7   4  28  1   
  8   4  29  1   
  9   5   7  2   
 10   5   8  1   
 11   6   9  1   
 12   6  30  1   
 13   6  31  1   
 14   7  10  1   
 15   7  11  1   
 16   8  12  2   
 17   8  32  1   
 18   9  13  2   
 19   9  14  1   
 20  10  12  1   
 21  10  15  1   
 22  11  33  1   
 23  11  34  1   
 24  11  35  1   
 25  14  16  ar  
 26  14  17  ar  
 27  15  36  1   
 28  15  37  1   
 29  15  38  1   
 30  16  18  1   
 31  16  19  ar  
 32  17  20  ar  
 33  17  39  1   
 34  18  21  1   
 35  19  22  ar  
 36  19  40  1   
 37  20  22  ar  
 38  20  23  1   
 39  21  41  1   
 40  21  42  1   
 41  21  43  1   
 42  22  24  1   
 43  23  25  1   
 44  24  26  1   
 45  25  44  1   
 46  25  45  1   
 47  25  46  1   
 48  26  47  1   
 49  26  48  1   
 50  26  49  1   
@<TRIPOS>SUBSTRUCTURE
  1 ****   6 GROUP 4 **** **** 0

# MOE 2024.06 (io_trps.svl 2023.06)
