@<TRIPOS>MOLECULE
NONAME
56 59 1 0 0 
SMALL
USER_CHARGES


@<TRIPOS>ATOM
  1 O       -1.7630     0.4350     2.9270 O.2   1 <1>  -0.5700 
  2 C       -2.2320     0.9780     1.9520 C.2   1 <1>   0.5690 
  3 N       -3.1840     0.3420     1.1950 N.am  1 <1>  -0.6600 
  4 C       -1.7670     2.4070     1.6170 C.3   1 <1>   0.1710 
  5 C       -3.9060     0.8780     0.0110 C.3   1 <1>   0.1400 
  6 C       -3.5860    -1.0630     1.4520 C.3   1 <1>   0.1400 
  7 N       -0.5170     2.5230     0.8100 N.3   1 <1>  -0.8100 
  8 C       -4.9610    -0.1820    -0.3150 C.3   1 <1>   0.2000 
  9 C       -4.3650    -1.4930     0.2030 C.3   1 <1>  -0.0800 
 10 C       -0.0670     3.9250     0.7320 C.3   1 <1>   0.2530 
 11 C       -0.6240     1.9000    -0.5170 C.3   1 <1>   0.0300 
 12 O       -6.1030     0.0940     0.4180 O.3   1 <1>  -0.6800 
 13 C       -3.4370    -2.1300    -0.8520 C.3   1 <1>  -0.0170 
 14 C        1.3100     4.0440     0.0900 C.ar  1 <1>  -0.1440 
 15 C       -2.8840    -3.4740    -0.3880 C.ar  1 <1>  -0.1440 
 16 C        1.5110     4.8760    -1.0020 C.ar  1 <1>  -0.1500 
 17 C        2.3790     3.3220     0.5960 C.ar  1 <1>  -0.1500 
 18 C       -3.6550    -4.6610    -0.4100 C.ar  1 <1>   0.0000 
 19 C       -1.6020    -3.5640     0.0700 C.ar  1 <1>  -0.1500 
 20 C        2.7660     4.9850    -1.5780 C.ar  1 <1>  -0.1500 
 21 C        3.6340     3.4290     0.0230 C.ar  1 <1>  -0.1500 
 22 C       -3.0410    -5.8520     0.0530 C.ar  1 <1>   0.3100 
 23 C       -4.9920    -4.7400    -0.8640 C.ar  1 <1>  -0.1500 
 24 C       -1.0910    -4.7930     0.5040 C.ar  1 <1>   0.1600 
 25 C        3.8280     4.2610    -1.0650 C.ar  1 <1>  -0.1500 
 26 N       -1.7630    -5.9010     0.5050 N.ar  1 <1>  -0.6200 
 27 C       -3.7820    -7.0440     0.0480 C.ar  1 <1>  -0.1500 
 28 C       -5.6860    -5.9200    -0.8560 C.ar  1 <1>  -0.1500 
 29 C       -5.0760    -7.0880    -0.3940 C.ar  1 <1>  -0.1500 
 30 H       -1.6030     2.8970     2.5600 H     1 <1>   0.0800 
 31 H       -2.5610     2.9320     1.1210 H     1 <1>   0.0800 
 32 H       -4.3570     1.8340     0.2130 H     1 <1>   0.0800 
 33 H       -3.2210     0.9650    -0.8120 H     1 <1>   0.0800 
 34 H       -2.7260    -1.6800     1.6440 H     1 <1>   0.0800 
 35 H       -4.2250    -1.0880     2.3190 H     1 <1>   0.0800 
 36 H       -5.2300    -0.2050    -1.3580 H     1 <1>   0.0800 
 37 H       -5.1390    -2.1940     0.4600 H     1 <1>   0.0800 
 38 H       -0.7850     4.5050     0.1780 H     1 <1>   0.0800 
 39 H       -0.0050     4.3320     1.7270 H     1 <1>   0.0800 
 40 H        0.3250     1.9400    -1.0230 H     1 <1>   0.0800 
 41 H       -1.3590     2.4100    -1.1150 H     1 <1>   0.0800 
 42 H       -0.8940     0.8640    -0.4160 H     1 <1>   0.0800 
 43 H       -5.8660     0.1890     1.3620 H     1 <1>   0.4000 
 44 H       -2.6170    -1.4640    -1.0610 H     1 <1>   0.0800 
 45 H       -3.9670    -2.2670    -1.7780 H     1 <1>   0.0800 
 46 H        0.6940     5.4450    -1.4090 H     1 <1>   0.1500 
 47 H        2.2260     2.6690     1.4390 H     1 <1>   0.1500 
 48 H       -0.9560    -2.7050     0.1160 H     1 <1>   0.1500 
 49 H        2.9150     5.6320    -2.4240 H     1 <1>   0.1500 
 50 H        4.4570     2.8630     0.4240 H     1 <1>   0.1500 
 51 H       -5.4810    -3.8560    -1.2250 H     1 <1>   0.1500 
 52 H       -0.0760    -4.8170     0.8600 H     1 <1>   0.1500 
 53 H        4.8030     4.3450    -1.5120 H     1 <1>   0.1500 
 54 H       -3.2920    -7.9300     0.4080 H     1 <1>   0.1500 
 55 H       -6.7040    -5.9650    -1.2040 H     1 <1>   0.1500 
 56 H       -5.6320    -8.0100    -0.3920 H     1 <1>   0.1500 
@<TRIPOS>BOND
  1   1   2  2   
  2   2   3  am  
  3   2   4  1   
  4   3   5  1   
  5   3   6  1   
  6   4   7  1   
  7   4  30  1   
  8   4  31  1   
  9   5   8  1   
 10   5  32  1   
 11   5  33  1   
 12   6   9  1   
 13   6  34  1   
 14   6  35  1   
 15   7  10  1   
 16   7  11  1   
 17   8   9  1   
 18   8  12  1   
 19   8  36  1   
 20   9  13  1   
 21   9  37  1   
 22  10  14  1   
 23  10  38  1   
 24  10  39  1   
 25  11  40  1   
 26  11  41  1   
 27  11  42  1   
 28  12  43  1   
 29  13  15  1   
 30  13  44  1   
 31  13  45  1   
 32  14  16  ar  
 33  14  17  ar  
 34  15  18  ar  
 35  15  19  ar  
 36  16  20  ar  
 37  16  46  1   
 38  17  21  ar  
 39  17  47  1   
 40  18  22  ar  
 41  18  23  ar  
 42  19  24  ar  
 43  19  48  1   
 44  20  25  ar  
 45  20  49  1   
 46  21  25  ar  
 47  21  50  1   
 48  22  26  ar  
 49  22  27  ar  
 50  23  28  ar  
 51  23  51  1   
 52  24  26  ar  
 53  24  52  1   
 54  25  53  1   
 55  27  29  ar  
 56  27  54  1   
 57  28  29  ar  
 58  28  55  1   
 59  29  56  1   
@<TRIPOS>SUBSTRUCTURE
  1 ****   3 GROUP 4 **** **** 0

# MOE 2024.06 (io_trps.svl 2023.06)
