@<TRIPOS>MOLECULE
NONAME
38 39 1 0 0 
SMALL
USER_CHARGES


@<TRIPOS>ATOM
  1 CL      -0.5840     2.6440    -3.0240 Cl    1 <1>  -0.1770 
  2 C       -1.4030     2.6070    -1.4800 C.ar  1 <1>   0.1770 
  3 C       -0.6830     2.6860    -0.2960 C.ar  1 <1>  -0.1440 
  4 C       -2.7810     2.4930    -1.4800 C.ar  1 <1>  -0.1500 
  5 C       -1.3770     2.6370     0.9060 C.ar  1 <1>  -0.1500 
  6 C        0.8320     2.8230    -0.2960 C.3   1 <1>   0.2140 
  7 C       -3.4620     2.4520    -0.2760 C.ar  1 <1>  -0.1500 
  8 C       -2.7580     2.5220     0.9150 C.ar  1 <1>  -0.1500 
  9 S        1.2820     4.5490    -0.6490 S.3   1 <1>  -0.4600 
 10 C        0.2350     5.5330     0.4920 C.3   1 <1>   0.1310 
 11 C        0.5490     7.0220     0.4200 C.2   1 <1>   0.5690 
 12 O        0.1400     7.7420     1.3000 O.2   1 <1>  -0.5700 
 13 N        1.2740     7.5060    -0.6220 N.am  1 <1>  -0.7300 
 14 C        1.6310     8.9200    -0.8340 C.3   1 <1>   0.1400 
 15 C        3.0960     9.1240    -0.4560 C.3   1 <1>  -0.1600 
 16 C        3.4740    10.6090    -0.5330 C.3   1 <1>   0.0960 
 17 N        4.8990    10.8080    -0.2090 N.pl3 1 <1>   0.3140 
 18 N        5.8260    11.0480    -1.1410 N.2   1 <1>  -0.4180 
 19 C        5.4740    10.7910     0.9950 C.2   1 <1>  -0.3020 
 20 N        6.9670    11.1820    -0.5570 N.2   1 <1>  -0.2270 
 21 C        6.7720    11.0270     0.7560 C.2   1 <1>   0.0770 
 22 H       -3.3110     2.4360    -2.4140 H     1 <1>   0.1500 
 23 H       -0.8490     2.6890     1.8430 H     1 <1>   0.1500 
 24 H        1.2870     2.2120    -1.0550 H     1 <1>   0.0800 
 25 H        1.2520     2.5740     0.6620 H     1 <1>   0.0800 
 26 H       -4.5350     2.3630    -0.2650 H     1 <1>   0.1500 
 27 H       -3.2880     2.4870     1.8520 H     1 <1>   0.1500 
 28 H        0.4110     5.1680     1.4870 H     1 <1>   0.0800 
 29 H       -0.7900     5.3670     0.2160 H     1 <1>   0.0800 
 30 H        1.6410     6.8240    -1.2950 H     1 <1>   0.3700 
 31 H        1.0010     9.5440    -0.2200 H     1 <1>   0.0800 
 32 H        1.4640     9.1800    -1.8660 H     1 <1>   0.0800 
 33 H        3.7190     8.5610    -1.1290 H     1 <1>   0.0800 
 34 H        3.2500     8.7720     0.5490 H     1 <1>   0.0800 
 35 H        2.8850    11.1820     0.1600 H     1 <1>   0.0800 
 36 H        3.3010    10.9850    -1.5250 H     1 <1>   0.0800 
 37 H        4.9450    10.6170     1.9140 H     1 <1>   0.1500 
 38 H        7.5840    11.0940     1.4580 H     1 <1>   0.1500 
@<TRIPOS>BOND
  1   1   2  1   
  2   2   3  ar  
  3   2   4  ar  
  4   3   5  ar  
  5   3   6  1   
  6   4   7  ar  
  7   4  22  1   
  8   5   8  ar  
  9   5  23  1   
 10   6   9  1   
 11   6  24  1   
 12   6  25  1   
 13   7   8  ar  
 14   7  26  1   
 15   8  27  1   
 16   9  10  1   
 17  10  11  1   
 18  10  28  1   
 19  10  29  1   
 20  11  12  2   
 21  11  13  am  
 22  13  14  1   
 23  13  30  1   
 24  14  15  1   
 25  14  31  1   
 26  14  32  1   
 27  15  16  1   
 28  15  33  1   
 29  15  34  1   
 30  16  17  1   
 31  16  35  1   
 32  16  36  1   
 33  17  18  1   
 34  17  19  1   
 35  18  20  2   
 36  19  21  2   
 37  19  37  1   
 38  20  21  1   
 39  21  38  1   
@<TRIPOS>SUBSTRUCTURE
  1 ****  13 GROUP 4 **** **** 0

# MOE 2024.06 (io_trps.svl 2023.06)
