@<TRIPOS>MOLECULE
NONAME
54 55 1 0 0 
SMALL
USER_CHARGES


@<TRIPOS>ATOM
  1 S        0.6620     0.8380    -1.2250 S.o2  1 <1>   1.3330 
  2 O        1.9100     0.7860    -1.9550 O.2   1 <1>  -0.6500 
  3 O       -0.5510     1.2100    -1.9160 O.2   1 <1>  -0.6500 
  4 N        0.3890    -0.6980    -0.5500 N.am  1 <1>  -0.8490 
  5 C        0.8630     1.8970     0.2170 C.3   1 <1>  -0.0550 
  6 C        0.8350    -1.7800    -1.4340 C.3   1 <1>   0.1160 
  7 C       -1.0080    -0.9250    -0.1590 C.3   1 <1>   0.1160 
  8 C        2.2360     1.8940     0.9270 C.3   1 <1>  -0.0800 
  9 C        3.3580     2.5020     0.0810 C.3   1 <1>   0.2200 
 10 C        2.7980     0.5330     1.3580 C.3   1 <1>   0.1200 
 11 N        3.8900     3.6990     0.7690 N.am  1 <1>  -0.7300 
 12 C        4.4070     1.3940     0.0450 C.3   1 <1>   0.1200 
 13 O        4.1730     0.6410     1.1910 O.3   1 <1>  -0.5600 
 14 C        3.3670     4.9410     0.6450 C.2   1 <1>   0.5690 
 15 O        2.3840     5.1550    -0.0200 O.2   1 <1>  -0.5700 
 16 C        4.0300     6.0870     1.3820 C.3   1 <1>  -0.0990 
 17 C        5.3900     6.4560     0.7670 C.3   1 <1>  -0.1600 
 18 C        6.0350     7.6470     1.4830 C.3   1 <1>  -0.0170 
 19 C        7.3900     7.9550     0.8680 C.ar  1 <1>  -0.1440 
 20 C        7.4810     8.7710    -0.2490 C.ar  1 <1>  -0.1500 
 21 C        8.5460     7.4180     1.4130 C.ar  1 <1>  -0.1500 
 22 C        8.7120     9.0500    -0.8180 C.ar  1 <1>  -0.1500 
 23 C        9.7770     7.6940     0.8460 C.ar  1 <1>  -0.1500 
 24 C        9.8710     8.5090    -0.2700 C.ar  1 <1>   0.0820 
 25 O       11.1150     8.7280    -0.7640 O.3   1 <1>  -0.3630 
 26 C       11.3200     9.5470    -1.8930 C.3   1 <1>   0.0400 
 27 H        0.6710     2.9090    -0.0880 H     1 <1>   0.0800 
 28 H        0.1080     1.6460     0.9350 H     1 <1>   0.0800 
 29 H        0.6560    -2.7370    -0.9750 H     1 <1>   0.0800 
 30 H        1.8930    -1.6920    -1.6200 H     1 <1>   0.0800 
 31 H        0.3130    -1.7340    -2.3750 H     1 <1>   0.0800 
 32 H       -1.1010    -1.8700     0.3480 H     1 <1>   0.0800 
 33 H       -1.6460    -0.9290    -1.0280 H     1 <1>   0.0800 
 34 H       -1.3390    -0.1480     0.5080 H     1 <1>   0.0800 
 35 H        2.1190     2.4770     1.8240 H     1 <1>   0.0800 
 36 H        3.0480     2.7690    -0.9150 H     1 <1>   0.0800 
 37 H        2.4680    -0.2760     0.7330 H     1 <1>   0.0800 
 38 H        2.5860     0.3070     2.3880 H     1 <1>   0.0800 
 39 H        4.6690     3.5190     1.4050 H     1 <1>   0.3700 
 40 H        5.4160     1.7650     0.0510 H     1 <1>   0.0800 
 41 H        4.2550     0.7540    -0.8080 H     1 <1>   0.0800 
 42 H        3.3740     6.9380     1.3430 H     1 <1>   0.0800 
 43 H        4.1520     5.8100     2.4130 H     1 <1>   0.0800 
 44 H        6.0530     5.6100     0.8190 H     1 <1>   0.0800 
 45 H        5.2520     6.7000    -0.2730 H     1 <1>   0.0800 
 46 H        6.1560     7.4260     2.5290 H     1 <1>   0.0800 
 47 H        5.4000     8.5120     1.4020 H     1 <1>   0.0800 
 48 H        6.5900     9.1920    -0.6810 H     1 <1>   0.1500 
 49 H        8.4940     6.7820     2.2790 H     1 <1>   0.1500 
 50 H        8.7470     9.6840    -1.6820 H     1 <1>   0.1500 
 51 H       10.6750     7.2800     1.2660 H     1 <1>   0.1500 
 52 H       12.3750     9.5770    -2.0970 H     1 <1>   0.0800 
 53 H       10.9610    10.5380    -1.6750 H     1 <1>   0.0800 
 54 H       10.7970     9.1230    -2.7320 H     1 <1>   0.0800 
@<TRIPOS>BOND
  1   1   2  2   
  2   1   3  2   
  3   1   4  am  
  4   1   5  1   
  5   4   6  1   
  6   4   7  1   
  7   5   8  1   
  8   5  27  1   
  9   5  28  1   
 10   6  29  1   
 11   6  30  1   
 12   6  31  1   
 13   7  32  1   
 14   7  33  1   
 15   7  34  1   
 16   8   9  1   
 17   8  10  1   
 18   8  35  1   
 19   9  11  1   
 20   9  12  1   
 21   9  36  1   
 22  10  13  1   
 23  10  37  1   
 24  10  38  1   
 25  11  14  am  
 26  11  39  1   
 27  12  13  1   
 28  12  40  1   
 29  12  41  1   
 30  14  15  2   
 31  14  16  1   
 32  16  17  1   
 33  16  42  1   
 34  16  43  1   
 35  17  18  1   
 36  17  44  1   
 37  17  45  1   
 38  18  19  1   
 39  18  46  1   
 40  18  47  1   
 41  19  20  ar  
 42  19  21  ar  
 43  20  22  ar  
 44  20  48  1   
 45  21  23  ar  
 46  21  49  1   
 47  22  24  ar  
 48  22  50  1   
 49  23  24  ar  
 50  23  51  1   
 51  24  25  1   
 52  25  26  1   
 53  26  52  1   
 54  26  53  1   
 55  26  54  1   
@<TRIPOS>SUBSTRUCTURE
  1 ****  11 GROUP 4 **** **** 0

# MOE 2024.06 (io_trps.svl 2023.06)
