@<TRIPOS>MOLECULE
NONAME
45 47 1 0 0 
SMALL
USER_CHARGES


@<TRIPOS>ATOM
  1 O       -0.5130    -1.2630    -0.3540 O.2   1 <1>  -0.5700 
  2 C        0.5930    -1.6190    -0.0250 C.2   1 <1>   0.5690 
  3 N        1.2840    -2.5720    -0.7250 N.am  1 <1>  -0.6600 
  4 C        1.1870    -0.9940     1.2260 C.3   1 <1>  -0.0990 
  5 C        2.6520    -3.0450    -0.3710 C.3   1 <1>   0.1400 
  6 C        0.7270    -3.1650    -1.9910 C.3   1 <1>   0.2010 
  7 C        2.6980    -1.2180     1.3720 C.3   1 <1>  -0.1600 
  8 C        3.0280    -2.6810     1.0690 C.3   1 <1>  -0.1600 
  9 C        0.3870    -4.6540    -1.8730 C.2   1 <1>   0.5690 
 10 O        1.1770    -5.4500    -2.3270 O.2   1 <1>  -0.5700 
 11 N       -0.7740    -5.0660    -1.2750 N.am  1 <1>  -0.6600 
 12 C       -1.7600    -4.1900    -0.5920 C.3   1 <1>   0.1400 
 13 C       -1.1400    -6.4930    -1.1180 C.3   1 <1>   0.1400 
 14 C       -2.8400    -5.1440    -0.0780 C.3   1 <1>   0.2000 
 15 C       -2.1650    -6.5110     0.0170 C.3   1 <1>  -0.0800 
 16 O       -3.3150    -4.7660     1.1680 O.3   1 <1>  -0.6800 
 17 C       -3.1680    -7.6740    -0.0560 C.3   1 <1>  -0.0170 
 18 C       -2.4760    -9.0210     0.0780 C.ar  1 <1>   0.1670 
 19 N       -1.9630    -9.5350    -1.0280 N.ar  1 <1>  -0.6200 
 20 C       -2.4040    -9.6440     1.3230 C.ar  1 <1>   0.1600 
 21 C       -1.3770   -10.7000    -0.8080 C.ar  1 <1>   0.1600 
 22 N       -1.8170   -10.8090     1.5450 N.ar  1 <1>  -0.6200 
 23 C       -1.3060   -11.3160     0.4360 C.ar  1 <1>   0.1600 
 24 H        0.9770     0.0600     1.2190 H     1 <1>   0.0800 
 25 H        0.6810    -1.4230     2.0710 H     1 <1>   0.0800 
 26 H        2.7120    -4.1140    -0.4920 H     1 <1>   0.0800 
 27 H        3.3550    -2.5930    -1.0500 H     1 <1>   0.0800 
 28 H       -0.1550    -2.6350    -2.2970 H     1 <1>   0.0800 
 29 H        1.4530    -3.0470    -2.7740 H     1 <1>   0.0800 
 30 H        3.2240    -0.5820     0.6800 H     1 <1>   0.0800 
 31 H        3.0110    -0.9620     2.3690 H     1 <1>   0.0800 
 32 H        2.4970    -3.3270     1.7470 H     1 <1>   0.0800 
 33 H        4.0800    -2.8560     1.2110 H     1 <1>   0.0800 
 34 H       -1.2780    -3.6860     0.2260 H     1 <1>   0.0800 
 35 H       -2.1740    -3.4720    -1.2790 H     1 <1>   0.0800 
 36 H       -1.5750    -6.8470    -2.0370 H     1 <1>   0.0800 
 37 H       -0.2760    -7.0920    -0.8820 H     1 <1>   0.0800 
 38 H       -3.6670    -5.1640    -0.7670 H     1 <1>   0.0800 
 39 H       -1.6130    -6.5710     0.9400 H     1 <1>   0.0800 
 40 H       -2.5720    -4.6180     1.7840 H     1 <1>   0.4000 
 41 H       -3.7000    -7.6440    -0.9910 H     1 <1>   0.0800 
 42 H       -3.8930    -7.5630     0.7310 H     1 <1>   0.0800 
 43 H       -2.8480    -9.1570     2.1730 H     1 <1>   0.1500 
 44 H       -0.9300   -11.1920    -1.6540 H     1 <1>   0.1500 
 45 H       -0.8060   -12.2650     0.5140 H     1 <1>   0.1500 
@<TRIPOS>BOND
  1   1   2  2   
  2   2   3  am  
  3   2   4  1   
  4   3   5  1   
  5   3   6  1   
  6   4   7  1   
  7   4  24  1   
  8   4  25  1   
  9   5   8  1   
 10   5  26  1   
 11   5  27  1   
 12   6   9  1   
 13   6  28  1   
 14   6  29  1   
 15   7   8  1   
 16   7  30  1   
 17   7  31  1   
 18   8  32  1   
 19   8  33  1   
 20   9  10  2   
 21   9  11  am  
 22  11  12  1   
 23  11  13  1   
 24  12  14  1   
 25  12  34  1   
 26  12  35  1   
 27  13  15  1   
 28  13  36  1   
 29  13  37  1   
 30  14  15  1   
 31  14  16  1   
 32  14  38  1   
 33  15  17  1   
 34  15  39  1   
 35  16  40  1   
 36  17  18  1   
 37  17  41  1   
 38  17  42  1   
 39  18  19  ar  
 40  18  20  ar  
 41  19  21  ar  
 42  20  22  ar  
 43  20  43  1   
 44  21  23  ar  
 45  21  44  1   
 46  22  23  ar  
 47  23  45  1   
@<TRIPOS>SUBSTRUCTURE
  1 ****  11 GROUP 4 **** **** 0

# MOE 2024.06 (io_trps.svl 2023.06)
