@<TRIPOS>MOLECULE
NONAME
46 49 1 0 0 
SMALL
USER_CHARGES


@<TRIPOS>ATOM
  1 O        0.0900    -0.8320    -1.6090 O.2   1 <1>  -0.5700 
  2 C        0.8310    -1.5340    -0.9710 C.2   1 <1>   0.5690 
  3 N        0.4080    -2.1900     0.1300 N.am  1 <1>  -0.7300 
  4 C        2.2800    -1.7060    -1.3710 C.3   1 <1>  -0.0990 
  5 C        1.2830    -3.0740     0.9250 C.3   1 <1>   0.1400 
  6 C        2.7090    -3.1850    -1.2610 C.3   1 <1>  -0.0800 
  7 C        2.1440    -3.9290    -0.0260 C.3   1 <1>  -0.0800 
  8 C        4.2300    -3.3700    -1.2080 C.3   1 <1>  -0.1600 
  9 C        3.3530    -4.5650     0.6750 C.3   1 <1>  -0.1600 
 10 C        4.4240    -4.6560    -0.4050 C.3   1 <1>   0.2200 
 11 N        5.7790    -4.8750     0.1800 N.am  1 <1>  -0.6600 
 12 C        6.8690    -4.0980    -0.1470 C.2   1 <1>   0.5440 
 13 C        6.0300    -6.2890     0.5720 C.3   1 <1>   0.0600 
 14 O        7.7390    -4.5990    -0.8370 O.2   1 <1>  -0.5700 
 15 C        7.0100    -2.7290     0.3220 C.ar  1 <1>   0.0860 
 16 C        7.7370    -1.7930    -0.3810 C.ar  1 <1>  -0.1500 
 17 C        6.4020    -2.3050     1.5230 C.ar  1 <1>  -0.1500 
 18 C        7.8720    -0.4580     0.0400 C.ar  1 <1>   0.0000 
 19 C        6.5100    -1.0150     1.9620 C.ar  1 <1>  -0.1500 
 20 C        7.2410    -0.0550     1.2360 C.ar  1 <1>   0.0000 
 21 C        8.6140     0.4960    -0.6870 C.ar  1 <1>  -0.1500 
 22 C        7.3700     1.2830     1.6550 C.ar  1 <1>  -0.1500 
 23 C        8.7240     1.7890    -0.2560 C.ar  1 <1>  -0.1500 
 24 C        8.0940     2.1880     0.9280 C.ar  1 <1>  -0.1500 
 25 H       -0.5620    -2.0530     0.4220 H     1 <1>   0.3700 
 26 H        2.4220    -1.3530    -2.3760 H     1 <1>   0.0800 
 27 H        2.8680    -1.0920    -0.7140 H     1 <1>   0.0800 
 28 H        1.9120    -2.4600     1.5480 H     1 <1>   0.0800 
 29 H        0.6870    -3.7100     1.5570 H     1 <1>   0.0800 
 30 H        2.3380    -3.6960    -2.1350 H     1 <1>   0.0800 
 31 H        1.5180    -4.7260    -0.3910 H     1 <1>   0.0800 
 32 H        4.6550    -2.5340    -0.6890 H     1 <1>   0.0800 
 33 H        4.6590    -3.4450    -2.1920 H     1 <1>   0.0800 
 34 H        3.1110    -5.5320     1.0770 H     1 <1>   0.0800 
 35 H        3.7040    -3.9230     1.4630 H     1 <1>   0.0800 
 36 H        4.1910    -5.4850    -1.0540 H     1 <1>   0.0800 
 37 H        5.3400    -6.5890     1.3410 H     1 <1>   0.0800 
 38 H        7.0340    -6.3940     0.9470 H     1 <1>   0.0800 
 39 H        5.9170    -6.9310    -0.2850 H     1 <1>   0.0800 
 40 H        8.2240    -2.0890    -1.2930 H     1 <1>   0.1500 
 41 H        5.8490    -3.0280     2.0950 H     1 <1>   0.1500 
 42 H        6.0390    -0.7100     2.8790 H     1 <1>   0.1500 
 43 H        9.0970     0.1830    -1.5950 H     1 <1>   0.1500 
 44 H        6.8860     1.5850     2.5670 H     1 <1>   0.1500 
 45 H        9.2910     2.5120    -0.8160 H     1 <1>   0.1500 
 46 H        8.1910     3.2090     1.2540 H     1 <1>   0.1500 
@<TRIPOS>BOND
  1   1   2  2   
  2   2   3  am  
  3   2   4  1   
  4   3   5  1   
  5   3  25  1   
  6   4   6  1   
  7   4  26  1   
  8   4  27  1   
  9   5   7  1   
 10   5  28  1   
 11   5  29  1   
 12   6   7  1   
 13   6   8  1   
 14   6  30  1   
 15   7   9  1   
 16   7  31  1   
 17   8  10  1   
 18   8  32  1   
 19   8  33  1   
 20   9  10  1   
 21   9  34  1   
 22   9  35  1   
 23  10  11  1   
 24  10  36  1   
 25  11  12  am  
 26  11  13  1   
 27  12  14  2   
 28  12  15  1   
 29  13  37  1   
 30  13  38  1   
 31  13  39  1   
 32  15  16  ar  
 33  15  17  ar  
 34  16  18  ar  
 35  16  40  1   
 36  17  19  ar  
 37  17  41  1   
 38  18  20  ar  
 39  18  21  ar  
 40  19  20  ar  
 41  19  42  1   
 42  20  22  ar  
 43  21  23  ar  
 44  21  43  1   
 45  22  24  ar  
 46  22  44  1   
 47  23  24  ar  
 48  23  45  1   
 49  24  46  1   
@<TRIPOS>SUBSTRUCTURE
  1 ****  17 GROUP 4 **** **** 0

# MOE 2024.06 (io_trps.svl 2023.06)
