@<TRIPOS>MOLECULE
NONAME
50 54 1 0 0 
SMALL
USER_CHARGES


@<TRIPOS>ATOM
  1 S       -2.0630     2.8190     0.9750 S.3   1 <1>  -0.0800 
  2 C       -0.7180     3.8060     0.4450 C.2   1 <1>  -0.1400 
  3 C       -0.9880     1.8580     1.9770 C.2   1 <1>  -0.1100 
  4 C        0.4400     3.4070     0.9860 C.2   1 <1>  -0.1810 
  5 C       -0.8930     4.9630    -0.5000 C.3   1 <1>   0.0200 
  6 C        0.2850     2.2900     1.8760 C.2   1 <1>  -0.1500 
  7 C        1.7470     4.1180     0.6450 C.3   1 <1>   0.4610 
  8 C        0.3610     5.8430    -0.3740 C.3   1 <1>   0.1200 
  9 O        1.5390     5.0620    -0.3980 O.3   1 <1>  -0.5600 
 10 C        2.3370     4.8530     1.8550 C.3   1 <1>  -0.1600 
 11 C        2.7890     3.1260     0.1040 C.3   1 <1>  -0.1600 
 12 C        3.6350     5.5980     1.5210 C.3   1 <1>   0.3430 
 13 C        4.2130     3.6960     0.0390 C.3   1 <1>   0.3430 
 14 N        4.1710     5.1740     0.1870 N.4   1 <1>  -0.9590 
 15 C        5.4210     5.8720    -0.2200 C.3   1 <1>   0.4860 
 16 C        5.1510     7.3580    -0.2320 C.ar  1 <1>  -0.1440 
 17 C        5.7330     8.2060     0.6790 C.ar  1 <1>   0.1600 
 18 C        4.2850     7.9200    -1.1400 C.ar  1 <1>   0.1600 
 19 N        5.4480     9.4820     0.7210 N.ar  1 <1>  -0.6200 
 20 N        3.9840     9.1910    -1.1150 N.ar  1 <1>  -0.6200 
 21 C        4.5540     9.9470    -0.1660 C.ar  1 <1>   0.6200 
 22 C        4.1910    11.3600    -0.0870 C.ar  1 <1>   0.3100 
 23 N        2.8940    11.7100    -0.0100 N.ar  1 <1>  -0.6200 
 24 C        5.2030    12.3230    -0.0830 C.ar  1 <1>  -0.1500 
 25 C        2.6240    13.0000     0.0600 C.ar  1 <1>   0.1600 
 26 C        4.9070    13.6660    -0.0080 C.ar  1 <1>  -0.1500 
 27 C        3.5750    14.0050     0.0640 C.ar  1 <1>  -0.1500 
 28 H       -1.4310     1.0590     2.5450 H     1 <1>   0.1500 
 29 H       -1.7670     5.5330    -0.2390 H     1 <1>   0.0800 
 30 H       -1.0030     4.6040    -1.5080 H     1 <1>   0.0800 
 31 H        1.1180     1.8570     2.4010 H     1 <1>   0.1500 
 32 H        0.3330     6.3960     0.5490 H     1 <1>   0.0800 
 33 H        0.4050     6.5420    -1.1910 H     1 <1>   0.0800 
 34 H        2.5420     4.1350     2.6280 H     1 <1>   0.0800 
 35 H        1.6160     5.5370     2.2630 H     1 <1>   0.0800 
 36 H        2.4800     2.7940    -0.8710 H     1 <1>   0.0800 
 37 H        2.8180     2.2530     0.7280 H     1 <1>   0.0800 
 38 H        4.3650     5.4170     2.2940 H     1 <1>   0.0800 
 39 H        3.4270     6.6560     1.4990 H     1 <1>   0.0800 
 40 H        4.6580     3.4250    -0.9060 H     1 <1>   0.0800 
 41 H        4.8100     3.2710     0.8290 H     1 <1>   0.0800 
 42 H        3.4190     5.4660    -0.4690 H     1 <1>   0.4500 
 43 H        5.7200     5.5530    -1.2060 H     1 <1>   0.0800 
 44 H        6.2160     5.6440     0.4710 H     1 <1>   0.0800 
 45 H        6.4420     7.8390     1.4030 H     1 <1>   0.1500 
 46 H        3.8130     7.3220    -1.9030 H     1 <1>   0.1500 
 47 H        6.2280    12.0050    -0.1390 H     1 <1>   0.1500 
 48 H        1.5840    13.2760     0.1170 H     1 <1>   0.1500 
 49 H        5.6800    14.4160    -0.0050 H     1 <1>   0.1500 
 50 H        3.2730    15.0340     0.1240 H     1 <1>   0.1500 
@<TRIPOS>BOND
  1   1   2  1   
  2   1   3  1   
  3   2   4  2   
  4   2   5  1   
  5   3   6  2   
  6   3  28  1   
  7   4   6  1   
  8   4   7  1   
  9   5   8  1   
 10   5  29  1   
 11   5  30  1   
 12   6  31  1   
 13   7   9  1   
 14   7  10  1   
 15   7  11  1   
 16   8   9  1   
 17   8  32  1   
 18   8  33  1   
 19  10  12  1   
 20  10  34  1   
 21  10  35  1   
 22  11  13  1   
 23  11  36  1   
 24  11  37  1   
 25  12  14  1   
 26  12  38  1   
 27  12  39  1   
 28  13  14  1   
 29  13  40  1   
 30  13  41  1   
 31  14  15  1   
 32  14  42  1   
 33  15  16  1   
 34  15  43  1   
 35  15  44  1   
 36  16  17  ar  
 37  16  18  ar  
 38  17  19  ar  
 39  17  45  1   
 40  18  20  ar  
 41  18  46  1   
 42  19  21  ar  
 43  20  21  ar  
 44  21  22  1   
 45  22  23  ar  
 46  22  24  ar  
 47  23  25  ar  
 48  24  26  ar  
 49  24  47  1   
 50  25  27  ar  
 51  25  48  1   
 52  26  27  ar  
 53  26  49  1   
 54  27  50  1   
@<TRIPOS>SUBSTRUCTURE
  1 ****  12 GROUP 4 **** **** 0

# MOE 2024.06 (io_trps.svl 2023.06)
