@<TRIPOS>MOLECULE
NONAME
56 58 1 0 0 
SMALL
USER_CHARGES


@<TRIPOS>ATOM
  1 O       -0.6080     0.7860     0.1830 O.2   1 <1>  -0.5700 
  2 C       -1.7840     1.0020     0.4070 C.2   1 <1>   0.5440 
  3 N       -2.7000    -0.0140     0.1830 N.am  1 <1>  -0.6600 
  4 C       -2.1550     2.3170     0.8900 C.ar  1 <1>   0.0860 
  5 C       -4.0890     0.1170    -0.3630 C.3   1 <1>   0.2200 
  6 C       -2.2200    -1.4270     0.2130 C.3   1 <1>   0.0600 
  7 C       -1.8670     3.4530     0.1340 C.ar  1 <1>  -0.1500 
  8 C       -2.7980     2.4980     2.1140 C.ar  1 <1>  -0.1500 
  9 C       -4.2690     1.1910    -1.4360 C.3   1 <1>  -0.1600 
 10 C       -5.1300     0.3910     0.7210 C.3   1 <1>  -0.1600 
 11 C       -2.2880     4.7150     0.5310 C.ar  1 <1>   0.0820 
 12 C       -3.2330     3.7440     2.5210 C.ar  1 <1>  -0.1500 
 13 C       -5.7220     1.6770    -1.3100 C.3   1 <1>  -0.0800 
 14 C       -6.1490     1.3830     0.1350 C.3   1 <1>  -0.0800 
 15 O       -2.0460     5.8210    -0.2240 O.3   1 <1>  -0.3630 
 16 C       -3.0130     4.8490     1.7180 C.ar  1 <1>   0.0820 
 17 C       -5.8550     3.1930    -1.4830 C.3   1 <1>  -0.1600 
 18 C       -6.2010     2.7460     0.8520 C.3   1 <1>  -0.1600 
 19 C       -0.8700     5.8900    -1.0070 C.3   1 <1>   0.0400 
 20 O       -3.5700     6.0220     2.0880 O.3   1 <1>  -0.3630 
 21 C       -5.5070     3.7230    -0.0980 C.3   1 <1>   0.4230 
 22 C       -2.6880     6.9930     2.6140 C.3   1 <1>   0.0400 
 23 N       -5.8270     5.1650     0.1320 N.4   1 <1>  -0.9590 
 24 C       -7.2800     5.5000     0.2470 C.3   1 <1>   0.2630 
 25 C       -5.1800     6.0370    -0.8950 C.3   1 <1>   0.2630 
 26 H       -4.3610    -0.8160    -0.8280 H     1 <1>   0.0800 
 27 H       -2.9510    -2.0560     0.6900 H     1 <1>   0.0800 
 28 H       -1.2980    -1.5020     0.7630 H     1 <1>   0.0800 
 29 H       -2.0500    -1.7730    -0.7920 H     1 <1>   0.0800 
 30 H       -1.3180     3.3110    -0.7790 H     1 <1>   0.1500 
 31 H       -2.9560     1.6410     2.7470 H     1 <1>   0.1500 
 32 H       -3.5880     2.0030    -1.2920 H     1 <1>   0.0800 
 33 H       -4.0900     0.7760    -2.4120 H     1 <1>   0.0800 
 34 H       -5.6260    -0.5320     0.9640 H     1 <1>   0.0800 
 35 H       -4.6800     0.7600     1.6180 H     1 <1>   0.0800 
 36 H       -3.7470     3.8620     3.4590 H     1 <1>   0.1500 
 37 H       -6.3460     1.1410    -2.0070 H     1 <1>   0.0800 
 38 H       -7.1310     0.9370     0.1450 H     1 <1>   0.0800 
 39 H       -6.8730     3.4320    -1.7340 H     1 <1>   0.0800 
 40 H       -5.1920     3.5600    -2.2460 H     1 <1>   0.0800 
 41 H       -5.7260     2.7270     1.8150 H     1 <1>   0.0800 
 42 H       -7.2360     2.9980     0.9830 H     1 <1>   0.0800 
 43 H       -0.7390     6.9070    -1.3290 H     1 <1>   0.0800 
 44 H       -0.9740     5.2490    -1.8640 H     1 <1>   0.0800 
 45 H       -0.0290     5.5880    -0.4060 H     1 <1>   0.0800 
 46 H       -4.4470     3.5860     0.0270 H     1 <1>   0.0800 
 47 H       -3.2670     7.8410     2.9340 H     1 <1>   0.0800 
 48 H       -1.9920     7.2920     1.8510 H     1 <1>   0.0800 
 49 H       -2.1620     6.5700     3.4520 H     1 <1>   0.0800 
 50 H       -5.3600     5.4070     1.0280 H     1 <1>   0.4500 
 51 H       -7.8040     5.2040    -0.6460 H     1 <1>   0.0800 
 52 H       -7.4060     6.5610     0.3870 H     1 <1>   0.0800 
 53 H       -7.7170     4.9950     1.0920 H     1 <1>   0.0800 
 54 H       -5.6700     5.9200    -1.8480 H     1 <1>   0.0800 
 55 H       -4.1440     5.7720    -1.0090 H     1 <1>   0.0800 
 56 H       -5.2370     7.0710    -0.5970 H     1 <1>   0.0800 
@<TRIPOS>BOND
  1   1   2  2   
  2   2   3  am  
  3   2   4  1   
  4   3   5  1   
  5   3   6  1   
  6   4   7  ar  
  7   4   8  ar  
  8   5   9  1   
  9   5  10  1   
 10   5  26  1   
 11   6  27  1   
 12   6  28  1   
 13   6  29  1   
 14   7  11  ar  
 15   7  30  1   
 16   8  12  ar  
 17   8  31  1   
 18   9  13  1   
 19   9  32  1   
 20   9  33  1   
 21  10  14  1   
 22  10  34  1   
 23  10  35  1   
 24  11  15  1   
 25  11  16  ar  
 26  12  16  ar  
 27  12  36  1   
 28  13  14  1   
 29  13  17  1   
 30  13  37  1   
 31  14  18  1   
 32  14  38  1   
 33  15  19  1   
 34  16  20  1   
 35  17  21  1   
 36  17  39  1   
 37  17  40  1   
 38  18  21  1   
 39  18  41  1   
 40  18  42  1   
 41  19  43  1   
 42  19  44  1   
 43  19  45  1   
 44  20  22  1   
 45  21  23  1   
 46  21  46  1   
 47  22  47  1   
 48  22  48  1   
 49  22  49  1   
 50  23  24  1   
 51  23  25  1   
 52  23  50  1   
 53  24  51  1   
 54  24  52  1   
 55  24  53  1   
 56  25  54  1   
 57  25  55  1   
 58  25  56  1   
@<TRIPOS>SUBSTRUCTURE
  1 ****   4 GROUP 4 **** **** 0

# MOE 2024.06 (io_trps.svl 2023.06)
