@<TRIPOS>MOLECULE
NONAME
49 50 1 0 0 
SMALL
USER_CHARGES


@<TRIPOS>ATOM
  1 S        0.1510    -0.2410     2.1410 S.o2  1 <1>   1.4470 
  2 O        0.3170    -1.6750     2.1450 O.2   1 <1>  -0.6500 
  3 O       -0.1810     0.4340     3.3710 O.2   1 <1>  -0.6500 
  4 N       -1.1390     0.1300     1.1270 N.am  1 <1>  -0.9140 
  5 C        1.5770     0.5670     1.3610 C.ar  1 <1>  -0.0090 
  6 C       -1.4620    -0.7270    -0.0180 C.3   1 <1>   0.2760 
  7 C        1.4550     1.8040     0.7420 C.ar  1 <1>  -0.1500 
  8 C        2.8310    -0.0310     1.3720 C.ar  1 <1>  -0.1500 
  9 C       -2.1080    -2.0610     0.3720 C.3   1 <1>  -0.0800 
 10 C       -0.3000    -1.1200    -0.9390 C.3   1 <1>   0.1200 
 11 C        2.5270     2.4520     0.1290 C.ar  1 <1>   0.0860 
 12 C        3.9170     0.5810     0.7730 C.ar  1 <1>  -0.1500 
 13 C       -1.1920    -3.0890    -0.2980 C.3   1 <1>   0.1200 
 14 C       -3.5500    -2.1500    -0.1680 C.3   1 <1>  -0.0550 
 15 O       -0.6050    -2.4090    -1.3580 O.3   1 <1>  -0.5600 
 16 C        2.3420     3.7420    -0.5130 C.2   1 <1>   0.5440 
 17 C        3.7630     1.8080     0.1560 C.ar  1 <1>  -0.1500 
 18 S       -4.4960    -3.5060     0.5240 S.o2  1 <1>   1.3330 
 19 O        1.2820     4.0200    -1.0360 O.2   1 <1>  -0.5700 
 20 N        3.3520     4.6660    -0.5280 N.am  1 <1>  -0.7300 
 21 O       -4.6650    -3.2300     1.9330 O.2   1 <1>  -0.6500 
 22 O       -3.9380    -4.7690     0.0990 O.2   1 <1>  -0.6500 
 23 N       -6.0030    -3.3210    -0.2350 N.am  1 <1>  -0.8490 
 24 C        3.2820     6.0100    -1.1580 C.3   1 <1>   0.0600 
 25 C       -7.1060    -3.8210     0.5920 C.3   1 <1>   0.1160 
 26 C       -6.0620    -3.9380    -1.5650 C.3   1 <1>   0.1160 
 27 H       -1.9380     0.1600     1.7580 H     1 <1>   0.4200 
 28 H       -2.1550    -0.1740    -0.6300 H     1 <1>   0.0800 
 29 H        0.4920     2.2900     0.7290 H     1 <1>   0.1500 
 30 H        2.9580    -0.9890     1.8500 H     1 <1>   0.1500 
 31 H       -2.1140    -2.2150     1.4370 H     1 <1>   0.0800 
 32 H        0.6460    -1.1660    -0.4340 H     1 <1>   0.0800 
 33 H       -0.2320    -0.4810    -1.8010 H     1 <1>   0.0800 
 34 H        4.8800     0.0980     0.7850 H     1 <1>   0.1500 
 35 H       -1.7050    -3.9550    -0.6790 H     1 <1>   0.0800 
 36 H       -0.4080    -3.4040     0.3710 H     1 <1>   0.0800 
 37 H       -3.5220    -2.2350    -1.2370 H     1 <1>   0.0800 
 38 H       -4.0650    -1.2400     0.0730 H     1 <1>   0.0800 
 39 H        4.6120     2.2660    -0.3200 H     1 <1>   0.1500 
 40 H        4.2000     4.4730     0.0070 H     1 <1>   0.3700 
 41 H        2.3630     6.1220    -1.7090 H     1 <1>   0.0800 
 42 H        4.1080     6.1390    -1.8350 H     1 <1>   0.0800 
 43 H        3.3230     6.7710    -0.3980 H     1 <1>   0.0800 
 44 H       -8.0460    -3.6760     0.0890 H     1 <1>   0.0800 
 45 H       -7.1390    -3.2860     1.5270 H     1 <1>   0.0800 
 46 H       -6.9720    -4.8700     0.8000 H     1 <1>   0.0800 
 47 H       -7.0030    -3.7110    -2.0370 H     1 <1>   0.0800 
 48 H       -5.9580    -5.0090    -1.4900 H     1 <1>   0.0800 
 49 H       -5.2700    -3.5590    -2.1880 H     1 <1>   0.0800 
@<TRIPOS>BOND
  1   1   2  2   
  2   1   3  2   
  3   1   4  am  
  4   1   5  1   
  5   4   6  1   
  6   4  27  1   
  7   5   7  ar  
  8   5   8  ar  
  9   6   9  1   
 10   6  10  1   
 11   6  28  1   
 12   7  11  ar  
 13   7  29  1   
 14   8  12  ar  
 15   8  30  1   
 16   9  13  1   
 17   9  14  1   
 18   9  31  1   
 19  10  15  1   
 20  10  32  1   
 21  10  33  1   
 22  11  16  1   
 23  11  17  ar  
 24  12  17  ar  
 25  12  34  1   
 26  13  15  1   
 27  13  35  1   
 28  13  36  1   
 29  14  18  1   
 30  14  37  1   
 31  14  38  1   
 32  16  19  2   
 33  16  20  am  
 34  17  39  1   
 35  18  21  2   
 36  18  22  2   
 37  18  23  am  
 38  20  24  1   
 39  20  40  1   
 40  23  25  1   
 41  23  26  1   
 42  24  41  1   
 43  24  42  1   
 44  24  43  1   
 45  25  44  1   
 46  25  45  1   
 47  25  46  1   
 48  26  47  1   
 49  26  48  1   
 50  26  49  1   
@<TRIPOS>SUBSTRUCTURE
  1 ****   6 GROUP 4 **** **** 0

# MOE 2024.06 (io_trps.svl 2023.06)
