@<TRIPOS>MOLECULE
NONAME
50 52 1 0 0 
SMALL
USER_CHARGES


@<TRIPOS>ATOM
  1 S       -0.2040    -0.1430    -0.5430 S.o2  1 <1>   1.0900 
  2 O        0.2550     0.8830     0.3610 O.2   1 <1>  -0.6500 
  3 O        0.6160    -0.6310    -1.6270 O.2   1 <1>  -0.6500 
  4 C       -0.7910    -1.5520     0.3520 C.3   1 <1>  -0.0550 
  5 C       -1.8060     0.2770    -1.2140 C.3   1 <1>  -0.0550 
  6 C       -1.9010    -2.1170    -0.5300 C.3   1 <1>   0.1760 
  7 C       -2.7490    -0.9240    -1.0190 C.3   1 <1>  -0.1600 
  8 N       -2.7160    -3.1150     0.2070 N.pl3 1 <1>   0.3140 
  9 N       -3.2790    -2.8090     1.3900 N.2   1 <1>  -0.7070 
 10 C       -2.9850    -4.3960    -0.1550 C.2   1 <1>  -0.3320 
 11 C       -3.8840    -3.8930     1.7640 C.2   1 <1>   0.1080 
 12 C       -3.7330    -4.9280     0.8360 C.2   1 <1>   0.0630 
 13 C       -2.4950    -5.0530    -1.4390 C.3   1 <1>  -0.0600 
 14 C       -4.6580    -3.9540     3.0630 C.3   1 <1>  -0.0590 
 15 N       -4.2430    -6.2500     0.8590 N.am  1 <1>  -0.4930 
 16 C       -4.2960    -7.1490     1.8820 C.2   1 <1>   0.5690 
 17 O       -3.9300    -6.9010     3.0060 O.2   1 <1>  -0.5700 
 18 C       -4.8350    -8.5450     1.6100 C.3   1 <1>   0.1310 
 19 S       -5.0690    -8.8520    -0.2130 S.3   1 <1>  -0.3310 
 20 C       -5.7150   -10.5260    -0.3760 C.ar  1 <1>   0.1010 
 21 C       -5.9900   -10.9690    -1.6550 C.ar  1 <1>  -0.1500 
 22 C       -5.9310   -11.3450     0.7220 C.ar  1 <1>  -0.1500 
 23 C       -6.4890   -12.2450    -1.8540 C.ar  1 <1>   0.0820 
 24 C       -6.4310   -12.6220     0.5250 C.ar  1 <1>  -0.1500 
 25 O       -6.7350   -12.6100    -3.1370 O.3   1 <1>  -0.3630 
 26 C       -6.7100   -13.0730    -0.7550 C.ar  1 <1>  -0.1500 
 27 C       -7.2420   -13.8880    -3.4520 C.3   1 <1>   0.0400 
 28 H       -1.1980    -1.2360     1.2950 H     1 <1>   0.0800 
 29 H       -0.0110    -2.2700     0.5150 H     1 <1>   0.0800 
 30 H       -1.7130     0.5180    -2.2570 H     1 <1>   0.0800 
 31 H       -2.2070     1.1330    -0.7040 H     1 <1>   0.0800 
 32 H       -1.4470    -2.5940    -1.3800 H     1 <1>   0.0800 
 33 H       -3.2600    -1.1680    -1.9340 H     1 <1>   0.0800 
 34 H       -3.4800    -0.6680    -0.2690 H     1 <1>   0.0800 
 35 H       -2.8740    -4.5260    -2.2970 H     1 <1>   0.0800 
 36 H       -2.8280    -6.0740    -1.4950 H     1 <1>   0.0800 
 37 H       -1.4200    -5.0510    -1.4710 H     1 <1>   0.0800 
 38 H       -4.9990    -2.9720     3.3320 H     1 <1>   0.0800 
 39 H       -4.0200    -4.3290     3.8420 H     1 <1>   0.0800 
 40 H       -5.5080    -4.6020     2.9590 H     1 <1>   0.0800 
 41 H       -4.5080    -6.6190    -0.0550 H     1 <1>   0.3700 
 42 H       -5.7910    -8.6680     2.0830 H     1 <1>   0.0800 
 43 H       -4.1410    -9.2810     1.9720 H     1 <1>   0.0800 
 44 H       -5.8190   -10.3280    -2.5000 H     1 <1>   0.1500 
 45 H       -5.7220   -11.0170     1.7210 H     1 <1>   0.1500 
 46 H       -6.6030   -13.2670     1.3690 H     1 <1>   0.1500 
 47 H       -7.0960   -14.0670    -0.8770 H     1 <1>   0.1500 
 48 H       -7.3550   -13.9480    -4.5190 H     1 <1>   0.0800 
 49 H       -8.1990   -14.0110    -2.9760 H     1 <1>   0.0800 
 50 H       -6.5440   -14.6340    -3.1150 H     1 <1>   0.0800 
@<TRIPOS>BOND
  1   1   2  2   
  2   1   3  2   
  3   1   4  1   
  4   1   5  1   
  5   4   6  1   
  6   4  28  1   
  7   4  29  1   
  8   5   7  1   
  9   5  30  1   
 10   5  31  1   
 11   6   7  1   
 12   6   8  1   
 13   6  32  1   
 14   7  33  1   
 15   7  34  1   
 16   8   9  1   
 17   8  10  1   
 18   9  11  2   
 19  10  12  2   
 20  10  13  1   
 21  11  12  1   
 22  11  14  1   
 23  12  15  1   
 24  13  35  1   
 25  13  36  1   
 26  13  37  1   
 27  14  38  1   
 28  14  39  1   
 29  14  40  1   
 30  15  16  am  
 31  15  41  1   
 32  16  17  2   
 33  16  18  1   
 34  18  19  1   
 35  18  42  1   
 36  18  43  1   
 37  19  20  1   
 38  20  21  ar  
 39  20  22  ar  
 40  21  23  ar  
 41  21  44  1   
 42  22  24  ar  
 43  22  45  1   
 44  23  25  1   
 45  23  26  ar  
 46  24  26  ar  
 47  24  46  1   
 48  25  27  1   
 49  26  47  1   
 50  27  48  1   
 51  27  49  1   
 52  27  50  1   
@<TRIPOS>SUBSTRUCTURE
  1 ****  15 GROUP 4 **** **** 0

# MOE 2024.06 (io_trps.svl 2023.06)
