@<TRIPOS>MOLECULE
NONAME
42 44 1 0 0 
SMALL
USER_CHARGES


@<TRIPOS>ATOM
  1 F        0.4240    -1.2590    -1.4530 F     1 <1>  -0.3400 
  2 C        0.5010    -2.0630    -0.4010 C.3   1 <1>   1.1640 
  3 F        1.2470    -3.0940    -0.7750 F     1 <1>  -0.3400 
  4 F        1.2000    -1.4100     0.5200 F     1 <1>  -0.3400 
  5 C       -0.8750    -2.5010     0.0830 C.ar  1 <1>  -0.1430 
  6 C       -1.6590    -3.2680    -0.7630 C.ar  1 <1>   0.1600 
  7 C       -1.3830    -2.1660     1.3310 C.ar  1 <1>  -0.1500 
  8 N       -2.8700    -3.7190    -0.4830 N.ar  1 <1>  -0.6200 
  9 C       -2.6420    -2.6280     1.6340 C.ar  1 <1>  -0.1500 
 10 C       -3.3470    -3.3920     0.7120 C.ar  1 <1>   0.4100 
 11 N       -4.6100    -3.8330     1.0300 N.pl3 1 <1>  -0.8380 
 12 C       -5.7340    -3.2230     0.2630 C.3   1 <1>   0.2090 
 13 C       -4.8160    -5.3030     1.0360 C.3   1 <1>   0.2090 
 14 C       -6.6250    -4.3750    -0.2280 C.3   1 <1>   0.2000 
 15 C       -5.7060    -5.5920    -0.1710 C.3   1 <1>  -0.0800 
 16 O       -7.6990    -4.5770     0.6510 O.3   1 <1>  -0.5600 
 17 C       -6.4250    -6.9510    -0.0950 C.3   1 <1>   0.0200 
 18 C       -8.8040    -3.7570     0.4360 C.3   1 <1>   0.0400 
 19 C       -5.4740    -8.1290    -0.2160 C.2   1 <1>  -0.0400 
 20 O       -5.9330    -9.3360    -0.0170 O.3   1 <1>  -0.0190 
 21 C       -4.1670    -8.2330    -0.5090 C.2   1 <1>  -0.1500 
 22 N       -5.0060   -10.2400    -0.1570 N.2   1 <1>  -0.4100 
 23 C       -3.9300    -9.6030    -0.4530 C.2   1 <1>   0.1080 
 24 C       -2.5940   -10.2630    -0.7070 C.3   1 <1>  -0.0590 
 25 H       -1.2710    -3.5320    -1.7340 H     1 <1>   0.1500 
 26 H       -0.8290    -1.5720     2.0390 H     1 <1>   0.1500 
 27 H       -3.1050    -2.4130     2.5790 H     1 <1>   0.1500 
 28 H       -6.2820    -2.5410     0.8880 H     1 <1>   0.0800 
 29 H       -5.3420    -2.6870    -0.5840 H     1 <1>   0.0800 
 30 H       -3.8790    -5.8310     0.9770 H     1 <1>   0.0800 
 31 H       -5.3190    -5.5770     1.9480 H     1 <1>   0.0800 
 32 H       -7.0050    -4.2080    -1.2210 H     1 <1>   0.0800 
 33 H       -5.0840    -5.5720    -1.0480 H     1 <1>   0.0800 
 34 H       -7.1500    -7.0160    -0.8870 H     1 <1>   0.0800 
 35 H       -6.9550    -7.0300     0.8390 H     1 <1>   0.0800 
 36 H       -9.5500    -4.0060     1.1700 H     1 <1>   0.0800 
 37 H       -9.1940    -3.9380    -0.5510 H     1 <1>   0.0800 
 38 H       -8.5180    -2.7260     0.5490 H     1 <1>   0.0800 
 39 H       -3.4440    -7.4730    -0.7410 H     1 <1>   0.1500 
 40 H       -1.8180    -9.7330    -0.1870 H     1 <1>   0.0800 
 41 H       -2.3830   -10.2590    -1.7610 H     1 <1>   0.0800 
 42 H       -2.6160   -11.2790    -0.3590 H     1 <1>   0.0800 
@<TRIPOS>BOND
  1   1   2  1   
  2   2   3  1   
  3   2   4  1   
  4   2   5  1   
  5   5   6  ar  
  6   5   7  ar  
  7   6   8  ar  
  8   6  25  1   
  9   7   9  ar  
 10   7  26  1   
 11   8  10  ar  
 12   9  10  ar  
 13   9  27  1   
 14  10  11  1   
 15  11  12  1   
 16  11  13  1   
 17  12  14  1   
 18  12  28  1   
 19  12  29  1   
 20  13  15  1   
 21  13  30  1   
 22  13  31  1   
 23  14  15  1   
 24  14  16  1   
 25  14  32  1   
 26  15  17  1   
 27  15  33  1   
 28  16  18  1   
 29  17  19  1   
 30  17  34  1   
 31  17  35  1   
 32  18  36  1   
 33  18  37  1   
 34  18  38  1   
 35  19  20  1   
 36  19  21  2   
 37  20  22  1   
 38  21  23  1   
 39  21  39  1   
 40  22  23  2   
 41  23  24  1   
 42  24  40  1   
 43  24  41  1   
 44  24  42  1   
@<TRIPOS>SUBSTRUCTURE
  1 ****   8 GROUP 4 **** **** 0

# MOE 2024.06 (io_trps.svl 2023.06)
