@<TRIPOS>MOLECULE
NONAME
49 51 1 0 0 
SMALL
USER_CHARGES


@<TRIPOS>ATOM
  1 S        0.3920    -1.1920     1.1320 S.3   1 <1>  -0.0800 
  2 C       -1.2510    -1.2660     0.5830 C.2   1 <1>   0.4420 
  3 C        0.1630     0.5090     1.3560 C.2   1 <1>   0.1980 
  4 N       -1.8160    -0.1140     0.5920 N.2   1 <1>  -0.3380 
  5 N       -1.7220    -2.5060     0.2140 N.am  1 <1>  -0.4940 
  6 N       -1.0040     0.8930     1.0370 N.2   1 <1>  -0.3380 
  7 C        1.3210     1.3300     1.8810 C.3   1 <1>   0.0200 
  8 C       -2.9740    -2.8820    -0.1910 C.2   1 <1>   0.7160 
  9 C        2.2490     1.7250     0.7360 C.3   1 <1>   0.1200 
 10 O       -3.8960    -2.0970    -0.1700 O.2   1 <1>  -0.5700 
 11 C       -3.1750    -4.2450    -0.6040 C.2   1 <1>  -0.0860 
 12 O        3.3530     2.4100     1.2800 O.3   1 <1>  -0.3630 
 13 C       -4.2700    -5.0490    -0.3160 C.2   1 <1>   0.1080 
 14 C       -2.4120    -5.0900    -1.3340 C.2   1 <1>  -0.0400 
 15 C        4.3700     2.8600     0.4980 C.ar  1 <1>   0.0830 
 16 N       -4.1060    -6.2160    -0.8180 N.2   1 <1>  -0.4100 
 17 C       -5.4950    -4.6050     0.4780 C.3   1 <1>   0.0210 
 18 O       -2.9590    -6.2740    -1.4520 O.3   1 <1>  -0.0190 
 19 C       -1.0820    -4.8730    -2.0330 C.3   1 <1>  -0.0600 
 20 C        5.4600     3.4460     1.1340 C.ar  1 <1>  -0.1430 
 21 C        4.3580     2.7560    -0.8920 C.ar  1 <1>  -0.1500 
 22 C       -6.3710    -5.7700     0.9590 C.3   1 <1>  -0.2400 
 23 C        6.5220     3.9150     0.3770 C.ar  1 <1>  -0.1500 
 24 C        5.4980     3.5760     2.6500 C.3   1 <1>  -0.0970 
 25 C        5.4210     3.2280    -1.6430 C.ar  1 <1>  -0.1430 
 26 C        6.5040     3.8060    -1.0020 C.ar  1 <1>  -0.1500 
 27 C        5.4070     3.1130    -3.1570 C.3   1 <1>  -0.0970 
 28 H       -1.0610    -3.2710     0.2970 H     1 <1>   0.3700 
 29 H        1.8620     0.7600     2.6140 H     1 <1>   0.0800 
 30 H        0.9350     2.2200     2.3460 H     1 <1>   0.0800 
 31 H        1.7410     2.3810     0.0500 H     1 <1>   0.0800 
 32 H        2.6130     0.8540     0.2210 H     1 <1>   0.0800 
 33 H       -6.0840    -3.9510    -0.1410 H     1 <1>   0.0800 
 34 H       -5.1720    -4.0400     1.3350 H     1 <1>   0.0800 
 35 H       -0.7780    -3.8440    -1.9930 H     1 <1>   0.0800 
 36 H       -1.1740    -5.1550    -3.0670 H     1 <1>   0.0800 
 37 H       -0.3250    -5.4870    -1.5790 H     1 <1>   0.0800 
 38 H        3.5290     2.3130    -1.4070 H     1 <1>   0.1500 
 39 H       -6.7470    -6.3230     0.1160 H     1 <1>   0.0800 
 40 H       -7.2040    -5.3980     1.5270 H     1 <1>   0.0800 
 41 H       -5.7960    -6.4350     1.5780 H     1 <1>   0.0800 
 42 H        7.3710     4.3680     0.8570 H     1 <1>   0.1500 
 43 H        4.6620     4.1630     2.9850 H     1 <1>   0.0800 
 44 H        6.4050     4.0500     2.9780 H     1 <1>   0.0800 
 45 H        5.4380     2.6010     3.0990 H     1 <1>   0.0800 
 46 H        7.3380     4.1740    -1.5730 H     1 <1>   0.1500 
 47 H        4.3980     3.1100    -3.5270 H     1 <1>   0.0800 
 48 H        5.8900     2.2000    -3.4560 H     1 <1>   0.0800 
 49 H        5.9280     3.9420    -3.6010 H     1 <1>   0.0800 
@<TRIPOS>BOND
  1   1   2  1   
  2   1   3  1   
  3   2   4  2   
  4   2   5  1   
  5   3   6  2   
  6   3   7  1   
  7   4   6  1   
  8   5   8  am  
  9   5  28  1   
 10   7   9  1   
 11   7  29  1   
 12   7  30  1   
 13   8  10  2   
 14   8  11  1   
 15   9  12  1   
 16   9  31  1   
 17   9  32  1   
 18  11  13  1   
 19  11  14  2   
 20  12  15  1   
 21  13  16  2   
 22  13  17  1   
 23  14  18  1   
 24  14  19  1   
 25  15  20  ar  
 26  15  21  ar  
 27  16  18  1   
 28  17  22  1   
 29  17  33  1   
 30  17  34  1   
 31  19  35  1   
 32  19  36  1   
 33  19  37  1   
 34  20  23  ar  
 35  20  24  1   
 36  21  25  ar  
 37  21  38  1   
 38  22  39  1   
 39  22  40  1   
 40  22  41  1   
 41  23  26  ar  
 42  23  42  1   
 43  24  43  1   
 44  24  44  1   
 45  24  45  1   
 46  25  26  ar  
 47  25  27  1   
 48  26  46  1   
 49  27  47  1   
 50  27  48  1   
 51  27  49  1   
@<TRIPOS>SUBSTRUCTURE
  1 ****   1 GROUP 4 **** **** 0

# MOE 2024.06 (io_trps.svl 2023.06)
