@<TRIPOS>MOLECULE
NONAME
40 41 1 0 0 
SMALL
USER_CHARGES


@<TRIPOS>ATOM
  1 O       -0.1250     1.0200     1.1600 O.2   1 <1>  -0.5700 
  2 C       -0.0900     2.1210     0.6540 C.2   1 <1>   0.5690 
  3 N       -1.2070     2.9180     0.5850 N.am  1 <1>  -0.6600 
  4 C        1.2490     2.6070     0.0780 C.3   1 <1>   0.2010 
  5 C       -2.5040     2.4730     1.1790 C.3   1 <1>   0.1400 
  6 C       -1.2690     4.2220    -0.1440 C.3   1 <1>   0.1400 
  7 N        2.4250     1.8330     0.5720 N.am  1 <1>  -0.7300 
  8 C       -3.5570     2.2340     0.0720 C.3   1 <1>   0.0000 
  9 C       -2.6980     4.5530    -0.6100 C.3   1 <1>  -0.1600 
 10 C        3.7370     2.1420     0.5140 C.2   1 <1>   0.5690 
 11 C       -4.9630     2.1780     0.7010 C.3   1 <1>   0.2000 
 12 C       -3.4340     3.2870    -1.0760 C.3   1 <1>  -0.1600 
 13 C       -3.4530     0.8200    -0.5230 C.3   1 <1>  -0.1600 
 14 O        4.5600     1.4170     1.0060 O.2   1 <1>  -0.5700 
 15 C        4.1900     3.4070    -0.1720 C.3   1 <1>  -0.1790 
 16 O       -5.5090     3.4340     0.8940 O.3   1 <1>  -0.6800 
 17 C       -5.8280     1.3510    -0.2510 C.3   1 <1>  -0.1600 
 18 C       -4.8450     0.5180    -1.0870 C.3   1 <1>  -0.1600 
 19 H        1.3810     3.6410     0.3360 H     1 <1>   0.0800 
 20 H        1.2040     2.5190    -0.9920 H     1 <1>   0.0800 
 21 H       -2.3740     1.5850     1.7730 H     1 <1>   0.0800 
 22 H       -2.8530     3.2470     1.8410 H     1 <1>   0.0800 
 23 H       -0.9070     5.0090     0.4970 H     1 <1>   0.0800 
 24 H       -0.6350     4.1710    -1.0120 H     1 <1>   0.0800 
 25 H        2.1690     0.9670     1.0620 H     1 <1>   0.3700 
 26 H       -3.2390     5.0130     0.1990 H     1 <1>   0.0800 
 27 H       -2.6510     5.2690    -1.4120 H     1 <1>   0.0800 
 28 H       -4.9200     1.6860     1.6590 H     1 <1>   0.0800 
 29 H       -2.8620     2.8720    -1.8880 H     1 <1>   0.0800 
 30 H       -4.3970     3.5410    -1.4810 H     1 <1>   0.0800 
 31 H       -2.6790     0.7280    -1.2650 H     1 <1>   0.0800 
 32 H       -3.2400     0.1120     0.2620 H     1 <1>   0.0800 
 33 H        3.8170     3.4310    -1.1780 H     1 <1>   0.0800 
 34 H        5.2640     3.4350    -0.2000 H     1 <1>   0.0800 
 35 H        3.8350     4.2610     0.3710 H     1 <1>   0.0800 
 36 H       -5.5410     3.9070     0.0430 H     1 <1>   0.4000 
 37 H       -6.4830     0.7120     0.3130 H     1 <1>   0.0800 
 38 H       -6.4130     1.9810    -0.8980 H     1 <1>   0.0800 
 39 H       -5.0670    -0.5340    -1.0320 H     1 <1>   0.0800 
 40 H       -4.8940     0.8290    -2.1170 H     1 <1>   0.0800 
@<TRIPOS>BOND
  1   1   2  2   
  2   2   3  am  
  3   2   4  1   
  4   3   5  1   
  5   3   6  1   
  6   4   7  1   
  7   4  19  1   
  8   4  20  1   
  9   5   8  1   
 10   5  21  1   
 11   5  22  1   
 12   6   9  1   
 13   6  23  1   
 14   6  24  1   
 15   7  10  am  
 16   7  25  1   
 17   8  11  1   
 18   8  12  1   
 19   8  13  1   
 20   9  12  1   
 21   9  26  1   
 22   9  27  1   
 23  10  14  2   
 24  10  15  1   
 25  11  16  1   
 26  11  17  1   
 27  11  28  1   
 28  12  29  1   
 29  12  30  1   
 30  13  18  1   
 31  13  31  1   
 32  13  32  1   
 33  15  33  1   
 34  15  34  1   
 35  15  35  1   
 36  16  36  1   
 37  17  18  1   
 38  17  37  1   
 39  17  38  1   
 40  18  39  1   
 41  18  40  1   
@<TRIPOS>SUBSTRUCTURE
  1 ****   3 GROUP 4 **** **** 0

# MOE 2024.06 (io_trps.svl 2023.06)
