@<TRIPOS>MOLECULE
NONAME
47 49 1 0 0 
SMALL
USER_CHARGES


@<TRIPOS>ATOM
  1 F        0.8240     1.2200    -0.7670 F     1 <1>  -0.1900 
  2 C        2.0230     1.7230    -0.6700 C.ar  1 <1>   0.1900 
  3 C        2.4760     2.1340     0.5670 C.ar  1 <1>  -0.1500 
  4 C        2.7970     1.8280    -1.8090 C.ar  1 <1>  -0.1500 
  5 C        3.7500     2.6680     0.6660 C.ar  1 <1>  -0.1500 
  6 C        4.0690     2.3630    -1.7030 C.ar  1 <1>  -0.1500 
  7 C        4.5530     2.7840    -0.4670 C.ar  1 <1>  -0.1430 
  8 C        5.9600     3.3690    -0.3680 C.3   1 <1>   0.6280 
  9 N        6.8630     2.3970     0.3670 N.4   1 <1>  -0.9590 
 10 C        5.8810     4.7930     0.2490 C.2   1 <1>   0.5690 
 11 C        8.2910     2.8470     0.3240 C.3   1 <1>   0.3430 
 12 C        6.7110     0.9800    -0.0890 C.3   1 <1>   0.3430 
 13 O        6.4440     5.0020     1.3020 O.2   1 <1>  -0.5700 
 14 N        5.1930     5.7880    -0.3940 N.am  1 <1>  -0.4930 
 15 C        9.1510     1.9450     1.2100 C.3   1 <1>  -0.1600 
 16 C        7.5440     0.0540     0.7980 C.3   1 <1>  -0.1600 
 17 C        5.3710     7.1720    -0.2230 C.2   1 <1>   0.3520 
 18 C        9.0200     0.4670     0.8240 C.3   1 <1>  -0.1600 
 19 N        4.4430     8.0220    -0.4060 N.2   1 <1>  -0.4100 
 20 C        6.5460     7.8600     0.0960 C.2   1 <1>   0.3520 
 21 O        5.0280     9.1670    -0.1820 O.3   1 <1>   0.2420 
 22 N        6.2960     9.1080     0.1140 N.2   1 <1>  -0.4100 
 23 N        7.7970     7.2730     0.3060 N.am  1 <1>  -0.4930 
 24 C        8.5180     6.7740    -0.7200 C.2   1 <1>   0.5690 
 25 O        8.8120     5.6030    -0.7400 O.2   1 <1>  -0.5700 
 26 C        8.8790     7.6600    -1.8870 C.3   1 <1>  -0.1790 
 27 H        1.8380     2.0370     1.4290 H     1 <1>   0.1500 
 28 H        2.4010     1.4960    -2.7540 H     1 <1>   0.1500 
 29 H        4.0960     2.9900     1.6360 H     1 <1>   0.1500 
 30 H        4.6680     2.4420    -2.5970 H     1 <1>   0.1500 
 31 H        6.3430     3.4840    -1.3680 H     1 <1>   0.0800 
 32 H        6.5810     2.4460     1.3540 H     1 <1>   0.4500 
 33 H        8.3770     3.8600     0.6820 H     1 <1>   0.0800 
 34 H        8.6600     2.8170    -0.6880 H     1 <1>   0.0800 
 35 H        7.0410     0.8870    -1.1110 H     1 <1>   0.0800 
 36 H        5.6770     0.6760    -0.0370 H     1 <1>   0.0800 
 37 H        4.4080     5.5520    -1.0050 H     1 <1>   0.3700 
 38 H        8.8680     2.0840     2.2390 H     1 <1>   0.0800 
 39 H       10.1800     2.2470     1.1190 H     1 <1>   0.0800 
 40 H        7.4640    -0.9540     0.4270 H     1 <1>   0.0800 
 41 H        7.1420     0.0590     1.7970 H     1 <1>   0.0800 
 42 H        9.5600    -0.1450     1.5280 H     1 <1>   0.0800 
 43 H        9.4560     0.3090    -0.1480 H     1 <1>   0.0800 
 44 H        7.7780     6.6380     1.1080 H     1 <1>   0.3700 
 45 H        9.0420     8.6680    -1.5490 H     1 <1>   0.0800 
 46 H        8.0860     7.6550    -2.6100 H     1 <1>   0.0800 
 47 H        9.7800     7.3010    -2.3500 H     1 <1>   0.0800 
@<TRIPOS>BOND
  1   1   2  1   
  2   2   3  ar  
  3   2   4  ar  
  4   3   5  ar  
  5   3  27  1   
  6   4   6  ar  
  7   4  28  1   
  8   5   7  ar  
  9   5  29  1   
 10   6   7  ar  
 11   6  30  1   
 12   7   8  1   
 13   8   9  1   
 14   8  10  1   
 15   8  31  1   
 16   9  11  1   
 17   9  12  1   
 18   9  32  1   
 19  10  13  2   
 20  10  14  am  
 21  11  15  1   
 22  11  33  1   
 23  11  34  1   
 24  12  16  1   
 25  12  35  1   
 26  12  36  1   
 27  14  17  1   
 28  14  37  1   
 29  15  18  1   
 30  15  38  1   
 31  15  39  1   
 32  16  18  1   
 33  16  40  1   
 34  16  41  1   
 35  17  19  2   
 36  17  20  1   
 37  18  42  1   
 38  18  43  1   
 39  19  21  1   
 40  20  22  2   
 41  20  23  1   
 42  21  22  1   
 43  23  24  am  
 44  23  44  1   
 45  24  25  2   
 46  24  26  1   
 47  26  45  1   
 48  26  46  1   
 49  26  47  1   
@<TRIPOS>SUBSTRUCTURE
  1 ****  10 GROUP 4 **** **** 0

# MOE 2024.06 (io_trps.svl 2023.06)
