@<TRIPOS>MOLECULE
NONAME
53 55 1 0 0 
SMALL
USER_CHARGES


@<TRIPOS>ATOM
  1 O       -0.9060     0.4200    -1.1680 O.2   1 <1>  -0.5700 
  2 C       -1.7320     1.0050    -0.4900 C.2   1 <1>   0.5440 
  3 N       -2.8550     0.3180    -0.0780 N.am  1 <1>  -0.6600 
  4 C       -1.5110     2.3940    -0.1510 C.ar  1 <1>   0.0860 
  5 C       -3.2330    -0.9780    -0.7410 C.3   1 <1>   0.1400 
  6 C       -3.7910     0.8050     0.9870 C.3   1 <1>   0.1400 
  7 C       -2.4450     3.3830    -0.4680 C.ar  1 <1>  -0.1500 
  8 C       -0.3460     2.8010     0.4990 C.ar  1 <1>  -0.1500 
  9 C       -4.4090    -1.6570    -0.0260 C.3   1 <1>   0.2000 
 10 C       -5.2140     0.7190     0.4390 C.3   1 <1>  -0.1600 
 11 C       -2.2350     4.7060    -0.1340 C.ar  1 <1>  -0.1500 
 12 C       -0.1360     4.1240     0.8350 C.ar  1 <1>  -0.1500 
 13 O       -4.7600    -2.8330    -0.6700 O.3   1 <1>  -0.6800 
 14 C       -5.6560    -0.7510     0.1410 C.3   1 <1>  -0.1060 
 15 C       -1.0770     5.1010     0.5290 C.ar  1 <1>   0.1000 
 16 C       -6.3910    -1.4050     1.3150 C.2   1 <1>   0.9060 
 17 C       -6.5600    -0.7510    -1.1300 C.3   1 <1>  -0.0170 
 18 N       -0.8510     6.4260     0.8760 N.pl3 1 <1>  -0.8380 
 19 O       -6.4170    -0.8590     2.4230 O.co2 1 <1>  -0.9000 
 20 O       -6.8700    -2.5370     1.1390 O.co2 1 <1>  -0.9000 
 21 C       -7.6710     0.2980    -1.1250 C.ar  1 <1>  -0.1430 
 22 C        0.3750     7.1190     0.4010 C.3   1 <1>   0.1290 
 23 C       -1.9520     7.2990     1.3590 C.3   1 <1>   0.1290 
 24 C       -8.7480     0.1760    -0.2620 C.ar  1 <1>  -0.1500 
 25 C       -7.6200     1.3820    -1.9900 C.ar  1 <1>  -0.1500 
 26 C       -9.7560     1.1250    -0.2560 C.ar  1 <1>  -0.1500 
 27 C       -8.6270     2.3310    -1.9890 C.ar  1 <1>  -0.1500 
 28 C       -9.6970     2.2040    -1.1210 C.ar  1 <1>  -0.1500 
 29 H       -3.5020    -0.7770    -1.7620 H     1 <1>   0.0800 
 30 H       -2.3850    -1.6390    -0.7300 H     1 <1>   0.0800 
 31 H       -3.7010     0.1860     1.8650 H     1 <1>   0.0800 
 32 H       -3.5710     1.8150     1.2760 H     1 <1>   0.0800 
 33 H       -3.3440     3.0970    -0.9850 H     1 <1>   0.1500 
 34 H        0.3940     2.0580     0.7390 H     1 <1>   0.1500 
 35 H       -4.0560    -1.9500     0.9500 H     1 <1>   0.0800 
 36 H       -5.8990     1.1780     1.1310 H     1 <1>   0.0800 
 37 H       -5.2400     1.3110    -0.4580 H     1 <1>   0.0800 
 38 H       -2.9670     5.4450    -0.3940 H     1 <1>   0.1500 
 39 H        0.7620     4.4150     1.3470 H     1 <1>   0.1500 
 40 H       -5.5630    -3.1680    -0.1870 H     1 <1>   0.4000 
 41 H       -5.9390    -0.5950    -1.9930 H     1 <1>   0.0800 
 42 H       -7.0190    -1.7160    -1.2570 H     1 <1>   0.0800 
 43 H        0.9230     7.5030     1.2430 H     1 <1>   0.0800 
 44 H        0.1070     7.9310    -0.2510 H     1 <1>   0.0800 
 45 H        1.0030     6.4350    -0.1430 H     1 <1>   0.0800 
 46 H       -1.5880     7.9430     2.1400 H     1 <1>   0.0800 
 47 H       -2.7520     6.6980     1.7560 H     1 <1>   0.0800 
 48 H       -2.3270     7.8980     0.5480 H     1 <1>   0.0800 
 49 H       -8.8030    -0.6620     0.4160 H     1 <1>   0.1500 
 50 H       -6.7910     1.4890    -2.6670 H     1 <1>   0.1500 
 51 H      -10.5810     1.0170     0.4250 H     1 <1>   0.1500 
 52 H       -8.5780     3.1680    -2.6630 H     1 <1>   0.1500 
 53 H      -10.4810     2.9400    -1.1150 H     1 <1>   0.1500 
@<TRIPOS>BOND
  1   1   2  2   
  2   2   3  am  
  3   2   4  1   
  4   3   5  1   
  5   3   6  1   
  6   4   7  ar  
  7   4   8  ar  
  8   5   9  1   
  9   5  29  1   
 10   5  30  1   
 11   6  10  1   
 12   6  31  1   
 13   6  32  1   
 14   7  11  ar  
 15   7  33  1   
 16   8  12  ar  
 17   8  34  1   
 18   9  13  1   
 19   9  14  1   
 20   9  35  1   
 21  10  14  1   
 22  10  36  1   
 23  10  37  1   
 24  11  15  ar  
 25  11  38  1   
 26  12  15  ar  
 27  12  39  1   
 28  13  40  1   
 29  14  16  1   
 30  14  17  1   
 31  15  18  1   
 32  16  19  ar  
 33  16  20  ar  
 34  17  21  1   
 35  17  41  1   
 36  17  42  1   
 37  18  22  1   
 38  18  23  1   
 39  21  24  ar  
 40  21  25  ar  
 41  22  43  1   
 42  22  44  1   
 43  22  45  1   
 44  23  46  1   
 45  23  47  1   
 46  23  48  1   
 47  24  26  ar  
 48  24  49  1   
 49  25  27  ar  
 50  25  50  1   
 51  26  28  ar  
 52  26  51  1   
 53  27  28  ar  
 54  27  52  1   
 55  28  53  1   
@<TRIPOS>SUBSTRUCTURE
  1 ****  10 GROUP 4 **** **** 0

# MOE 2024.06 (io_trps.svl 2023.06)
