@<TRIPOS>MOLECULE
NONAME
41 43 1 0 0 
SMALL
USER_CHARGES


@<TRIPOS>ATOM
  1 S        0.9840     0.7240    -1.4070 S.o2  1 <1>   1.3330 
  2 O        0.4310     1.9550    -1.9240 O.2   1 <1>  -0.6500 
  3 O        1.1800    -0.4000    -2.2960 O.2   1 <1>  -0.6500 
  4 N       -0.0310     0.2120    -0.1440 N.am  1 <1>  -0.8490 
  5 C        2.5460     1.0660    -0.5940 C.3   1 <1>  -0.0550 
  6 C       -1.1190    -0.6450    -0.6250 C.3   1 <1>   0.1160 
  7 C       -0.5850     1.3210     0.6400 C.3   1 <1>   0.1160 
  8 C        3.2730    -0.1880    -0.0630 C.3   1 <1>  -0.0800 
  9 C        4.6670     0.0690     0.4850 C.3   1 <1>   0.2890 
 10 C        2.5800    -0.8990     1.1060 C.3   1 <1>   0.1200 
 11 N        4.6850     1.2930     1.3190 N.pl3 1 <1>  -0.8530 
 12 C        4.8460    -1.1500     1.3800 C.3   1 <1>   0.1200 
 13 O        3.5900    -1.3900     1.9410 O.3   1 <1>  -0.5600 
 14 C        5.1720     2.4940     0.9050 C.2   1 <1>   0.4620 
 15 S        5.2270     3.8020     2.0860 S.3   1 <1>  -0.0800 
 16 N        5.5910     2.8050    -0.2630 N.2   1 <1>  -0.5650 
 17 C        5.8870     4.8590     0.8580 C.ar  1 <1>   0.0400 
 18 C        5.9990     4.1290    -0.3110 C.ar  1 <1>   0.2270 
 19 C        6.2500     6.1870     0.9720 C.ar  1 <1>  -0.1500 
 20 C        6.5050     4.7720    -1.4330 C.ar  1 <1>  -0.1500 
 21 C        6.7530     6.8110    -0.1580 C.ar  1 <1>  -0.1500 
 22 C        6.8790     6.1050    -1.3530 C.ar  1 <1>  -0.1500 
 23 H        3.1930     1.5470    -1.3020 H     1 <1>   0.0800 
 24 H        2.3840     1.7610     0.2060 H     1 <1>   0.0800 
 25 H       -1.7360    -0.9630     0.1980 H     1 <1>   0.0800 
 26 H       -0.7140    -1.5230    -1.1000 H     1 <1>   0.0800 
 27 H       -1.7250    -0.1140    -1.3400 H     1 <1>   0.0800 
 28 H       -1.1470     0.9400     1.4750 H     1 <1>   0.0800 
 29 H       -1.2340     1.9280     0.0290 H     1 <1>   0.0800 
 30 H        0.2080     1.9410     1.0210 H     1 <1>   0.0800 
 31 H        3.3620    -0.8970    -0.8680 H     1 <1>   0.0800 
 32 H        5.4160     0.1230    -0.2870 H     1 <1>   0.0800 
 33 H        1.9680    -1.7190     0.7720 H     1 <1>   0.0800 
 34 H        1.9850    -0.2160     1.6870 H     1 <1>   0.0800 
 35 H        4.3730     1.1640     2.2850 H     1 <1>   0.4000 
 36 H        5.5700    -0.9910     2.1600 H     1 <1>   0.0800 
 37 H        5.1160    -2.0130     0.7970 H     1 <1>   0.0800 
 38 H        6.1450     6.7100     1.9060 H     1 <1>   0.1500 
 39 H        6.5990     4.2210    -2.3510 H     1 <1>   0.1500 
 40 H        7.0480     7.8450    -0.1150 H     1 <1>   0.1500 
 41 H        7.2710     6.6030    -2.2230 H     1 <1>   0.1500 
@<TRIPOS>BOND
  1   1   2  2   
  2   1   3  2   
  3   1   4  am  
  4   1   5  1   
  5   4   6  1   
  6   4   7  1   
  7   5   8  1   
  8   5  23  1   
  9   5  24  1   
 10   6  25  1   
 11   6  26  1   
 12   6  27  1   
 13   7  28  1   
 14   7  29  1   
 15   7  30  1   
 16   8   9  1   
 17   8  10  1   
 18   8  31  1   
 19   9  11  1   
 20   9  12  1   
 21   9  32  1   
 22  10  13  1   
 23  10  33  1   
 24  10  34  1   
 25  11  14  1   
 26  11  35  1   
 27  12  13  1   
 28  12  36  1   
 29  12  37  1   
 30  14  15  1   
 31  14  16  2   
 32  15  17  1   
 33  16  18  1   
 34  17  18  ar  
 35  17  19  ar  
 36  18  20  ar  
 37  19  21  ar  
 38  19  38  1   
 39  20  22  ar  
 40  20  39  1   
 41  21  22  ar  
 42  21  40  1   
 43  22  41  1   
@<TRIPOS>SUBSTRUCTURE
  1 ****   5 GROUP 4 **** **** 0

# MOE 2024.06 (io_trps.svl 2023.06)
