@<TRIPOS>MOLECULE
NONAME
43 44 1 0 0 
SMALL
USER_CHARGES


@<TRIPOS>ATOM
  1 CL      -2.6940    -1.4770     2.8260 Cl    1 <1>  -0.1770 
  2 C       -2.5060    -0.2520     1.5970 C.ar  1 <1>   0.1770 
  3 C       -2.5750    -0.6030     0.2540 C.ar  1 <1>  -0.1440 
  4 C       -2.2700     1.0500     1.9960 C.ar  1 <1>  -0.1500 
  5 C       -2.3740     0.3760    -0.7140 C.ar  1 <1>  -0.1500 
  6 C       -2.8620    -2.0430    -0.1290 C.3   1 <1>   0.4870 
  7 C       -2.0880     1.9990     1.0110 C.ar  1 <1>   0.1900 
  8 C       -2.1310     1.6870    -0.3360 C.ar  1 <1>  -0.1500 
  9 N       -4.3190    -2.2700    -0.2030 N.4   1 <1>  -0.9590 
 10 F       -1.8620     3.2350     1.3620 F     1 <1>  -0.1900 
 11 C       -4.6810    -3.7330    -0.2730 C.3   1 <1>   0.3430 
 12 C       -5.0560    -1.4530    -1.2020 C.3   1 <1>   0.3430 
 13 C       -6.1550    -3.9750    -0.6920 C.3   1 <1>   0.2000 
 14 C       -6.5700    -1.5050    -0.9290 C.3   1 <1>  -0.1600 
 15 O       -6.2170    -4.0800    -2.0840 O.3   1 <1>  -0.6800 
 16 C       -7.0470    -2.8090    -0.2120 C.3   1 <1>  -0.1060 
 17 C       -6.7780    -2.7620     1.3030 C.2   1 <1>   0.9060 
 18 C       -8.5480    -3.0830    -0.5060 C.3   1 <1>  -0.1600 
 19 O       -6.1100    -1.8240     1.7630 O.co2 1 <1>  -0.9000 
 20 O       -7.0160    -3.7700     1.9670 O.co2 1 <1>  -0.9000 
 21 C       -9.4900    -1.9970     0.0380 C.3   1 <1>  -0.1600 
 22 C      -10.9520    -2.3370    -0.2640 C.3   1 <1>  -0.2400 
 23 H       -2.2290     1.3130     3.0370 H     1 <1>   0.1500 
 24 H       -2.4060     0.1310    -1.7630 H     1 <1>   0.1500 
 25 H       -2.4340    -2.6990     0.6110 H     1 <1>   0.0800 
 26 H       -2.4100    -2.2670    -1.0810 H     1 <1>   0.0800 
 27 H       -1.9770     2.4610    -1.0670 H     1 <1>   0.1500 
 28 H       -4.7340    -1.9530     0.7170 H     1 <1>   0.4500 
 29 H       -4.0400    -4.2540    -0.9630 H     1 <1>   0.0800 
 30 H       -4.5440    -4.1600     0.7080 H     1 <1>   0.0800 
 31 H       -4.7310    -0.4260    -1.1660 H     1 <1>   0.0800 
 32 H       -4.8610    -1.8440    -2.1870 H     1 <1>   0.0800 
 33 H       -6.4920    -4.9120    -0.2790 H     1 <1>   0.0800 
 34 H       -6.8470    -0.6470    -0.3410 H     1 <1>   0.0800 
 35 H       -7.0690    -1.4020    -1.8760 H     1 <1>   0.0800 
 36 H       -7.1390    -4.2760    -2.3470 H     1 <1>   0.4000 
 37 H       -8.7060    -3.1770    -1.5660 H     1 <1>   0.0800 
 38 H       -8.8190    -4.0220    -0.0510 H     1 <1>   0.0800 
 39 H       -9.3670    -1.9110     1.1060 H     1 <1>   0.0800 
 40 H       -9.2560    -1.0430    -0.4000 H     1 <1>   0.0800 
 41 H      -11.2190    -3.2740     0.1940 H     1 <1>   0.0800 
 42 H      -11.1130    -2.4090    -1.3250 H     1 <1>   0.0800 
 43 H      -11.5950    -1.5710     0.1300 H     1 <1>   0.0800 
@<TRIPOS>BOND
  1   1   2  1   
  2   2   3  ar  
  3   2   4  ar  
  4   3   5  ar  
  5   3   6  1   
  6   4   7  ar  
  7   4  23  1   
  8   5   8  ar  
  9   5  24  1   
 10   6   9  1   
 11   6  25  1   
 12   6  26  1   
 13   7   8  ar  
 14   7  10  1   
 15   8  27  1   
 16   9  11  1   
 17   9  12  1   
 18   9  28  1   
 19  11  13  1   
 20  11  29  1   
 21  11  30  1   
 22  12  14  1   
 23  12  31  1   
 24  12  32  1   
 25  13  15  1   
 26  13  16  1   
 27  13  33  1   
 28  14  16  1   
 29  14  34  1   
 30  14  35  1   
 31  15  36  1   
 32  16  17  1   
 33  16  18  1   
 34  17  19  ar  
 35  17  20  ar  
 36  18  21  1   
 37  18  37  1   
 38  18  38  1   
 39  21  22  1   
 40  21  39  1   
 41  21  40  1   
 42  22  41  1   
 43  22  42  1   
 44  22  43  1   
@<TRIPOS>SUBSTRUCTURE
  1 ****   9 GROUP 4 **** **** 0

# MOE 2024.06 (io_trps.svl 2023.06)
