@<TRIPOS>MOLECULE
NONAME
41 43 1 0 0 
SMALL
USER_CHARGES


@<TRIPOS>ATOM
  1 S        2.6010    -1.3440    -1.7070 S.3   1 <1>  -0.0800 
  2 C        1.5810    -1.4380    -0.2900 C.2   1 <1>   0.1980 
  3 C        2.7060     0.3780    -1.4830 C.2   1 <1>  -0.1100 
  4 N        1.3510    -0.3160     0.2730 N.2   1 <1>  -0.5650 
  5 C        1.0830    -2.8160     0.1230 C.3   1 <1>   0.5230 
  6 C        1.9900     0.7180    -0.4010 C.2   1 <1>   0.0770 
  7 N        0.0190    -2.6870     1.1760 N.4   1 <1>  -0.9590 
  8 C       -0.1930    -3.9270     1.9800 C.3   1 <1>   0.3430 
  9 C       -1.2680    -2.1360     0.6430 C.3   1 <1>   0.3430 
 10 C       -0.9320    -4.9910     1.1680 C.3   1 <1>  -0.1600 
 11 C       -2.0220    -3.1830    -0.1790 C.3   1 <1>  -0.1600 
 12 C       -2.2650    -4.4570     0.6390 C.3   1 <1>   0.4240 
 13 O       -3.0070    -4.0730     1.7320 O.3   1 <1>  -0.6800 
 14 C       -3.0640    -5.5570    -0.0800 C.ar  1 <1>  -0.1430 
 15 C       -3.5750    -6.6240     0.6560 C.ar  1 <1>  -0.1500 
 16 C       -3.3010    -5.5390    -1.4510 C.ar  1 <1>  -0.1500 
 17 C       -4.3020    -7.6510     0.0620 C.ar  1 <1>  -0.1430 
 18 C       -4.0240    -6.5490    -2.0570 C.ar  1 <1>  -0.1500 
 19 C       -4.5220    -7.5970    -1.3090 C.ar  1 <1>  -0.1500 
 20 C       -4.8570    -8.8150     0.9040 C.3   1 <1>   1.1630 
 21 F       -4.0600    -9.1280     1.9190 F     1 <1>  -0.3400 
 22 F       -6.0370    -8.5230     1.4330 F     1 <1>  -0.3400 
 23 F       -5.0240    -9.9320     0.2050 F     1 <1>  -0.3400 
 24 H        3.2920     0.9500    -2.1810 H     1 <1>   0.1500 
 25 H        1.9180    -3.3730     0.5130 H     1 <1>   0.0800 
 26 H        0.6980    -3.3360    -0.7370 H     1 <1>   0.0800 
 27 H        1.8740     1.7200    -0.0180 H     1 <1>   0.1500 
 28 H        0.3880    -1.9480     1.7970 H     1 <1>   0.4500 
 29 H       -0.7900    -3.6870     2.8470 H     1 <1>   0.0800 
 30 H        0.7520    -4.3160     2.3250 H     1 <1>   0.0800 
 31 H       -1.0760    -1.2600     0.0420 H     1 <1>   0.0800 
 32 H       -1.8920    -1.8370     1.4710 H     1 <1>   0.0800 
 33 H       -1.1110    -5.8450     1.7970 H     1 <1>   0.0800 
 34 H       -0.3230    -5.3280     0.3490 H     1 <1>   0.0800 
 35 H       -1.4570    -3.4090    -1.0640 H     1 <1>   0.0800 
 36 H       -2.9650    -2.7740    -0.4940 H     1 <1>   0.0800 
 37 H       -3.9530    -4.2250     1.5260 H     1 <1>   0.4000 
 38 H       -3.4060    -6.6600     1.7210 H     1 <1>   0.1500 
 39 H       -2.9380    -4.7490    -2.0820 H     1 <1>   0.1500 
 40 H       -4.2020    -6.5200    -3.1190 H     1 <1>   0.1500 
 41 H       -5.0850    -8.3710    -1.8060 H     1 <1>   0.1500 
@<TRIPOS>BOND
  1   1   2  1   
  2   1   3  1   
  3   2   4  2   
  4   2   5  1   
  5   3   6  2   
  6   3  24  1   
  7   4   6  1   
  8   5   7  1   
  9   5  25  1   
 10   5  26  1   
 11   6  27  1   
 12   7   8  1   
 13   7   9  1   
 14   7  28  1   
 15   8  10  1   
 16   8  29  1   
 17   8  30  1   
 18   9  11  1   
 19   9  31  1   
 20   9  32  1   
 21  10  12  1   
 22  10  33  1   
 23  10  34  1   
 24  11  12  1   
 25  11  35  1   
 26  11  36  1   
 27  12  13  1   
 28  12  14  1   
 29  13  37  1   
 30  14  15  ar  
 31  14  16  ar  
 32  15  17  ar  
 33  15  38  1   
 34  16  18  ar  
 35  16  39  1   
 36  17  19  ar  
 37  17  20  1   
 38  18  19  ar  
 39  18  40  1   
 40  19  41  1   
 41  20  21  1   
 42  20  22  1   
 43  20  23  1   
@<TRIPOS>SUBSTRUCTURE
  1 ****  12 GROUP 4 **** **** 0

# MOE 2024.06 (io_trps.svl 2023.06)
