@<TRIPOS>MOLECULE
NONAME
47 49 1 0 0 
SMALL
USER_CHARGES


@<TRIPOS>ATOM
  1 O       -4.7750     0.9190     0.1340 O.2   1 <1>  -0.5700 
  2 C       -3.6160     1.1760    -0.0770 C.2   1 <1>   0.5690 
  3 N       -2.8080     0.2680    -0.6800 N.am  1 <1>  -0.7300 
  4 C       -3.0530     2.5250     0.3620 C.3   1 <1>  -0.0190 
  5 C       -3.3020    -0.9780    -1.3200 C.3   1 <1>   0.3080 
  6 C       -2.4700     3.3210    -0.8230 C.3   1 <1>  -0.1600 
  7 C       -2.0200     2.3720     1.5060 C.3   1 <1>  -0.1600 
  8 C       -3.8180    -2.0080    -0.3120 C.2   1 <1>   0.1820 
  9 C       -2.0380     4.7440    -0.4100 C.3   1 <1>   0.2000 
 10 C       -1.0480     3.5610     1.6260 C.3   1 <1>  -0.1600 
 11 N       -4.1750    -3.3010    -0.6660 N.pl3 1 <1>  -0.6290 
 12 C       -4.0230    -1.8740     1.0150 C.2   1 <1>   0.2000 
 13 O       -0.9180     5.0900    -1.1860 O.3   1 <1>  -0.5600 
 14 C       -1.6710     4.8540     1.0940 C.3   1 <1>   0.2000 
 15 C       -4.5950    -3.9230     0.4650 C.cat 1 <1>   0.7910 
 16 C       -4.1920    -3.9750    -1.8680 C.2   1 <1>   0.2290 
 17 N       -4.4980    -3.0650     1.4920 N.pl3 1 <1>  -0.7000 
 18 C       -1.2110     5.6220    -2.4410 C.3   1 <1>   0.0400 
 19 O       -0.7560     5.8700     1.2660 O.3   1 <1>  -0.6800 
 20 C       -5.0420    -5.2630     0.4420 C.2   1 <1>  -0.1290 
 21 C       -4.6190    -5.2700    -1.9200 C.2   1 <1>  -0.1500 
 22 C       -5.0510    -5.9320    -0.7530 C.2   1 <1>  -0.1500 
 23 C       -5.5060    -5.9480     1.7230 C.3   1 <1>  -0.1020 
 24 H       -1.8380     0.5300    -0.8800 H     1 <1>   0.3700 
 25 H       -3.8830     3.0940     0.7460 H     1 <1>   0.0800 
 26 H       -4.1000    -0.7270    -1.9990 H     1 <1>   0.0800 
 27 H       -2.5000    -1.4140    -1.8900 H     1 <1>   0.0800 
 28 H       -3.2070     3.3930    -1.6040 H     1 <1>   0.0800 
 29 H       -1.6160     2.7930    -1.2090 H     1 <1>   0.0800 
 30 H       -2.5600     2.2630     2.4320 H     1 <1>   0.0800 
 31 H       -1.4360     1.4780     1.3730 H     1 <1>   0.0800 
 32 H       -2.8320     5.4460    -0.6040 H     1 <1>   0.0800 
 33 H       -0.1610     3.3520     1.0510 H     1 <1>   0.0800 
 34 H       -0.7590     3.6910     2.6540 H     1 <1>   0.0800 
 35 H       -3.8670    -1.0080     1.6400 H     1 <1>   0.1500 
 36 H       -2.5440     5.0950     1.6760 H     1 <1>   0.0800 
 37 H       -3.8630    -3.4570    -2.7550 H     1 <1>   0.1500 
 38 H       -4.7700    -3.2740     2.4550 H     1 <1>   0.4500 
 39 H       -0.2810     5.8360    -2.9380 H     1 <1>   0.0800 
 40 H       -1.7720     6.5330    -2.3180 H     1 <1>   0.0800 
 41 H       -1.7710     4.9060    -3.0150 H     1 <1>   0.0800 
 42 H       -0.2320     5.9060     0.4330 H     1 <1>   0.4000 
 43 H       -4.6350    -5.8080    -2.8530 H     1 <1>   0.1500 
 44 H       -5.3820    -6.9560    -0.8320 H     1 <1>   0.1500 
 45 H       -6.3480    -5.4250     2.1440 H     1 <1>   0.0800 
 46 H       -4.7100    -5.9710     2.4460 H     1 <1>   0.0800 
 47 H       -5.8080    -6.9620     1.5270 H     1 <1>   0.0800 
@<TRIPOS>BOND
  1   1   2  2   
  2   2   3  am  
  3   2   4  1   
  4   3   5  1   
  5   3  24  1   
  6   4   6  1   
  7   4   7  1   
  8   4  25  1   
  9   5   8  1   
 10   5  26  1   
 11   5  27  1   
 12   6   9  1   
 13   6  28  1   
 14   6  29  1   
 15   7  10  1   
 16   7  30  1   
 17   7  31  1   
 18   8  11  1   
 19   8  12  2   
 20   9  13  1   
 21   9  14  1   
 22   9  32  1   
 23  10  14  1   
 24  10  33  1   
 25  10  34  1   
 26  11  15  ar  
 27  11  16  1   
 28  12  17  1   
 29  12  35  1   
 30  13  18  1   
 31  14  19  1   
 32  14  36  1   
 33  15  17  ar  
 34  15  20  1   
 35  16  21  2   
 36  16  37  1   
 37  17  38  1   
 38  18  39  1   
 39  18  40  1   
 40  18  41  1   
 41  19  42  1   
 42  20  22  2   
 43  20  23  1   
 44  21  22  1   
 45  21  43  1   
 46  22  44  1   
 47  23  45  1   
 48  23  46  1   
 49  23  47  1   
@<TRIPOS>SUBSTRUCTURE
  1 ****   3 GROUP 4 **** **** 0

# MOE 2024.06 (io_trps.svl 2023.06)
