@<TRIPOS>MOLECULE
NONAME
43 45 1 0 0 
SMALL
USER_CHARGES


@<TRIPOS>ATOM
  1 O        2.0700     0.1170     1.6850 O.3   1 <1>  -0.6800 
  2 C        1.7910    -0.2220     0.3620 C.3   1 <1>   0.2000 
  3 C        2.6000    -1.4520    -0.0490 C.3   1 <1>  -0.0800 
  4 C        2.3680     0.8660    -0.5480 C.3   1 <1>   0.3430 
  5 C        3.9840    -0.9000    -0.4150 C.3   1 <1>   0.3430 
  6 C        2.6740    -2.5940     0.9840 C.3   1 <1>   0.0210 
  7 N        3.8320     0.5690    -0.6560 N.4   1 <1>  -0.9590 
  8 C        3.4740    -3.7650     0.4470 C.2   1 <1>   0.1080 
  9 C        4.6110     1.3350     0.3560 C.3   1 <1>   0.4860 
 10 N        4.7160    -3.6660     0.0830 N.2   1 <1>  -0.7070 
 11 C        2.9810    -5.0550     0.2890 C.2   1 <1>  -0.1500 
 12 C        4.5780     2.8100    -0.0060 C.ar  1 <1>  -0.1440 
 13 N        5.0560    -4.9130    -0.3090 N.pl3 1 <1>   0.3000 
 14 C        4.0180    -5.7670    -0.1980 C.2   1 <1>  -0.3320 
 15 C        5.3480     3.2980    -1.0520 C.ar  1 <1>  -0.1500 
 16 C        3.7830     3.6880     0.7140 C.ar  1 <1>  -0.1500 
 17 C        4.0850    -7.2390    -0.5650 C.3   1 <1>  -0.0600 
 18 C        5.3120     4.6440    -1.3750 C.ar  1 <1>  -0.1500 
 19 C        3.7520     5.0330     0.3860 C.ar  1 <1>  -0.1500 
 20 C        4.5150     5.5320    -0.6630 C.ar  1 <1>   0.0730 
 21 C        4.4840     6.9280    -1.0010 C.1   1 <1>   0.4840 
 22 N        4.4570     8.0350    -1.2740 N.1   1 <1>  -0.5570 
 23 H        1.5610    -0.4420     2.3090 H     1 <1>   0.4000 
 24 H        0.7270    -0.3390     0.2460 H     1 <1>   0.0800 
 25 H        2.1700    -1.8510    -0.9510 H     1 <1>   0.0800 
 26 H        2.1730     1.8500    -0.1550 H     1 <1>   0.0800 
 27 H        1.9140     0.7810    -1.5210 H     1 <1>   0.0800 
 28 H        4.3640    -1.4070    -1.2880 H     1 <1>   0.0800 
 29 H        4.6660    -1.0790     0.4010 H     1 <1>   0.0800 
 30 H        1.6820    -2.9280     1.2290 H     1 <1>   0.0800 
 31 H        3.1480    -2.2590     1.8900 H     1 <1>   0.0800 
 32 H        4.1780     0.8320    -1.5860 H     1 <1>   0.4500 
 33 H        4.1920     1.1860     1.3380 H     1 <1>   0.0800 
 34 H        5.6330     0.9950     0.3690 H     1 <1>   0.0800 
 35 H        1.9850    -5.3950     0.5160 H     1 <1>   0.1500 
 36 H        5.9990    -5.1540    -0.6400 H     1 <1>   0.2700 
 37 H        5.9860     2.6430    -1.6220 H     1 <1>   0.1500 
 38 H        3.1830     3.3370     1.5390 H     1 <1>   0.1500 
 39 H        3.1330    -7.7080    -0.3860 H     1 <1>   0.0800 
 40 H        4.8280    -7.7380     0.0310 H     1 <1>   0.0800 
 41 H        4.3330    -7.3550    -1.6050 H     1 <1>   0.0800 
 42 H        5.9160     5.0120    -2.1900 H     1 <1>   0.1500 
 43 H        3.1310     5.7060     0.9540 H     1 <1>   0.1500 
@<TRIPOS>BOND
  1   1   2  1   
  2   1  23  1   
  3   2   3  1   
  4   2   4  1   
  5   2  24  1   
  6   3   5  1   
  7   3   6  1   
  8   3  25  1   
  9   4   7  1   
 10   4  26  1   
 11   4  27  1   
 12   5   7  1   
 13   5  28  1   
 14   5  29  1   
 15   6   8  1   
 16   6  30  1   
 17   6  31  1   
 18   7   9  1   
 19   7  32  1   
 20   8  10  2   
 21   8  11  1   
 22   9  12  1   
 23   9  33  1   
 24   9  34  1   
 25  10  13  1   
 26  11  14  2   
 27  11  35  1   
 28  12  15  ar  
 29  12  16  ar  
 30  13  14  1   
 31  13  36  1   
 32  14  17  1   
 33  15  18  ar  
 34  15  37  1   
 35  16  19  ar  
 36  16  38  1   
 37  17  39  1   
 38  17  40  1   
 39  17  41  1   
 40  18  20  ar  
 41  18  42  1   
 42  19  20  ar  
 43  19  43  1   
 44  20  21  1   
 45  21  22  3   
@<TRIPOS>SUBSTRUCTURE
  1 ****   7 GROUP 4 **** **** 0

# MOE 2024.06 (io_trps.svl 2023.06)
