@<TRIPOS>MOLECULE
NONAME
43 45 1 0 0 
SMALL
USER_CHARGES


@<TRIPOS>ATOM
  1 CL      -0.9660     0.4230    -0.1020 Cl    1 <1>  -0.1770 
  2 C       -0.4270     2.0600     0.1500 C.ar  1 <1>   0.1770 
  3 C       -0.9340     3.0730    -0.6390 C.ar  1 <1>  -0.1500 
  4 C        0.5010     2.3260     1.1360 C.ar  1 <1>  -0.1500 
  5 C       -0.5090     4.3800    -0.4510 C.ar  1 <1>  -0.1440 
  6 C        0.9240     3.6280     1.3240 C.ar  1 <1>  -0.1500 
  7 C        0.4400     4.6800     0.5410 C.ar  1 <1>   0.0860 
  8 C       -1.1020     5.4670    -1.3390 C.3   1 <1>  -0.0960 
  9 C        0.9450     6.0230     0.7820 C.2   1 <1>   0.5440 
 10 O        0.1860     6.9560     0.9590 O.2   1 <1>  -0.5700 
 11 N        2.2970     6.2940     0.7950 N.am  1 <1>  -0.6600 
 12 C        2.8410     7.4470     1.5880 C.3   1 <1>   0.1400 
 13 C        3.2780     5.5510    -0.0480 C.3   1 <1>   0.1400 
 14 C        3.4840     8.5980     0.7640 C.3   1 <1>   0.4230 
 15 C        3.8190     6.4410    -1.1890 C.3   1 <1>  -0.0800 
 16 N        2.9360     8.8100    -0.6360 N.4   1 <1>  -0.9590 
 17 C        5.0250     8.4990     0.7490 C.3   1 <1>   0.1200 
 18 C        5.2760     6.8810    -0.9760 C.3   1 <1>   0.1200 
 19 C        2.8660     7.6000    -1.5300 C.3   1 <1>   0.3430 
 20 C        1.5760     9.4310    -0.5570 C.3   1 <1>   0.2630 
 21 O        5.4930     7.2500     0.3460 O.3   1 <1>  -0.5600 
 22 H       -1.6610     2.8250    -1.3920 H     1 <1>   0.1500 
 23 H        0.8790     1.5230     1.7430 H     1 <1>   0.1500 
 24 H        1.6430     3.8400     2.0980 H     1 <1>   0.1500 
 25 H       -1.6990     5.0430    -2.1260 H     1 <1>   0.0800 
 26 H       -0.3230     6.0550    -1.7860 H     1 <1>   0.0800 
 27 H       -1.7310     6.1130    -0.7510 H     1 <1>   0.0800 
 28 H        2.0500     7.8690     2.1820 H     1 <1>   0.0800 
 29 H        3.5640     7.0660     2.2880 H     1 <1>   0.0800 
 30 H        4.0810     5.1840     0.5700 H     1 <1>   0.0800 
 31 H        2.7980     4.6910    -0.4840 H     1 <1>   0.0800 
 32 H        3.2790     9.4990     1.3170 H     1 <1>   0.0800 
 33 H        3.8360     5.8160    -2.0640 H     1 <1>   0.0800 
 34 H        3.5620     9.4830    -1.0920 H     1 <1>   0.4500 
 35 H        5.3910     8.6470     1.7500 H     1 <1>   0.0800 
 36 H        5.4640     9.2560     0.1240 H     1 <1>   0.0800 
 37 H        5.5640     7.6880    -1.6290 H     1 <1>   0.0800 
 38 H        5.9300     6.0470    -1.1680 H     1 <1>   0.0800 
 39 H        1.8620     7.2070    -1.5040 H     1 <1>   0.0800 
 40 H        3.0550     7.9130    -2.5440 H     1 <1>   0.0800 
 41 H        0.8820     8.7590    -0.0820 H     1 <1>   0.0800 
 42 H        1.2080     9.6590    -1.5440 H     1 <1>   0.0800 
 43 H        1.6100    10.3440     0.0150 H     1 <1>   0.0800 
@<TRIPOS>BOND
  1   1   2  1   
  2   2   3  ar  
  3   2   4  ar  
  4   3   5  ar  
  5   3  22  1   
  6   4   6  ar  
  7   4  23  1   
  8   5   7  ar  
  9   5   8  1   
 10   6   7  ar  
 11   6  24  1   
 12   7   9  1   
 13   8  25  1   
 14   8  26  1   
 15   8  27  1   
 16   9  10  2   
 17   9  11  am  
 18  11  12  1   
 19  11  13  1   
 20  12  14  1   
 21  12  28  1   
 22  12  29  1   
 23  13  15  1   
 24  13  30  1   
 25  13  31  1   
 26  14  16  1   
 27  14  17  1   
 28  14  32  1   
 29  15  18  1   
 30  15  19  1   
 31  15  33  1   
 32  16  19  1   
 33  16  20  1   
 34  16  34  1   
 35  17  21  1   
 36  17  35  1   
 37  17  36  1   
 38  18  21  1   
 39  18  37  1   
 40  18  38  1   
 41  19  39  1   
 42  19  40  1   
 43  20  41  1   
 44  20  42  1   
 45  20  43  1   
@<TRIPOS>SUBSTRUCTURE
  1 ****  11 GROUP 4 **** **** 0

# MOE 2024.06 (io_trps.svl 2023.06)
