@<TRIPOS>MOLECULE
NONAME
54 56 1 0 0 
SMALL
USER_CHARGES


@<TRIPOS>ATOM
  1 O       -0.2390    -2.3400    -1.7750 O.3   1 <1>  -0.6800 
  2 C        0.0660    -1.4860    -0.7250 C.3   1 <1>   0.1200 
  3 C        1.1950    -2.0460     0.1900 C.3   1 <1>   0.0000 
  4 C        2.5800    -2.1840    -0.5130 C.3   1 <1>   0.4230 
  5 C        1.3870    -1.0250     1.3440 C.3   1 <1>  -0.1600 
  6 C        0.7630    -3.4040     0.8220 C.3   1 <1>  -0.1600 
  7 N        2.7240    -3.3350    -1.5000 N.4   1 <1>  -0.9590 
  8 C        3.0930    -0.8200    -1.0260 C.3   1 <1>   0.2090 
  9 C        1.9500     0.3360     0.9020 C.3   1 <1>   0.2090 
 10 C        1.5680    -4.6080     0.3030 C.3   1 <1>  -0.1600 
 11 C        1.8250    -4.4920    -1.1970 C.3   1 <1>   0.3430 
 12 C        2.5640    -2.9510    -2.9370 C.3   1 <1>   0.2630 
 13 N        3.1890     0.1450     0.1030 N.pl3 1 <1>  -0.8380 
 14 C        4.3910     0.2230     0.7730 C.ar  1 <1>   0.4100 
 15 N        4.9120    -0.9250     1.1640 N.ar  1 <1>  -0.6200 
 16 C        5.0230     1.4340     1.0300 C.ar  1 <1>  -0.1430 
 17 C        6.0470    -0.8410     1.8300 C.ar  1 <1>   0.4770 
 18 C        6.2030     1.3780     1.7240 C.ar  1 <1>   0.1600 
 19 C        4.4680     2.7760     0.5630 C.3   1 <1>  -0.0170 
 20 N        6.7310     0.2440     2.1360 N.ar  1 <1>  -0.6200 
 21 C        6.6460    -2.1460     2.2970 C.3   1 <1>  -0.0970 
 22 C        4.8370     3.0330    -0.9030 C.3   1 <1>  -0.1600 
 23 C        4.2940     4.3800    -1.3920 C.3   1 <1>  -0.2400 
 24 H       -1.0850    -2.0720    -2.1950 H     1 <1>   0.4000 
 25 H        0.3290    -0.5330    -1.1490 H     1 <1>   0.0800 
 26 H       -0.8340    -1.3570    -0.1470 H     1 <1>   0.0800 
 27 H        3.2530    -2.4280     0.2920 H     1 <1>   0.0800 
 28 H        2.0730    -1.4260     2.0710 H     1 <1>   0.0800 
 29 H        0.4540    -0.8610     1.8550 H     1 <1>   0.0800 
 30 H        0.8610    -3.3840     1.8950 H     1 <1>   0.0800 
 31 H       -0.2810    -3.5790     0.6220 H     1 <1>   0.0800 
 32 H        3.6880    -3.6700    -1.3720 H     1 <1>   0.4500 
 33 H        2.4390    -0.4170    -1.7770 H     1 <1>   0.0800 
 34 H        4.0730    -0.9440    -1.4530 H     1 <1>   0.0800 
 35 H        2.1730     0.9280     1.7750 H     1 <1>   0.0800 
 36 H        1.2300     0.8800     0.3150 H     1 <1>   0.0800 
 37 H        1.0120    -5.5090     0.4970 H     1 <1>   0.0800 
 38 H        2.5060    -4.6910     0.8260 H     1 <1>   0.0800 
 39 H        0.8780    -4.3580    -1.6950 H     1 <1>   0.0800 
 40 H        2.2670    -5.4040    -1.5650 H     1 <1>   0.0800 
 41 H        1.5830    -2.5430    -3.1120 H     1 <1>   0.0800 
 42 H        2.6900    -3.8150    -3.5700 H     1 <1>   0.0800 
 43 H        3.2990    -2.2150    -3.2180 H     1 <1>   0.0800 
 44 H        6.7420     2.2820     1.9500 H     1 <1>   0.1500 
 45 H        3.3990     2.7910     0.6750 H     1 <1>   0.0800 
 46 H        4.8660     3.5650     1.1750 H     1 <1>   0.0800 
 47 H        7.2060    -1.9910     3.2000 H     1 <1>   0.0800 
 48 H        7.3030    -2.5260     1.5380 H     1 <1>   0.0800 
 49 H        5.8700    -2.8630     2.4900 H     1 <1>   0.0800 
 50 H        5.9080     3.0200    -1.0100 H     1 <1>   0.0800 
 51 H        4.4330     2.2450    -1.5150 H     1 <1>   0.0800 
 52 H        4.7030     5.1860    -0.8090 H     1 <1>   0.0800 
 53 H        3.2210     4.4050    -1.3150 H     1 <1>   0.0800 
 54 H        4.5660     4.5330    -2.4220 H     1 <1>   0.0800 
@<TRIPOS>BOND
  1   1   2  1   
  2   1  24  1   
  3   2   3  1   
  4   2  25  1   
  5   2  26  1   
  6   3   4  1   
  7   3   5  1   
  8   3   6  1   
  9   4   7  1   
 10   4   8  1   
 11   4  27  1   
 12   5   9  1   
 13   5  28  1   
 14   5  29  1   
 15   6  10  1   
 16   6  30  1   
 17   6  31  1   
 18   7  11  1   
 19   7  12  1   
 20   7  32  1   
 21   8  13  1   
 22   8  33  1   
 23   8  34  1   
 24   9  13  1   
 25   9  35  1   
 26   9  36  1   
 27  10  11  1   
 28  10  37  1   
 29  10  38  1   
 30  11  39  1   
 31  11  40  1   
 32  12  41  1   
 33  12  42  1   
 34  12  43  1   
 35  13  14  1   
 36  14  15  ar  
 37  14  16  ar  
 38  15  17  ar  
 39  16  18  ar  
 40  16  19  1   
 41  17  20  ar  
 42  17  21  1   
 43  18  20  ar  
 44  18  44  1   
 45  19  22  1   
 46  19  45  1   
 47  19  46  1   
 48  21  47  1   
 49  21  48  1   
 50  21  49  1   
 51  22  23  1   
 52  22  50  1   
 53  22  51  1   
 54  23  52  1   
 55  23  53  1   
 56  23  54  1   
@<TRIPOS>SUBSTRUCTURE
  1 ****  13 GROUP 4 **** **** 0

# MOE 2024.06 (io_trps.svl 2023.06)
