@<TRIPOS>MOLECULE
NONAME
45 47 1 0 0 
SMALL
USER_CHARGES


@<TRIPOS>ATOM
  1 O       -0.0950    -0.4240    -0.9090 O.2   1 <1>  -0.5700 
  2 C       -0.1510    -1.5830    -0.5600 C.2   1 <1>   0.6900 
  3 N       -0.3890    -1.9570     0.7550 N.am  1 <1>  -0.4690 
  4 N        0.0210    -2.5650    -1.4790 N.am  1 <1>  -0.4900 
  5 C       -0.4490    -3.2900     1.1010 C.2   1 <1>  -0.0410 
  6 C       -0.5570    -0.9010     1.7860 C.3   1 <1>   0.0600 
  7 C       -0.0260    -3.8940    -1.1810 C.2   1 <1>   0.6160 
  8 C       -0.2910    -4.2810     0.1740 C.2   1 <1>   0.0290 
  9 O        0.1590    -4.6670    -2.1000 O.2   1 <1>  -0.5700 
 10 C       -0.3520    -5.6650     0.5360 C.2   1 <1>   0.6160 
 11 O        0.3370    -6.0530     1.4630 O.2   1 <1>  -0.5700 
 12 N       -1.2040    -6.5690    -0.0580 N.am  1 <1>  -0.6600 
 13 C       -2.2530    -6.2700    -1.0660 C.3   1 <1>   0.1400 
 14 C       -1.3690    -7.9530     0.4450 C.3   1 <1>   0.1400 
 15 C       -3.2300    -7.4510    -1.0070 C.3   1 <1>   0.2000 
 16 C       -2.3600    -8.6120    -0.5180 C.3   1 <1>  -0.0800 
 17 O       -4.2240    -7.1970    -0.0550 O.3   1 <1>  -0.5600 
 18 C       -3.1450    -9.7790     0.1080 C.3   1 <1>   0.0200 
 19 C       -5.3330    -6.4970    -0.5260 C.3   1 <1>   0.0400 
 20 C       -2.2760   -10.9880     0.4170 C.2   1 <1>  -0.0400 
 21 O       -2.8180   -12.0130     1.0200 O.3   1 <1>  -0.0190 
 22 C       -0.9850   -11.2830     0.1960 C.2   1 <1>  -0.1500 
 23 N       -1.9620   -12.9730     1.2170 N.2   1 <1>  -0.4100 
 24 C       -0.8470   -12.5600     0.7320 C.2   1 <1>   0.1080 
 25 C        0.4360   -13.3590     0.7460 C.3   1 <1>  -0.0590 
 26 H        0.2270    -2.2880    -2.4320 H     1 <1>   0.3700 
 27 H       -0.6220    -3.5350     2.1380 H     1 <1>   0.1500 
 28 H       -0.7340    -1.3380     2.7530 H     1 <1>   0.0800 
 29 H       -1.3910    -0.2720     1.5250 H     1 <1>   0.0800 
 30 H        0.3330    -0.2970     1.8290 H     1 <1>   0.0800 
 31 H       -2.7430    -5.3350    -0.8630 H     1 <1>   0.0800 
 32 H       -1.7970    -6.2400    -2.0400 H     1 <1>   0.0800 
 33 H       -0.4220    -8.4630     0.4670 H     1 <1>   0.0800 
 34 H       -1.7770    -7.9120     1.4410 H     1 <1>   0.0800 
 35 H       -3.6890    -7.6630    -1.9580 H     1 <1>   0.0800 
 36 H       -1.8040    -8.9800    -1.3620 H     1 <1>   0.0800 
 37 H       -3.9230   -10.0860    -0.5670 H     1 <1>   0.0800 
 38 H       -3.6160    -9.4540     1.0200 H     1 <1>   0.0800 
 39 H       -6.0100    -6.3520     0.2980 H     1 <1>   0.0800 
 40 H       -5.8190    -7.0760    -1.2930 H     1 <1>   0.0800 
 41 H       -5.0230    -5.5410    -0.9100 H     1 <1>   0.0800 
 42 H       -0.2080   -10.7090    -0.2740 H     1 <1>   0.1500 
 43 H        1.2000   -12.8130     1.2680 H     1 <1>   0.0800 
 44 H        0.7590   -13.5480    -0.2620 H     1 <1>   0.0800 
 45 H        0.2780   -14.2990     1.2430 H     1 <1>   0.0800 
@<TRIPOS>BOND
  1   1   2  2   
  2   2   3  am  
  3   2   4  am  
  4   3   5  1   
  5   3   6  1   
  6   4   7  am  
  7   4  26  1   
  8   5   8  2   
  9   5  27  1   
 10   6  28  1   
 11   6  29  1   
 12   6  30  1   
 13   7   8  1   
 14   7   9  2   
 15   8  10  1   
 16  10  11  2   
 17  10  12  am  
 18  12  13  1   
 19  12  14  1   
 20  13  15  1   
 21  13  31  1   
 22  13  32  1   
 23  14  16  1   
 24  14  33  1   
 25  14  34  1   
 26  15  16  1   
 27  15  17  1   
 28  15  35  1   
 29  16  18  1   
 30  16  36  1   
 31  17  19  1   
 32  18  20  1   
 33  18  37  1   
 34  18  38  1   
 35  19  39  1   
 36  19  40  1   
 37  19  41  1   
 38  20  21  1   
 39  20  22  2   
 40  21  23  1   
 41  22  24  1   
 42  22  42  1   
 43  23  24  2   
 44  24  25  1   
 45  25  43  1   
 46  25  44  1   
 47  25  45  1   
@<TRIPOS>SUBSTRUCTURE
  1 ****  12 GROUP 4 **** **** 0

# MOE 2024.06 (io_trps.svl 2023.06)
