@<TRIPOS>MOLECULE
NONAME
47 50 1 0 0 
SMALL
USER_CHARGES


@<TRIPOS>ATOM
  1 O       -0.3950    -0.8160     0.9280 O.2   1 <1>  -0.5700 
  2 C        0.3270    -1.7490     0.6690 C.2   1 <1>   0.5690 
  3 N       -0.0420    -2.7820    -0.1490 N.am  1 <1>  -0.6600 
  4 C        1.7150    -1.7960     1.2740 C.3   1 <1>  -0.0990 
  5 C        0.8910    -3.9090    -0.4010 C.3   1 <1>   0.1400 
  6 C       -1.3860    -2.8680    -0.7770 C.3   1 <1>   0.0600 
  7 C        2.7510    -2.1920     0.2080 C.3   1 <1>  -0.0800 
  8 C        2.3090    -3.3740    -0.6820 C.3   1 <1>  -0.0800 
  9 C        4.1090    -2.5830     0.8000 C.3   1 <1>  -0.1600 
 10 C        3.3950    -4.4430    -0.5130 C.3   1 <1>  -0.1600 
 11 C        4.6560    -3.6590    -0.1380 C.3   1 <1>   0.2200 
 12 N        5.7480    -4.4590     0.5090 N.am  1 <1>  -0.6600 
 13 C        6.9050    -3.8660     1.0040 C.2   1 <1>   0.5440 
 14 C        5.6050    -5.9490     0.5500 C.3   1 <1>   0.0600 
 15 O        7.5830    -4.5150     1.7850 O.2   1 <1>  -0.5700 
 16 C        7.3400    -2.5080     0.6770 C.ar  1 <1>   0.3960 
 17 N        7.2120    -1.9960    -0.5310 N.ar  1 <1>  -0.6200 
 18 C        7.9100    -1.7480     1.7330 C.ar  1 <1>   0.1600 
 19 C        7.6420    -0.7190    -0.6680 C.ar  1 <1>   0.3100 
 20 N        8.3260    -0.5220     1.6470 N.ar  1 <1>  -0.6200 
 21 C        8.1900     0.0190     0.4100 C.ar  1 <1>   0.3100 
 22 C        7.5360    -0.0960    -1.9220 C.ar  1 <1>  -0.1500 
 23 C        8.6000     1.3410     0.1880 C.ar  1 <1>  -0.1500 
 24 C        7.9450     1.1990    -2.1130 C.ar  1 <1>  -0.1500 
 25 C        8.4820     1.9260    -1.0470 C.ar  1 <1>  -0.1500 
 26 H        1.9600    -0.8350     1.6890 H     1 <1>   0.0800 
 27 H        1.6990    -2.5150     2.0730 H     1 <1>   0.0800 
 28 H        0.8970    -4.5400     0.4720 H     1 <1>   0.0800 
 29 H        0.5510    -4.4950    -1.2380 H     1 <1>   0.0800 
 30 H       -1.8880    -3.7600    -0.4460 H     1 <1>   0.0800 
 31 H       -1.2860    -2.8900    -1.8480 H     1 <1>   0.0800 
 32 H       -1.9850    -2.0150    -0.5060 H     1 <1>   0.0800 
 33 H        2.8940    -1.3420    -0.4400 H     1 <1>   0.0800 
 34 H        2.3310    -3.0360    -1.7050 H     1 <1>   0.0800 
 35 H        3.9810    -3.0080     1.7810 H     1 <1>   0.0800 
 36 H        4.7510    -1.7240     0.8610 H     1 <1>   0.0800 
 37 H        3.5320    -5.0100    -1.4160 H     1 <1>   0.0800 
 38 H        3.1160    -5.0940     0.2960 H     1 <1>   0.0800 
 39 H        5.0350    -3.1950    -1.0340 H     1 <1>   0.0800 
 40 H        5.3200    -6.3220    -0.4180 H     1 <1>   0.0800 
 41 H        4.8640    -6.2240     1.2790 H     1 <1>   0.0800 
 42 H        6.5350    -6.4190     0.8200 H     1 <1>   0.0800 
 43 H        7.9970    -2.2400     2.6870 H     1 <1>   0.1500 
 44 H        7.1230    -0.6680    -2.7320 H     1 <1>   0.1500 
 45 H        9.0120     1.8830     1.0200 H     1 <1>   0.1500 
 46 H        7.8600     1.6680    -3.0800 H     1 <1>   0.1500 
 47 H        8.8000     2.9420    -1.2080 H     1 <1>   0.1500 
@<TRIPOS>BOND
  1   1   2  2   
  2   2   3  am  
  3   2   4  1   
  4   3   5  1   
  5   3   6  1   
  6   4   7  1   
  7   4  26  1   
  8   4  27  1   
  9   5   8  1   
 10   5  28  1   
 11   5  29  1   
 12   6  30  1   
 13   6  31  1   
 14   6  32  1   
 15   7   8  1   
 16   7   9  1   
 17   7  33  1   
 18   8  10  1   
 19   8  34  1   
 20   9  11  1   
 21   9  35  1   
 22   9  36  1   
 23  10  11  1   
 24  10  37  1   
 25  10  38  1   
 26  11  12  1   
 27  11  39  1   
 28  12  13  am  
 29  12  14  1   
 30  13  15  2   
 31  13  16  1   
 32  14  40  1   
 33  14  41  1   
 34  14  42  1   
 35  16  17  ar  
 36  16  18  ar  
 37  17  19  ar  
 38  18  20  ar  
 39  18  43  1   
 40  19  21  ar  
 41  19  22  ar  
 42  20  21  ar  
 43  21  23  ar  
 44  22  24  ar  
 45  22  44  1   
 46  23  25  ar  
 47  23  45  1   
 48  24  25  ar  
 49  24  46  1   
 50  25  47  1   
@<TRIPOS>SUBSTRUCTURE
  1 ****   9 GROUP 4 **** **** 0

# MOE 2024.06 (io_trps.svl 2023.06)
