@<TRIPOS>MOLECULE
NONAME
41 43 1 0 0 
SMALL
USER_CHARGES


@<TRIPOS>ATOM
  1 S       -0.1400    -0.3590     1.8200 S.o2  1 <1>   1.5000 
  2 O       -0.7950    -1.5260     2.3720 O.2   1 <1>  -0.6500 
  3 O        0.2380     0.7200     2.7090 O.2   1 <1>  -0.6500 
  4 N       -1.1980     0.3090     0.6770 N.am  1 <1>  -0.8490 
  5 C        1.2580    -0.9020     0.8070 C.2   1 <1>  -0.0220 
  6 C       -2.5490     0.4760     1.2370 C.3   1 <1>   0.1960 
  7 C       -0.6990     1.5780     0.1390 C.3   1 <1>   0.1960 
  8 S        2.7800    -0.0210     0.9330 S.3   1 <1>  -0.0800 
  9 C        1.3920    -1.8900    -0.1040 C.2   1 <1>  -0.1500 
 10 C       -3.5750     0.9440     0.1760 C.3   1 <1>   0.0000 
 11 C       -1.6150     2.0760    -0.9810 C.3   1 <1>  -0.1600 
 12 C        3.5490    -1.0460    -0.2640 C.2   1 <1>  -0.1100 
 13 C        2.6860    -1.9750    -0.7100 C.2   1 <1>  -0.1500 
 14 C       -4.9510     1.1120     0.8530 C.3   1 <1>   0.2000 
 15 C       -3.0590     2.2410    -0.4880 C.3   1 <1>  -0.1600 
 16 C       -3.8360    -0.1740    -0.8510 C.3   1 <1>  -0.1600 
 17 O       -5.7790     1.9020     0.0480 O.3   1 <1>  -0.5600 
 18 C       -5.5400    -0.3030     0.9140 C.3   1 <1>  -0.1600 
 19 C       -4.8760    -1.1030    -0.2150 C.3   1 <1>  -0.1600 
 20 C       -6.8180     2.5450     0.7160 C.3   1 <1>   0.0400 
 21 H       -2.8790    -0.4610     1.6500 H     1 <1>   0.0800 
 22 H       -2.5110     1.1920     2.0420 H     1 <1>   0.0800 
 23 H       -0.6490     2.3180     0.9220 H     1 <1>   0.0800 
 24 H        0.2930     1.4430    -0.2580 H     1 <1>   0.0800 
 25 H        0.6080    -2.5760    -0.3780 H     1 <1>   0.1500 
 26 H       -1.2500     3.0200    -1.3450 H     1 <1>   0.0800 
 27 H       -1.5820     1.3760    -1.7980 H     1 <1>   0.0800 
 28 H        4.5760    -0.8400    -0.5090 H     1 <1>   0.1500 
 29 H        2.9040    -2.7300    -1.4470 H     1 <1>   0.1500 
 30 H       -4.8640     1.5700     1.8240 H     1 <1>   0.0800 
 31 H       -3.6910     2.5180    -1.3140 H     1 <1>   0.0800 
 32 H       -3.0960     3.0410     0.2310 H     1 <1>   0.0800 
 33 H       -4.2650     0.2560    -1.7400 H     1 <1>   0.0800 
 34 H       -2.9410    -0.7040    -1.1250 H     1 <1>   0.0800 
 35 H       -5.2830    -0.7520     1.8570 H     1 <1>   0.0800 
 36 H       -6.6110    -0.3010     0.8180 H     1 <1>   0.0800 
 37 H       -4.3970    -1.9790     0.1870 H     1 <1>   0.0800 
 38 H       -5.6020    -1.4080    -0.9500 H     1 <1>   0.0800 
 39 H       -7.3940     3.0900    -0.0110 H     1 <1>   0.0800 
 40 H       -6.4050     3.2290     1.4370 H     1 <1>   0.0800 
 41 H       -7.4430     1.8150     1.1990 H     1 <1>   0.0800 
@<TRIPOS>BOND
  1   1   2  2   
  2   1   3  2   
  3   1   4  am  
  4   1   5  1   
  5   4   6  1   
  6   4   7  1   
  7   5   8  1   
  8   5   9  2   
  9   6  10  1   
 10   6  21  1   
 11   6  22  1   
 12   7  11  1   
 13   7  23  1   
 14   7  24  1   
 15   8  12  1   
 16   9  13  1   
 17   9  25  1   
 18  10  14  1   
 19  10  15  1   
 20  10  16  1   
 21  11  15  1   
 22  11  26  1   
 23  11  27  1   
 24  12  13  2   
 25  12  28  1   
 26  13  29  1   
 27  14  17  1   
 28  14  18  1   
 29  14  30  1   
 30  15  31  1   
 31  15  32  1   
 32  16  19  1   
 33  16  33  1   
 34  16  34  1   
 35  17  20  1   
 36  18  19  1   
 37  18  35  1   
 38  18  36  1   
 39  19  37  1   
 40  19  38  1   
 41  20  39  1   
 42  20  40  1   
 43  20  41  1   
@<TRIPOS>SUBSTRUCTURE
  1 ****   4 GROUP 4 **** **** 0

# MOE 2024.06 (io_trps.svl 2023.06)
