@<TRIPOS>MOLECULE
NONAME
48 50 1 0 0 
SMALL
USER_CHARGES


@<TRIPOS>ATOM
  1 CL      -0.3710    -0.1210     1.0250 Cl    1 <1>  -0.1770 
  2 C        0.9280    -0.9390     0.1830 C.ar  1 <1>   0.1770 
  3 C        1.1540    -2.2990     0.3910 C.ar  1 <1>  -0.0090 
  4 C        1.6970    -0.1740    -0.6910 C.ar  1 <1>  -0.1440 
  5 S        0.1600    -3.3290     1.5090 S.o2  1 <1>   1.4470 
  6 C        2.1900    -2.8900    -0.3280 C.ar  1 <1>  -0.1500 
  7 C        2.7210    -0.8110    -1.3780 C.ar  1 <1>   0.1770 
  8 C        1.4010     1.3160    -0.8710 C.3   1 <1>  -0.0970 
  9 O        0.9670    -4.4760     1.8680 O.2   1 <1>  -0.6500 
 10 O       -0.4710    -2.5950     2.5780 O.2   1 <1>  -0.6500 
 11 N       -1.0710    -3.9590     0.5240 N.am  1 <1>  -0.8490 
 12 C        2.9700    -2.1570    -1.2040 C.ar  1 <1>  -0.1500 
 13 CL       3.7450     0.0510    -2.5020 Cl    1 <1>  -0.1770 
 14 C       -1.7660    -5.0690     1.2040 C.3   1 <1>   0.1960 
 15 C       -2.0540    -2.9490     0.1010 C.3   1 <1>   0.1960 
 16 C       -2.7350    -5.7830     0.2270 C.3   1 <1>   0.4230 
 17 C       -3.0310    -3.5790    -0.9030 C.3   1 <1>  -0.1600 
 18 N       -3.4040    -7.0140     0.7740 N.4   1 <1>  -0.9590 
 19 C       -3.7900    -4.7850    -0.2860 C.3   1 <1>  -0.1060 
 20 C       -4.2010    -7.7200    -0.2630 C.3   1 <1>   0.3430 
 21 C       -2.5350    -7.9330     1.5570 C.3   1 <1>   0.2630 
 22 C       -4.6660    -4.3240     0.8940 C.2   1 <1>   0.9060 
 23 C       -4.6520    -5.4650    -1.3750 C.3   1 <1>  -0.1600 
 24 C       -5.2540    -6.7840    -0.8640 C.3   1 <1>  -0.1600 
 25 O       -4.8490    -5.1000     1.8460 O.co2 1 <1>  -0.9000 
 26 O       -5.1640    -3.2010     0.8690 O.co2 1 <1>  -0.9000 
 27 H        2.3940    -3.9410    -0.2000 H     1 <1>   0.1500 
 28 H        2.0700     1.7900    -1.5640 H     1 <1>   0.0800 
 29 H        1.4910     1.8240     0.0720 H     1 <1>   0.0800 
 30 H        0.3980     1.4490    -1.2380 H     1 <1>   0.0800 
 31 H        3.7700    -2.6250    -1.7500 H     1 <1>   0.1500 
 32 H       -1.0330    -5.7800     1.5370 H     1 <1>   0.0800 
 33 H       -2.2970    -4.6970     2.0660 H     1 <1>   0.0800 
 34 H       -2.5870    -2.5550     0.9550 H     1 <1>   0.0800 
 35 H       -1.5560    -2.1290    -0.3850 H     1 <1>   0.0800 
 36 H       -2.1370    -6.0860    -0.6150 H     1 <1>   0.0800 
 37 H       -3.7390    -2.8270    -1.2100 H     1 <1>   0.0800 
 38 H       -2.4820    -3.8800    -1.7770 H     1 <1>   0.0800 
 39 H       -4.1070    -6.5750     1.4300 H     1 <1>   0.4500 
 40 H       -3.5460    -8.0710    -1.0430 H     1 <1>   0.0800 
 41 H       -4.6970    -8.5710     0.1760 H     1 <1>   0.0800 
 42 H       -1.7420    -8.3180     0.9380 H     1 <1>   0.0800 
 43 H       -3.1170    -8.7570     1.9360 H     1 <1>   0.0800 
 44 H       -2.1040    -7.4110     2.3960 H     1 <1>   0.0800 
 45 H       -5.4460    -4.7980    -1.6680 H     1 <1>   0.0800 
 46 H       -4.0510    -5.6660    -2.2460 H     1 <1>   0.0800 
 47 H       -5.7530    -7.2860    -1.6730 H     1 <1>   0.0800 
 48 H       -6.0010    -6.5740    -0.1150 H     1 <1>   0.0800 
@<TRIPOS>BOND
  1   1   2  1   
  2   2   3  ar  
  3   2   4  ar  
  4   3   5  1   
  5   3   6  ar  
  6   4   7  ar  
  7   4   8  1   
  8   5   9  2   
  9   5  10  2   
 10   5  11  am  
 11   6  12  ar  
 12   6  27  1   
 13   7  12  ar  
 14   7  13  1   
 15   8  28  1   
 16   8  29  1   
 17   8  30  1   
 18  11  14  1   
 19  11  15  1   
 20  12  31  1   
 21  14  16  1   
 22  14  32  1   
 23  14  33  1   
 24  15  17  1   
 25  15  34  1   
 26  15  35  1   
 27  16  18  1   
 28  16  19  1   
 29  16  36  1   
 30  17  19  1   
 31  17  37  1   
 32  17  38  1   
 33  18  20  1   
 34  18  21  1   
 35  18  39  1   
 36  19  22  1   
 37  19  23  1   
 38  20  24  1   
 39  20  40  1   
 40  20  41  1   
 41  21  42  1   
 42  21  43  1   
 43  21  44  1   
 44  22  25  ar  
 45  22  26  ar  
 46  23  24  1   
 47  23  45  1   
 48  23  46  1   
 49  24  47  1   
 50  24  48  1   
@<TRIPOS>SUBSTRUCTURE
  1 ****  11 GROUP 4 **** **** 0

# MOE 2024.06 (io_trps.svl 2023.06)
