@<TRIPOS>MOLECULE
NONAME
47 49 1 0 0 
SMALL
USER_CHARGES


@<TRIPOS>ATOM
  1 O       -0.4910     0.1360     0.4680 O.2   1 <1>  -0.5700 
  2 C       -1.5510     0.7140     0.4110 C.2   1 <1>   0.6300 
  3 N       -2.7430     0.0440     0.5090 N.am  1 <1>  -0.6600 
  4 C       -1.5180     2.2230     0.1840 C.3   1 <1>  -0.0950 
  5 C       -2.7960    -1.4280     0.7810 C.3   1 <1>   0.1400 
  6 C       -4.0950     0.6370     0.2710 C.3   1 <1>   0.1400 
  7 C       -0.6740     3.0650     1.1040 C.3   1 <1>  -0.2000 
  8 C       -2.1700     3.1370     1.1910 C.3   1 <1>  -0.2000 
  9 C       -1.5230     2.5080    -1.3260 C.3   1 <1>   0.2150 
 10 C       -3.6620    -2.1540    -0.2630 C.3   1 <1>   0.3440 
 11 C       -4.8920    -0.1960    -0.7570 C.3   1 <1>   0.2000 
 12 O       -1.6800     3.8610    -1.5780 O.3   1 <1>  -0.6800 
 13 O       -4.9210    -1.5380    -0.3530 O.3   1 <1>  -0.5600 
 14 C       -3.8390    -3.6230     0.1110 C.ar  1 <1>  -0.1440 
 15 C       -6.3510     0.2870    -0.9330 C.3   1 <1>  -0.0800 
 16 C       -4.8660    -4.0380     0.9480 C.ar  1 <1>  -0.1500 
 17 C       -2.9490    -4.5680    -0.3810 C.ar  1 <1>  -0.1500 
 18 C       -7.1190    -0.5950    -1.9330 C.3   1 <1>  -0.2400 
 19 C       -6.4280     1.7480    -1.4090 C.3   1 <1>  -0.2400 
 20 C       -5.0010    -5.3730     1.2870 C.ar  1 <1>  -0.1500 
 21 C       -3.0830    -5.9030    -0.0430 C.ar  1 <1>  -0.1500 
 22 C       -4.1090    -6.3070     0.7920 C.ar  1 <1>  -0.1500 
 23 H       -1.8080    -1.8540     0.7730 H     1 <1>   0.0800 
 24 H       -3.2130    -1.5920     1.7590 H     1 <1>   0.0800 
 25 H       -4.6370     0.6650     1.2010 H     1 <1>   0.0800 
 26 H       -4.0050     1.6440    -0.0890 H     1 <1>   0.0800 
 27 H       -0.1310     2.5660     1.8890 H     1 <1>   0.1000 
 28 H       -0.1390     3.9140     0.7190 H     1 <1>   0.1000 
 29 H       -2.6680     4.0290     0.8540 H     1 <1>   0.1000 
 30 H       -2.6440     2.7070     2.0570 H     1 <1>   0.1000 
 31 H       -2.3370     1.9940    -1.8070 H     1 <1>   0.0800 
 32 H       -0.5970     2.1840    -1.7690 H     1 <1>   0.0800 
 33 H       -3.1930    -2.0890    -1.2290 H     1 <1>   0.0800 
 34 H       -4.3960    -0.1500    -1.7120 H     1 <1>   0.0800 
 35 H       -1.0170     4.3650    -1.0690 H     1 <1>   0.4000 
 36 H       -6.8430     0.2200     0.0220 H     1 <1>   0.0800 
 37 H       -5.5670    -3.3190     1.3350 H     1 <1>   0.1500 
 38 H       -2.1450    -4.2700    -1.0310 H     1 <1>   0.1500 
 39 H       -6.6470    -0.5740    -2.8990 H     1 <1>   0.0800 
 40 H       -8.1330    -0.2530    -2.0370 H     1 <1>   0.0800 
 41 H       -7.1480    -1.6150    -1.5910 H     1 <1>   0.0800 
 42 H       -5.8860     1.8770    -2.3290 H     1 <1>   0.0800 
 43 H       -6.0260     2.4200    -0.6720 H     1 <1>   0.0800 
 44 H       -7.4520     2.0300    -1.5770 H     1 <1>   0.0800 
 45 H       -5.8020    -5.6840     1.9350 H     1 <1>   0.1500 
 46 H       -2.3880    -6.6290    -0.4290 H     1 <1>   0.1500 
 47 H       -4.2140    -7.3450     1.0550 H     1 <1>   0.1500 
@<TRIPOS>BOND
  1   1   2  2   
  2   2   3  am  
  3   2   4  1   
  4   3   5  1   
  5   3   6  1   
  6   4   7  1   
  7   4   8  1   
  8   4   9  1   
  9   5  10  1   
 10   5  23  1   
 11   5  24  1   
 12   6  11  1   
 13   6  25  1   
 14   6  26  1   
 15   7   8  1   
 16   7  27  1   
 17   7  28  1   
 18   8  29  1   
 19   8  30  1   
 20   9  12  1   
 21   9  31  1   
 22   9  32  1   
 23  10  13  1   
 24  10  14  1   
 25  10  33  1   
 26  11  13  1   
 27  11  15  1   
 28  11  34  1   
 29  12  35  1   
 30  14  16  ar  
 31  14  17  ar  
 32  15  18  1   
 33  15  19  1   
 34  15  36  1   
 35  16  20  ar  
 36  16  37  1   
 37  17  21  ar  
 38  17  38  1   
 39  18  39  1   
 40  18  40  1   
 41  18  41  1   
 42  19  42  1   
 43  19  43  1   
 44  19  44  1   
 45  20  22  ar  
 46  20  45  1   
 47  21  22  ar  
 48  21  46  1   
 49  22  47  1   
@<TRIPOS>SUBSTRUCTURE
  1 ****   3 GROUP 4 **** **** 0

# MOE 2024.06 (io_trps.svl 2023.06)
