@<TRIPOS>MOLECULE
NONAME
38 39 1 0 0 
SMALL
USER_CHARGES


@<TRIPOS>ATOM
  1 O        1.2570    -0.1210     1.5490 O.2   1 <1>  -0.5700 
  2 C        1.5360    -0.4700     0.4160 C.2   1 <1>   0.7150 
  3 N        2.1190     0.4140    -0.4530 N.am  1 <1>  -0.4930 
  4 C        1.2580    -1.8120    -0.0190 C.2   1 <1>   0.0550 
  5 C        2.4910     1.7660    -0.2560 C.2   1 <1>   0.0630 
  6 O        1.5550    -2.2080    -1.2360 O.3   1 <1>  -0.0190 
  7 C        0.7010    -2.8780     0.5970 C.2   1 <1>  -0.1500 
  8 C        2.3500     2.5770     0.8720 C.2   1 <1>   0.1390 
  9 C        3.0840     2.5610    -1.1700 C.2   1 <1>  -0.3020 
 10 N        1.2370    -3.4450    -1.4590 N.2   1 <1>  -0.4100 
 11 C        0.7160    -3.8800    -0.3650 C.2   1 <1>   0.1080 
 12 N        2.8180     3.7760     0.6810 N.2   1 <1>  -0.7070 
 13 N        3.2710     3.7670    -0.5890 N.pl3 1 <1>   0.3140 
 14 C        0.1960    -5.3000    -0.1780 C.3   1 <1>   0.1010 
 15 C        3.8970     4.9510    -1.1940 C.3   1 <1>   0.1570 
 16 C       -1.3050    -5.2950     0.1330 C.3   1 <1>  -0.2400 
 17 C        0.9720    -6.0240     0.9280 C.3   1 <1>  -0.2400 
 18 C        5.3370     5.0600    -0.7470 C.2   1 <1>   0.5690 
 19 O        6.1770     5.3060    -1.5790 O.2   1 <1>  -0.5700 
 20 N        5.6460     4.8920     0.5670 N.am  1 <1>  -0.7300 
 21 C        7.0020     4.9720     1.1640 C.3   1 <1>   0.0600 
 22 H        2.3230     0.0340    -1.3770 H     1 <1>   0.3700 
 23 H        0.3280    -2.9480     1.6020 H     1 <1>   0.1500 
 24 H        1.9060     2.2530     1.7990 H     1 <1>   0.1500 
 25 H        3.3820     2.3440    -2.1790 H     1 <1>   0.1500 
 26 H        0.3480    -5.8330    -1.1010 H     1 <1>   0.0800 
 27 H        3.3600     5.8250    -0.8830 H     1 <1>   0.0800 
 28 H        3.8530     4.8680    -2.2630 H     1 <1>   0.0800 
 29 H       -1.5010    -4.7890     1.0620 H     1 <1>   0.0800 
 30 H       -1.6750    -6.3020     0.2040 H     1 <1>   0.0800 
 31 H       -1.8390    -4.7900    -0.6530 H     1 <1>   0.0800 
 32 H        0.8320    -5.5360     1.8760 H     1 <1>   0.0800 
 33 H        2.0230    -6.0270     0.6950 H     1 <1>   0.0800 
 34 H        0.6390    -7.0440     1.0110 H     1 <1>   0.0800 
 35 H        4.8830     4.5980     1.1970 H     1 <1>   0.3700 
 36 H        7.7230     5.2560     0.4160 H     1 <1>   0.0800 
 37 H        7.2780     4.0130     1.5670 H     1 <1>   0.0800 
 38 H        7.0100     5.7050     1.9510 H     1 <1>   0.0800 
@<TRIPOS>BOND
  1   1   2  2   
  2   2   3  am  
  3   2   4  1   
  4   3   5  1   
  5   3  22  1   
  6   4   6  1   
  7   4   7  2   
  8   5   8  1   
  9   5   9  2   
 10   6  10  1   
 11   7  11  1   
 12   7  23  1   
 13   8  12  2   
 14   8  24  1   
 15   9  13  1   
 16   9  25  1   
 17  10  11  2   
 18  11  14  1   
 19  12  13  1   
 20  13  15  1   
 21  14  16  1   
 22  14  17  1   
 23  14  26  1   
 24  15  18  1   
 25  15  27  1   
 26  15  28  1   
 27  16  29  1   
 28  16  30  1   
 29  16  31  1   
 30  17  32  1   
 31  17  33  1   
 32  17  34  1   
 33  18  19  2   
 34  18  20  am  
 35  20  21  1   
 36  20  35  1   
 37  21  36  1   
 38  21  37  1   
 39  21  38  1   
@<TRIPOS>SUBSTRUCTURE
  1 ****   3 GROUP 4 **** **** 0

# MOE 2024.06 (io_trps.svl 2023.06)
