@<TRIPOS>MOLECULE
NONAME
54 57 1 0 0 
SMALL
USER_CHARGES


@<TRIPOS>ATOM
  1 O        1.8630    -0.5550     3.1710 O.2   1 <1>  -0.5700 
  2 C        1.8510    -1.1370     2.1100 C.2   1 <1>   0.5690 
  3 N        2.3920    -0.5860     0.9610 N.am  1 <1>  -0.4770 
  4 C        1.2070    -2.5370     2.0700 C.3   1 <1>   0.1710 
  5 C        2.2610     0.7820     0.6000 C.ar  1 <1>   0.1170 
  6 C        3.2230    -1.4460     0.0740 C.3   1 <1>   0.1400 
  7 N       -0.2170    -2.5750     1.6320 N.3   1 <1>  -0.8100 
  8 C        3.1030     1.3680    -0.3520 C.ar  1 <1>  -0.1430 
  9 C        1.2660     1.5810     1.1630 C.ar  1 <1>  -0.1500 
 10 C        4.5140    -0.7190    -0.2940 C.3   1 <1>  -0.1600 
 11 C       -0.4810    -1.8830     0.3600 C.3   1 <1>   0.1100 
 12 C       -0.7280    -3.9530     1.5000 C.3   1 <1>   0.1100 
 13 C        2.9480     2.7000    -0.7030 C.ar  1 <1>  -0.1500 
 14 C        4.1980     0.5720    -1.0470 C.3   1 <1>  -0.0170 
 15 C        1.1170     2.9080     0.8090 C.ar  1 <1>  -0.1500 
 16 C       -1.7200    -2.5680    -0.2020 C.3   1 <1>   0.2000 
 17 C       -1.4850    -4.0310     0.1620 C.3   1 <1>  -0.0800 
 18 C        1.9610     3.4790    -0.1260 C.ar  1 <1>  -0.1430 
 19 O       -2.8110    -2.1200     0.5180 O.3   1 <1>  -0.6800 
 20 C       -0.6680    -4.7400    -0.9370 C.3   1 <1>  -0.0170 
 21 C        1.8020     4.9360    -0.5170 C.3   1 <1>  -0.0970 
 22 C       -0.3640    -6.1900    -0.5970 C.ar  1 <1>   0.1670 
 23 N        0.8610    -6.4510    -0.1640 N.ar  1 <1>  -0.6200 
 24 C       -1.3530    -7.1490    -0.7550 C.ar  1 <1>  -0.1500 
 25 C        1.1070    -7.7200     0.1230 C.ar  1 <1>   0.1600 
 26 C       -1.0830    -8.4650    -0.4510 C.ar  1 <1>  -0.1500 
 27 C        0.1880    -8.7490     0.0000 C.ar  1 <1>  -0.1500 
 28 H        1.2600    -2.9390     3.0650 H     1 <1>   0.0800 
 29 H        1.7830    -3.1860     1.4380 H     1 <1>   0.0800 
 30 H        3.4850    -2.3610     0.5750 H     1 <1>   0.0800 
 31 H        2.6640    -1.6830    -0.8150 H     1 <1>   0.0800 
 32 H        0.5930     1.1680     1.8910 H     1 <1>   0.1500 
 33 H        5.0560    -0.4900     0.6080 H     1 <1>   0.0800 
 34 H        5.1320    -1.3530    -0.9040 H     1 <1>   0.0800 
 35 H       -0.6360    -0.8270     0.5090 H     1 <1>   0.0800 
 36 H        0.3410    -2.0260    -0.3180 H     1 <1>   0.0800 
 37 H        0.0670    -4.6770     1.5520 H     1 <1>   0.0800 
 38 H       -1.4070    -4.1430     2.3140 H     1 <1>   0.0800 
 39 H        3.6020     3.1380    -1.4360 H     1 <1>   0.1500 
 40 H        3.8650     0.3340    -2.0420 H     1 <1>   0.0800 
 41 H        5.0910     1.1660    -1.1250 H     1 <1>   0.0800 
 42 H        0.3400     3.4930     1.2690 H     1 <1>   0.1500 
 43 H       -1.8910    -2.3850    -1.2490 H     1 <1>   0.0800 
 44 H       -2.4190    -4.5500     0.2850 H     1 <1>   0.0800 
 45 H       -2.5170    -2.0610     1.4530 H     1 <1>   0.4000 
 46 H        0.2600    -4.2230    -1.1050 H     1 <1>   0.0800 
 47 H       -1.2190    -4.7140    -1.8600 H     1 <1>   0.0800 
 48 H        1.3800     5.5000     0.2960 H     1 <1>   0.0800 
 49 H        1.1510     5.0150    -1.3690 H     1 <1>   0.0800 
 50 H        2.7560     5.3640    -0.7670 H     1 <1>   0.0800 
 51 H       -2.3280    -6.8700    -1.1120 H     1 <1>   0.1500 
 52 H        2.0970    -7.9560     0.4750 H     1 <1>   0.1500 
 53 H       -1.8270    -9.2350    -0.5610 H     1 <1>   0.1500 
 54 H        0.4670    -9.7550     0.2540 H     1 <1>   0.1500 
@<TRIPOS>BOND
  1   1   2  2   
  2   2   3  am  
  3   2   4  1   
  4   3   5  1   
  5   3   6  1   
  6   4   7  1   
  7   4  28  1   
  8   4  29  1   
  9   5   8  ar  
 10   5   9  ar  
 11   6  10  1   
 12   6  30  1   
 13   6  31  1   
 14   7  11  1   
 15   7  12  1   
 16   8  13  ar  
 17   8  14  1   
 18   9  15  ar  
 19   9  32  1   
 20  10  14  1   
 21  10  33  1   
 22  10  34  1   
 23  11  16  1   
 24  11  35  1   
 25  11  36  1   
 26  12  17  1   
 27  12  37  1   
 28  12  38  1   
 29  13  18  ar  
 30  13  39  1   
 31  14  40  1   
 32  14  41  1   
 33  15  18  ar  
 34  15  42  1   
 35  16  17  1   
 36  16  19  1   
 37  16  43  1   
 38  17  20  1   
 39  17  44  1   
 40  18  21  1   
 41  19  45  1   
 42  20  22  1   
 43  20  46  1   
 44  20  47  1   
 45  21  48  1   
 46  21  49  1   
 47  21  50  1   
 48  22  23  ar  
 49  22  24  ar  
 50  23  25  ar  
 51  24  26  ar  
 52  24  51  1   
 53  25  27  ar  
 54  25  52  1   
 55  26  27  ar  
 56  26  53  1   
 57  27  54  1   
@<TRIPOS>SUBSTRUCTURE
  1 ****  11 GROUP 4 **** **** 0

# MOE 2024.06 (io_trps.svl 2023.06)
