@<TRIPOS>MOLECULE
NONAME
49 52 1 0 0 
SMALL
USER_CHARGES


@<TRIPOS>ATOM
  1 S       -0.1730     1.2570     0.0560 S.3   1 <1>  -0.0800 
  2 C        1.4080     2.0210     0.0720 C.2   1 <1>  -0.1400 
  3 C        0.5320    -0.3410     0.1950 C.2   1 <1>  -0.1400 
  4 C        2.3720     1.0800     0.1770 C.2   1 <1>  -0.1500 
  5 C        1.3600     3.5380    -0.0340 C.3   1 <1>   0.5230 
  6 C        1.8730    -0.2580     0.2470 C.2   1 <1>  -0.1500 
  7 C       -0.4180    -1.5190     0.2350 C.3   1 <1>  -0.0600 
  8 N        2.7120     4.1640    -0.0050 N.4   1 <1>  -0.9590 
  9 C        3.4000     3.9330     1.3230 C.3   1 <1>   0.3430 
 10 C        3.5070     3.7960    -1.2240 C.3   1 <1>   0.3430 
 11 C        4.6330     4.8420     1.5440 C.3   1 <1>   0.2200 
 12 C        4.8790     4.4900    -1.3690 C.3   1 <1>  -0.0800 
 13 N        4.5540     6.0400     0.6370 N.am  1 <1>  -0.6600 
 14 C        5.9350     4.0400     1.3920 C.3   1 <1>   0.1200 
 15 C        6.0320     3.5800    -0.9170 C.3   1 <1>   0.1200 
 16 C        5.0000     5.9120    -0.7860 C.3   1 <1>   0.1400 
 17 C        3.9610     7.1890     1.1160 C.2   1 <1>   0.7150 
 18 O        5.8170     3.1000     0.3660 O.3   1 <1>  -0.5600 
 19 O        4.2500     7.5610     2.2340 O.2   1 <1>  -0.5700 
 20 C        2.9390     7.8630     0.3600 C.2   1 <1>   0.0550 
 21 O        2.2280     7.1960    -0.5230 O.3   1 <1>  -0.0190 
 22 C        2.4470     9.1220     0.3590 C.2   1 <1>  -0.1500 
 23 N        1.3240     7.9150    -1.1010 N.2   1 <1>  -0.4100 
 24 C        1.4330     9.0910    -0.5870 C.2   1 <1>   0.1080 
 25 C        0.5580    10.2620    -0.9770 C.3   1 <1>  -0.0590 
 26 H        3.4360     1.2380     0.2120 H     1 <1>   0.1500 
 27 H        0.7680     3.9200     0.7820 H     1 <1>   0.0800 
 28 H        0.8590     3.8040    -0.9510 H     1 <1>   0.0800 
 29 H        2.5440    -1.0970     0.3340 H     1 <1>   0.1500 
 30 H        0.1330    -2.4390     0.3210 H     1 <1>   0.0800 
 31 H       -1.0040    -1.5500    -0.6660 H     1 <1>   0.0800 
 32 H       -1.0790    -1.4310     1.0780 H     1 <1>   0.0800 
 33 H        2.5740     5.1830    -0.0640 H     1 <1>   0.4500 
 34 H        2.7010     4.1320     2.1180 H     1 <1>   0.0800 
 35 H        3.6990     2.9030     1.4180 H     1 <1>   0.0800 
 36 H        3.6620     2.7300    -1.2490 H     1 <1>   0.0800 
 37 H        2.9210     4.0490    -2.0920 H     1 <1>   0.0800 
 38 H        4.6120     5.1820     2.5660 H     1 <1>   0.0800 
 39 H        5.0360     4.6030    -2.4270 H     1 <1>   0.0800 
 40 H        6.1110     3.4830     2.2960 H     1 <1>   0.0800 
 41 H        6.7860     4.6800     1.2240 H     1 <1>   0.0800 
 42 H        6.9830     4.0880    -0.9490 H     1 <1>   0.0800 
 43 H        6.0940     2.7210    -1.5640 H     1 <1>   0.0800 
 44 H        4.4430     6.5900    -1.4090 H     1 <1>   0.0800 
 45 H        6.0300     6.2270    -0.8430 H     1 <1>   0.0800 
 46 H        2.7560     9.9630     0.9540 H     1 <1>   0.1500 
 47 H        0.8360    11.1420    -0.4260 H     1 <1>   0.0800 
 48 H       -0.4710    10.0320    -0.7700 H     1 <1>   0.0800 
 49 H        0.6650    10.4610    -2.0280 H     1 <1>   0.0800 
@<TRIPOS>BOND
  1   1   2  1   
  2   1   3  1   
  3   2   4  2   
  4   2   5  1   
  5   3   6  2   
  6   3   7  1   
  7   4   6  1   
  8   4  26  1   
  9   5   8  1   
 10   5  27  1   
 11   5  28  1   
 12   6  29  1   
 13   7  30  1   
 14   7  31  1   
 15   7  32  1   
 16   8   9  1   
 17   8  10  1   
 18   8  33  1   
 19   9  11  1   
 20   9  34  1   
 21   9  35  1   
 22  10  12  1   
 23  10  36  1   
 24  10  37  1   
 25  11  13  1   
 26  11  14  1   
 27  11  38  1   
 28  12  15  1   
 29  12  16  1   
 30  12  39  1   
 31  13  16  1   
 32  13  17  am  
 33  14  18  1   
 34  14  40  1   
 35  14  41  1   
 36  15  18  1   
 37  15  42  1   
 38  15  43  1   
 39  16  44  1   
 40  16  45  1   
 41  17  19  2   
 42  17  20  1   
 43  20  21  1   
 44  20  22  2   
 45  21  23  1   
 46  22  24  1   
 47  22  46  1   
 48  23  24  2   
 49  24  25  1   
 50  25  47  1   
 51  25  48  1   
 52  25  49  1   
@<TRIPOS>SUBSTRUCTURE
  1 ****   8 GROUP 4 **** **** 0

# MOE 2024.06 (io_trps.svl 2023.06)
