@<TRIPOS>MOLECULE
NONAME
26 26 1 0 0 
SMALL
USER_CHARGES


@<TRIPOS>ATOM
  1 O       -0.1990     0.6590    -0.0410 O.2   1 <1>  -0.5700 
  2 C       -0.0590     1.8370    -0.1830 C.2   1 <1>   0.4480 
  3 C       -1.2320     2.7450    -0.5100 C.3   1 <1>  -0.0990 
  4 C        1.2960     2.5060    -0.0300 C.3   1 <1>  -0.0990 
  5 C       -0.7420     4.0820    -1.0840 C.3   1 <1>  -0.1600 
  6 C        1.1430     3.8710     0.6590 C.3   1 <1>  -0.1600 
  7 C        0.1970     4.8600    -0.1020 C.3   1 <1>  -0.1060 
  8 C        1.0780     5.8950    -0.8390 C.2   1 <1>   0.9060 
  9 C       -0.6420     5.6180     0.9680 C.3   1 <1>   0.1200 
 10 O        1.7480     6.6900    -0.1650 O.co2 1 <1>  -0.9000 
 11 O        1.1220     5.9170    -2.0750 O.co2 1 <1>  -0.9000 
 12 O       -1.7610     6.3030     0.4690 O.3   1 <1>  -0.5600 
 13 C       -1.4710     7.4650    -0.2490 C.3   1 <1>   0.0400 
 14 H       -1.8020     2.9170     0.3840 H     1 <1>   0.0800 
 15 H       -1.8650     2.2520    -1.2240 H     1 <1>   0.0800 
 16 H        1.7350     2.6390    -1.0020 H     1 <1>   0.0800 
 17 H        1.9420     1.8710     0.5480 H     1 <1>   0.0800 
 18 H       -1.5790     4.6900    -1.3750 H     1 <1>   0.0800 
 19 H       -0.2050     3.8640    -1.9910 H     1 <1>   0.0800 
 20 H        2.1180     4.3150     0.7790 H     1 <1>   0.0800 
 21 H        0.7710     3.6870     1.6510 H     1 <1>   0.0800 
 22 H       -0.0270     6.3130     1.5150 H     1 <1>   0.0800 
 23 H       -1.0350     4.9100     1.6740 H     1 <1>   0.0800 
 24 H       -2.3740     8.0410    -0.3350 H     1 <1>   0.0800 
 25 H       -1.1240     7.1980    -1.2320 H     1 <1>   0.0800 
 26 H       -0.7180     8.0350     0.2680 H     1 <1>   0.0800 
@<TRIPOS>BOND
  1   1   2  2   
  2   2   3  1   
  3   2   4  1   
  4   3   5  1   
  5   3  14  1   
  6   3  15  1   
  7   4   6  1   
  8   4  16  1   
  9   4  17  1   
 10   5   7  1   
 11   5  18  1   
 12   5  19  1   
 13   6   7  1   
 14   6  20  1   
 15   6  21  1   
 16   7   8  1   
 17   7   9  1   
 18   8  10  ar  
 19   8  11  ar  
 20   9  12  1   
 21   9  22  1   
 22   9  23  1   
 23  12  13  1   
 24  13  24  1   
 25  13  25  1   
 26  13  26  1   
@<TRIPOS>SUBSTRUCTURE
  1 ****   7 GROUP 4 **** **** 0

# MOE 2024.06 (io_trps.svl 2023.06)
