@<TRIPOS>MOLECULE
NONAME
56 59 1 0 0 
SMALL
USER_CHARGES


@<TRIPOS>ATOM
  1 O       -1.7200     1.9170    -0.5320 O.co2 1 <1>  -0.9000 
  2 C       -2.1300     2.1140     0.6180 C.2   1 <1>   0.9060 
  3 O       -1.3730     2.1800     1.5920 O.co2 1 <1>  -0.9000 
  4 C       -3.6160     2.3300     0.8320 C.3   1 <1>  -0.1220 
  5 C       -4.4530     1.0490     0.8500 C.ar  1 <1>  -0.1440 
  6 C       -5.3600     0.8140     1.8700 C.ar  1 <1>  -0.1500 
  7 C       -4.3110     0.1110    -0.1580 C.ar  1 <1>  -0.1500 
  8 C       -6.1240    -0.3390     1.8780 C.ar  1 <1>  -0.1500 
  9 C       -5.0680    -1.0450    -0.1540 C.ar  1 <1>  -0.1500 
 10 C       -5.9870    -1.2720     0.8600 C.ar  1 <1>  -0.1440 
 11 C       -6.8420    -2.5170     0.8350 C.3   1 <1>   0.4870 
 12 N       -7.8670    -2.3160    -0.2210 N.4   1 <1>  -0.9590 
 13 C       -8.8490    -1.2510     0.1850 C.3   1 <1>   0.3430 
 14 C       -8.5530    -3.5790    -0.6070 C.3   1 <1>   0.3430 
 15 C       -9.8270    -0.9130    -0.9520 C.3   1 <1>   0.1430 
 16 C       -9.4900    -3.3080    -1.7880 C.3   1 <1>  -0.1600 
 17 C      -10.8600     0.0430    -0.4090 C.ar  1 <1>   0.1670 
 18 C      -10.5080    -2.1950    -1.4770 C.3   1 <1>  -0.1600 
 19 C       -9.1630    -0.0880    -2.0890 C.3   1 <1>  -0.1600 
 20 N      -11.5100    -0.1360     0.7110 N.ar  1 <1>  -0.6200 
 21 C      -11.0250     1.1260    -1.2140 C.ar  1 <1>  -0.1430 
 22 C      -10.1340     1.0600    -2.4300 C.3   1 <1>  -0.0170 
 23 C      -12.3750     0.8370     1.0180 C.ar  1 <1>   0.7200 
 24 C      -11.9310     2.0750    -0.8170 C.ar  1 <1>   0.1600 
 25 N      -12.6090     1.9390     0.2990 N.ar  1 <1>  -0.6200 
 26 N      -13.0860     0.6880     2.1900 N.pl3 1 <1>  -0.8380 
 27 C      -13.8150     1.8310     2.8100 C.3   1 <1>   0.1290 
 28 C      -13.3670    -0.6440     2.7900 C.3   1 <1>   0.1290 
 29 H       -3.9620     2.9650     0.0400 H     1 <1>   0.0800 
 30 H       -3.7290     2.8630     1.7560 H     1 <1>   0.0800 
 31 H       -5.4650     1.5350     2.6630 H     1 <1>   0.1500 
 32 H       -3.5930     0.2870    -0.9450 H     1 <1>   0.1500 
 33 H       -6.8170    -0.4920     2.6870 H     1 <1>   0.1500 
 34 H       -4.9160    -1.7540    -0.9490 H     1 <1>   0.1500 
 35 H       -7.3080    -2.6760     1.7940 H     1 <1>   0.0800 
 36 H       -6.2220    -3.3680     0.6020 H     1 <1>   0.0800 
 37 H       -7.3540    -1.9500    -1.0320 H     1 <1>   0.4500 
 38 H       -8.3290    -0.3510     0.4710 H     1 <1>   0.0800 
 39 H       -9.4180    -1.5870     1.0360 H     1 <1>   0.0800 
 40 H       -9.1260    -3.9530     0.2270 H     1 <1>   0.0800 
 41 H       -7.8280    -4.3270    -0.8870 H     1 <1>   0.0800 
 42 H      -10.0230    -4.2140    -2.0220 H     1 <1>   0.0800 
 43 H       -8.9080    -3.0520    -2.6550 H     1 <1>   0.0800 
 44 H      -11.0930    -1.9700    -2.3540 H     1 <1>   0.0800 
 45 H      -11.1920    -2.5550    -0.7260 H     1 <1>   0.0800 
 46 H       -8.9430    -0.6760    -2.9620 H     1 <1>   0.0800 
 47 H       -8.2460     0.3500    -1.7330 H     1 <1>   0.0800 
 48 H      -10.7250     0.8190    -3.2970 H     1 <1>   0.0800 
 49 H       -9.6120     1.9880    -2.5910 H     1 <1>   0.0800 
 50 H      -12.1040     2.9540    -1.4150 H     1 <1>   0.1500 
 51 H      -13.2990     2.7560     2.6150 H     1 <1>   0.0800 
 52 H      -13.8770     1.6960     3.8750 H     1 <1>   0.0800 
 53 H      -14.8070     1.8910     2.3980 H     1 <1>   0.0800 
 54 H      -13.1820    -1.4310     2.0800 H     1 <1>   0.0800 
 55 H      -14.3980    -0.7010     3.0930 H     1 <1>   0.0800 
 56 H      -12.7380    -0.7920     3.6500 H     1 <1>   0.0800 
@<TRIPOS>BOND
  1   1   2  ar  
  2   2   3  ar  
  3   2   4  1   
  4   4   5  1   
  5   4  29  1   
  6   4  30  1   
  7   5   6  ar  
  8   5   7  ar  
  9   6   8  ar  
 10   6  31  1   
 11   7   9  ar  
 12   7  32  1   
 13   8  10  ar  
 14   8  33  1   
 15   9  10  ar  
 16   9  34  1   
 17  10  11  1   
 18  11  12  1   
 19  11  35  1   
 20  11  36  1   
 21  12  13  1   
 22  12  14  1   
 23  12  37  1   
 24  13  15  1   
 25  13  38  1   
 26  13  39  1   
 27  14  16  1   
 28  14  40  1   
 29  14  41  1   
 30  15  17  1   
 31  15  18  1   
 32  15  19  1   
 33  16  18  1   
 34  16  42  1   
 35  16  43  1   
 36  17  20  ar  
 37  17  21  ar  
 38  18  44  1   
 39  18  45  1   
 40  19  22  1   
 41  19  46  1   
 42  19  47  1   
 43  20  23  ar  
 44  21  22  1   
 45  21  24  ar  
 46  22  48  1   
 47  22  49  1   
 48  23  25  ar  
 49  23  26  1   
 50  24  25  ar  
 51  24  50  1   
 52  26  27  1   
 53  26  28  1   
 54  27  51  1   
 55  27  52  1   
 56  27  53  1   
 57  28  54  1   
 58  28  55  1   
 59  28  56  1   
@<TRIPOS>SUBSTRUCTURE
  1 ****  13 GROUP 4 **** **** 0

# MOE 2024.06 (io_trps.svl 2023.06)
