@<TRIPOS>MOLECULE
NONAME
54 56 1 0 0 
SMALL
USER_CHARGES


@<TRIPOS>ATOM
  1 O        0.6970    -0.2540     1.1440 O.2   1 <1>  -0.5700 
  2 C        1.5060    -1.0190     0.6460 C.2   1 <1>   0.6900 
  3 N        1.0850    -2.2470     0.2030 N.am  1 <1>  -0.6600 
  4 N        2.8250    -0.6420     0.5350 N.am  1 <1>  -0.6600 
  5 C        1.5150    -2.7900    -1.1100 C.3   1 <1>   0.1400 
  6 C       -0.1320    -2.8720     0.7760 C.3   1 <1>   0.1400 
  7 C        3.9390    -1.6110     0.7130 C.3   1 <1>   0.0600 
  8 C        3.2150     0.7880     0.6450 C.3   1 <1>   0.0600 
  9 C        1.7400    -4.2990    -0.9930 C.3   1 <1>  -0.1600 
 10 C        0.0770    -4.3840     0.9010 C.3   1 <1>  -0.1600 
 11 C        0.4910    -5.0170    -0.4410 C.3   1 <1>  -0.0190 
 12 C        0.7030    -6.5280    -0.2910 C.2   1 <1>   0.5690 
 13 O        1.7900    -6.9270     0.0600 O.2   1 <1>  -0.5700 
 14 N       -0.3230    -7.4020    -0.5370 N.am  1 <1>  -0.6600 
 15 C       -1.7290    -7.0610    -0.8700 C.3   1 <1>   0.1400 
 16 C       -0.1730    -8.8700    -0.3750 C.3   1 <1>   0.1400 
 17 C       -2.4820    -8.3930    -0.8670 C.3   1 <1>   0.2000 
 18 C       -1.5910    -9.3830    -0.1190 C.3   1 <1>  -0.0800 
 19 O       -3.7050    -8.2790    -0.2240 O.3   1 <1>  -0.6800 
 20 C       -1.8230   -10.8380    -0.5600 C.3   1 <1>  -0.0170 
 21 C       -0.9340   -11.8060     0.2030 C.ar  1 <1>   0.1670 
 22 N        0.2900   -11.9770    -0.2720 N.ar  1 <1>  -0.6200 
 23 C       -1.4250   -12.4460     1.3310 C.ar  1 <1>  -0.1500 
 24 C        1.0570   -12.8150     0.4060 C.ar  1 <1>   0.1600 
 25 C       -0.6150   -13.3180     2.0270 C.ar  1 <1>  -0.1500 
 26 C        0.6610   -13.5000     1.5420 C.ar  1 <1>  -0.1500 
 27 H        0.7440    -2.5900    -1.8350 H     1 <1>   0.0800 
 28 H        2.4150    -2.3050    -1.4440 H     1 <1>   0.0800 
 29 H       -0.3340    -2.4530     1.7480 H     1 <1>   0.0800 
 30 H       -0.9700    -2.6580     0.1360 H     1 <1>   0.0800 
 31 H        4.5810    -1.2870     1.5130 H     1 <1>   0.0800 
 32 H        4.5100    -1.6770    -0.1960 H     1 <1>   0.0800 
 33 H        3.5560    -2.5860     0.9600 H     1 <1>   0.0800 
 34 H        4.0400     0.9950    -0.0130 H     1 <1>   0.0800 
 35 H        3.4990     1.0080     1.6590 H     1 <1>   0.0800 
 36 H        2.3870     1.4200     0.3720 H     1 <1>   0.0800 
 37 H        1.9890    -4.7000    -1.9600 H     1 <1>   0.0800 
 38 H        2.5800    -4.4740    -0.3430 H     1 <1>   0.0800 
 39 H        0.8430    -4.5680     1.6360 H     1 <1>   0.0800 
 40 H       -0.8300    -4.8370     1.2570 H     1 <1>   0.0800 
 41 H       -0.3000    -4.8530    -1.1490 H     1 <1>   0.0800 
 42 H       -2.1250    -6.3930    -0.1250 H     1 <1>   0.0800 
 43 H       -1.7790    -6.6070    -1.8440 H     1 <1>   0.0800 
 44 H        0.2290    -9.2850    -1.2840 H     1 <1>   0.0800 
 45 H        0.4870    -9.1090     0.4420 H     1 <1>   0.0800 
 46 H       -2.6600    -8.7110    -1.8810 H     1 <1>   0.0800 
 47 H       -1.7670    -9.3010     0.9390 H     1 <1>   0.0800 
 48 H       -3.5730    -8.0820     0.7230 H     1 <1>   0.4000 
 49 H       -1.6270   -10.9410    -1.6130 H     1 <1>   0.0800 
 50 H       -2.8540   -11.0970    -0.3980 H     1 <1>   0.0800 
 51 H       -2.4300   -12.2650     1.6650 H     1 <1>   0.1500 
 52 H        2.0570   -12.9640     0.0350 H     1 <1>   0.1500 
 53 H       -0.9630   -13.8320     2.9060 H     1 <1>   0.1500 
 54 H        1.3460   -14.1650     2.0360 H     1 <1>   0.1500 
@<TRIPOS>BOND
  1   1   2  2   
  2   2   3  am  
  3   2   4  am  
  4   3   5  1   
  5   3   6  1   
  6   4   7  1   
  7   4   8  1   
  8   5   9  1   
  9   5  27  1   
 10   5  28  1   
 11   6  10  1   
 12   6  29  1   
 13   6  30  1   
 14   7  31  1   
 15   7  32  1   
 16   7  33  1   
 17   8  34  1   
 18   8  35  1   
 19   8  36  1   
 20   9  11  1   
 21   9  37  1   
 22   9  38  1   
 23  10  11  1   
 24  10  39  1   
 25  10  40  1   
 26  11  12  1   
 27  11  41  1   
 28  12  13  2   
 29  12  14  am  
 30  14  15  1   
 31  14  16  1   
 32  15  17  1   
 33  15  42  1   
 34  15  43  1   
 35  16  18  1   
 36  16  44  1   
 37  16  45  1   
 38  17  18  1   
 39  17  19  1   
 40  17  46  1   
 41  18  20  1   
 42  18  47  1   
 43  19  48  1   
 44  20  21  1   
 45  20  49  1   
 46  20  50  1   
 47  21  22  ar  
 48  21  23  ar  
 49  22  24  ar  
 50  23  25  ar  
 51  23  51  1   
 52  24  26  ar  
 53  24  52  1   
 54  25  26  ar  
 55  25  53  1   
 56  26  54  1   
@<TRIPOS>SUBSTRUCTURE
  1 ****  12 GROUP 4 **** **** 0

# MOE 2024.06 (io_trps.svl 2023.06)
