@<TRIPOS>MOLECULE
NONAME
49 51 1 0 0 
SMALL
USER_CHARGES


@<TRIPOS>ATOM
  1 O        0.0800     1.3730     1.3900 O.2   1 <1>  -0.5700 
  2 C       -0.0410     2.4580     0.8820 C.2   1 <1>   0.5690 
  3 N       -0.9010     3.3680     1.3860 N.am  1 <1>  -0.7300 
  4 C        0.7550     2.8170    -0.3720 C.3   1 <1>   0.1810 
  5 C       -1.1810     4.6820     0.7560 C.3   1 <1>   0.3640 
  6 O        0.8840     4.2120    -0.5350 O.3   1 <1>  -0.5600 
  7 C       -2.6810     4.7630     0.4700 C.ar  1 <1>  -0.1440 
  8 C       -0.3490     4.9300    -0.5360 C.3   1 <1>   0.2610 
  9 C       -3.3640     5.9430     0.7230 C.ar  1 <1>  -0.1500 
 10 C       -3.3840     3.6860    -0.0520 C.ar  1 <1>  -0.1500 
 11 C       -0.0790     6.4330    -0.6970 C.2   1 <1>   0.5690 
 12 C       -4.7220     6.0710     0.4500 C.ar  1 <1>   0.0830 
 13 C       -4.7410     3.7900    -0.3020 C.ar  1 <1>  -0.1500 
 14 O       -1.0010     7.2140    -0.7120 O.2   1 <1>  -0.5700 
 15 N        1.2070     6.8650    -0.8000 N.am  1 <1>  -0.7300 
 16 O       -5.3310     7.2720     0.6520 O.3   1 <1>  -0.3630 
 17 C       -5.4280     4.9650    -0.0500 C.ar  1 <1>   0.0830 
 18 C        1.6410     8.2720    -0.9580 C.3   1 <1>   0.1400 
 19 C       -4.6570     8.4530     0.2660 C.3   1 <1>   0.0400 
 20 O       -6.7620     4.9180    -0.3340 O.3   1 <1>  -0.3630 
 21 C        2.2100     8.7940     0.3630 C.3   1 <1>   0.0200 
 22 C       -7.6820     5.8120     0.2500 C.3   1 <1>   0.0400 
 23 C        2.6590    10.2450     0.2610 C.2   1 <1>  -0.3320 
 24 N        3.2390    10.9040     1.2830 N.pl3 1 <1>   0.0330 
 25 C        2.5880    11.1310    -0.7600 C.2   1 <1>   0.0770 
 26 C        3.4830    12.1450     0.8140 C.2   1 <1>   0.0360 
 27 N        3.1080    12.3220    -0.4090 N.2   1 <1>  -0.5650 
 28 H       -1.4770     3.1040     2.1880 H     1 <1>   0.3700 
 29 H        0.2680     2.4120    -1.2400 H     1 <1>   0.0800 
 30 H        1.7430     2.4010    -0.2980 H     1 <1>   0.0800 
 31 H       -0.9260     5.4440     1.4730 H     1 <1>   0.0800 
 32 H       -0.9130     4.6030    -1.3910 H     1 <1>   0.0800 
 33 H       -2.8280     6.7790     1.1320 H     1 <1>   0.1500 
 34 H       -2.8880     2.7540    -0.2640 H     1 <1>   0.1500 
 35 H       -5.2810     2.9490    -0.6970 H     1 <1>   0.1500 
 36 H        1.9370     6.1440    -0.7910 H     1 <1>   0.3700 
 37 H        2.3870     8.3320    -1.7310 H     1 <1>   0.0800 
 38 H        0.8000     8.8800    -1.2510 H     1 <1>   0.0800 
 39 H       -5.3820     9.2430     0.1910 H     1 <1>   0.0800 
 40 H       -4.1870     8.2930    -0.6890 H     1 <1>   0.0800 
 41 H       -3.9250     8.7010     1.0120 H     1 <1>   0.0800 
 42 H        3.0510     8.1860     0.6480 H     1 <1>   0.0800 
 43 H        1.4520     8.7160     1.1230 H     1 <1>   0.0800 
 44 H       -8.6720     5.4240     0.0950 H     1 <1>   0.0800 
 45 H       -7.5870     6.7690    -0.2310 H     1 <1>   0.0800 
 46 H       -7.4760     5.8900     1.3030 H     1 <1>   0.0800 
 47 H        3.4520    10.5510     2.2200 H     1 <1>   0.2700 
 48 H        2.1840    10.9810    -1.7480 H     1 <1>   0.1500 
 49 H        3.9490    12.9040     1.4180 H     1 <1>   0.1500 
@<TRIPOS>BOND
  1   1   2  2   
  2   2   3  am  
  3   2   4  1   
  4   3   5  1   
  5   3  28  1   
  6   4   6  1   
  7   4  29  1   
  8   4  30  1   
  9   5   7  1   
 10   5   8  1   
 11   5  31  1   
 12   6   8  1   
 13   7   9  ar  
 14   7  10  ar  
 15   8  11  1   
 16   8  32  1   
 17   9  12  ar  
 18   9  33  1   
 19  10  13  ar  
 20  10  34  1   
 21  11  14  2   
 22  11  15  am  
 23  12  16  1   
 24  12  17  ar  
 25  13  17  ar  
 26  13  35  1   
 27  15  18  1   
 28  15  36  1   
 29  16  19  1   
 30  17  20  1   
 31  18  21  1   
 32  18  37  1   
 33  18  38  1   
 34  19  39  1   
 35  19  40  1   
 36  19  41  1   
 37  20  22  1   
 38  21  23  1   
 39  21  42  1   
 40  21  43  1   
 41  22  44  1   
 42  22  45  1   
 43  22  46  1   
 44  23  24  1   
 45  23  25  2   
 46  24  26  1   
 47  24  47  1   
 48  25  27  1   
 49  25  48  1   
 50  26  27  2   
 51  26  49  1   
@<TRIPOS>SUBSTRUCTURE
  1 ****  14 GROUP 4 **** **** 0

# MOE 2024.06 (io_trps.svl 2023.06)
