@<TRIPOS>MOLECULE
NONAME
50 52 1 0 0 
SMALL
USER_CHARGES


@<TRIPOS>ATOM
  1 S       -2.2800    -0.7040    -2.6730 S.3   1 <1>  -0.0800 
  2 C       -2.2750     0.7060    -1.6360 C.2   1 <1>   0.1980 
  3 C       -2.4120    -1.7050    -1.2580 C.2   1 <1>  -0.1100 
  4 N       -2.3720     0.4470    -0.3950 N.2   1 <1>  -0.5650 
  5 C       -2.1590     2.0570    -2.3020 C.3   1 <1>  -0.0600 
  6 C       -2.4440    -0.9190    -0.1690 C.2   1 <1>   0.0460 
  7 C       -2.5620    -1.3750     1.2750 C.3   1 <1>   0.0820 
  8 C       -3.2670    -2.7170     1.3950 C.2   1 <1>   0.5690 
  9 O       -2.5830    -3.6650     1.7080 O.2   1 <1>  -0.5700 
 10 N       -4.6180    -2.8570     1.1550 N.am  1 <1>  -0.6600 
 11 C       -5.4880    -1.7380     0.6730 C.3   1 <1>   0.2200 
 12 C       -5.2290    -4.2180     1.2870 C.3   1 <1>   0.0600 
 13 C       -6.5890    -1.3570     1.6600 C.3   1 <1>  -0.1600 
 14 C       -6.2210    -2.0440    -0.6320 C.3   1 <1>  -0.1600 
 15 C       -7.6200    -0.6120     0.8010 C.3   1 <1>  -0.0800 
 16 C       -7.3790    -1.0370    -0.6530 C.3   1 <1>  -0.0800 
 17 C       -9.0900    -0.9470     1.0940 C.3   1 <1>  -0.1600 
 18 C       -8.7210    -1.5850    -1.1590 C.3   1 <1>  -0.1600 
 19 C       -9.7880    -0.9360    -0.2710 C.3   1 <1>   0.4230 
 20 N      -10.0660     0.4690    -0.7160 N.4   1 <1>  -0.9590 
 21 C      -10.9960     1.1970     0.2070 C.3   1 <1>   0.2630 
 22 C      -10.6290     0.5360    -2.1030 C.3   1 <1>   0.2630 
 23 H       -2.4500    -2.7710    -1.3900 H     1 <1>   0.1500 
 24 H       -2.1770     2.8310    -1.5580 H     1 <1>   0.0800 
 25 H       -2.9780     2.2020    -2.9810 H     1 <1>   0.0800 
 26 H       -1.2330     2.1150    -2.8440 H     1 <1>   0.0800 
 27 H       -3.1050    -0.6470     1.8470 H     1 <1>   0.0800 
 28 H       -1.5770    -1.4460     1.6970 H     1 <1>   0.0800 
 29 H       -4.9070    -0.8510     0.4990 H     1 <1>   0.0800 
 30 H       -6.2860    -4.1600     1.4640 H     1 <1>   0.0800 
 31 H       -4.7770    -4.7460     2.1090 H     1 <1>   0.0800 
 32 H       -5.0530    -4.7770     0.3850 H     1 <1>   0.0800 
 33 H       -7.0220    -2.2360     2.0990 H     1 <1>   0.0800 
 34 H       -6.2020    -0.7290     2.4430 H     1 <1>   0.0800 
 35 H       -5.5700    -1.9140    -1.4780 H     1 <1>   0.0800 
 36 H       -6.5990    -3.0490    -0.6270 H     1 <1>   0.0800 
 37 H       -7.4550     0.4500     0.8850 H     1 <1>   0.0800 
 38 H       -7.0870    -0.1700    -1.2250 H     1 <1>   0.0800 
 39 H       -9.5200    -0.2960     1.8310 H     1 <1>   0.0800 
 40 H       -9.1590    -1.9500     1.4770 H     1 <1>   0.0800 
 41 H       -8.7650    -2.6460    -0.9820 H     1 <1>   0.0800 
 42 H       -8.8530    -1.4340    -2.2140 H     1 <1>   0.0800 
 43 H      -10.6980    -1.5150    -0.2560 H     1 <1>   0.0800 
 44 H       -9.1560     0.9530    -0.7090 H     1 <1>   0.4500 
 45 H      -11.9280     0.6630     0.2970 H     1 <1>   0.0800 
 46 H      -11.2010     2.1840    -0.1730 H     1 <1>   0.0800 
 47 H      -10.5600     1.3000     1.1870 H     1 <1>   0.0800 
 48 H      -11.5380    -0.0400    -2.1670 H     1 <1>   0.0800 
 49 H       -9.9240     0.1520    -2.8220 H     1 <1>   0.0800 
 50 H      -10.8500     1.5580    -2.3660 H     1 <1>   0.0800 
@<TRIPOS>BOND
  1   1   2  1   
  2   1   3  1   
  3   2   4  2   
  4   2   5  1   
  5   3   6  2   
  6   3  23  1   
  7   4   6  1   
  8   5  24  1   
  9   5  25  1   
 10   5  26  1   
 11   6   7  1   
 12   7   8  1   
 13   7  27  1   
 14   7  28  1   
 15   8   9  2   
 16   8  10  am  
 17  10  11  1   
 18  10  12  1   
 19  11  13  1   
 20  11  14  1   
 21  11  29  1   
 22  12  30  1   
 23  12  31  1   
 24  12  32  1   
 25  13  15  1   
 26  13  33  1   
 27  13  34  1   
 28  14  16  1   
 29  14  35  1   
 30  14  36  1   
 31  15  16  1   
 32  15  17  1   
 33  15  37  1   
 34  16  18  1   
 35  16  38  1   
 36  17  19  1   
 37  17  39  1   
 38  17  40  1   
 39  18  19  1   
 40  18  41  1   
 41  18  42  1   
 42  19  20  1   
 43  19  43  1   
 44  20  21  1   
 45  20  22  1   
 46  20  44  1   
 47  21  45  1   
 48  21  46  1   
 49  21  47  1   
 50  22  48  1   
 51  22  49  1   
 52  22  50  1   
@<TRIPOS>SUBSTRUCTURE
  1 ****  11 GROUP 4 **** **** 0

# MOE 2024.06 (io_trps.svl 2023.06)
