@<TRIPOS>MOLECULE
NONAME
48 50 1 0 0 
SMALL
USER_CHARGES


@<TRIPOS>ATOM
  1 O        0.7660    -1.0880    -1.1500 O.3   1 <1>  -0.3570 
  2 C        0.4630    -2.3940    -0.8520 C.2   1 <1>   0.0910 
  3 C        1.9260    -0.4990    -0.5960 C.3   1 <1>   0.0400 
  4 C        0.7150    -3.0020     0.4270 C.2   1 <1>   0.5410 
  5 C       -0.1210    -3.1290    -1.8380 C.2   1 <1>  -0.0500 
  6 O        1.2130    -2.4320     1.3970 O.2   1 <1>  -0.5700 
  7 C        0.3340    -4.3610     0.5760 C.2   1 <1>  -0.1360 
  8 N       -0.4770    -4.4500    -1.6430 N.pl3 1 <1>  -0.6000 
  9 C       -0.2560    -5.0650    -0.4290 C.2   1 <1>  -0.0380 
 10 C       -0.6920    -6.5160    -0.2420 C.3   1 <1>   0.4810 
 11 N       -1.9720    -6.5730     0.5320 N.4   1 <1>  -0.9590 
 12 C       -2.4090    -7.9630     0.9000 C.3   1 <1>   0.4230 
 13 C       -3.0340    -5.8620    -0.2450 C.3   1 <1>   0.3430 
 14 C       -3.6910    -7.8650     1.7470 C.3   1 <1>  -0.1600 
 15 C       -1.3510    -8.7580     1.7050 C.3   1 <1>  -0.1600 
 16 C       -4.3070    -5.7300     0.5870 C.3   1 <1>  -0.1600 
 17 C       -4.8130    -7.1010     1.0370 C.3   1 <1>  -0.1600 
 18 C       -0.2440    -9.4800     0.9040 C.3   1 <1>   0.0960 
 19 N       -0.7530   -10.0530    -0.3580 N.pl3 1 <1>   0.3140 
 20 N       -0.9530    -9.2870    -1.4490 N.2   1 <1>  -0.7070 
 21 C       -1.0920   -11.3340    -0.5890 C.2   1 <1>  -0.3020 
 22 C       -1.3980   -10.1100    -2.3520 C.2   1 <1>   0.1390 
 23 C       -1.5100   -11.4070    -1.8700 C.2   1 <1>  -0.1500 
 24 H        2.1600     0.3820    -1.1670 H     1 <1>   0.0800 
 25 H        2.7420    -1.1980    -0.6480 H     1 <1>   0.0800 
 26 H        1.7260    -0.2220     0.4240 H     1 <1>   0.0800 
 27 H       -0.3140    -2.6910    -2.8050 H     1 <1>   0.1500 
 28 H        0.5410    -4.7900     1.5380 H     1 <1>   0.1500 
 29 H       -0.8470    -4.9680    -2.4560 H     1 <1>   0.4000 
 30 H        0.0850    -7.0270     0.2940 H     1 <1>   0.0800 
 31 H       -0.8100    -6.9860    -1.2040 H     1 <1>   0.0800 
 32 H       -1.8370    -6.0440     1.3990 H     1 <1>   0.4500 
 33 H       -2.6560    -8.5060     0.0010 H     1 <1>   0.0800 
 34 H       -3.2500    -6.4100    -1.1480 H     1 <1>   0.0800 
 35 H       -2.6990    -4.8740    -0.5210 H     1 <1>   0.0800 
 36 H       -3.4700    -7.3900     2.6870 H     1 <1>   0.0800 
 37 H       -4.0510    -8.8560     1.9650 H     1 <1>   0.0800 
 38 H       -1.8660    -9.5420     2.2330 H     1 <1>   0.0800 
 39 H       -0.9100    -8.1340     2.4610 H     1 <1>   0.0800 
 40 H       -5.0650    -5.2470    -0.0050 H     1 <1>   0.0800 
 41 H       -4.1160    -5.1030     1.4410 H     1 <1>   0.0800 
 42 H       -5.6550    -6.9830     1.6990 H     1 <1>   0.0800 
 43 H       -5.1450    -7.6630     0.1790 H     1 <1>   0.0800 
 44 H        0.1690   -10.2780     1.4950 H     1 <1>   0.0800 
 45 H        0.5630    -8.8170     0.6620 H     1 <1>   0.0800 
 46 H       -1.0160   -12.1140     0.1480 H     1 <1>   0.1500 
 47 H       -1.6490    -9.8200    -3.3600 H     1 <1>   0.1500 
 48 H       -1.8560   -12.2640    -2.4220 H     1 <1>   0.1500 
@<TRIPOS>BOND
  1   1   2  1   
  2   1   3  1   
  3   2   4  1   
  4   2   5  2   
  5   3  24  1   
  6   3  25  1   
  7   3  26  1   
  8   4   6  2   
  9   4   7  1   
 10   5   8  1   
 11   5  27  1   
 12   7   9  2   
 13   7  28  1   
 14   8   9  1   
 15   8  29  1   
 16   9  10  1   
 17  10  11  1   
 18  10  30  1   
 19  10  31  1   
 20  11  12  1   
 21  11  13  1   
 22  11  32  1   
 23  12  14  1   
 24  12  15  1   
 25  12  33  1   
 26  13  16  1   
 27  13  34  1   
 28  13  35  1   
 29  14  17  1   
 30  14  36  1   
 31  14  37  1   
 32  15  18  1   
 33  15  38  1   
 34  15  39  1   
 35  16  17  1   
 36  16  40  1   
 37  16  41  1   
 38  17  42  1   
 39  17  43  1   
 40  18  19  1   
 41  18  44  1   
 42  18  45  1   
 43  19  20  1   
 44  19  21  1   
 45  20  22  2   
 46  21  23  2   
 47  21  46  1   
 48  22  23  1   
 49  22  47  1   
 50  23  48  1   
@<TRIPOS>SUBSTRUCTURE
  1 ****  10 GROUP 4 **** **** 0

# MOE 2024.06 (io_trps.svl 2023.06)
