@<TRIPOS>MOLECULE
NONAME
53 54 1 0 0 
SMALL
USER_CHARGES


@<TRIPOS>ATOM
  1 O       -0.7500     0.3290    -1.7420 O.2   1 <1>  -0.5700 
  2 C       -1.6020     0.9000    -1.0920 C.2   1 <1>   0.5440 
  3 N       -2.7050     0.1750    -0.6870 N.am  1 <1>  -0.6600 
  4 C       -1.4540     2.3130    -0.7990 C.ar  1 <1>   0.0860 
  5 C       -2.6500    -1.3160    -0.8300 C.3   1 <1>   0.3200 
  6 C       -4.0080     0.8290    -0.3240 C.3   1 <1>   0.1400 
  7 C       -1.2740     3.2400    -1.8240 C.ar  1 <1>  -0.1500 
  8 C       -1.4950     2.7960     0.5080 C.ar  1 <1>  -0.1500 
  9 C       -3.7200    -1.9780     0.0160 C.2   1 <1>  -0.3320 
 10 C       -5.0760     0.5940    -1.4100 C.3   1 <1>   0.3430 
 11 C       -1.1710     4.5930    -1.5580 C.ar  1 <1>  -0.1500 
 12 C       -1.3920     4.1490     0.7780 C.ar  1 <1>  -0.1500 
 13 N       -3.6760    -2.0550     1.3600 N.pl3 1 <1>   0.0330 
 14 C       -4.8680    -2.5800    -0.3650 C.2   1 <1>   0.0770 
 15 N       -6.4700     0.8980    -0.9340 N.4   1 <1>  -0.9590 
 16 C       -1.2330     5.0580    -0.2550 C.ar  1 <1>  -0.1430 
 17 C       -4.8320    -2.6570     1.7110 C.2   1 <1>   0.0360 
 18 N       -5.5850    -2.9650     0.7040 N.2   1 <1>  -0.5650 
 19 C       -6.9660    -0.1390     0.0340 C.3   1 <1>   0.2630 
 20 C       -7.4060     0.9850    -2.0970 C.3   1 <1>   0.2630 
 21 C       -1.1170     6.5480     0.0430 C.3   1 <1>  -0.0170 
 22 C        0.2720     6.9360     0.5830 C.3   1 <1>  -0.0800 
 23 C        0.3010     8.4230     0.9600 C.3   1 <1>  -0.2400 
 24 C        1.3840     6.6420    -0.4350 C.3   1 <1>  -0.2400 
 25 H       -1.6780    -1.6750    -0.5330 H     1 <1>   0.0800 
 26 H       -2.7880    -1.5730    -1.8670 H     1 <1>   0.0800 
 27 H       -3.8780     1.8890    -0.2090 H     1 <1>   0.0800 
 28 H       -4.3380     0.4410     0.6210 H     1 <1>   0.0800 
 29 H       -1.2090     2.8890    -2.8390 H     1 <1>   0.1500 
 30 H       -1.6030     2.1020     1.3220 H     1 <1>   0.1500 
 31 H       -5.0320    -0.4320    -1.7310 H     1 <1>   0.0800 
 32 H       -4.8370     1.2190    -2.2550 H     1 <1>   0.0800 
 33 H       -1.0310     5.2860    -2.3710 H     1 <1>   0.1500 
 34 H       -1.4270     4.4970     1.7960 H     1 <1>   0.1500 
 35 H       -2.9250    -1.7420     1.9850 H     1 <1>   0.2700 
 36 H       -5.2300    -2.7530    -1.3660 H     1 <1>   0.1500 
 37 H       -6.4660     1.8150    -0.4610 H     1 <1>   0.4500 
 38 H       -5.0840    -2.8570     2.7400 H     1 <1>   0.1500 
 39 H       -7.0300    -1.1030    -0.4450 H     1 <1>   0.0800 
 40 H       -7.9460     0.1250     0.3990 H     1 <1>   0.0800 
 41 H       -6.3000    -0.2280     0.8760 H     1 <1>   0.0800 
 42 H       -7.4440     0.0410    -2.6190 H     1 <1>   0.0800 
 43 H       -7.0800     1.7470    -2.7860 H     1 <1>   0.0800 
 44 H       -8.4010     1.2300    -1.7600 H     1 <1>   0.0800 
 45 H       -1.8650     6.8110     0.7700 H     1 <1>   0.0800 
 46 H       -1.3270     7.1150    -0.8470 H     1 <1>   0.0800 
 47 H        0.4680     6.3600     1.4720 H     1 <1>   0.0800 
 48 H        0.1170     9.0380     0.0970 H     1 <1>   0.0800 
 49 H        1.2600     8.6860     1.3690 H     1 <1>   0.0800 
 50 H       -0.4490     8.6360     1.7020 H     1 <1>   0.0800 
 51 H        1.2100     7.1750    -1.3530 H     1 <1>   0.0800 
 52 H        1.4290     5.5900    -0.6510 H     1 <1>   0.0800 
 53 H        2.3390     6.9400    -0.0410 H     1 <1>   0.0800 
@<TRIPOS>BOND
  1   1   2  2   
  2   2   3  am  
  3   2   4  1   
  4   3   5  1   
  5   3   6  1   
  6   4   7  ar  
  7   4   8  ar  
  8   5   9  1   
  9   5  25  1   
 10   5  26  1   
 11   6  10  1   
 12   6  27  1   
 13   6  28  1   
 14   7  11  ar  
 15   7  29  1   
 16   8  12  ar  
 17   8  30  1   
 18   9  13  1   
 19   9  14  2   
 20  10  15  1   
 21  10  31  1   
 22  10  32  1   
 23  11  16  ar  
 24  11  33  1   
 25  12  16  ar  
 26  12  34  1   
 27  13  17  1   
 28  13  35  1   
 29  14  18  1   
 30  14  36  1   
 31  15  19  1   
 32  15  20  1   
 33  15  37  1   
 34  16  21  1   
 35  17  18  2   
 36  17  38  1   
 37  19  39  1   
 38  19  40  1   
 39  19  41  1   
 40  20  42  1   
 41  20  43  1   
 42  20  44  1   
 43  21  22  1   
 44  21  45  1   
 45  21  46  1   
 46  22  23  1   
 47  22  24  1   
 48  22  47  1   
 49  23  48  1   
 50  23  49  1   
 51  23  50  1   
 52  24  51  1   
 53  24  52  1   
 54  24  53  1   
@<TRIPOS>SUBSTRUCTURE
  1 ****   6 GROUP 4 **** **** 0

# MOE 2024.06 (io_trps.svl 2023.06)
