@<TRIPOS>MOLECULE
NONAME
43 44 1 0 0 
SMALL
USER_CHARGES


@<TRIPOS>ATOM
  1 CL      -1.4700     2.8890    -2.5200 Cl    1 <1>  -0.1770 
  2 C       -0.7610     3.6220    -1.1050 C.ar  1 <1>   0.1770 
  3 C        0.6110     3.7780    -1.0410 C.ar  1 <1>  -0.1500 
  4 C       -1.5820     4.0360    -0.0730 C.ar  1 <1>  -0.1500 
  5 C        1.1810     4.3640     0.0800 C.ar  1 <1>  -0.1440 
  6 C       -1.0150     4.6190     1.0470 C.ar  1 <1>  -0.1500 
  7 C        0.3600     4.7820     1.1190 C.ar  1 <1>  -0.1500 
  8 C        2.6870     4.5580     0.1820 C.3   1 <1>   0.2840 
  9 N        3.0190     5.9990    -0.0090 N.am  1 <1>  -0.6600 
 10 C        3.3470     6.7730     1.0830 C.2   1 <1>   0.5690 
 11 C        2.8350     6.4680    -1.4140 C.3   1 <1>   0.0600 
 12 O        3.4440     6.2810     2.1830 O.2   1 <1>  -0.5700 
 13 C        3.5910     8.2880     1.0070 C.3   1 <1>  -0.0190 
 14 C        2.3490     9.0910     0.5620 C.3   1 <1>  -0.1600 
 15 C        4.8810     8.6670     0.2360 C.3   1 <1>  -0.1600 
 16 C        2.5630    10.6140     0.6810 C.3   1 <1>   0.2000 
 17 C        4.8220    10.0700    -0.3950 C.3   1 <1>  -0.1600 
 18 O        1.7770    11.2370    -0.3070 O.3   1 <1>  -0.5600 
 19 C        4.0460    11.0390     0.5000 C.3   1 <1>   0.2000 
 20 C        0.4310    11.3970     0.0190 C.3   1 <1>   0.0400 
 21 O        4.0940    12.2880    -0.0840 O.3   1 <1>  -0.6800 
 22 H        1.2160     3.4430    -1.8640 H     1 <1>   0.1500 
 23 H       -2.6460     3.9020    -0.1480 H     1 <1>   0.1500 
 24 H       -1.6380     4.9470     1.8610 H     1 <1>   0.1500 
 25 H        0.7990     5.2390     1.9910 H     1 <1>   0.1500 
 26 H        3.1910     3.9730    -0.5670 H     1 <1>   0.0800 
 27 H        3.0260     4.2070     1.1410 H     1 <1>   0.0800 
 28 H        3.2800     5.7630    -2.0950 H     1 <1>   0.0800 
 29 H        3.2930     7.4230    -1.5810 H     1 <1>   0.0800 
 30 H        1.7830     6.5450    -1.6320 H     1 <1>   0.0800 
 31 H        3.7660     8.5940     2.0250 H     1 <1>   0.0800 
 32 H        1.5100     8.8030     1.1710 H     1 <1>   0.0800 
 33 H        2.1130     8.8590    -0.4580 H     1 <1>   0.0800 
 34 H        5.7030     8.6290     0.9300 H     1 <1>   0.0800 
 35 H        5.1010     7.9490    -0.5320 H     1 <1>   0.0800 
 36 H        2.2410    10.9590     1.6490 H     1 <1>   0.0800 
 37 H        4.3300    10.0120    -1.3500 H     1 <1>   0.0800 
 38 H        5.8220    10.4360    -0.5500 H     1 <1>   0.0800 
 39 H        4.5330    11.1040     1.4570 H     1 <1>   0.0800 
 40 H       -0.0550    11.8930    -0.8020 H     1 <1>   0.0800 
 41 H        0.3490    12.0020     0.9050 H     1 <1>   0.0800 
 42 H       -0.0200    10.4320     0.1750 H     1 <1>   0.0800 
 43 H        3.2600    12.3680    -0.6030 H     1 <1>   0.4000 
@<TRIPOS>BOND
  1   1   2  1   
  2   2   3  ar  
  3   2   4  ar  
  4   3   5  ar  
  5   3  22  1   
  6   4   6  ar  
  7   4  23  1   
  8   5   7  ar  
  9   5   8  1   
 10   6   7  ar  
 11   6  24  1   
 12   7  25  1   
 13   8   9  1   
 14   8  26  1   
 15   8  27  1   
 16   9  10  am  
 17   9  11  1   
 18  10  12  2   
 19  10  13  1   
 20  11  28  1   
 21  11  29  1   
 22  11  30  1   
 23  13  14  1   
 24  13  15  1   
 25  13  31  1   
 26  14  16  1   
 27  14  32  1   
 28  14  33  1   
 29  15  17  1   
 30  15  34  1   
 31  15  35  1   
 32  16  18  1   
 33  16  19  1   
 34  16  36  1   
 35  17  19  1   
 36  17  37  1   
 37  17  38  1   
 38  18  20  1   
 39  19  21  1   
 40  19  39  1   
 41  20  40  1   
 42  20  41  1   
 43  20  42  1   
 44  21  43  1   
@<TRIPOS>SUBSTRUCTURE
  1 ****   9 GROUP 4 **** **** 0

# MOE 2024.06 (io_trps.svl 2023.06)
