@<TRIPOS>MOLECULE
NONAME
50 53 1 0 0 
SMALL
USER_CHARGES


@<TRIPOS>ATOM
  1 F       -0.5650    -0.3720     0.0080 F     1 <1>  -0.1900 
  2 C       -1.0740    -1.5700     0.1540 C.ar  1 <1>   0.1900 
  3 C       -0.2690    -2.7080     0.2720 C.ar  1 <1>   0.0820 
  4 C       -2.4520    -1.6520     0.1890 C.ar  1 <1>  -0.1500 
  5 O        1.0950    -2.7560     0.2520 O.3   1 <1>  -0.3630 
  6 C       -0.9050    -3.9300     0.4270 C.ar  1 <1>  -0.1500 
  7 C       -3.0520    -2.8870     0.3460 C.ar  1 <1>  -0.1500 
  8 C        1.9000    -1.6180     0.0400 C.3   1 <1>   0.0400 
  9 C       -2.2960    -4.0550     0.4660 C.ar  1 <1>   0.0530 
 10 C       -2.9160    -5.3500     0.6280 C.2   1 <1>   0.0870 
 11 O       -2.2500    -6.3390     1.1800 O.3   1 <1>  -0.0190 
 12 C       -4.1430    -5.8370     0.3160 C.2   1 <1>  -0.2330 
 13 N       -2.9500    -7.4410     1.2610 N.2   1 <1>  -0.4100 
 14 C       -4.0970    -7.1620     0.7490 C.2   1 <1>   0.3720 
 15 C       -5.2520    -5.2020    -0.3130 C.2   1 <1>   1.0330 
 16 N       -5.1220    -8.1090     0.6660 N.pl3 1 <1>  -0.8210 
 17 O       -6.0650    -4.5480     0.3630 O.co2 1 <1>  -0.9000 
 18 O       -5.4240    -5.2860    -1.5410 O.co2 1 <1>  -0.9000 
 19 C       -6.3440    -7.7180     1.4140 C.3   1 <1>   0.2090 
 20 C       -5.4190    -8.5110    -0.7320 C.3   1 <1>   0.2090 
 21 C       -7.3320    -8.8870     1.4370 C.3   1 <1>  -0.1600 
 22 C       -6.3820    -9.7010    -0.7280 C.3   1 <1>  -0.1600 
 23 C       -7.6970    -9.3940     0.0200 C.3   1 <1>   0.0000 
 24 C       -8.5330    -8.3580    -0.7690 C.3   1 <1>  -0.1600 
 25 C       -8.5370   -10.6830     0.1190 C.3   1 <1>  -0.1600 
 26 C       -9.9590    -8.2190    -0.2240 C.3   1 <1>   0.1200 
 27 C       -9.9590   -10.4100     0.6270 C.3   1 <1>   0.1200 
 28 O      -10.5760    -9.4710    -0.1970 O.3   1 <1>  -0.5600 
 29 H       -3.0500    -0.7640     0.0960 H     1 <1>   0.1500 
 30 H       -0.2980    -4.8130     0.5150 H     1 <1>   0.1500 
 31 H       -4.1270    -2.9410     0.3800 H     1 <1>   0.1500 
 32 H        2.9280    -1.9310     0.0370 H     1 <1>   0.0800 
 33 H        1.7350    -0.9180     0.8400 H     1 <1>   0.0800 
 34 H        1.6480    -1.1830    -0.9110 H     1 <1>   0.0800 
 35 H       -6.8040    -6.8590     0.9610 H     1 <1>   0.0800 
 36 H       -6.0690    -7.4520     2.4210 H     1 <1>   0.0800 
 37 H       -4.5010    -8.7850    -1.2230 H     1 <1>   0.0800 
 38 H       -5.8510    -7.6880    -1.2740 H     1 <1>   0.0800 
 39 H       -8.2080    -8.5770     1.9740 H     1 <1>   0.0800 
 40 H       -6.8750    -9.6820     1.9980 H     1 <1>   0.0800 
 41 H       -5.8800   -10.5280    -0.2590 H     1 <1>   0.0800 
 42 H       -6.5910    -9.9810    -1.7450 H     1 <1>   0.0800 
 43 H       -8.6070    -8.6610    -1.7980 H     1 <1>   0.0800 
 44 H       -8.0640    -7.3900    -0.7650 H     1 <1>   0.0800 
 45 H       -8.0550   -11.3910     0.7700 H     1 <1>   0.0800 
 46 H       -8.6170   -11.1400    -0.8510 H     1 <1>   0.0800 
 47 H      -10.5410    -7.5810    -0.8670 H     1 <1>   0.0800 
 48 H       -9.9670    -7.8060     0.7690 H     1 <1>   0.0800 
 49 H       -9.9570   -10.0350     1.6360 H     1 <1>   0.0800 
 50 H      -10.5470   -11.3100     0.5920 H     1 <1>   0.0800 
@<TRIPOS>BOND
  1   1   2  1   
  2   2   3  ar  
  3   2   4  ar  
  4   3   5  1   
  5   3   6  ar  
  6   4   7  ar  
  7   4  29  1   
  8   5   8  1   
  9   6   9  ar  
 10   6  30  1   
 11   7   9  ar  
 12   7  31  1   
 13   8  32  1   
 14   8  33  1   
 15   8  34  1   
 16   9  10  1   
 17  10  11  1   
 18  10  12  2   
 19  11  13  1   
 20  12  14  1   
 21  12  15  1   
 22  13  14  2   
 23  14  16  1   
 24  15  17  ar  
 25  15  18  ar  
 26  16  19  1   
 27  16  20  1   
 28  19  21  1   
 29  19  35  1   
 30  19  36  1   
 31  20  22  1   
 32  20  37  1   
 33  20  38  1   
 34  21  23  1   
 35  21  39  1   
 36  21  40  1   
 37  22  23  1   
 38  22  41  1   
 39  22  42  1   
 40  23  24  1   
 41  23  25  1   
 42  24  26  1   
 43  24  43  1   
 44  24  44  1   
 45  25  27  1   
 46  25  45  1   
 47  25  46  1   
 48  26  28  1   
 49  26  47  1   
 50  26  48  1   
 51  27  28  1   
 52  27  49  1   
 53  27  50  1   
@<TRIPOS>SUBSTRUCTURE
  1 ****  12 GROUP 4 **** **** 0

# MOE 2024.06 (io_trps.svl 2023.06)
