@<TRIPOS>MOLECULE
NONAME
43 44 1 0 0 
SMALL
USER_CHARGES


@<TRIPOS>ATOM
  1 F       -0.3170     1.6060    -1.1730 F     1 <1>  -0.3400 
  2 C       -0.9470     2.7100    -1.5480 C.3   1 <1>   1.1640 
  3 F       -0.0990     3.7020    -1.3020 F     1 <1>  -0.3400 
  4 F       -1.0340     2.6490    -2.8700 F     1 <1>  -0.3400 
  5 C       -2.3140     2.8530    -0.8380 C.ar  1 <1>  -0.1440 
  6 C       -2.5210     3.3880     0.4500 C.ar  1 <1>  -0.1440 
  7 C       -3.4230     2.3830    -1.5450 C.ar  1 <1>  -0.1500 
  8 C       -3.8200     3.4360     0.9520 C.ar  1 <1>  -0.1500 
  9 C       -1.4560     3.9530     1.4050 C.3   1 <1>   0.4330 
 10 C       -4.6990     2.4390    -1.0240 C.ar  1 <1>  -0.1500 
 11 C       -4.8990     2.9690     0.2300 C.ar  1 <1>  -0.1500 
 12 N       -1.0260     5.2790     0.9180 N.pl3 1 <1>  -0.8690 
 13 C       -0.3240     2.9900     1.7680 C.3   1 <1>  -0.2400 
 14 C        0.1080     5.9380     0.6630 C.ar  1 <1>   0.7710 
 15 N       -0.0390     7.2090     0.3640 N.ar  1 <1>  -0.6200 
 16 N        1.3070     5.3380     0.7050 N.ar  1 <1>  -0.1790 
 17 C        1.0430     7.9120     0.0820 C.ar  1 <1>   0.4100 
 18 C        2.4440     6.0270     0.4560 C.ar  1 <1>   0.2110 
 19 N        0.8400     9.2080    -0.2700 N.pl3 1 <1>  -0.8380 
 20 C        2.3420     7.3440     0.1450 C.ar  1 <1>  -0.1430 
 21 C       -0.1810    10.0480     0.4200 C.3   1 <1>   0.1290 
 22 C        1.2950     9.7660    -1.5740 C.3   1 <1>   0.1290 
 23 C        3.6010     8.1770    -0.0900 C.3   1 <1>  -0.0970 
 24 H       -3.3130     1.9540    -2.5280 H     1 <1>   0.1500 
 25 H       -4.0230     3.8430     1.9280 H     1 <1>   0.1500 
 26 H       -1.9520     4.1430     2.3440 H     1 <1>   0.0800 
 27 H       -5.5350     2.0700    -1.5950 H     1 <1>   0.1500 
 28 H       -5.8930     3.0180     0.6420 H     1 <1>   0.1500 
 29 H       -1.8450     5.8730     0.7470 H     1 <1>   0.4000 
 30 H        0.3190     2.7480     0.9490 H     1 <1>   0.0800 
 31 H       -0.7630     2.0690     2.1100 H     1 <1>   0.0800 
 32 H        0.2500     3.3880     2.5850 H     1 <1>   0.0800 
 33 H        1.2940     4.3430     0.8940 H     1 <1>   0.4570 
 34 H        3.3890     5.5120     0.5170 H     1 <1>   0.1500 
 35 H       -0.4120     9.6370     1.3880 H     1 <1>   0.0800 
 36 H       -1.0830    10.0820    -0.1660 H     1 <1>   0.0800 
 37 H        0.1950    11.0480     0.5530 H     1 <1>   0.0800 
 38 H        1.7440     8.9970    -2.1770 H     1 <1>   0.0800 
 39 H        2.0120    10.5510    -1.4050 H     1 <1>   0.0800 
 40 H        0.4550    10.1680    -2.1140 H     1 <1>   0.0800 
 41 H        3.5200     9.1200     0.4240 H     1 <1>   0.0800 
 42 H        3.7350     8.3690    -1.1390 H     1 <1>   0.0800 
 43 H        4.4780     7.6740     0.2760 H     1 <1>   0.0800 
@<TRIPOS>BOND
  1   1   2  1   
  2   2   3  1   
  3   2   4  1   
  4   2   5  1   
  5   5   6  ar  
  6   5   7  ar  
  7   6   8  ar  
  8   6   9  1   
  9   7  10  ar  
 10   7  24  1   
 11   8  11  ar  
 12   8  25  1   
 13   9  12  1   
 14   9  13  1   
 15   9  26  1   
 16  10  11  ar  
 17  10  27  1   
 18  11  28  1   
 19  12  14  1   
 20  12  29  1   
 21  13  30  1   
 22  13  31  1   
 23  13  32  1   
 24  14  15  ar  
 25  14  16  ar  
 26  15  17  ar  
 27  16  18  ar  
 28  16  33  1   
 29  17  19  1   
 30  17  20  ar  
 31  18  20  ar  
 32  18  34  1   
 33  19  21  1   
 34  19  22  1   
 35  20  23  1   
 36  21  35  1   
 37  21  36  1   
 38  21  37  1   
 39  22  38  1   
 40  22  39  1   
 41  22  40  1   
 42  23  41  1   
 43  23  42  1   
 44  23  43  1   
@<TRIPOS>SUBSTRUCTURE
  1 ****  12 GROUP 4 **** **** 0

# MOE 2024.06 (io_trps.svl 2023.06)
