@<TRIPOS>MOLECULE
NONAME
43 44 1 0 0 
SMALL
USER_CHARGES


@<TRIPOS>ATOM
  1 S       -1.7480    -0.9030     0.7930 S.3   1 <1>  -0.0800 
  2 C       -1.7740    -1.4020    -0.8650 C.2   1 <1>   0.4420 
  3 C       -1.0370     0.5820     0.2580 C.2   1 <1>   0.1980 
  4 N       -1.3030    -0.5050    -1.6520 N.2   1 <1>  -0.3380 
  5 N       -2.2820    -2.6540    -1.1210 N.am  1 <1>  -0.4940 
  6 N       -0.8830     0.6250    -1.0040 N.2   1 <1>  -0.3380 
  7 C       -0.7000     1.6440     1.2910 C.3   1 <1>   0.3000 
  8 C       -2.5230    -3.3080    -2.2900 C.2   1 <1>   0.5690 
  9 O       -0.0180     1.0770     2.3730 O.3   1 <1>  -0.5600 
 10 O       -2.3330    -2.8470    -3.3870 O.2   1 <1>  -0.5700 
 11 C       -3.0840    -4.7240    -2.1510 C.3   1 <1>   0.1710 
 12 C        0.3790     1.9940     3.3410 C.3   1 <1>   0.0400 
 13 N       -3.6740    -4.9930    -0.8020 N.3   1 <1>  -0.8100 
 14 C       -3.6910    -6.4520    -0.5440 C.3   1 <1>   0.1100 
 15 C       -5.0140    -4.3820    -0.6930 C.3   1 <1>   0.1100 
 16 C       -4.1780    -6.8280     0.8630 C.3   1 <1>   0.1400 
 17 C       -5.3770    -4.1610     0.7800 C.3   1 <1>  -0.1600 
 18 N       -5.6560    -6.6630     0.9780 N.am  1 <1>  -0.6600 
 19 C       -6.1350    -5.3270     1.4320 C.3   1 <1>   0.1400 
 20 C       -6.4770    -7.7010     0.6200 C.2   1 <1>   0.5690 
 21 O       -6.0450    -8.7140     0.1250 O.2   1 <1>  -0.5700 
 22 C       -7.9720    -7.6180     0.8290 C.3   1 <1>  -0.1790 
 23 H       -2.5720    -3.2110    -0.3140 H     1 <1>   0.3700 
 24 H       -1.6060     2.0950     1.6550 H     1 <1>   0.0800 
 25 H       -0.0740     2.3950     0.8410 H     1 <1>   0.0800 
 26 H       -2.2640    -5.3980    -2.3290 H     1 <1>   0.0800 
 27 H       -3.8180    -4.8920    -2.9190 H     1 <1>   0.0800 
 28 H        0.8870     1.4560     4.1230 H     1 <1>   0.0800 
 29 H       -0.4890     2.4860     3.7460 H     1 <1>   0.0800 
 30 H        1.0520     2.7100     2.9010 H     1 <1>   0.0800 
 31 H       -2.6870    -6.8270    -0.6450 H     1 <1>   0.0800 
 32 H       -4.3030    -6.9560    -1.2750 H     1 <1>   0.0800 
 33 H       -5.7540    -4.9900    -1.1890 H     1 <1>   0.0800 
 34 H       -5.0070    -3.4190    -1.1760 H     1 <1>   0.0800 
 35 H       -3.6700    -6.2360     1.6040 H     1 <1>   0.0800 
 36 H       -3.9270    -7.8590     1.0480 H     1 <1>   0.0800 
 37 H       -6.0090    -3.2940     0.8470 H     1 <1>   0.0800 
 38 H       -4.4890    -3.9370     1.3450 H     1 <1>   0.0800 
 39 H       -7.1770    -5.2170     1.1920 H     1 <1>   0.0800 
 40 H       -6.0370    -5.2640     2.5020 H     1 <1>   0.0800 
 41 H       -8.1870    -7.3150     1.8360 H     1 <1>   0.0800 
 42 H       -8.4130    -8.5830     0.6600 H     1 <1>   0.0800 
 43 H       -8.3970    -6.9190     0.1350 H     1 <1>   0.0800 
@<TRIPOS>BOND
  1   1   2  1   
  2   1   3  1   
  3   2   4  2   
  4   2   5  1   
  5   3   6  2   
  6   3   7  1   
  7   4   6  1   
  8   5   8  am  
  9   5  23  1   
 10   7   9  1   
 11   7  24  1   
 12   7  25  1   
 13   8  10  2   
 14   8  11  1   
 15   9  12  1   
 16  11  13  1   
 17  11  26  1   
 18  11  27  1   
 19  12  28  1   
 20  12  29  1   
 21  12  30  1   
 22  13  14  1   
 23  13  15  1   
 24  14  16  1   
 25  14  31  1   
 26  14  32  1   
 27  15  17  1   
 28  15  33  1   
 29  15  34  1   
 30  16  18  1   
 31  16  35  1   
 32  16  36  1   
 33  17  19  1   
 34  17  37  1   
 35  17  38  1   
 36  18  19  1   
 37  18  20  am  
 38  19  39  1   
 39  19  40  1   
 40  20  21  2   
 41  20  22  1   
 42  22  41  1   
 43  22  42  1   
 44  22  43  1   
@<TRIPOS>SUBSTRUCTURE
  1 ****   5 GROUP 4 **** **** 0

# MOE 2024.06 (io_trps.svl 2023.06)
