@<TRIPOS>MOLECULE
NONAME
40 42 1 0 0 
SMALL
USER_CHARGES


@<TRIPOS>ATOM
  1 O       -0.4810    -1.0950     0.0670 O.3   1 <1>  -0.5600 
  2 C        0.5060    -1.6270     0.9020 C.3   1 <1>   0.2000 
  3 C       -1.5730    -0.5310     0.7220 C.3   1 <1>   0.0400 
  4 C        1.8660    -1.6550     0.1680 C.3   1 <1>   0.0000 
  5 C        0.1690    -3.1040     1.1390 C.3   1 <1>  -0.1600 
  6 C        2.9690    -1.9330     1.2280 C.3   1 <1>   0.2090 
  7 C        2.1990    -0.3700    -0.6480 C.3   1 <1>  -0.1600 
  8 C        1.7030    -2.8690    -0.7620 C.3   1 <1>  -0.1600 
  9 C        0.8430    -3.8850     0.0010 C.3   1 <1>  -0.1600 
 10 N        4.3250    -1.5510     0.7260 N.pl3 1 <1>  -0.8380 
 11 C        3.1380     0.5750     0.1170 C.3   1 <1>  -0.1600 
 12 C        5.3640    -2.4310     0.5570 C.2   1 <1>   0.2000 
 13 C        4.4880    -0.1000     0.4090 C.3   1 <1>   0.2090 
 14 N        5.0600    -3.7330     0.3370 N.pl3 1 <1>  -0.5500 
 15 C        6.6890    -2.1200     0.5730 C.2   1 <1>  -0.1360 
 16 C        6.0270    -4.6780     0.1480 C.2   1 <1>   0.4400 
 17 C        7.6510    -3.1230     0.3760 C.2   1 <1>   0.7670 
 18 N        7.2810    -4.4270     0.1630 N.2   1 <1>  -0.6610 
 19 O        8.8480    -2.8580     0.3880 O.2   1 <1>  -0.5700 
 20 H        0.5490    -1.0500     1.8110 H     1 <1>   0.0800 
 21 H       -2.2700    -0.1920    -0.0240 H     1 <1>   0.0800 
 22 H       -1.2390     0.3050     1.3120 H     1 <1>   0.0800 
 23 H       -2.0430    -1.2720     1.3450 H     1 <1>   0.0800 
 24 H        0.5870    -3.4160     2.0790 H     1 <1>   0.0800 
 25 H       -0.8920    -3.2790     1.1660 H     1 <1>   0.0800 
 26 H        2.9540    -2.9610     1.5420 H     1 <1>   0.0800 
 27 H        2.7740    -1.3410     2.1060 H     1 <1>   0.0800 
 28 H        2.7020    -0.6560    -1.5560 H     1 <1>   0.0800 
 29 H        1.3100     0.1590    -0.9410 H     1 <1>   0.0800 
 30 H        1.1580    -2.5610    -1.6390 H     1 <1>   0.0800 
 31 H        2.6460    -3.2750    -1.0810 H     1 <1>   0.0800 
 32 H        1.4490    -4.6800     0.4020 H     1 <1>   0.0800 
 33 H        0.1040    -4.3090    -0.6580 H     1 <1>   0.0800 
 34 H        2.6770     0.8760     1.0410 H     1 <1>   0.0800 
 35 H        3.3100     1.4660    -0.4610 H     1 <1>   0.0800 
 36 H        4.9750     0.3970     1.2310 H     1 <1>   0.0800 
 37 H        5.1160    -0.0100    -0.4610 H     1 <1>   0.0800 
 38 H        4.0770    -3.9740     0.2530 H     1 <1>   0.4000 
 39 H        7.0430    -1.1260     0.7390 H     1 <1>   0.1500 
 40 H        5.6880    -5.6850    -0.0240 H     1 <1>   0.0600 
@<TRIPOS>BOND
  1   1   2  1   
  2   1   3  1   
  3   2   4  1   
  4   2   5  1   
  5   2  20  1   
  6   3  21  1   
  7   3  22  1   
  8   3  23  1   
  9   4   6  1   
 10   4   7  1   
 11   4   8  1   
 12   5   9  1   
 13   5  24  1   
 14   5  25  1   
 15   6  10  1   
 16   6  26  1   
 17   6  27  1   
 18   7  11  1   
 19   7  28  1   
 20   7  29  1   
 21   8   9  1   
 22   8  30  1   
 23   8  31  1   
 24   9  32  1   
 25   9  33  1   
 26  10  12  1   
 27  10  13  1   
 28  11  13  1   
 29  11  34  1   
 30  11  35  1   
 31  12  14  1   
 32  12  15  2   
 33  13  36  1   
 34  13  37  1   
 35  14  16  1   
 36  14  38  1   
 37  15  17  1   
 38  15  39  1   
 39  16  18  2   
 40  16  40  1   
 41  17  18  1   
 42  17  19  2   
@<TRIPOS>SUBSTRUCTURE
  1 ****   6 GROUP 4 **** **** 0

# MOE 2024.06 (io_trps.svl 2023.06)
