@<TRIPOS>MOLECULE
NONAME
29 29 1 0 0 
SMALL
USER_CHARGES


@<TRIPOS>ATOM
  1 O        0.7790     0.3400    -0.9520 O.2   1 <1>  -0.5700 
  2 C        1.3140     0.6810     0.0840 C.2   1 <1>   0.7800 
  3 O        1.0320     1.8470     0.6660 O.3   1 <1>  -0.4300 
  4 N        2.2280    -0.0690     0.7360 N.am  1 <1>  -0.4930 
  5 C        0.1220     2.8290     0.2140 C.3   1 <1>   0.2800 
  6 C        2.7590    -1.3150     0.4360 C.2   1 <1>   0.3520 
  7 C        0.1950     3.9480     1.2540 C.3   1 <1>  -0.2400 
  8 C       -1.3010     2.2600     0.1830 C.3   1 <1>  -0.2400 
  9 C        0.5650     3.3760    -1.1480 C.3   1 <1>  -0.2400 
 10 N        3.6380    -1.8340     1.2330 N.2   1 <1>  -0.7070 
 11 C        2.4770    -2.1400    -0.6500 C.2   1 <1>  -0.1500 
 12 N        3.9480    -3.0210     0.6720 N.pl3 1 <1>   0.3140 
 13 C        3.2570    -3.2260    -0.4660 C.2   1 <1>  -0.3020 
 14 C        4.9270    -3.9240     1.2870 C.3   1 <1>   0.0160 
 15 H        2.6000     0.3270     1.5900 H     1 <1>   0.3700 
 16 H       -0.0890     3.5770     2.2220 H     1 <1>   0.0800 
 17 H       -0.4720     4.7480     0.9890 H     1 <1>   0.0800 
 18 H        1.1930     4.3430     1.3080 H     1 <1>   0.0800 
 19 H       -1.5510     1.8220     1.1320 H     1 <1>   0.0800 
 20 H       -1.4070     1.5180    -0.5870 H     1 <1>   0.0800 
 21 H       -2.0050     3.0450    -0.0260 H     1 <1>   0.0800 
 22 H        1.5890     3.7000    -1.1070 H     1 <1>   0.0800 
 23 H       -0.0470     4.2150    -1.4220 H     1 <1>   0.0800 
 24 H        0.4590     2.6340    -1.9180 H     1 <1>   0.0800 
 25 H        1.7830    -1.9270    -1.4430 H     1 <1>   0.1500 
 26 H        3.3550    -4.1090    -1.0700 H     1 <1>   0.1500 
 27 H        4.5880    -4.1850     2.2720 H     1 <1>   0.0800 
 28 H        5.8720    -3.4170     1.3550 H     1 <1>   0.0800 
 29 H        5.0290    -4.8090     0.6890 H     1 <1>   0.0800 
@<TRIPOS>BOND
  1   1   2  2   
  2   2   3  1   
  3   2   4  am  
  4   3   5  1   
  5   4   6  1   
  6   4  15  1   
  7   5   7  1   
  8   5   8  1   
  9   5   9  1   
 10   6  10  2   
 11   6  11  1   
 12   7  16  1   
 13   7  17  1   
 14   7  18  1   
 15   8  19  1   
 16   8  20  1   
 17   8  21  1   
 18   9  22  1   
 19   9  23  1   
 20   9  24  1   
 21  10  12  1   
 22  11  13  2   
 23  11  25  1   
 24  12  13  1   
 25  12  14  1   
 26  13  26  1   
 27  14  27  1   
 28  14  28  1   
 29  14  29  1   
@<TRIPOS>SUBSTRUCTURE
  1 ****   4 GROUP 4 **** **** 0

# MOE 2024.06 (io_trps.svl 2023.06)
