@<TRIPOS>MOLECULE
NONAME
56 59 1 0 0 
SMALL
USER_CHARGES


@<TRIPOS>ATOM
  1 O       -1.7400     0.1190    -0.4790 O.2   1 <1>  -0.5700 
  2 C       -2.2040     0.9370     0.2930 C.2   1 <1>   0.5440 
  3 N       -3.0830     0.4660     1.2430 N.am  1 <1>  -0.6600 
  4 C       -1.9170     2.3540     0.1490 C.ar  1 <1>   0.0860 
  5 C       -4.4560     1.0430     1.3400 C.3   1 <1>   0.1400 
  6 C       -3.0140    -0.9660     1.6540 C.3   1 <1>   0.1400 
  7 C       -1.6520     2.9100    -1.1020 C.ar  1 <1>  -0.1500 
  8 C       -1.9080     3.2150     1.2470 C.ar  1 <1>  -0.1500 
  9 C       -5.4720     0.2050     0.5220 C.3   1 <1>   0.4230 
 10 C       -3.9790    -1.7990     0.7930 C.3   1 <1>   0.3430 
 11 C       -1.4120     4.2630    -1.2540 C.ar  1 <1>  -0.1500 
 12 C       -1.6690     4.5690     1.0990 C.ar  1 <1>  -0.1500 
 13 N       -5.3990    -1.2770     0.8600 N.4   1 <1>  -0.9590 
 14 C       -5.2820     0.4370    -0.9960 C.3   1 <1>   0.1200 
 15 C       -1.4220     5.1040    -0.1540 C.ar  1 <1>  -0.1440 
 16 C       -6.3420    -2.0440    -0.0260 C.3   1 <1>   0.5180 
 17 O       -6.2140    -0.3140    -1.7180 O.3   1 <1>  -0.5600 
 18 C       -1.1610     6.5970    -0.3160 C.3   1 <1>  -0.0170 
 19 C       -6.2480    -3.5480     0.3040 C.3   1 <1>  -0.1950 
 20 C       -6.1220    -1.6980    -1.5200 C.3   1 <1>   0.1200 
 21 C        0.2580     7.0010     0.1250 C.3   1 <1>  -0.0800 
 22 C       -5.2790    -4.5050    -0.3280 C.3   1 <1>  -0.2000 
 23 C       -6.7470    -4.6170    -0.6220 C.3   1 <1>  -0.2000 
 24 C        0.4280     8.5230     0.0420 C.3   1 <1>  -0.2400 
 25 C        1.3380     6.3150    -0.7240 C.3   1 <1>  -0.2400 
 26 H       -4.7560     1.0670     2.3730 H     1 <1>   0.0800 
 27 H       -4.4610     2.0590     0.9810 H     1 <1>   0.0800 
 28 H       -2.0100    -1.3350     1.5240 H     1 <1>   0.0800 
 29 H       -3.2640    -1.0590     2.6960 H     1 <1>   0.0800 
 30 H       -1.6300     2.2690    -1.9670 H     1 <1>   0.1500 
 31 H       -2.0830     2.8200     2.2310 H     1 <1>   0.1500 
 32 H       -6.4560     0.5690     0.7650 H     1 <1>   0.0800 
 33 H       -3.9440    -2.8220     1.1270 H     1 <1>   0.0800 
 34 H       -3.6250    -1.7720    -0.2250 H     1 <1>   0.0800 
 35 H       -1.2100     4.6600    -2.2340 H     1 <1>   0.1500 
 36 H       -1.6680     5.2110     1.9640 H     1 <1>   0.1500 
 37 H       -5.7260    -1.4000     1.8230 H     1 <1>   0.4500 
 38 H       -4.2930     0.1640    -1.3220 H     1 <1>   0.0800 
 39 H       -5.4430     1.4730    -1.2390 H     1 <1>   0.0800 
 40 H       -7.3480    -1.7370     0.2070 H     1 <1>   0.0800 
 41 H       -1.3130     6.8830    -1.3420 H     1 <1>   0.0800 
 42 H       -1.8820     7.1350     0.2740 H     1 <1>   0.0800 
 43 H       -6.4970    -3.7190     1.3380 H     1 <1>   0.1000 
 44 H       -6.8850    -2.1560    -2.1230 H     1 <1>   0.0800 
 45 H       -5.1610    -2.0330    -1.8690 H     1 <1>   0.0800 
 46 H        0.3950     6.7020     1.1510 H     1 <1>   0.0800 
 47 H       -4.6380    -4.2100    -1.1420 H     1 <1>   0.1000 
 48 H       -4.8310    -5.2790     0.2750 H     1 <1>   0.1000 
 49 H       -7.2850    -5.4540    -0.2080 H     1 <1>   0.1000 
 50 H       -7.0740    -4.3920    -1.6230 H     1 <1>   0.1000 
 51 H        0.3060     8.8650    -0.9710 H     1 <1>   0.0800 
 52 H        1.4080     8.8080     0.3830 H     1 <1>   0.0800 
 53 H       -0.2990     9.0160     0.6630 H     1 <1>   0.0800 
 54 H        1.2180     6.5620    -1.7640 H     1 <1>   0.0800 
 55 H        1.2810     5.2460    -0.6160 H     1 <1>   0.0800 
 56 H        2.3170     6.6280    -0.4070 H     1 <1>   0.0800 
@<TRIPOS>BOND
  1   1   2  2   
  2   2   3  am  
  3   2   4  1   
  4   3   5  1   
  5   3   6  1   
  6   4   7  ar  
  7   4   8  ar  
  8   5   9  1   
  9   5  26  1   
 10   5  27  1   
 11   6  10  1   
 12   6  28  1   
 13   6  29  1   
 14   7  11  ar  
 15   7  30  1   
 16   8  12  ar  
 17   8  31  1   
 18   9  13  1   
 19   9  14  1   
 20   9  32  1   
 21  10  13  1   
 22  10  33  1   
 23  10  34  1   
 24  11  15  ar  
 25  11  35  1   
 26  12  15  ar  
 27  12  36  1   
 28  13  16  1   
 29  13  37  1   
 30  14  17  1   
 31  14  38  1   
 32  14  39  1   
 33  15  18  1   
 34  16  19  1   
 35  16  20  1   
 36  16  40  1   
 37  17  20  1   
 38  18  21  1   
 39  18  41  1   
 40  18  42  1   
 41  19  22  1   
 42  19  23  1   
 43  19  43  1   
 44  20  44  1   
 45  20  45  1   
 46  21  24  1   
 47  21  25  1   
 48  21  46  1   
 49  22  23  1   
 50  22  47  1   
 51  22  48  1   
 52  23  49  1   
 53  23  50  1   
 54  24  51  1   
 55  24  52  1   
 56  24  53  1   
 57  25  54  1   
 58  25  55  1   
 59  25  56  1   
@<TRIPOS>SUBSTRUCTURE
  1 ****   2 GROUP 4 **** **** 0

# MOE 2024.06 (io_trps.svl 2023.06)
