@<TRIPOS>MOLECULE
NONAME
38 39 1 0 0 
SMALL
USER_CHARGES


@<TRIPOS>ATOM
  1 O       -0.3610    -0.0470     0.4610 O.2   1 <1>  -0.5700 
  2 C       -1.0410    -1.0450     0.3080 C.2   1 <1>   0.7800 
  3 O       -0.4630    -2.2370     0.1270 O.3   1 <1>  -0.4300 
  4 N       -2.4130    -1.0050     0.3140 N.am  1 <1>  -0.6600 
  5 C        0.9160    -2.5230     0.0570 C.3   1 <1>   0.2800 
  6 C       -3.1340     0.3060     0.3710 C.3   1 <1>   0.1400 
  7 C       -3.2380    -2.2510     0.2240 C.3   1 <1>   0.1400 
  8 C        0.9980    -4.0320    -0.1740 C.3   1 <1>  -0.2400 
  9 C        1.5490    -1.7950    -1.1350 C.3   1 <1>  -0.2400 
 10 C        1.6000    -2.1780     1.3860 C.3   1 <1>  -0.2400 
 11 C       -4.2610     0.4150    -0.6640 C.3   1 <1>  -0.0650 
 12 C       -4.4450    -2.2040     1.1640 C.3   1 <1>  -0.0650 
 13 C       -5.5860    -0.3110    -0.3510 C.3   1 <1>  -0.2420 
 14 C       -5.6590    -1.5650     0.4830 C.3   1 <1>  -0.1950 
 15 C       -6.5310    -0.1810    -1.5530 C.2   1 <1>   0.9470 
 16 C       -6.1980    -0.2670     1.0200 C.3   1 <1>  -0.2000 
 17 O       -7.1490     0.8790    -1.7060 O.co2 1 <1>  -0.9000 
 18 O       -6.6250    -1.1240    -2.3470 O.co2 1 <1>  -0.9000 
 19 H       -2.4370     1.1020     0.1730 H     1 <1>   0.0800 
 20 H       -3.5170     0.4640     1.3620 H     1 <1>   0.0800 
 21 H       -2.6400    -3.1030     0.4920 H     1 <1>   0.0800 
 22 H       -3.5700    -2.3880    -0.7920 H     1 <1>   0.0800 
 23 H        0.4990    -4.2960    -1.0890 H     1 <1>   0.0800 
 24 H        0.5360    -4.5590     0.6410 H     1 <1>   0.0800 
 25 H        2.0230    -4.3460    -0.2430 H     1 <1>   0.0800 
 26 H        0.9970    -2.0020    -2.0340 H     1 <1>   0.0800 
 27 H        2.5620    -2.1260    -1.2720 H     1 <1>   0.0800 
 28 H        1.5740    -0.7340    -0.9730 H     1 <1>   0.0800 
 29 H        1.0840    -2.6470     2.2040 H     1 <1>   0.0800 
 30 H        1.6250    -1.1160     1.5460 H     1 <1>   0.0800 
 31 H        2.6150    -2.5280     1.3770 H     1 <1>   0.0800 
 32 H       -3.8890     0.0740    -1.6140 H     1 <1>   0.0800 
 33 H       -4.5000     1.4570    -0.7830 H     1 <1>   0.0800 
 34 H       -4.1860    -1.6940     2.0740 H     1 <1>   0.0800 
 35 H       -4.7140    -3.2100     1.4290 H     1 <1>   0.0800 
 36 H       -6.3560    -2.3010     0.1150 H     1 <1>   0.1000 
 37 H       -7.2640    -0.1270     1.0750 H     1 <1>   0.1000 
 38 H       -5.6820     0.2540     1.8040 H     1 <1>   0.1000 
@<TRIPOS>BOND
  1   1   2  2   
  2   2   3  1   
  3   2   4  am  
  4   3   5  1   
  5   4   6  1   
  6   4   7  1   
  7   5   8  1   
  8   5   9  1   
  9   5  10  1   
 10   6  11  1   
 11   6  19  1   
 12   6  20  1   
 13   7  12  1   
 14   7  21  1   
 15   7  22  1   
 16   8  23  1   
 17   8  24  1   
 18   8  25  1   
 19   9  26  1   
 20   9  27  1   
 21   9  28  1   
 22  10  29  1   
 23  10  30  1   
 24  10  31  1   
 25  11  13  1   
 26  11  32  1   
 27  11  33  1   
 28  12  14  1   
 29  12  34  1   
 30  12  35  1   
 31  13  14  1   
 32  13  15  1   
 33  13  16  1   
 34  14  16  1   
 35  14  36  1   
 36  15  17  ar  
 37  15  18  ar  
 38  16  37  1   
 39  16  38  1   
@<TRIPOS>SUBSTRUCTURE
  1 ****   4 GROUP 4 **** **** 0

# MOE 2024.06 (io_trps.svl 2023.06)
