@<TRIPOS>MOLECULE
NONAME
49 51 1 0 0 
SMALL
USER_CHARGES


@<TRIPOS>ATOM
  1 F       -0.1950    -1.0330     0.9650 F     1 <1>  -0.1900 
  2 C        0.7500    -1.5360     0.2100 C.ar  1 <1>   0.1900 
  3 C        1.2040    -0.8130    -0.8810 C.ar  1 <1>   0.1900 
  4 C        1.2760    -2.7870     0.5100 C.ar  1 <1>  -0.1440 
  5 F        0.6930     0.3610    -1.1540 F     1 <1>  -0.1900 
  6 C        2.1990    -1.3100    -1.7000 C.ar  1 <1>  -0.1500 
  7 C        2.2810    -3.2810    -0.3150 C.ar  1 <1>  -0.1500 
  8 C        0.7950    -3.6200     1.6990 C.3   1 <1>   0.0450 
  9 C        2.7370    -2.5540    -1.4080 C.ar  1 <1>  -0.1500 
 10 C        0.3080    -5.0000     1.2750 C.2   1 <1>   0.5690 
 11 O        0.9500    -5.9530     1.6500 O.2   1 <1>  -0.5700 
 12 N       -0.8140    -5.1790     0.4980 N.am  1 <1>  -0.6600 
 13 C       -1.1630    -6.5270    -0.0330 C.3   1 <1>   0.1400 
 14 C       -1.7880    -4.1090     0.1340 C.3   1 <1>   0.1400 
 15 C       -2.5640    -6.9480     0.4620 C.3   1 <1>   0.4230 
 16 C       -3.1770    -4.5150     0.6410 C.3   1 <1>  -0.1600 
 17 N       -2.9410    -8.3780     0.0950 N.4   1 <1>  -0.9590 
 18 C       -3.6560    -5.8950     0.1060 C.3   1 <1>   0.0000 
 19 C       -4.4100    -8.6680     0.1870 C.3   1 <1>   0.3430 
 20 C       -2.4060    -8.8730    -1.2170 C.3   1 <1>   0.2630 
 21 C       -4.9870    -6.2710     0.8230 C.3   1 <1>  -0.1600 
 22 C       -3.8660    -5.8360    -1.4340 C.3   1 <1>   0.1200 
 23 C       -5.0850    -7.7590     1.2110 C.3   1 <1>  -0.1600 
 24 O       -4.6610    -4.7640    -1.8030 O.3   1 <1>  -0.6800 
 25 H        2.5420    -0.7370    -2.5430 H     1 <1>   0.1500 
 26 H        2.7190    -4.2450    -0.1090 H     1 <1>   0.1500 
 27 H        0.0120    -3.1280     2.2440 H     1 <1>   0.0800 
 28 H        1.6170    -3.7430     2.3800 H     1 <1>   0.0800 
 29 H        3.5150    -2.9610    -2.0320 H     1 <1>   0.1500 
 30 H       -1.1240    -6.4840    -1.1050 H     1 <1>   0.0800 
 31 H       -0.4430    -7.2550     0.2970 H     1 <1>   0.0800 
 32 H       -1.5190    -3.1690     0.5780 H     1 <1>   0.0800 
 33 H       -1.7970    -3.9740    -0.9350 H     1 <1>   0.0800 
 34 H       -2.4940    -6.9240     1.5370 H     1 <1>   0.0800 
 35 H       -3.1330    -4.5320     1.7170 H     1 <1>   0.0800 
 36 H       -3.8780    -3.7420     0.3770 H     1 <1>   0.0800 
 37 H       -2.4960    -8.9530     0.8270 H     1 <1>   0.4500 
 38 H       -4.8740    -8.5050    -0.7720 H     1 <1>   0.0800 
 39 H       -4.5640    -9.7020     0.4570 H     1 <1>   0.0800 
 40 H       -2.7970    -8.2860    -2.0310 H     1 <1>   0.0800 
 41 H       -2.6890    -9.9030    -1.3700 H     1 <1>   0.0800 
 42 H       -1.3300    -8.8150    -1.2330 H     1 <1>   0.0800 
 43 H       -5.1070    -5.6960     1.7260 H     1 <1>   0.0800 
 44 H       -5.8260    -6.0180     0.1980 H     1 <1>   0.0800 
 45 H       -4.3400    -6.7280    -1.8040 H     1 <1>   0.0800 
 46 H       -2.9330    -5.7090    -1.9540 H     1 <1>   0.0800 
 47 H       -6.1240    -8.0320     1.2970 H     1 <1>   0.0800 
 48 H       -4.6370    -7.9220     2.1770 H     1 <1>   0.0800 
 49 H       -5.5640    -4.8250    -1.4340 H     1 <1>   0.4000 
@<TRIPOS>BOND
  1   1   2  1   
  2   2   3  ar  
  3   2   4  ar  
  4   3   5  1   
  5   3   6  ar  
  6   4   7  ar  
  7   4   8  1   
  8   6   9  ar  
  9   6  25  1   
 10   7   9  ar  
 11   7  26  1   
 12   8  10  1   
 13   8  27  1   
 14   8  28  1   
 15   9  29  1   
 16  10  11  2   
 17  10  12  am  
 18  12  13  1   
 19  12  14  1   
 20  13  15  1   
 21  13  30  1   
 22  13  31  1   
 23  14  16  1   
 24  14  32  1   
 25  14  33  1   
 26  15  17  1   
 27  15  18  1   
 28  15  34  1   
 29  16  18  1   
 30  16  35  1   
 31  16  36  1   
 32  17  19  1   
 33  17  20  1   
 34  17  37  1   
 35  18  21  1   
 36  18  22  1   
 37  19  23  1   
 38  19  38  1   
 39  19  39  1   
 40  20  40  1   
 41  20  41  1   
 42  20  42  1   
 43  21  23  1   
 44  21  43  1   
 45  21  44  1   
 46  22  24  1   
 47  22  45  1   
 48  22  46  1   
 49  23  47  1   
 50  23  48  1   
 51  24  49  1   
@<TRIPOS>SUBSTRUCTURE
  1 ****  14 GROUP 4 **** **** 0

# MOE 2024.06 (io_trps.svl 2023.06)
