@<TRIPOS>MOLECULE
NONAME
50 53 1 0 0 
SMALL
USER_CHARGES


@<TRIPOS>ATOM
  1 O        0.6970    -0.7540     1.2120 O.3   1 <1>  -0.2170 
  2 N        0.6420     0.4630     0.7320 N.2   1 <1>  -0.5130 
  3 C        1.9760    -1.3180     1.1030 C.3   1 <1>   0.2000 
  4 C        1.8040     0.9320     0.5330 C.2   1 <1>   0.3030 
  5 C        2.8560    -0.0910     0.8780 C.3   1 <1>  -0.0990 
  6 C        1.9880    -2.2950    -0.1000 C.3   1 <1>   0.3430 
  7 C        2.1470     2.2480     0.0320 C.ar  1 <1>   0.0860 
  8 N        0.8080    -3.2370    -0.2400 N.4   1 <1>  -0.9590 
  9 C        3.4670     2.6970    -0.0740 C.ar  1 <1>  -0.1500 
 10 C        1.1430     3.1300    -0.3740 C.ar  1 <1>  -0.1500 
 11 C       -0.3940    -2.5240    -0.7830 C.3   1 <1>   0.3430 
 12 C        0.4850    -3.9430     1.0340 C.3   1 <1>   0.3430 
 13 C        3.7660     3.9530    -0.5690 C.ar  1 <1>  -0.1500 
 14 C        1.4360     4.3870    -0.8690 C.ar  1 <1>  -0.1500 
 15 C       -1.4930    -3.5470    -1.0700 C.3   1 <1>  -0.1600 
 16 C       -0.6120    -4.9770     0.7780 C.3   1 <1>  -0.1600 
 17 C        2.7510     4.8020    -0.9690 C.ar  1 <1>  -0.1500 
 18 C       -1.8910    -4.3380     0.1970 C.3   1 <1>   0.3430 
 19 C       -2.4530    -3.3730     1.2040 C.1   1 <1>   0.3570 
 20 C       -2.9220    -5.4550    -0.0740 C.ar  1 <1>  -0.1440 
 21 N       -2.7710    -2.6160     1.9890 N.1   1 <1>  -0.5570 
 22 C       -3.4580    -6.1530     1.0060 C.ar  1 <1>  -0.1500 
 23 C       -3.3480    -5.8120    -1.3530 C.ar  1 <1>  -0.1500 
 24 C       -4.3750    -7.1720     0.8190 C.ar  1 <1>  -0.1500 
 25 C       -4.2650    -6.8310    -1.5400 C.ar  1 <1>  -0.1500 
 26 C       -4.7790    -7.5140    -0.4550 C.ar  1 <1>  -0.1500 
 27 H        2.2130    -1.8140     2.0270 H     1 <1>   0.0800 
 28 H        3.5680    -0.2320     0.0850 H     1 <1>   0.0800 
 29 H        3.3600     0.1880     1.7860 H     1 <1>   0.0800 
 30 H        2.8940    -2.8760    -0.0370 H     1 <1>   0.0800 
 31 H        2.0630    -1.7050    -0.9990 H     1 <1>   0.0800 
 32 H        1.0720    -3.9480    -0.9360 H     1 <1>   0.4500 
 33 H        4.2830     2.0710     0.2340 H     1 <1>   0.1500 
 34 H        0.1130     2.8270    -0.2980 H     1 <1>   0.1500 
 35 H       -0.1380    -2.0010    -1.6910 H     1 <1>   0.0800 
 36 H       -0.7580    -1.7960    -0.0740 H     1 <1>   0.0800 
 37 H        0.1490    -3.2300     1.7720 H     1 <1>   0.0800 
 38 H        1.3640    -4.4390     1.4170 H     1 <1>   0.0800 
 39 H        4.7900     4.2770    -0.6420 H     1 <1>   0.1500 
 40 H        0.6400     5.0450    -1.1750 H     1 <1>   0.1500 
 41 H       -1.1380    -4.2120    -1.8360 H     1 <1>   0.0800 
 42 H       -2.3550    -3.0290    -1.4550 H     1 <1>   0.0800 
 43 H       -0.8400    -5.4620     1.7110 H     1 <1>   0.0800 
 44 H       -0.2470    -5.7370     0.1100 H     1 <1>   0.0800 
 45 H        2.9810     5.7810    -1.3550 H     1 <1>   0.1500 
 46 H       -3.1770    -5.9150     2.0180 H     1 <1>   0.1500 
 47 H       -2.9940    -5.3180    -2.2380 H     1 <1>   0.1500 
 48 H       -4.7770    -7.6990     1.6680 H     1 <1>   0.1500 
 49 H       -4.5850    -7.0950    -2.5340 H     1 <1>   0.1500 
 50 H       -5.4930    -8.3070    -0.6020 H     1 <1>   0.1500 
@<TRIPOS>BOND
  1   1   2  1   
  2   1   3  1   
  3   2   4  2   
  4   3   5  1   
  5   3   6  1   
  6   3  27  1   
  7   4   5  1   
  8   4   7  1   
  9   5  28  1   
 10   5  29  1   
 11   6   8  1   
 12   6  30  1   
 13   6  31  1   
 14   7   9  ar  
 15   7  10  ar  
 16   8  11  1   
 17   8  12  1   
 18   8  32  1   
 19   9  13  ar  
 20   9  33  1   
 21  10  14  ar  
 22  10  34  1   
 23  11  15  1   
 24  11  35  1   
 25  11  36  1   
 26  12  16  1   
 27  12  37  1   
 28  12  38  1   
 29  13  17  ar  
 30  13  39  1   
 31  14  17  ar  
 32  14  40  1   
 33  15  18  1   
 34  15  41  1   
 35  15  42  1   
 36  16  18  1   
 37  16  43  1   
 38  16  44  1   
 39  17  45  1   
 40  18  19  1   
 41  18  20  1   
 42  19  21  3   
 43  20  22  ar  
 44  20  23  ar  
 45  22  24  ar  
 46  22  46  1   
 47  23  25  ar  
 48  23  47  1   
 49  24  26  ar  
 50  24  48  1   
 51  25  26  ar  
 52  25  49  1   
 53  26  50  1   
@<TRIPOS>SUBSTRUCTURE
  1 ****  11 GROUP 4 **** **** 0

# MOE 2024.06 (io_trps.svl 2023.06)
