@<TRIPOS>MOLECULE
NONAME
48 51 1 0 0 
SMALL
USER_CHARGES


@<TRIPOS>ATOM
  1 O        0.0790     0.1700    -0.2450 O.2   1 <1>  -0.5700 
  2 C       -1.0400    -0.3180    -0.1890 C.2   1 <1>   0.5440 
  3 N       -2.1380     0.5020    -0.0470 N.am  1 <1>  -0.4200 
  4 C       -1.2610    -1.7350    -0.2550 C.ar  1 <1>   0.0860 
  5 C       -3.3930    -0.0510     0.0390 C.2   1 <1>   0.4500 
  6 C       -1.9750     1.9770     0.0000 C.3   1 <1>   0.1400 
  7 C       -2.5840    -2.1860    -0.1590 C.ar  1 <1>   0.1790 
  8 C       -0.2370    -2.6750    -0.4070 C.ar  1 <1>  -0.1500 
  9 N       -3.6380    -1.3050    -0.0080 N.2   1 <1>  -0.6290 
 10 C       -1.5810     2.4230     1.4090 C.3   1 <1>  -0.0990 
 11 C       -2.8470    -3.5500    -0.2160 C.ar  1 <1>  -0.1500 
 12 C       -0.5140    -4.0250    -0.4620 C.ar  1 <1>  -0.1500 
 13 C       -1.2130     3.8910     1.3950 C.2   1 <1>   0.5690 
 14 C       -1.8260    -4.4650    -0.3660 C.ar  1 <1>  -0.1500 
 15 O       -1.8770     4.6250     2.0840 O.2   1 <1>  -0.5700 
 16 N       -0.1800     4.3480     0.6180 N.am  1 <1>  -0.6600 
 17 C       -0.1230     5.8100     0.2280 C.3   1 <1>   0.4000 
 18 C        1.1040     3.5790     0.5550 C.3   1 <1>   0.1400 
 19 C       -1.4940     6.4320    -0.0700 C.2   1 <1>   0.2980 
 20 C        0.7480     6.0250    -1.0260 C.3   1 <1>  -0.1600 
 21 C        1.8560     3.8180    -0.7520 C.3   1 <1>  -0.1600 
 22 O       -2.3310     5.7710    -0.8350 O.3   1 <1>  -0.0190 
 23 N       -1.9090     7.5700     0.3330 N.2   1 <1>  -0.5650 
 24 C        2.0980     5.3090    -0.9750 C.3   1 <1>  -0.1600 
 25 N       -3.3690     6.5450    -0.9120 N.2   1 <1>  -0.4100 
 26 C       -3.1110     7.5810    -0.2210 C.2   1 <1>   0.3350 
 27 C       -4.0470     8.7460    -0.0160 C.3   1 <1>  -0.0590 
 28 H       -4.2100     0.6390     0.1550 H     1 <1>   0.0600 
 29 H       -2.8920     2.4620    -0.2920 H     1 <1>   0.0800 
 30 H       -1.2170     2.2650    -0.7090 H     1 <1>   0.0800 
 31 H        0.7800    -2.3300    -0.4820 H     1 <1>   0.1500 
 32 H       -0.7560     1.8480     1.7850 H     1 <1>   0.0800 
 33 H       -2.4140     2.2790     2.0730 H     1 <1>   0.0800 
 34 H       -3.8680    -3.8800    -0.1400 H     1 <1>   0.1500 
 35 H        0.2830    -4.7400    -0.5800 H     1 <1>   0.1500 
 36 H       -2.0440    -5.5190    -0.4090 H     1 <1>   0.1500 
 37 H        0.3150     6.3510     1.0490 H     1 <1>   0.0800 
 38 H        0.9280     2.5230     0.6500 H     1 <1>   0.0800 
 39 H        1.7240     3.8830     1.3820 H     1 <1>   0.0800 
 40 H        0.9100     7.0810    -1.1550 H     1 <1>   0.0800 
 41 H        0.2050     5.6800    -1.8890 H     1 <1>   0.0800 
 42 H        1.2910     3.4010    -1.5680 H     1 <1>   0.0800 
 43 H        2.7990     3.3010    -0.7130 H     1 <1>   0.0800 
 44 H        2.6990     5.7100    -0.1760 H     1 <1>   0.0800 
 45 H        2.6260     5.4580    -1.9020 H     1 <1>   0.0800 
 46 H       -3.5890     9.6450    -0.3840 H     1 <1>   0.0800 
 47 H       -4.2550     8.8570     1.0310 H     1 <1>   0.0800 
 48 H       -4.9680     8.5770    -0.5430 H     1 <1>   0.0800 
@<TRIPOS>BOND
  1   1   2  2   
  2   2   3  am  
  3   2   4  1   
  4   3   5  1   
  5   3   6  1   
  6   4   7  ar  
  7   4   8  ar  
  8   5   9  2   
  9   5  28  1   
 10   6  10  1   
 11   6  29  1   
 12   6  30  1   
 13   7   9  1   
 14   7  11  ar  
 15   8  12  ar  
 16   8  31  1   
 17  10  13  1   
 18  10  32  1   
 19  10  33  1   
 20  11  14  ar  
 21  11  34  1   
 22  12  14  ar  
 23  12  35  1   
 24  13  15  2   
 25  13  16  am  
 26  14  36  1   
 27  16  17  1   
 28  16  18  1   
 29  17  19  1   
 30  17  20  1   
 31  17  37  1   
 32  18  21  1   
 33  18  38  1   
 34  18  39  1   
 35  19  22  1   
 36  19  23  2   
 37  20  24  1   
 38  20  40  1   
 39  20  41  1   
 40  21  24  1   
 41  21  42  1   
 42  21  43  1   
 43  22  25  1   
 44  23  26  1   
 45  24  44  1   
 46  24  45  1   
 47  25  26  2   
 48  26  27  1   
 49  27  46  1   
 50  27  47  1   
 51  27  48  1   
@<TRIPOS>SUBSTRUCTURE
  1 ****   6 GROUP 4 **** **** 0

# MOE 2024.06 (io_trps.svl 2023.06)
