@<TRIPOS>MOLECULE
NONAME
33 34 1 0 0 
SMALL
USER_CHARGES


@<TRIPOS>ATOM
  1 S       -0.4910     0.3780     1.2700 S.o2  1 <1>   1.4470 
  2 O       -0.3980    -0.9600     1.8120 O.2   1 <1>  -0.6500 
  3 O       -0.9240     1.4690     2.1160 O.2   1 <1>  -0.6500 
  4 N       -1.5020     0.3460    -0.0920 N.am  1 <1>  -0.8490 
  5 C        1.1130     0.8440     0.5530 C.ar  1 <1>  -0.0090 
  6 C       -1.2500    -0.7860    -1.0110 C.3   1 <1>   0.1960 
  7 C       -2.9350     0.5940     0.1860 C.3   1 <1>   0.1960 
  8 C        2.2380     0.0350     0.7100 C.ar  1 <1>  -0.1500 
  9 C        1.2460     2.0260    -0.1730 C.ar  1 <1>  -0.1500 
 10 C       -1.9240    -2.1210    -0.6110 C.3   1 <1>   0.2000 
 11 C       -3.8620    -0.5840    -0.1540 C.3   1 <1>  -0.1600 
 12 C        3.4610     0.3900     0.1640 C.ar  1 <1>  -0.1500 
 13 C        2.4590     2.3990    -0.7280 C.ar  1 <1>  -0.1500 
 14 O       -2.2250    -2.7690    -1.7940 O.3   1 <1>  -0.6800 
 15 C       -3.2080    -1.9240     0.2240 C.3   1 <1>  -0.1860 
 16 C        3.5480     1.5710    -0.5480 C.ar  1 <1>   0.1900 
 17 C       -4.1990    -3.0820     0.2260 C.2   1 <1>   0.9060 
 18 F        4.6960     1.9130    -1.0650 F     1 <1>  -0.1900 
 19 O       -5.0460    -3.1120     1.1210 O.co2 1 <1>  -0.9000 
 20 O       -4.1550    -3.9470    -0.6600 O.co2 1 <1>  -0.9000 
 21 H       -1.6320    -0.4990    -1.9760 H     1 <1>   0.0800 
 22 H       -0.1920    -0.9470    -1.1210 H     1 <1>   0.0800 
 23 H       -3.0720     0.8260     1.2300 H     1 <1>   0.0800 
 24 H       -3.2510     1.4570    -0.3730 H     1 <1>   0.0800 
 25 H        2.1540    -0.8830     1.2690 H     1 <1>   0.1500 
 26 H        0.3830     2.6590    -0.3010 H     1 <1>   0.1500 
 27 H       -1.2380    -2.7500    -0.0700 H     1 <1>   0.0800 
 28 H       -4.7870    -0.4700     0.3840 H     1 <1>   0.0800 
 29 H       -4.0980    -0.5820    -1.2040 H     1 <1>   0.0800 
 30 H        4.3300    -0.2310     0.2850 H     1 <1>   0.1500 
 31 H        2.5620     3.3120    -1.2870 H     1 <1>   0.1500 
 32 H       -2.9840    -3.4000    -1.5700 H     1 <1>   0.4000 
 33 H       -2.8980    -1.8350     1.2480 H     1 <1>   0.0800 
@<TRIPOS>BOND
  1   1   2  2   
  2   1   3  2   
  3   1   4  am  
  4   1   5  1   
  5   4   6  1   
  6   4   7  1   
  7   5   8  ar  
  8   5   9  ar  
  9   6  10  1   
 10   6  21  1   
 11   6  22  1   
 12   7  11  1   
 13   7  23  1   
 14   7  24  1   
 15   8  12  ar  
 16   8  25  1   
 17   9  13  ar  
 18   9  26  1   
 19  10  14  1   
 20  10  15  1   
 21  10  27  1   
 22  11  15  1   
 23  11  28  1   
 24  11  29  1   
 25  12  16  ar  
 26  12  30  1   
 27  13  16  ar  
 28  13  31  1   
 29  14  32  1   
 30  15  17  1   
 31  15  33  1   
 32  16  18  1   
 33  17  19  ar  
 34  17  20  ar  
@<TRIPOS>SUBSTRUCTURE
  1 ****   4 GROUP 4 **** **** 0

# MOE 2024.06 (io_trps.svl 2023.06)
