@<TRIPOS>MOLECULE
NONAME
53 55 1 0 0 
SMALL
USER_CHARGES


@<TRIPOS>ATOM
  1 O       -0.2880     1.0800    -0.1640 O.2   1 <1>  -0.5700 
  2 C       -0.3670     2.2650    -0.3610 C.2   1 <1>   0.5690 
  3 N       -1.1920     3.0350     0.3830 N.am  1 <1>  -0.7300 
  4 C        0.4480     2.9170    -1.4820 C.3   1 <1>   0.1810 
  5 C       -1.3610     4.4940     0.1800 C.3   1 <1>   0.3640 
  6 O        0.5510     4.3180    -1.3370 O.3   1 <1>  -0.5600 
  7 C       -2.8480     4.8260     0.2160 C.ar  1 <1>  -0.1440 
  8 C       -0.6950     4.9750    -1.1340 C.3   1 <1>   0.2610 
  9 C       -3.2850     5.9250     0.9400 C.ar  1 <1>  -0.1500 
 10 C       -3.7840     4.0600    -0.4690 C.ar  1 <1>  -0.1500 
 11 C       -0.5020     6.4910    -1.0740 C.2   1 <1>   0.5690 
 12 C       -4.6260     6.2620     0.9790 C.ar  1 <1>   0.0830 
 13 C       -5.1300     4.3820    -0.4250 C.ar  1 <1>  -0.1500 
 14 O       -1.4060     7.2190    -1.4070 O.2   1 <1>  -0.5700 
 15 N        0.6850     6.9830    -0.6290 N.am  1 <1>  -0.7300 
 16 O       -4.9680     7.3570     1.6980 O.3   1 <1>  -0.3630 
 17 C       -5.5700     5.4840     0.3030 C.ar  1 <1>   0.0830 
 18 C        1.0220     8.4040    -0.4810 C.3   1 <1>   0.2200 
 19 C       -5.3810     8.4820     0.9540 C.3   1 <1>   0.0400 
 20 O       -6.8870     5.8320     0.3880 O.3   1 <1>  -0.3630 
 21 C        2.2960     8.6970    -1.2810 C.3   1 <1>  -0.1600 
 22 C        1.2090     8.7150     1.0080 C.3   1 <1>  -0.1600 
 23 C       -7.9010     5.0270    -0.1710 C.3   1 <1>   0.0400 
 24 C        2.7570    10.1500    -1.0770 C.3   1 <1>  -0.1600 
 25 C        1.6660    10.1680     1.2180 C.3   1 <1>  -0.1600 
 26 C        2.9340    10.4630     0.4120 C.3   1 <1>   0.2000 
 27 O        3.2260    11.8010     0.5410 O.3   1 <1>  -0.6800 
 28 H       -1.7510     2.5970     1.1180 H     1 <1>   0.3700 
 29 H       -0.0110     2.7050    -2.4300 H     1 <1>   0.0800 
 30 H        1.4440     2.5120    -1.4800 H     1 <1>   0.0800 
 31 H       -0.8780     4.9940     1.0020 H     1 <1>   0.0800 
 32 H       -1.3310     4.7500    -1.9710 H     1 <1>   0.0800 
 33 H       -2.5910     6.5460     1.4770 H     1 <1>   0.1500 
 34 H       -3.4710     3.2040    -1.0410 H     1 <1>   0.1500 
 35 H       -5.8180     3.7620    -0.9660 H     1 <1>   0.1500 
 36 H        1.4480     6.3170    -0.4840 H     1 <1>   0.3700 
 37 H        0.2170     9.0090    -0.8680 H     1 <1>   0.0800 
 38 H       -5.5050     9.3060     1.6320 H     1 <1>   0.0800 
 39 H       -6.3150     8.2620     0.4700 H     1 <1>   0.0800 
 40 H       -4.6240     8.7120     0.2240 H     1 <1>   0.0800 
 41 H        3.0830     8.0340    -0.9650 H     1 <1>   0.0800 
 42 H        2.1070     8.5280    -2.3270 H     1 <1>   0.0800 
 43 H        0.2780     8.5580     1.5230 H     1 <1>   0.0800 
 44 H        1.9470     8.0520     1.4250 H     1 <1>   0.0800 
 45 H       -8.8490     5.4760     0.0640 H     1 <1>   0.0800 
 46 H       -7.8450     4.0440     0.2630 H     1 <1>   0.0800 
 47 H       -7.7680     4.9890    -1.2370 H     1 <1>   0.0800 
 48 H        2.0210    10.8100    -1.5020 H     1 <1>   0.0800 
 49 H        3.6920    10.3030    -1.5880 H     1 <1>   0.0800 
 50 H        1.8610    10.3330     2.2640 H     1 <1>   0.0800 
 51 H        0.8750    10.8290     0.9080 H     1 <1>   0.0800 
 52 H        3.7660     9.9070     0.8120 H     1 <1>   0.0800 
 53 H        2.4980    12.3380     0.1770 H     1 <1>   0.4000 
@<TRIPOS>BOND
  1   1   2  2   
  2   2   3  am  
  3   2   4  1   
  4   3   5  1   
  5   3  28  1   
  6   4   6  1   
  7   4  29  1   
  8   4  30  1   
  9   5   7  1   
 10   5   8  1   
 11   5  31  1   
 12   6   8  1   
 13   7   9  ar  
 14   7  10  ar  
 15   8  11  1   
 16   8  32  1   
 17   9  12  ar  
 18   9  33  1   
 19  10  13  ar  
 20  10  34  1   
 21  11  14  2   
 22  11  15  am  
 23  12  16  1   
 24  12  17  ar  
 25  13  17  ar  
 26  13  35  1   
 27  15  18  1   
 28  15  36  1   
 29  16  19  1   
 30  17  20  1   
 31  18  21  1   
 32  18  22  1   
 33  18  37  1   
 34  19  38  1   
 35  19  39  1   
 36  19  40  1   
 37  20  23  1   
 38  21  24  1   
 39  21  41  1   
 40  21  42  1   
 41  22  25  1   
 42  22  43  1   
 43  22  44  1   
 44  23  45  1   
 45  23  46  1   
 46  23  47  1   
 47  24  26  1   
 48  24  48  1   
 49  24  49  1   
 50  25  26  1   
 51  25  50  1   
 52  25  51  1   
 53  26  27  1   
 54  26  52  1   
 55  27  53  1   
@<TRIPOS>SUBSTRUCTURE
  1 ****  11 GROUP 4 **** **** 0

# MOE 2024.06 (io_trps.svl 2023.06)
