@<TRIPOS>MOLECULE
NONAME
44 46 1 0 0 
SMALL
USER_CHARGES


@<TRIPOS>ATOM
  1 O       -0.3810    -2.9120     1.8560 O.2   1 <1>  -0.5700 
  2 C        0.5020    -2.5620     1.0990 C.2   1 <1>   0.6900 
  3 N        1.5340    -3.4180     0.7870 N.am  1 <1>  -0.4200 
  4 N        0.4280    -1.3540     0.4690 N.am  1 <1>  -0.5390 
  5 C        2.3400    -3.1520    -0.3020 C.2   1 <1>   0.6160 
  6 C        1.7890    -4.6290     1.6250 C.3   1 <1>   0.1400 
  7 C        1.2910    -0.9920    -0.5460 C.2   1 <1>  -0.0290 
  8 O        3.0720    -4.0280    -0.7200 O.2   1 <1>  -0.5700 
  9 C        2.2340    -1.8790    -0.9350 C.2   1 <1>  -0.1360 
 10 C        1.0300    -5.8640     1.1060 C.3   1 <1>   0.3430 
 11 C        1.1050     0.3850    -1.1520 C.3   1 <1>  -0.1020 
 12 N       -0.4180    -5.5670     0.8670 N.4   1 <1>  -0.9590 
 13 C       -1.3480    -6.5990     1.4440 C.3   1 <1>   0.3430 
 14 C       -0.7080    -5.3490    -0.5960 C.3   1 <1>   0.3430 
 15 C       -2.8300    -6.2350     1.2110 C.3   1 <1>   0.2090 
 16 C       -2.1820    -4.9700    -0.8420 C.3   1 <1>   0.2090 
 17 N       -3.1170    -5.9660    -0.2330 N.pl3 1 <1>  -0.8380 
 18 C       -4.4520    -5.7380    -0.5140 C.ar  1 <1>   0.4100 
 19 N       -4.9610    -4.6210    -0.0160 N.ar  1 <1>  -0.6200 
 20 C       -5.2060    -6.6420    -1.2800 C.ar  1 <1>   0.1600 
 21 C       -6.2400    -4.4720    -0.3240 C.ar  1 <1>   0.1600 
 22 N       -6.4800    -6.4940    -1.5880 N.ar  1 <1>  -0.6200 
 23 C       -6.9760    -5.3730    -1.0820 C.ar  1 <1>   0.1600 
 24 H       -0.3160    -0.7280     0.7900 H     1 <1>   0.3700 
 25 H        1.4970    -4.4300     2.6410 H     1 <1>   0.0800 
 26 H        2.8450    -4.8420     1.6360 H     1 <1>   0.0800 
 27 H        2.9350    -1.6800    -1.7240 H     1 <1>   0.1500 
 28 H        1.1280    -6.6530     1.8340 H     1 <1>   0.0800 
 29 H        1.4940    -6.2030     0.1940 H     1 <1>   0.0800 
 30 H        1.2300     1.1410    -0.3970 H     1 <1>   0.0800 
 31 H        0.1210     0.4750    -1.5760 H     1 <1>   0.0800 
 32 H        1.8280     0.5580    -1.9290 H     1 <1>   0.0800 
 33 H       -0.6370    -4.6660     1.3460 H     1 <1>   0.4500 
 34 H       -1.1760    -6.6950     2.5030 H     1 <1>   0.0800 
 35 H       -1.1580    -7.5550     0.9860 H     1 <1>   0.0800 
 36 H       -0.4940    -6.2500    -1.1460 H     1 <1>   0.0800 
 37 H       -0.0770    -4.5670    -0.9830 H     1 <1>   0.0800 
 38 H       -3.0810    -5.3650     1.7950 H     1 <1>   0.0800 
 39 H       -3.4530    -7.0460     1.5500 H     1 <1>   0.0800 
 40 H       -2.3640    -4.9160    -1.9020 H     1 <1>   0.0800 
 41 H       -2.3740    -3.9940    -0.4270 H     1 <1>   0.0800 
 42 H       -4.7050    -7.5200    -1.6420 H     1 <1>   0.1500 
 43 H       -6.7330    -3.5890     0.0430 H     1 <1>   0.1500 
 44 H       -8.0130    -5.1630    -1.2800 H     1 <1>   0.1500 
@<TRIPOS>BOND
  1   1   2  2   
  2   2   3  am  
  3   2   4  am  
  4   3   5  am  
  5   3   6  1   
  6   4   7  1   
  7   4  24  1   
  8   5   8  2   
  9   5   9  1   
 10   6  10  1   
 11   6  25  1   
 12   6  26  1   
 13   7   9  2   
 14   7  11  1   
 15   9  27  1   
 16  10  12  1   
 17  10  28  1   
 18  10  29  1   
 19  11  30  1   
 20  11  31  1   
 21  11  32  1   
 22  12  13  1   
 23  12  14  1   
 24  12  33  1   
 25  13  15  1   
 26  13  34  1   
 27  13  35  1   
 28  14  16  1   
 29  14  36  1   
 30  14  37  1   
 31  15  17  1   
 32  15  38  1   
 33  15  39  1   
 34  16  17  1   
 35  16  40  1   
 36  16  41  1   
 37  17  18  1   
 38  18  19  ar  
 39  18  20  ar  
 40  19  21  ar  
 41  20  22  ar  
 42  20  42  1   
 43  21  23  ar  
 44  21  43  1   
 45  22  23  ar  
 46  23  44  1   
@<TRIPOS>SUBSTRUCTURE
  1 ****  14 GROUP 4 **** **** 0

# MOE 2024.06 (io_trps.svl 2023.06)
