@<TRIPOS>MOLECULE
NONAME
47 49 1 0 0 
SMALL
USER_CHARGES


@<TRIPOS>ATOM
  1 O       -1.8200     1.3070    -2.0070 O.2   1 <1>  -0.5700 
  2 C       -2.1820     1.2650    -0.8460 C.2   1 <1>   0.5440 
  3 N       -1.6400     2.1660     0.0540 N.am  1 <1>  -0.6600 
  4 C       -3.1520     0.2700    -0.4530 C.ar  1 <1>   0.0860 
  5 C       -1.6010     1.9400     1.5250 C.3   1 <1>   0.0600 
  6 C       -0.8520     3.3410    -0.4110 C.3   1 <1>   0.0600 
  7 C       -3.0310    -1.0430    -0.8980 C.ar  1 <1>   0.1600 
  8 C       -4.2420     0.5560     0.3640 C.ar  1 <1>  -0.1500 
  9 N       -3.8390    -2.0450    -0.5960 N.ar  1 <1>  -0.6200 
 10 C       -5.0950    -0.4720     0.6850 C.ar  1 <1>  -0.1500 
 11 C       -4.8650    -1.7530     0.1930 C.ar  1 <1>   0.4100 
 12 N       -5.7180    -2.7660     0.5300 N.pl3 1 <1>  -0.8690 
 13 C       -5.7830    -4.0640    -0.1640 C.3   1 <1>   0.4330 
 14 C       -7.2550    -4.4190    -0.3920 C.ar  1 <1>  -0.1430 
 15 C       -5.0330    -5.0870     0.6960 C.3   1 <1>  -0.1600 
 16 C       -7.7800    -5.6600    -0.0360 C.ar  1 <1>  -0.1430 
 17 C       -8.0870    -3.4820    -0.9930 C.ar  1 <1>  -0.1500 
 18 C       -5.4250    -6.5230     0.3330 C.3   1 <1>  -0.1600 
 19 C       -9.1200    -5.9360    -0.2640 C.ar  1 <1>  -0.1500 
 20 C       -6.9160    -6.7390     0.6070 C.3   1 <1>  -0.0170 
 21 C       -9.4210    -3.7630    -1.2200 C.ar  1 <1>  -0.1500 
 22 C       -9.9490    -4.9880    -0.8550 C.ar  1 <1>   0.0830 
 23 O      -11.2680    -5.1850    -1.1070 O.3   1 <1>  -0.3620 
 24 C      -11.9020    -6.4020    -0.7850 C.3   1 <1>   0.0400 
 25 H       -1.8880     0.9320     1.7680 H     1 <1>   0.0800 
 26 H       -2.2690     2.6270     2.0150 H     1 <1>   0.0800 
 27 H       -0.6020     2.1020     1.8910 H     1 <1>   0.0800 
 28 H       -1.0740     3.5630    -1.4410 H     1 <1>   0.0800 
 29 H        0.1990     3.1300    -0.3230 H     1 <1>   0.0800 
 30 H       -1.0950     4.2040     0.1840 H     1 <1>   0.0800 
 31 H       -2.2030    -1.2690    -1.5490 H     1 <1>   0.1500 
 32 H       -4.4030     1.5560     0.7250 H     1 <1>   0.1500 
 33 H       -5.9470    -0.3010     1.3160 H     1 <1>   0.1500 
 34 H       -6.6060    -2.5340     0.9740 H     1 <1>   0.4000 
 35 H       -5.3060    -3.9990    -1.1290 H     1 <1>   0.0800 
 36 H       -5.2600    -4.9170     1.7330 H     1 <1>   0.0800 
 37 H       -3.9770    -4.9460     0.5540 H     1 <1>   0.0800 
 38 H       -7.6910    -2.5270    -1.2930 H     1 <1>   0.1500 
 39 H       -4.8450    -7.2200     0.9130 H     1 <1>   0.0800 
 40 H       -5.2200    -6.7010    -0.7090 H     1 <1>   0.0800 
 41 H       -9.5060    -6.8940     0.0240 H     1 <1>   0.1500 
 42 H       -7.2040    -7.7070     0.2360 H     1 <1>   0.0800 
 43 H       -7.0890    -6.7260     1.6690 H     1 <1>   0.0800 
 44 H      -10.0610    -3.0340    -1.6830 H     1 <1>   0.1500 
 45 H      -12.9340    -6.3280    -1.0760 H     1 <1>   0.0800 
 46 H      -11.8320    -6.5620     0.2770 H     1 <1>   0.0800 
 47 H      -11.4260    -7.1980    -1.3280 H     1 <1>   0.0800 
@<TRIPOS>BOND
  1   1   2  2   
  2   2   3  am  
  3   2   4  1   
  4   3   5  1   
  5   3   6  1   
  6   4   7  ar  
  7   4   8  ar  
  8   5  25  1   
  9   5  26  1   
 10   5  27  1   
 11   6  28  1   
 12   6  29  1   
 13   6  30  1   
 14   7   9  ar  
 15   7  31  1   
 16   8  10  ar  
 17   8  32  1   
 18   9  11  ar  
 19  10  11  ar  
 20  10  33  1   
 21  11  12  1   
 22  12  13  1   
 23  12  34  1   
 24  13  14  1   
 25  13  15  1   
 26  13  35  1   
 27  14  16  ar  
 28  14  17  ar  
 29  15  18  1   
 30  15  36  1   
 31  15  37  1   
 32  16  19  ar  
 33  16  20  1   
 34  17  21  ar  
 35  17  38  1   
 36  18  20  1   
 37  18  39  1   
 38  18  40  1   
 39  19  22  ar  
 40  19  41  1   
 41  20  42  1   
 42  20  43  1   
 43  21  22  ar  
 44  21  44  1   
 45  22  23  1   
 46  23  24  1   
 47  24  45  1   
 48  24  46  1   
 49  24  47  1   
@<TRIPOS>SUBSTRUCTURE
  1 ****  12 GROUP 4 **** **** 0

# MOE 2024.06 (io_trps.svl 2023.06)
