@<TRIPOS>MOLECULE
NONAME
44 45 1 0 0 
SMALL
USER_CHARGES


@<TRIPOS>ATOM
  1 O        0.0820     0.7610    -1.1290 O.co2 1 <1>  -0.9000 
  2 C       -0.9050     1.1050    -0.4820 C.2   1 <1>   0.9060 
  3 O       -1.4600     0.3910     0.3570 O.co2 1 <1>  -0.9000 
  4 C       -1.3410     2.5280    -0.6560 C.3   1 <1>  -0.1860 
  5 C       -2.6280     2.8910     0.0850 C.3   1 <1>   0.2000 
  6 C       -0.1670     3.3350    -0.1470 C.3   1 <1>   0.3430 
  7 O       -2.4680     2.5780     1.4160 O.3   1 <1>  -0.6800 
  8 C       -2.8820     4.3920     0.0030 C.3   1 <1>  -0.1600 
  9 N       -0.4510     4.8000    -0.2730 N.4   1 <1>  -0.9590 
 10 C       -1.6680     5.1580     0.5250 C.3   1 <1>   0.3430 
 11 C        0.7630     5.5600     0.1550 C.3   1 <1>   0.3430 
 12 C        0.6750     7.0510    -0.1830 C.3   1 <1>   0.1200 
 13 O        1.8780     7.6470     0.2330 O.3   1 <1>  -0.3630 
 14 C        2.1080     8.9780     0.0720 C.ar  1 <1>   0.0830 
 15 C        3.3180     9.4830     0.5400 C.ar  1 <1>  -0.1430 
 16 C        1.1940     9.8370    -0.5350 C.ar  1 <1>  -0.1500 
 17 C        3.5950    10.8340     0.3990 C.ar  1 <1>  -0.1500 
 18 C        4.3410     8.5730     1.2040 C.3   1 <1>  -0.0970 
 19 C        1.4850    11.1820    -0.6680 C.ar  1 <1>  -0.1500 
 20 C        2.6850    11.6880    -0.2010 C.ar  1 <1>  -0.1430 
 21 C        3.0070    13.1640    -0.3480 C.3   1 <1>  -0.0970 
 22 H       -1.4650     2.6880    -1.7090 H     1 <1>   0.0800 
 23 H       -3.4630     2.3210    -0.2910 H     1 <1>   0.0800 
 24 H        0.7120     3.0660    -0.7130 H     1 <1>   0.0800 
 25 H        0.0070     3.0780     0.8860 H     1 <1>   0.0800 
 26 H       -2.2080     1.6090     1.4300 H     1 <1>   0.4000 
 27 H       -3.0880     4.6750    -1.0130 H     1 <1>   0.0800 
 28 H       -3.7490     4.6360     0.5920 H     1 <1>   0.0800 
 29 H       -0.6380     4.9700    -1.2680 H     1 <1>   0.4500 
 30 H       -1.5120     4.8960     1.5600 H     1 <1>   0.0800 
 31 H       -1.8590     6.2160     0.4650 H     1 <1>   0.0800 
 32 H        0.9010     5.4470     1.2180 H     1 <1>   0.0800 
 33 H        1.6280     5.1540    -0.3430 H     1 <1>   0.0800 
 34 H       -0.1290     7.5250     0.3490 H     1 <1>   0.0800 
 35 H        0.5810     7.1970    -1.2440 H     1 <1>   0.0800 
 36 H        0.2530     9.4890    -0.9110 H     1 <1>   0.1500 
 37 H        4.5290    11.2280     0.7580 H     1 <1>   0.1500 
 38 H        5.2180     9.1220     1.4950 H     1 <1>   0.0800 
 39 H        4.6360     7.7960     0.5220 H     1 <1>   0.0800 
 40 H        3.9130     8.1240     2.0820 H     1 <1>   0.0800 
 41 H        0.7730    11.8380    -1.1390 H     1 <1>   0.1500 
 42 H        2.1040    13.7450    -0.3990 H     1 <1>   0.0800 
 43 H        3.5760    13.3240    -1.2460 H     1 <1>   0.0800 
 44 H        3.5830    13.5070     0.4940 H     1 <1>   0.0800 
@<TRIPOS>BOND
  1   1   2  ar  
  2   2   3  ar  
  3   2   4  1   
  4   4   5  1   
  5   4   6  1   
  6   4  22  1   
  7   5   7  1   
  8   5   8  1   
  9   5  23  1   
 10   6   9  1   
 11   6  24  1   
 12   6  25  1   
 13   7  26  1   
 14   8  10  1   
 15   8  27  1   
 16   8  28  1   
 17   9  10  1   
 18   9  11  1   
 19   9  29  1   
 20  10  30  1   
 21  10  31  1   
 22  11  12  1   
 23  11  32  1   
 24  11  33  1   
 25  12  13  1   
 26  12  34  1   
 27  12  35  1   
 28  13  14  1   
 29  14  15  ar  
 30  14  16  ar  
 31  15  17  ar  
 32  15  18  1   
 33  16  19  ar  
 34  16  36  1   
 35  17  20  ar  
 36  17  37  1   
 37  18  38  1   
 38  18  39  1   
 39  18  40  1   
 40  19  20  ar  
 41  19  41  1   
 42  20  21  1   
 43  21  42  1   
 44  21  43  1   
 45  21  44  1   
@<TRIPOS>SUBSTRUCTURE
  1 ****  11 GROUP 4 **** **** 0

# MOE 2024.06 (io_trps.svl 2023.06)
