@<TRIPOS>MOLECULE
NONAME
53 55 1 0 0 
SMALL
USER_CHARGES


@<TRIPOS>ATOM
  1 O       -4.5350     2.4860    -1.2340 O.2   1 <1>  -0.5700 
  2 C       -3.6960     1.9610    -0.5310 C.2   1 <1>   0.5440 
  3 N       -3.3390     0.6580    -0.7750 N.am  1 <1>  -0.6600 
  4 C       -3.0580     2.7330     0.5120 C.ar  1 <1>   0.0860 
  5 C       -2.2620    -0.0540    -0.0050 C.3   1 <1>   0.3640 
  6 C       -4.0080    -0.1140    -1.8670 C.3   1 <1>   0.1400 
  7 C       -1.9480     3.5210     0.2210 C.ar  1 <1>  -0.1500 
  8 C       -3.5080     2.6990     1.8290 C.ar  1 <1>  -0.1500 
  9 C       -0.8710     0.1650    -0.6280 C.ar  1 <1>  -0.1430 
 10 C       -2.5630    -1.5770     0.1900 C.3   1 <1>   0.2000 
 11 C       -3.4280    -1.5250    -2.0240 C.3   1 <1>   0.1200 
 12 C       -1.2860     4.2330     1.2080 C.ar  1 <1>  -0.1440 
 13 C       -2.8630     3.4140     2.8210 C.ar  1 <1>  -0.1500 
 14 C        0.2400    -0.2600     0.0910 C.ar  1 <1>  -0.1500 
 15 C       -0.6660     0.7540    -1.8720 C.ar  1 <1>  -0.1500 
 16 O       -3.4100    -2.1530    -0.7800 O.3   1 <1>  -0.5600 
 17 C       -3.2120    -1.8570     1.5500 C.3   1 <1>   0.1200 
 18 C       -1.7520     4.1790     2.5140 C.ar  1 <1>  -0.1500 
 19 C       -0.0610     5.0550     0.8590 C.3   1 <1>   0.4860 
 20 C        1.5170    -0.1280    -0.4260 C.ar  1 <1>  -0.1500 
 21 C        0.6110     0.8930    -2.3890 C.ar  1 <1>  -0.1500 
 22 O       -2.3700    -1.4440     2.5810 O.3   1 <1>  -0.6800 
 23 N        1.1530     4.2460     1.1630 N.4   1 <1>  -0.9590 
 24 C        1.7040     0.4470    -1.6690 C.ar  1 <1>  -0.1500 
 25 C        2.3920     5.0780     1.1240 C.3   1 <1>   0.2630 
 26 C        1.2690     3.0620     0.2530 C.3   1 <1>   0.2630 
 27 H       -2.2060     0.3860     0.9730 H     1 <1>   0.0800 
 28 H       -5.0590    -0.1900    -1.6450 H     1 <1>   0.0800 
 29 H       -3.9090     0.4210    -2.7950 H     1 <1>   0.0800 
 30 H       -1.6170     3.5550    -0.8030 H     1 <1>   0.1500 
 31 H       -4.3740     2.1050     2.0690 H     1 <1>   0.1500 
 32 H       -1.6430    -2.1310     0.1500 H     1 <1>   0.0800 
 33 H       -2.4280    -1.5000    -2.4210 H     1 <1>   0.0800 
 34 H       -4.0470    -2.1100    -2.6810 H     1 <1>   0.0800 
 35 H       -3.2300     3.3760     3.8330 H     1 <1>   0.1500 
 36 H        0.1130    -0.7150     1.0610 H     1 <1>   0.1500 
 37 H       -1.4960     1.1010    -2.4620 H     1 <1>   0.1500 
 38 H       -3.3840    -2.9140     1.6610 H     1 <1>   0.0800 
 39 H       -4.1430    -1.3230     1.6360 H     1 <1>   0.0800 
 40 H       -1.2670     4.7300     3.3020 H     1 <1>   0.1500 
 41 H       -0.0630     5.9590     1.4460 H     1 <1>   0.0800 
 42 H       -0.0810     5.3250    -0.1850 H     1 <1>   0.0800 
 43 H        2.3640    -0.4870     0.1360 H     1 <1>   0.1500 
 44 H        0.7500     1.3350    -3.3610 H     1 <1>   0.1500 
 45 H       -2.7330    -1.7220     3.4470 H     1 <1>   0.4000 
 46 H        1.0160     3.8820     2.1180 H     1 <1>   0.4500 
 47 H        2.6950     0.5350    -2.0820 H     1 <1>   0.1500 
 48 H        2.5480     5.4730     0.1330 H     1 <1>   0.0800 
 49 H        3.2490     4.4820     1.3950 H     1 <1>   0.0800 
 50 H        2.3150     5.9000     1.8170 H     1 <1>   0.0800 
 51 H        1.3540     3.3780    -0.7740 H     1 <1>   0.0800 
 52 H        0.4010     2.4280     0.3430 H     1 <1>   0.0800 
 53 H        2.1380     2.4760     0.5050 H     1 <1>   0.0800 
@<TRIPOS>BOND
  1   1   2  2   
  2   2   3  am  
  3   2   4  1   
  4   3   5  1   
  5   3   6  1   
  6   4   7  ar  
  7   4   8  ar  
  8   5   9  1   
  9   5  10  1   
 10   5  27  1   
 11   6  11  1   
 12   6  28  1   
 13   6  29  1   
 14   7  12  ar  
 15   7  30  1   
 16   8  13  ar  
 17   8  31  1   
 18   9  14  ar  
 19   9  15  ar  
 20  10  16  1   
 21  10  17  1   
 22  10  32  1   
 23  11  16  1   
 24  11  33  1   
 25  11  34  1   
 26  12  18  ar  
 27  12  19  1   
 28  13  18  ar  
 29  13  35  1   
 30  14  20  ar  
 31  14  36  1   
 32  15  21  ar  
 33  15  37  1   
 34  17  22  1   
 35  17  38  1   
 36  17  39  1   
 37  18  40  1   
 38  19  23  1   
 39  19  41  1   
 40  19  42  1   
 41  20  24  ar  
 42  20  43  1   
 43  21  24  ar  
 44  21  44  1   
 45  22  45  1   
 46  23  25  1   
 47  23  26  1   
 48  23  46  1   
 49  24  47  1   
 50  25  48  1   
 51  25  49  1   
 52  25  50  1   
 53  26  51  1   
 54  26  52  1   
 55  26  53  1   
@<TRIPOS>SUBSTRUCTURE
  1 ****   9 GROUP 4 **** **** 0

# MOE 2024.06 (io_trps.svl 2023.06)
