@<TRIPOS>MOLECULE
NONAME
44 46 1 0 0 
SMALL
USER_CHARGES


@<TRIPOS>ATOM
  1 O       -0.4380     0.1350     0.9380 O.2   1 <1>  -0.5700 
  2 C       -1.4580     0.7620     0.7260 C.2   1 <1>   0.5440 
  3 N       -2.6150     0.0710     0.4600 N.am  1 <1>  -0.6600 
  4 C       -1.4470     2.2090     0.7470 C.ar  1 <1>   0.0860 
  5 C       -3.8510     0.6670    -0.1040 C.3   1 <1>   0.1400 
  6 C       -2.6590    -1.4080     0.3870 C.3   1 <1>   0.1400 
  7 C       -0.7560     2.9650    -0.2050 C.ar  1 <1>   0.1660 
  8 C       -2.1480     2.9010     1.7250 C.ar  1 <1>  -0.1500 
  9 C       -4.5960    -0.5090    -0.7350 C.3   1 <1>   0.2000 
 10 C       -4.0980    -1.7530     0.0000 C.3   1 <1>  -0.0800 
 11 N       -0.7360     4.2880    -0.2480 N.ar  1 <1>  -0.6200 
 12 C        0.0470     2.2770    -1.2970 C.3   1 <1>  -0.0970 
 13 C       -2.1260     4.2770     1.6910 C.ar  1 <1>  -0.1500 
 14 O       -5.9680    -0.3830    -0.5870 O.3   1 <1>  -0.6800 
 15 C       -4.2210    -3.0330    -0.8400 C.3   1 <1>  -0.0170 
 16 C       -1.4140     4.9200     0.6930 C.ar  1 <1>   0.1670 
 17 C       -3.7170    -4.2430    -0.0700 C.ar  1 <1>  -0.1430 
 18 C       -1.3740     6.4320     0.6320 C.3   1 <1>  -0.0970 
 19 C       -2.4310    -4.7250    -0.2160 C.ar  1 <1>  -0.1500 
 20 C       -4.5240    -4.9220     0.8200 C.ar  1 <1>  -0.1500 
 21 C       -2.0260    -5.8270     0.5180 C.ar  1 <1>   0.1600 
 22 C       -4.0210    -6.0160     1.5040 C.ar  1 <1>   0.1600 
 23 N       -2.7910    -6.4840     1.3760 N.ar  1 <1>  -0.6200 
 24 H       -4.4260     1.1040     0.6920 H     1 <1>   0.0800 
 25 H       -3.6130     1.4110    -0.8450 H     1 <1>   0.0800 
 26 H       -1.9640    -1.7390    -0.3660 H     1 <1>   0.0800 
 27 H       -2.3870    -1.8440     1.3340 H     1 <1>   0.0800 
 28 H       -2.6870     2.3690     2.4880 H     1 <1>   0.1500 
 29 H       -4.3710    -0.5580    -1.7870 H     1 <1>   0.0800 
 30 H       -4.6510    -1.8720     0.9150 H     1 <1>   0.0800 
 31 H       -0.5270     1.4910    -1.7510 H     1 <1>   0.0800 
 32 H        0.9430     1.8600    -0.8740 H     1 <1>   0.0800 
 33 H        0.3240     2.9810    -2.0610 H     1 <1>   0.0800 
 34 H       -2.6560     4.8450     2.4330 H     1 <1>   0.1500 
 35 H       -6.2110    -0.3790     0.3590 H     1 <1>   0.4000 
 36 H       -3.6650    -2.9280    -1.7560 H     1 <1>   0.0800 
 37 H       -5.2530    -3.1860    -1.1070 H     1 <1>   0.0800 
 38 H       -1.9490     6.8700     1.4270 H     1 <1>   0.0800 
 39 H       -1.7710     6.7630    -0.3100 H     1 <1>   0.0800 
 40 H       -0.3560     6.7660     0.7140 H     1 <1>   0.0800 
 41 H       -1.7390    -4.2550    -0.8900 H     1 <1>   0.1500 
 42 H       -5.5390    -4.6120     0.9870 H     1 <1>   0.1500 
 43 H       -1.0190    -6.1880     0.3940 H     1 <1>   0.1500 
 44 H       -4.6660    -6.5330     2.1940 H     1 <1>   0.1500 
@<TRIPOS>BOND
  1   1   2  2   
  2   2   3  am  
  3   2   4  1   
  4   3   5  1   
  5   3   6  1   
  6   4   7  ar  
  7   4   8  ar  
  8   5   9  1   
  9   5  24  1   
 10   5  25  1   
 11   6  10  1   
 12   6  26  1   
 13   6  27  1   
 14   7  11  ar  
 15   7  12  1   
 16   8  13  ar  
 17   8  28  1   
 18   9  10  1   
 19   9  14  1   
 20   9  29  1   
 21  10  15  1   
 22  10  30  1   
 23  11  16  ar  
 24  12  31  1   
 25  12  32  1   
 26  12  33  1   
 27  13  16  ar  
 28  13  34  1   
 29  14  35  1   
 30  15  17  1   
 31  15  36  1   
 32  15  37  1   
 33  16  18  1   
 34  17  19  ar  
 35  17  20  ar  
 36  18  38  1   
 37  18  39  1   
 38  18  40  1   
 39  19  21  ar  
 40  19  41  1   
 41  20  22  ar  
 42  20  42  1   
 43  21  23  ar  
 44  21  43  1   
 45  22  23  ar  
 46  22  44  1   
@<TRIPOS>SUBSTRUCTURE
  1 ****   3 GROUP 4 **** **** 0

# MOE 2024.06 (io_trps.svl 2023.06)
