@<TRIPOS>MOLECULE
NONAME
38 39 1 0 0 
SMALL
USER_CHARGES


@<TRIPOS>ATOM
  1 O        0.1450    -0.2160     0.9680 O.2   1 <1>  -0.5700 
  2 C        1.1700    -0.7620     0.6060 C.2   1 <1>   0.5440 
  3 N        2.2910    -0.0280     0.3110 N.am  1 <1>  -0.4930 
  4 C        1.2220    -2.1910     0.4740 C.ar  1 <1>   0.0860 
  5 C        2.5100     1.3710     0.4130 C.2   1 <1>   0.0630 
  6 C        0.3740    -2.9320    -0.3370 C.ar  1 <1>   0.1660 
  7 C        2.1660    -2.9260     1.1660 C.ar  1 <1>   0.1600 
  8 C        3.6490     2.0690     0.0050 C.2   1 <1>   0.1080 
  9 C        1.7000     2.3250     0.9150 C.2   1 <1>  -0.3020 
 10 N        0.4790    -4.2320    -0.4560 N.ar  1 <1>  -0.6200 
 11 C       -0.7310    -2.2750    -1.1470 C.3   1 <1>  -0.0970 
 12 N        2.2960    -4.2230     1.0590 N.ar  1 <1>  -0.6200 
 13 N        3.5570     3.3410     0.2330 N.2   1 <1>  -0.7070 
 14 C        4.8760     1.4570    -0.6350 C.3   1 <1>  -0.0590 
 15 N        2.3470     3.5010     0.7960 N.pl3 1 <1>   0.3140 
 16 C        1.4390    -4.8380     0.2440 C.ar  1 <1>   0.7200 
 17 C        1.8510     4.8170     1.2110 C.3   1 <1>   0.0160 
 18 N        1.5550    -6.2020     0.1140 N.pl3 1 <1>  -0.8380 
 19 C        2.7100    -6.9660     0.6630 C.3   1 <1>   0.1290 
 20 C        0.5100    -7.0280    -0.5550 C.3   1 <1>   0.1290 
 21 H        3.0750    -0.5420    -0.0850 H     1 <1>   0.3700 
 22 H        2.8370    -2.4150     1.8350 H     1 <1>   0.1500 
 23 H        0.7190     2.2260     1.3400 H     1 <1>   0.1500 
 24 H       -0.3850    -1.3640    -1.5990 H     1 <1>   0.0800 
 25 H       -1.5620    -2.0500    -0.5030 H     1 <1>   0.0800 
 26 H       -1.0680    -2.9340    -1.9260 H     1 <1>   0.0800 
 27 H        5.3400     0.7700     0.0470 H     1 <1>   0.0800 
 28 H        5.5810     2.2320    -0.8790 H     1 <1>   0.0800 
 29 H        4.6010     0.9450    -1.5380 H     1 <1>   0.0800 
 30 H        0.8090     4.8970     0.9650 H     1 <1>   0.0800 
 31 H        2.4050     5.5790     0.6960 H     1 <1>   0.0800 
 32 H        1.9880     4.9240     2.2700 H     1 <1>   0.0800 
 33 H        3.5870    -6.3460     0.7180 H     1 <1>   0.0800 
 34 H        2.9320    -7.8070     0.0290 H     1 <1>   0.0800 
 35 H        2.4690    -7.3200     1.6510 H     1 <1>   0.0800 
 36 H       -0.4560    -6.5590    -0.4750 H     1 <1>   0.0800 
 37 H        0.4510    -7.9980    -0.0930 H     1 <1>   0.0800 
 38 H        0.7560    -7.1450    -1.5960 H     1 <1>   0.0800 
@<TRIPOS>BOND
  1   1   2  2   
  2   2   3  am  
  3   2   4  1   
  4   3   5  1   
  5   3  21  1   
  6   4   6  ar  
  7   4   7  ar  
  8   5   8  1   
  9   5   9  2   
 10   6  10  ar  
 11   6  11  1   
 12   7  12  ar  
 13   7  22  1   
 14   8  13  2   
 15   8  14  1   
 16   9  15  1   
 17   9  23  1   
 18  10  16  ar  
 19  11  24  1   
 20  11  25  1   
 21  11  26  1   
 22  12  16  ar  
 23  13  15  1   
 24  14  27  1   
 25  14  28  1   
 26  14  29  1   
 27  15  17  1   
 28  16  18  1   
 29  17  30  1   
 30  17  31  1   
 31  17  32  1   
 32  18  19  1   
 33  18  20  1   
 34  19  33  1   
 35  19  34  1   
 36  19  35  1   
 37  20  36  1   
 38  20  37  1   
 39  20  38  1   
@<TRIPOS>SUBSTRUCTURE
  1 ****   2 GROUP 4 **** **** 0

# MOE 2024.06 (io_trps.svl 2023.06)
