@<TRIPOS>MOLECULE
NONAME
57 61 1 0 0 
SMALL
USER_CHARGES


@<TRIPOS>ATOM
  1 O       -1.7620    -1.4100    -0.5110 O.2   1 <1>  -0.5700 
  2 C       -2.6100    -0.5420    -0.4230 C.2   1 <1>   0.5440 
  3 N       -2.4340     0.6230    -1.1410 N.am  1 <1>  -0.6600 
  4 C       -3.7640    -0.7770     0.4110 C.ar  1 <1>   0.0860 
  5 C       -1.1230     0.9610    -1.7720 C.3   1 <1>   0.1400 
  6 C       -3.5280     1.5510    -1.5540 C.3   1 <1>   0.1400 
  7 C       -4.4320    -1.9960     0.3540 C.ar  1 <1>   0.1600 
  8 C       -4.2530     0.1630     1.3130 C.ar  1 <1>  -0.1500 
  9 C       -0.8120     2.4580    -1.6050 C.3   1 <1>   0.1200 
 10 C       -3.0850     3.0140    -1.3830 C.3   1 <1>   0.1200 
 11 N       -5.5050    -2.3320     1.0500 N.ar  1 <1>  -0.6200 
 12 C       -5.3630    -0.1690     2.0520 C.ar  1 <1>  -0.1500 
 13 O       -1.8800     3.2450    -2.0570 O.3   1 <1>  -0.5600 
 14 C       -5.9640    -1.4160     1.8970 C.ar  1 <1>   0.4100 
 15 N       -7.0810    -1.7340     2.6360 N.pl3 1 <1>  -0.8380 
 16 C       -8.3450    -0.9970     2.4060 C.3   1 <1>   0.2090 
 17 C       -7.2490    -3.1020     3.1950 C.3   1 <1>   0.2090 
 18 C       -9.2070    -1.7830     1.4190 C.3   1 <1>  -0.1600 
 19 C       -8.1200    -3.9450     2.2630 C.3   1 <1>  -0.1600 
 20 C       -9.4310    -3.2290     1.8940 C.3   1 <1>   0.1000 
 21 C      -10.2710    -4.0270     0.8990 C.2   1 <1>   0.0060 
 22 N      -11.4630    -4.4130     1.2010 N.2   1 <1>  -0.5650 
 23 N       -9.8740    -4.4000    -0.3600 N.pl3 1 <1>   0.0480 
 24 C      -11.8990    -5.0820     0.1020 C.ar  1 <1>   0.2270 
 25 C      -10.9270    -5.0870    -0.8790 C.ar  1 <1>  -0.1520 
 26 C       -8.6050    -4.1900    -1.0900 C.3   1 <1>   0.0160 
 27 C      -13.1230    -5.7110    -0.1200 C.ar  1 <1>  -0.1500 
 28 C      -11.1490    -5.7230    -2.1050 C.ar  1 <1>  -0.1500 
 29 C      -13.3490    -6.3380    -1.3260 C.ar  1 <1>  -0.1500 
 30 C      -12.3610    -6.3440    -2.3180 C.ar  1 <1>  -0.1500 
 31 H       -1.1600     0.7170    -2.8190 H     1 <1>   0.0800 
 32 H       -0.3320     0.3850    -1.3240 H     1 <1>   0.0800 
 33 H       -4.4240     1.3760    -0.9880 H     1 <1>   0.0800 
 34 H       -3.7580     1.3790    -2.5910 H     1 <1>   0.0800 
 35 H       -4.0420    -2.7390    -0.3210 H     1 <1>   0.1500 
 36 H       -3.7650     1.1150     1.4290 H     1 <1>   0.1500 
 37 H        0.0570     2.7220    -2.1810 H     1 <1>   0.0800 
 38 H       -0.6260     2.6910    -0.5710 H     1 <1>   0.0800 
 39 H       -2.9490     3.2530    -0.3430 H     1 <1>   0.0800 
 40 H       -3.8240     3.6770    -1.7980 H     1 <1>   0.0800 
 41 H       -5.7780     0.5140     2.7670 H     1 <1>   0.1500 
 42 H       -8.1390    -0.0180     2.0090 H     1 <1>   0.0800 
 43 H       -8.8640    -0.8810     3.3430 H     1 <1>   0.0800 
 44 H       -7.7100    -3.0290     4.1650 H     1 <1>   0.0800 
 45 H       -6.2850    -3.5680     3.3160 H     1 <1>   0.0800 
 46 H       -8.7240    -1.7620     0.4630 H     1 <1>   0.0800 
 47 H      -10.1600    -1.2960     1.3130 H     1 <1>   0.0800 
 48 H       -8.3480    -4.8800     2.7410 H     1 <1>   0.0800 
 49 H       -7.5410    -4.1680     1.3900 H     1 <1>   0.0800 
 50 H      -10.0070    -3.1660     2.8020 H     1 <1>   0.0800 
 51 H       -7.9970    -3.4520    -0.6060 H     1 <1>   0.0800 
 52 H       -8.8230    -3.8610    -2.0890 H     1 <1>   0.0800 
 53 H       -8.0660    -5.1190    -1.1290 H     1 <1>   0.0800 
 54 H      -13.8590    -5.6900     0.6600 H     1 <1>   0.1500 
 55 H      -10.3860    -5.7250    -2.8620 H     1 <1>   0.1500 
 56 H      -14.2880    -6.8290    -1.5140 H     1 <1>   0.1500 
 57 H      -12.5590    -6.8410    -3.2510 H     1 <1>   0.1500 
@<TRIPOS>BOND
  1   1   2  2   
  2   2   3  am  
  3   2   4  1   
  4   3   5  1   
  5   3   6  1   
  6   4   7  ar  
  7   4   8  ar  
  8   5   9  1   
  9   5  31  1   
 10   5  32  1   
 11   6  10  1   
 12   6  33  1   
 13   6  34  1   
 14   7  11  ar  
 15   7  35  1   
 16   8  12  ar  
 17   8  36  1   
 18   9  13  1   
 19   9  37  1   
 20   9  38  1   
 21  10  13  1   
 22  10  39  1   
 23  10  40  1   
 24  11  14  ar  
 25  12  14  ar  
 26  12  41  1   
 27  14  15  1   
 28  15  16  1   
 29  15  17  1   
 30  16  18  1   
 31  16  42  1   
 32  16  43  1   
 33  17  19  1   
 34  17  44  1   
 35  17  45  1   
 36  18  20  1   
 37  18  46  1   
 38  18  47  1   
 39  19  20  1   
 40  19  48  1   
 41  19  49  1   
 42  20  21  1   
 43  20  50  1   
 44  21  22  2   
 45  21  23  1   
 46  22  24  1   
 47  23  25  1   
 48  23  26  1   
 49  24  25  ar  
 50  24  27  ar  
 51  25  28  ar  
 52  26  51  1   
 53  26  52  1   
 54  26  53  1   
 55  27  29  ar  
 56  27  54  1   
 57  28  30  ar  
 58  28  55  1   
 59  29  30  ar  
 60  29  56  1   
 61  30  57  1   
@<TRIPOS>SUBSTRUCTURE
  1 ****  11 GROUP 4 **** **** 0

# MOE 2024.06 (io_trps.svl 2023.06)
