@<TRIPOS>MOLECULE
NONAME
51 53 1 0 0 
SMALL
USER_CHARGES


@<TRIPOS>ATOM
  1 O       -0.6540     1.0650    -1.3490 O.2   1 <1>  -0.5700 
  2 C       -1.6410     1.3870    -0.7310 C.2   1 <1>   0.5690 
  3 N       -2.7690     0.5950    -0.7340 N.am  1 <1>  -0.6600 
  4 C       -1.5900     2.7020     0.0600 C.3   1 <1>  -0.0190 
  5 C       -2.7520    -0.7650    -1.3750 C.3   1 <1>   0.1400 
  6 C       -4.1150     1.0110    -0.2540 C.3   1 <1>   0.1400 
  7 C       -2.0970     3.8880    -0.7790 C.3   1 <1>  -0.1600 
  8 C       -0.1800     3.0380     0.5830 C.3   1 <1>  -0.1600 
  9 C       -3.2450    -1.8640    -0.4010 C.3   1 <1>   0.0000 
 10 C       -4.6320    -0.0110     0.7560 C.3   1 <1>  -0.1600 
 11 C       -1.9760     5.2000     0.0040 C.3   1 <1>   0.1200 
 12 C       -0.1720     4.3970     1.2910 C.3   1 <1>   0.1200 
 13 C       -4.6330    -1.4060     0.1260 C.3   1 <1>   0.2000 
 14 C       -3.4770    -3.1810    -1.1840 C.3   1 <1>   0.1200 
 15 C       -2.2270    -2.0630     0.7680 C.3   1 <1>  -0.0170 
 16 O       -0.6580     5.3740     0.4230 O.3   1 <1>  -0.5600 
 17 O       -5.1440    -2.2950     1.0560 O.3   1 <1>  -0.6800 
 18 O       -2.3980    -3.4950    -1.9990 O.3   1 <1>  -0.6800 
 19 C       -0.9410    -2.7990     0.4020 C.ar  1 <1>  -0.1440 
 20 C       -0.8450    -4.1700     0.5940 C.ar  1 <1>  -0.1500 
 21 C        0.1430    -2.1140    -0.1220 C.ar  1 <1>  -0.1500 
 22 C        0.3120    -4.8470     0.2490 C.ar  1 <1>  -0.1500 
 23 C        1.3000    -2.7890    -0.4680 C.ar  1 <1>  -0.1500 
 24 C        1.3850    -4.1570    -0.2840 C.ar  1 <1>  -0.1500 
 25 H       -2.2130     2.5980     0.9280 H     1 <1>   0.0800 
 26 H       -3.3900    -0.7400    -2.2420 H     1 <1>   0.0800 
 27 H       -1.7640    -1.0060    -1.7260 H     1 <1>   0.0800 
 28 H       -4.1000     1.9860     0.1950 H     1 <1>   0.0800 
 29 H       -4.7830     1.0540    -1.0980 H     1 <1>   0.0800 
 30 H       -3.1210     3.7350    -1.0660 H     1 <1>   0.0800 
 31 H       -1.5130     3.9680    -1.6800 H     1 <1>   0.0800 
 32 H        0.5210     3.0770    -0.2340 H     1 <1>   0.0800 
 33 H        0.1510     2.2730     1.2620 H     1 <1>   0.0800 
 34 H       -5.6370     0.2550     1.0330 H     1 <1>   0.0800 
 35 H       -4.0150     0.0180     1.6360 H     1 <1>   0.0800 
 36 H       -2.6140     5.2030     0.8710 H     1 <1>   0.0800 
 37 H       -2.2320     6.0380    -0.6220 H     1 <1>   0.0800 
 38 H        0.8310     4.6730     1.5650 H     1 <1>   0.0800 
 39 H       -0.7870     4.3850     2.1750 H     1 <1>   0.0800 
 40 H       -5.3270    -1.3980    -0.6980 H     1 <1>   0.0800 
 41 H       -4.3360    -3.0950    -1.8270 H     1 <1>   0.0800 
 42 H       -3.6420    -4.0040    -0.5090 H     1 <1>   0.0800 
 43 H       -1.9600    -1.1100     1.1860 H     1 <1>   0.0800 
 44 H       -2.6910    -2.6220     1.5590 H     1 <1>   0.0800 
 45 H       -4.6640    -2.2200     1.9020 H     1 <1>   0.4000 
 46 H       -1.5750    -3.5440    -1.4580 H     1 <1>   0.4000 
 47 H       -1.6710    -4.7210     1.0080 H     1 <1>   0.1500 
 48 H        0.0980    -1.0490    -0.2680 H     1 <1>   0.1500 
 49 H        0.3770    -5.9110     0.3960 H     1 <1>   0.1500 
 50 H        2.1320    -2.2450    -0.8810 H     1 <1>   0.1500 
 51 H        2.2850    -4.6820    -0.5550 H     1 <1>   0.1500 
@<TRIPOS>BOND
  1   1   2  2   
  2   2   3  am  
  3   2   4  1   
  4   3   5  1   
  5   3   6  1   
  6   4   7  1   
  7   4   8  1   
  8   4  25  1   
  9   5   9  1   
 10   5  26  1   
 11   5  27  1   
 12   6  10  1   
 13   6  28  1   
 14   6  29  1   
 15   7  11  1   
 16   7  30  1   
 17   7  31  1   
 18   8  12  1   
 19   8  32  1   
 20   8  33  1   
 21   9  13  1   
 22   9  14  1   
 23   9  15  1   
 24  10  13  1   
 25  10  34  1   
 26  10  35  1   
 27  11  16  1   
 28  11  36  1   
 29  11  37  1   
 30  12  16  1   
 31  12  38  1   
 32  12  39  1   
 33  13  17  1   
 34  13  40  1   
 35  14  18  1   
 36  14  41  1   
 37  14  42  1   
 38  15  19  1   
 39  15  43  1   
 40  15  44  1   
 41  17  45  1   
 42  18  46  1   
 43  19  20  ar  
 44  19  21  ar  
 45  20  22  ar  
 46  20  47  1   
 47  21  23  ar  
 48  21  48  1   
 49  22  24  ar  
 50  22  49  1   
 51  23  24  ar  
 52  23  50  1   
 53  24  51  1   
@<TRIPOS>SUBSTRUCTURE
  1 ****   3 GROUP 4 **** **** 0

# MOE 2024.06 (io_trps.svl 2023.06)
