@<TRIPOS>MOLECULE
NONAME
42 45 1 0 0 
SMALL
USER_CHARGES


@<TRIPOS>ATOM
  1 O       -0.8370     0.3430     0.6340 O.2   1 <1>  -0.5700 
  2 C       -1.8460     0.8710     0.1950 C.2   1 <1>   0.7160 
  3 N       -2.8460     0.0330    -0.2630 N.am  1 <1>  -0.6600 
  4 C       -1.9220     2.3340     0.1800 C.2   1 <1>   0.1410 
  5 C       -4.1080     0.4470    -0.9280 C.3   1 <1>   0.1400 
  6 C       -2.7690    -1.4450    -0.1620 C.3   1 <1>   0.1400 
  7 N       -2.9960     3.0760    -0.2160 N.2   1 <1>  -0.5650 
  8 C       -0.9200     3.1800     0.5690 C.2   1 <1>  -0.3020 
  9 C       -4.7490    -0.8550    -1.4060 C.3   1 <1>   0.2000 
 10 C       -4.1720    -1.9450    -0.5050 C.3   1 <1>  -0.0800 
 11 C       -2.6300     4.3150    -0.0620 C.2   1 <1>   0.3120 
 12 N       -1.3480     4.4390     0.4230 N.pl3 1 <1>   0.3340 
 13 O       -6.1290    -0.8230    -1.2940 O.3   1 <1>  -0.6800 
 14 C       -4.1910    -3.3360    -1.1550 C.3   1 <1>   0.0210 
 15 N       -3.4170     5.4070    -0.3460 N.2   1 <1>  -0.5760 
 16 C       -0.8030     5.6900     0.6450 C.2   1 <1>  -0.1810 
 17 C       -3.5100    -4.3630    -0.2710 C.2   1 <1>   0.1080 
 18 C       -2.8980     6.5680    -0.1360 C.2   1 <1>   0.3760 
 19 C       -1.5800     6.7660     0.3650 C.2   1 <1>  -0.1360 
 20 N       -3.9720    -4.7080     0.8900 N.2   1 <1>  -0.7070 
 21 C       -2.3330    -5.0320    -0.5890 C.2   1 <1>  -0.1500 
 22 N       -3.0920    -5.6180     1.3490 N.pl3 1 <1>   0.3000 
 23 C       -2.0900    -5.8310     0.4710 C.2   1 <1>  -0.3320 
 24 C       -0.9440    -6.7980     0.7030 C.3   1 <1>  -0.0600 
 25 H       -4.7360     0.9500    -0.2140 H     1 <1>   0.0800 
 26 H       -3.9000     1.0980    -1.7600 H     1 <1>   0.0800 
 27 H       -2.0440    -1.8050    -0.8720 H     1 <1>   0.0800 
 28 H       -2.4770    -1.7500     0.8290 H     1 <1>   0.0800 
 29 H        0.0560     2.9250     0.9360 H     1 <1>   0.1500 
 30 H       -4.4960    -1.0240    -2.4390 H     1 <1>   0.0800 
 31 H       -4.7270    -1.9820     0.4170 H     1 <1>   0.0800 
 32 H       -6.3860    -0.7040    -0.3590 H     1 <1>   0.4000 
 33 H       -3.6970    -3.3060    -2.1100 H     1 <1>   0.0800 
 34 H       -5.2090    -3.6420    -1.3160 H     1 <1>   0.0800 
 35 H        0.2020     5.7320     1.0250 H     1 <1>   0.1500 
 36 H       -3.4840     7.4460    -0.3470 H     1 <1>   0.0600 
 37 H       -1.2400     7.7760     0.5060 H     1 <1>   0.1500 
 38 H       -1.7610    -4.9180    -1.4920 H     1 <1>   0.1500 
 39 H       -3.2050    -6.0740     2.2620 H     1 <1>   0.2700 
 40 H       -0.2760    -6.7880    -0.1400 H     1 <1>   0.0800 
 41 H       -1.3200    -7.7970     0.8300 H     1 <1>   0.0800 
 42 H       -0.3910    -6.5160     1.5810 H     1 <1>   0.0800 
@<TRIPOS>BOND
  1   1   2  2   
  2   2   3  am  
  3   2   4  1   
  4   3   5  1   
  5   3   6  1   
  6   4   7  1   
  7   4   8  2   
  8   5   9  1   
  9   5  25  1   
 10   5  26  1   
 11   6  10  1   
 12   6  27  1   
 13   6  28  1   
 14   7  11  2   
 15   8  12  1   
 16   8  29  1   
 17   9  10  1   
 18   9  13  1   
 19   9  30  1   
 20  10  14  1   
 21  10  31  1   
 22  11  12  1   
 23  11  15  1   
 24  12  16  1   
 25  13  32  1   
 26  14  17  1   
 27  14  33  1   
 28  14  34  1   
 29  15  18  2   
 30  16  19  2   
 31  16  35  1   
 32  17  20  2   
 33  17  21  1   
 34  18  19  1   
 35  18  36  1   
 36  19  37  1   
 37  20  22  1   
 38  21  23  2   
 39  21  38  1   
 40  22  23  1   
 41  22  39  1   
 42  23  24  1   
 43  24  40  1   
 44  24  41  1   
 45  24  42  1   
@<TRIPOS>SUBSTRUCTURE
  1 ****   3 GROUP 4 **** **** 0

# MOE 2024.06 (io_trps.svl 2023.06)
