@<TRIPOS>MOLECULE
NONAME
52 54 1 0 0 
SMALL
USER_CHARGES


@<TRIPOS>ATOM
  1 O       -0.1050     0.9780    -1.1920 O.2   1 <1>  -0.5700 
  2 C       -0.9850     1.1630    -0.3860 C.2   1 <1>   0.5690 
  3 N       -2.0400     0.2720    -0.3250 N.am  1 <1>  -0.6600 
  4 C       -0.9280     2.4250     0.4910 C.3   1 <1>   0.3800 
  5 C       -1.9940    -0.9390    -1.2310 C.3   1 <1>   0.3210 
  6 C       -3.3300     0.4980     0.4090 C.3   1 <1>   0.1400 
  7 N       -1.9350     3.3670    -0.0290 N.pl3 1 <1>   0.3140 
  8 C        0.4250     3.1340     0.6660 C.ar  1 <1>  -0.1440 
  9 C       -2.9180    -2.0900    -0.8170 C.2   1 <1>   0.0460 
 10 C       -4.4230     0.9710    -0.5730 C.3   1 <1>   0.3430 
 11 N       -3.0430     3.6730     0.6240 N.2   1 <1>  -0.4180 
 12 C       -2.0280     3.9110    -1.2290 C.2   1 <1>   0.0360 
 13 C        1.2380     3.4790    -0.4090 C.ar  1 <1>  -0.1500 
 14 C        0.8450     3.4650     1.9490 C.ar  1 <1>  -0.1500 
 15 N       -4.2540    -2.0470    -1.0450 N.2   1 <1>  -0.5650 
 16 C       -2.5720    -3.2580    -0.2240 C.2   1 <1>  -0.3320 
 17 N       -5.7890     0.9810     0.0360 N.4   1 <1>  -0.9590 
 18 N       -3.7500     4.3900    -0.1720 N.2   1 <1>   0.0000 
 19 N       -3.1390     4.5330    -1.3410 N.2   1 <1>  -0.3380 
 20 C        2.4390     4.1350    -0.2040 C.ar  1 <1>  -0.1500 
 21 C        2.0460     4.1210     2.1540 C.ar  1 <1>  -0.1500 
 22 C       -4.6780    -3.1900    -0.6090 C.2   1 <1>   0.0360 
 23 N       -3.7070    -3.9700    -0.0940 N.pl3 1 <1>   0.0330 
 24 C       -1.2240    -3.7900     0.2360 C.3   1 <1>  -0.0600 
 25 C       -6.8070     1.1490    -1.0440 C.3   1 <1>   0.2630 
 26 C       -5.9360     2.0570     1.0660 C.3   1 <1>   0.2630 
 27 C        2.8440     4.4570     1.0770 C.ar  1 <1>  -0.1500 
 28 H       -1.2490     2.1280     1.4700 H     1 <1>   0.0800 
 29 H       -0.9860    -1.3120    -1.2680 H     1 <1>   0.0800 
 30 H       -2.2540    -0.6380    -2.2310 H     1 <1>   0.0800 
 31 H       -3.2020     1.2160     1.1940 H     1 <1>   0.0800 
 32 H       -3.6350    -0.4180     0.8850 H     1 <1>   0.0800 
 33 H       -4.4260     0.3010    -1.4170 H     1 <1>   0.0800 
 34 H       -4.1810     1.9570    -0.9350 H     1 <1>   0.0800 
 35 H       -1.2790     3.8200    -1.9940 H     1 <1>   0.1500 
 36 H        0.9590     3.2380    -1.4200 H     1 <1>   0.1500 
 37 H        0.2450     3.2220     2.8090 H     1 <1>   0.1500 
 38 H       -5.9350     0.0510     0.4620 H     1 <1>   0.4500 
 39 H        3.0620     4.3940    -1.0440 H     1 <1>   0.1500 
 40 H        2.3620     4.3720     3.1520 H     1 <1>   0.1500 
 41 H       -5.7040    -3.5160    -0.6460 H     1 <1>   0.1500 
 42 H       -3.8110    -4.9120     0.2960 H     1 <1>   0.2700 
 43 H       -0.4490    -3.0590     0.0880 H     1 <1>   0.0800 
 44 H       -0.9660    -4.6750    -0.3190 H     1 <1>   0.0800 
 45 H       -1.2590    -4.0360     1.2820 H     1 <1>   0.0800 
 46 H       -6.6710     2.0950    -1.5420 H     1 <1>   0.0800 
 47 H       -7.8010     1.1150    -0.6300 H     1 <1>   0.0800 
 48 H       -6.7100     0.3580    -1.7710 H     1 <1>   0.0800 
 49 H       -5.7780     3.0260     0.6200 H     1 <1>   0.0800 
 50 H       -5.2160     1.9260     1.8570 H     1 <1>   0.0800 
 51 H       -6.9240     2.0340     1.4950 H     1 <1>   0.0800 
 52 H        3.7790     4.9670     1.2350 H     1 <1>   0.1500 
@<TRIPOS>BOND
  1   1   2  2   
  2   2   3  am  
  3   2   4  1   
  4   3   5  1   
  5   3   6  1   
  6   4   7  1   
  7   4   8  1   
  8   4  28  1   
  9   5   9  1   
 10   5  29  1   
 11   5  30  1   
 12   6  10  1   
 13   6  31  1   
 14   6  32  1   
 15   7  11  1   
 16   7  12  1   
 17   8  13  ar  
 18   8  14  ar  
 19   9  15  1   
 20   9  16  2   
 21  10  17  1   
 22  10  33  1   
 23  10  34  1   
 24  11  18  2   
 25  12  19  2   
 26  12  35  1   
 27  13  20  ar  
 28  13  36  1   
 29  14  21  ar  
 30  14  37  1   
 31  15  22  2   
 32  16  23  1   
 33  16  24  1   
 34  17  25  1   
 35  17  26  1   
 36  17  38  1   
 37  18  19  1   
 38  20  27  ar  
 39  20  39  1   
 40  21  27  ar  
 41  21  40  1   
 42  22  23  1   
 43  22  41  1   
 44  23  42  1   
 45  24  43  1   
 46  24  44  1   
 47  24  45  1   
 48  25  46  1   
 49  25  47  1   
 50  25  48  1   
 51  26  49  1   
 52  26  50  1   
 53  26  51  1   
 54  27  52  1   
@<TRIPOS>SUBSTRUCTURE
  1 ****   3 GROUP 4 **** **** 0

# MOE 2024.06 (io_trps.svl 2023.06)
