@<TRIPOS>MOLECULE
NONAME
48 51 1 0 0 
SMALL
USER_CHARGES


@<TRIPOS>ATOM
  1 N       -0.9960     0.2990     0.8510 N.ar  1 <1>  -0.6200 
  2 C       -1.3850    -0.9650     0.6760 C.ar  1 <1>   0.7200 
  3 C        0.2760     0.5000     1.0800 C.ar  1 <1>   0.1660 
  4 N       -0.5900    -2.0340     0.7080 N.ar  1 <1>  -0.6200 
  5 N       -2.7260    -1.1830     0.4370 N.pl3 1 <1>  -0.8380 
  6 C        1.1710    -0.5410     1.1350 C.ar  1 <1>  -0.1500 
  7 C        0.7180     1.9320     1.2830 C.3   1 <1>  -0.0970 
  8 C        0.6790    -1.8070     0.9390 C.ar  1 <1>   0.1600 
  9 C       -3.7800    -0.1560     0.7210 C.3   1 <1>   0.2090 
 10 C       -3.2510    -2.4370    -0.1720 C.3   1 <1>   0.2090 
 11 C       -4.5320     0.2280    -0.5670 C.3   1 <1>   0.1430 
 12 C       -4.0150    -2.1030    -1.4600 C.3   1 <1>  -0.1600 
 13 C       -5.6040     1.2400    -0.2090 C.ar  1 <1>   0.1670 
 14 C       -5.1080    -1.0420    -1.2300 C.3   1 <1>  -0.1600 
 15 C       -3.6290     1.0360    -1.5380 C.3   1 <1>  -0.1600 
 16 N       -6.7310     0.9720     0.4020 N.ar  1 <1>  -0.6200 
 17 C       -5.2480     2.4980    -0.5900 C.ar  1 <1>  -0.1430 
 18 C       -3.8950     2.5230    -1.2550 C.3   1 <1>  -0.0170 
 19 C       -7.5240     2.0230     0.6230 C.ar  1 <1>   0.7200 
 20 C       -6.1260     3.5180    -0.3210 C.ar  1 <1>   0.1600 
 21 N       -7.2680     3.2920     0.2840 N.ar  1 <1>  -0.6200 
 22 N       -8.7230     1.7760     1.2650 N.pl3 1 <1>  -0.8380 
 23 C       -9.2610     0.3980     1.4320 C.3   1 <1>   0.1290 
 24 C       -9.5590     2.8720     1.8280 C.3   1 <1>   0.1290 
 25 H        2.2150    -0.3780     1.3240 H     1 <1>   0.1500 
 26 H        0.1860     2.3570     2.1150 H     1 <1>   0.0800 
 27 H        0.4960     2.5050     0.4020 H     1 <1>   0.0800 
 28 H        1.7730     1.9880     1.4800 H     1 <1>   0.0800 
 29 H        1.3430    -2.6530     0.9720 H     1 <1>   0.1500 
 30 H       -3.3620     0.7260     1.1730 H     1 <1>   0.0800 
 31 H       -4.4820    -0.5700     1.4250 H     1 <1>   0.0800 
 32 H       -3.9090    -2.9150     0.5330 H     1 <1>   0.0800 
 33 H       -2.4560    -3.1250    -0.4030 H     1 <1>   0.0800 
 34 H       -4.4630    -3.0020    -1.8440 H     1 <1>   0.0800 
 35 H       -3.3110    -1.7520    -2.1930 H     1 <1>   0.0800 
 36 H       -5.5860    -0.7900    -2.1600 H     1 <1>   0.0800 
 37 H       -5.8620    -1.4580    -0.5830 H     1 <1>   0.0800 
 38 H       -3.9200     0.8300    -2.5520 H     1 <1>   0.0800 
 39 H       -2.5860     0.7910    -1.4320 H     1 <1>   0.0800 
 40 H       -3.9010     3.1040    -2.1610 H     1 <1>   0.0800 
 41 H       -3.1610     2.9120    -0.5700 H     1 <1>   0.0800 
 42 H       -5.8880     4.5280    -0.6040 H     1 <1>   0.1500 
 43 H       -8.9360    -0.2340     0.6230 H     1 <1>   0.0800 
 44 H      -10.3360     0.4170     1.4350 H     1 <1>   0.0800 
 45 H       -8.9080    -0.0140     2.3610 H     1 <1>   0.0800 
 46 H       -8.9420     3.7020     2.1260 H     1 <1>   0.0800 
 47 H      -10.0950     2.5230     2.6920 H     1 <1>   0.0800 
 48 H      -10.2600     3.2070     1.0840 H     1 <1>   0.0800 
@<TRIPOS>BOND
  1   1   2  ar  
  2   1   3  ar  
  3   2   4  ar  
  4   2   5  1   
  5   3   6  ar  
  6   3   7  1   
  7   4   8  ar  
  8   5   9  1   
  9   5  10  1   
 10   6   8  ar  
 11   6  25  1   
 12   7  26  1   
 13   7  27  1   
 14   7  28  1   
 15   8  29  1   
 16   9  11  1   
 17   9  30  1   
 18   9  31  1   
 19  10  12  1   
 20  10  32  1   
 21  10  33  1   
 22  11  13  1   
 23  11  14  1   
 24  11  15  1   
 25  12  14  1   
 26  12  34  1   
 27  12  35  1   
 28  13  16  ar  
 29  13  17  ar  
 30  14  36  1   
 31  14  37  1   
 32  15  18  1   
 33  15  38  1   
 34  15  39  1   
 35  16  19  ar  
 36  17  18  1   
 37  17  20  ar  
 38  18  40  1   
 39  18  41  1   
 40  19  21  ar  
 41  19  22  1   
 42  20  21  ar  
 43  20  42  1   
 44  22  23  1   
 45  22  24  1   
 46  23  43  1   
 47  23  44  1   
 48  23  45  1   
 49  24  46  1   
 50  24  47  1   
 51  24  48  1   
@<TRIPOS>SUBSTRUCTURE
  1 ****   9 GROUP 4 **** **** 0

# MOE 2024.06 (io_trps.svl 2023.06)
