@<TRIPOS>MOLECULE
NONAME
53 55 1 0 0 
SMALL
USER_CHARGES


@<TRIPOS>ATOM
  1 O       -1.0080     2.4840     3.5710 O.2   1 <1>  -0.5700 
  2 C       -0.8050     3.3710     2.7820 C.2   1 <1>   0.5690 
  3 N       -1.8270     4.0720     2.2480 N.am  1 <1>  -0.7300 
  4 C        0.6200     3.7000     2.3410 C.3   1 <1>   0.1810 
  5 C       -1.6650     5.1100     1.2020 C.3   1 <1>   0.3640 
  6 O        0.7370     5.0180     1.8470 O.3   1 <1>  -0.5600 
  7 C       -2.4980     4.6990    -0.0110 C.ar  1 <1>  -0.1440 
  8 C       -0.1790     5.3460     0.8020 C.3   1 <1>   0.2610 
  9 C       -3.2920     5.6380    -0.6540 C.ar  1 <1>  -0.1500 
 10 C       -2.4770     3.3950    -0.4950 C.ar  1 <1>  -0.1500 
 11 C        0.0250     6.8130     0.3970 C.2   1 <1>   0.5690 
 12 C       -4.0480     5.2850    -1.7570 C.ar  1 <1>  -0.1500 
 13 C       -3.2340     3.0410    -1.5980 C.ar  1 <1>  -0.1500 
 14 O       -0.6440     7.3070    -0.4750 O.2   1 <1>  -0.5700 
 15 N        0.9670     7.5530     1.0460 N.am  1 <1>  -0.7300 
 16 C       -4.0210     3.9860    -2.2300 C.ar  1 <1>  -0.1500 
 17 C        1.0780     9.0490     0.9770 C.3   1 <1>   0.1400 
 18 C        2.0200     9.5710    -0.1520 C.3   1 <1>   0.5030 
 19 N        3.2200     8.6870    -0.2470 N.4   1 <1>  -0.9590 
 20 C        1.2950     9.5370    -1.5040 C.3   1 <1>  -0.2400 
 21 C        2.4340    11.0180     0.1440 C.3   1 <1>  -0.2400 
 22 C        4.1100     8.6410     0.9400 C.3   1 <1>   0.3430 
 23 C        4.1160     8.8760    -1.4170 C.3   1 <1>   0.3430 
 24 C        5.3430     7.8950     0.4510 C.3   1 <1>  -0.1600 
 25 C        5.3770     8.0970    -1.0660 C.3   1 <1>  -0.1600 
 26 H       -2.7820     3.8020     2.4890 H     1 <1>   0.3700 
 27 H        0.9270     3.0150     1.5720 H     1 <1>   0.0800 
 28 H        1.2830     3.6010     3.1820 H     1 <1>   0.0800 
 29 H       -2.0620     6.0300     1.5960 H     1 <1>   0.0800 
 30 H        0.0620     4.7290    -0.0440 H     1 <1>   0.0800 
 31 H       -3.3230     6.6570    -0.3080 H     1 <1>   0.1500 
 32 H       -1.8750     2.6420    -0.0170 H     1 <1>   0.1500 
 33 H       -4.6570     6.0240    -2.2500 H     1 <1>   0.1500 
 34 H       -3.2130     2.0290    -1.9640 H     1 <1>   0.1500 
 35 H        1.3850     7.0840     1.8610 H     1 <1>   0.3700 
 36 H       -4.6100     3.7120    -3.0880 H     1 <1>   0.1500 
 37 H        0.0960     9.4690     0.8380 H     1 <1>   0.0800 
 38 H        1.4310     9.4050     1.9290 H     1 <1>   0.0800 
 39 H        2.8090     7.7470    -0.3300 H     1 <1>   0.4500 
 40 H        0.3340    10.0130    -1.4200 H     1 <1>   0.0800 
 41 H        1.1290     8.5270    -1.8310 H     1 <1>   0.0800 
 42 H        1.8430    10.0640    -2.2640 H     1 <1>   0.0800 
 43 H        1.5610    11.6480     0.1470 H     1 <1>   0.0800 
 44 H        3.1010    11.3980    -0.6080 H     1 <1>   0.0800 
 45 H        2.8970    11.1120     1.1080 H     1 <1>   0.0800 
 46 H        4.3910     9.6400     1.2300 H     1 <1>   0.0800 
 47 H        3.6440     8.1390     1.7730 H     1 <1>   0.0800 
 48 H        3.6650     8.5130    -2.3270 H     1 <1>   0.0800 
 49 H        4.3580     9.9200    -1.5300 H     1 <1>   0.0800 
 50 H        6.2300     8.2760     0.9280 H     1 <1>   0.0800 
 51 H        5.2500     6.8490     0.6880 H     1 <1>   0.0800 
 52 H        5.3760     7.1480    -1.5740 H     1 <1>   0.0800 
 53 H        6.2490     8.6470    -1.3750 H     1 <1>   0.0800 
@<TRIPOS>BOND
  1   1   2  2   
  2   2   3  am  
  3   2   4  1   
  4   3   5  1   
  5   3  26  1   
  6   4   6  1   
  7   4  27  1   
  8   4  28  1   
  9   5   7  1   
 10   5   8  1   
 11   5  29  1   
 12   6   8  1   
 13   7   9  ar  
 14   7  10  ar  
 15   8  11  1   
 16   8  30  1   
 17   9  12  ar  
 18   9  31  1   
 19  10  13  ar  
 20  10  32  1   
 21  11  14  2   
 22  11  15  am  
 23  12  16  ar  
 24  12  33  1   
 25  13  16  ar  
 26  13  34  1   
 27  15  17  1   
 28  15  35  1   
 29  16  36  1   
 30  17  18  1   
 31  17  37  1   
 32  17  38  1   
 33  18  19  1   
 34  18  20  1   
 35  18  21  1   
 36  19  22  1   
 37  19  23  1   
 38  19  39  1   
 39  20  40  1   
 40  20  41  1   
 41  20  42  1   
 42  21  43  1   
 43  21  44  1   
 44  21  45  1   
 45  22  24  1   
 46  22  46  1   
 47  22  47  1   
 48  23  25  1   
 49  23  48  1   
 50  23  49  1   
 51  24  25  1   
 52  24  50  1   
 53  24  51  1   
 54  25  52  1   
 55  25  53  1   
@<TRIPOS>SUBSTRUCTURE
  1 ****  11 GROUP 4 **** **** 0

# MOE 2024.06 (io_trps.svl 2023.06)
