@<TRIPOS>MOLECULE
NONAME
53 55 1 0 0 
SMALL
USER_CHARGES


@<TRIPOS>ATOM
  1 O       -0.2070     1.3870    -1.7400 O.2   1 <1>  -0.5700 
  2 C       -0.1460     2.5670    -1.5070 C.2   1 <1>   0.5690 
  3 N       -0.7570     3.0870    -0.4190 N.am  1 <1>  -0.7300 
  4 C        0.6050     3.5020    -2.4610 C.3   1 <1>   0.1810 
  5 C       -0.7550     4.5310    -0.0870 C.3   1 <1>   0.3640 
  6 O        0.9100     4.7510    -1.8780 O.3   1 <1>  -0.5600 
  7 C       -2.1680     4.9570     0.2950 C.ar  1 <1>  -0.1440 
  8 C       -0.1940     5.3870    -1.2490 C.3   1 <1>   0.2610 
  9 C       -2.3680     5.7410     1.4220 C.ar  1 <1>  -0.1500 
 10 C       -3.2660     4.5820    -0.4700 C.ar  1 <1>  -0.1500 
 11 C        0.1410     6.8030    -0.7550 C.2   1 <1>   0.5690 
 12 C       -3.6430     6.1410     1.7820 C.ar  1 <1>  -0.1500 
 13 C       -4.5410     4.9820    -0.1100 C.ar  1 <1>  -0.1500 
 14 O       -0.5750     7.6840    -1.1760 O.2   1 <1>  -0.5700 
 15 N        1.1530     7.0860     0.1420 N.am  1 <1>  -0.6600 
 16 C       -4.7310     5.7620     1.0170 C.ar  1 <1>  -0.1500 
 17 C        2.1950     6.1110     0.5990 C.3   1 <1>   0.3210 
 18 C        1.3040     8.4710     0.6820 C.3   1 <1>   0.1400 
 19 C        3.6050     6.6390     0.3880 C.2   1 <1>  -0.1810 
 20 C        0.6680     8.5500     2.0680 C.3   1 <1>  -0.2400 
 21 C        4.2220     6.8530    -0.8410 C.2   1 <1>   0.1080 
 22 C        4.5340     7.0030     1.3050 C.2   1 <1>  -0.3320 
 23 N        5.4280     7.3040    -0.7120 N.2   1 <1>  -0.7070 
 24 C        3.6070     6.6050    -2.2000 C.3   1 <1>  -0.0590 
 25 N        5.6250     7.3990     0.6100 N.pl3 1 <1>   0.3140 
 26 C        4.4600     7.0070     2.8240 C.3   1 <1>  -0.0600 
 27 C        6.9000     7.8870     1.1480 C.3   1 <1>   0.0160 
 28 H       -1.2990     2.4680     0.1870 H     1 <1>   0.3700 
 29 H        0.0070     3.6740    -3.3380 H     1 <1>   0.0800 
 30 H        1.5300     3.0430    -2.7570 H     1 <1>   0.0800 
 31 H       -0.1230     4.6620     0.7720 H     1 <1>   0.0800 
 32 H       -0.9610     5.4890    -1.9960 H     1 <1>   0.0800 
 33 H       -1.5350     6.0510     2.0290 H     1 <1>   0.1500 
 34 H       -3.1390     3.9760    -1.3500 H     1 <1>   0.1500 
 35 H       -3.7900     6.7510     2.6570 H     1 <1>   0.1500 
 36 H       -5.3870     4.6870    -0.7070 H     1 <1>   0.1500 
 37 H       -5.7220     6.0740     1.2960 H     1 <1>   0.1500 
 38 H        2.0420     5.9120     1.6430 H     1 <1>   0.0800 
 39 H        2.1140     5.1740     0.0850 H     1 <1>   0.0800 
 40 H        2.3420     8.7510     0.7340 H     1 <1>   0.0800 
 41 H        0.8230     9.1800     0.0300 H     1 <1>   0.0800 
 42 H        1.1530     7.8780     2.7500 H     1 <1>   0.0800 
 43 H       -0.3790     8.3160     2.0040 H     1 <1>   0.0800 
 44 H        0.7680     9.5510     2.4480 H     1 <1>   0.0800 
 45 H        2.6720     7.1270    -2.2820 H     1 <1>   0.0800 
 46 H        3.4440     5.5540    -2.3380 H     1 <1>   0.0800 
 47 H        4.2680     6.9590    -2.9690 H     1 <1>   0.0800 
 48 H        3.4980     6.6710     3.1650 H     1 <1>   0.0800 
 49 H        4.6220     8.0020     3.1990 H     1 <1>   0.0800 
 50 H        5.2110     6.3540     3.2320 H     1 <1>   0.0800 
 51 H        6.7240     8.7780     1.7200 H     1 <1>   0.0800 
 52 H        7.5640     8.1070     0.3320 H     1 <1>   0.0800 
 53 H        7.3340     7.1270     1.7700 H     1 <1>   0.0800 
@<TRIPOS>BOND
  1   1   2  2   
  2   2   3  am  
  3   2   4  1   
  4   3   5  1   
  5   3  28  1   
  6   4   6  1   
  7   4  29  1   
  8   4  30  1   
  9   5   7  1   
 10   5   8  1   
 11   5  31  1   
 12   6   8  1   
 13   7   9  ar  
 14   7  10  ar  
 15   8  11  1   
 16   8  32  1   
 17   9  12  ar  
 18   9  33  1   
 19  10  13  ar  
 20  10  34  1   
 21  11  14  2   
 22  11  15  am  
 23  12  16  ar  
 24  12  35  1   
 25  13  16  ar  
 26  13  36  1   
 27  15  17  1   
 28  15  18  1   
 29  16  37  1   
 30  17  19  1   
 31  17  38  1   
 32  17  39  1   
 33  18  20  1   
 34  18  40  1   
 35  18  41  1   
 36  19  21  1   
 37  19  22  2   
 38  20  42  1   
 39  20  43  1   
 40  20  44  1   
 41  21  23  2   
 42  21  24  1   
 43  22  25  1   
 44  22  26  1   
 45  23  25  1   
 46  24  45  1   
 47  24  46  1   
 48  24  47  1   
 49  25  27  1   
 50  26  48  1   
 51  26  49  1   
 52  26  50  1   
 53  27  51  1   
 54  27  52  1   
 55  27  53  1   
@<TRIPOS>SUBSTRUCTURE
  1 ****  15 GROUP 4 **** **** 0

# MOE 2024.06 (io_trps.svl 2023.06)
