@<TRIPOS>MOLECULE
NONAME
40 42 1 0 0 
SMALL
USER_CHARGES


@<TRIPOS>ATOM
  1 F       -1.7450     1.6680     0.6220 F     1 <1>  -0.1900 
  2 C       -0.9340     2.6040     0.2180 C.ar  1 <1>   0.1900 
  3 C        0.2320     2.2490    -0.4300 C.ar  1 <1>  -0.1500 
  4 C       -1.2670     3.9240     0.4480 C.ar  1 <1>  -0.1500 
  5 C        1.0870     3.2510    -0.8540 C.ar  1 <1>  -0.1500 
  6 C       -0.4000     4.9140     0.0170 C.ar  1 <1>  -0.1500 
  7 C        0.7980     4.6040    -0.6390 C.ar  1 <1>   0.0860 
  8 C        1.7170     5.6420    -1.0830 C.2   1 <1>   0.5440 
  9 O        2.6700     5.3960    -1.7990 O.2   1 <1>  -0.5700 
 10 N        1.5980     6.9440    -0.6730 N.am  1 <1>  -0.6600 
 11 C        2.2330     7.3090     0.6420 C.3   1 <1>   0.2200 
 12 C        1.4450     7.9970    -1.7260 C.3   1 <1>   0.1400 
 13 C        1.6500     8.5920     1.2540 C.3   1 <1>   0.1200 
 14 C        3.7770     7.4120     0.5170 C.3   1 <1>   0.3430 
 15 C        2.3860     9.2090    -1.5860 C.3   1 <1>  -0.0800 
 16 O        2.3260     9.7170     0.7770 O.3   1 <1>  -0.5600 
 17 N        4.2430     7.5700    -0.9040 N.4   1 <1>  -0.9590 
 18 C        1.9360    10.1710    -0.4750 C.3   1 <1>   0.1200 
 19 C        3.8960     8.8910    -1.5160 C.3   1 <1>   0.3430 
 20 C        5.6910     7.2570    -1.0490 C.3   1 <1>   0.2630 
 21 H        0.4590     1.2100    -0.5970 H     1 <1>   0.1500 
 22 H       -2.1880     4.1630     0.9510 H     1 <1>   0.1500 
 23 H        1.9970     2.9810    -1.3640 H     1 <1>   0.1500 
 24 H       -0.6650     5.9420     0.1890 H     1 <1>   0.1500 
 25 H        2.0140     6.5170     1.3380 H     1 <1>   0.0800 
 26 H        1.6070     7.5480    -2.6930 H     1 <1>   0.0800 
 27 H        0.4240     8.3400    -1.7130 H     1 <1>   0.0800 
 28 H        1.8030     8.5760     2.3190 H     1 <1>   0.0800 
 29 H        0.5930     8.6840     1.0680 H     1 <1>   0.0800 
 30 H        4.1970     6.5060     0.9210 H     1 <1>   0.0800 
 31 H        4.1350     8.2300     1.1190 H     1 <1>   0.0800 
 32 H        2.2540     9.7750    -2.4900 H     1 <1>   0.0800 
 33 H        3.6990     6.8450    -1.4280 H     1 <1>   0.4500 
 34 H        0.8680    10.3190    -0.4800 H     1 <1>   0.0800 
 35 H        2.4030    11.1320    -0.6140 H     1 <1>   0.0800 
 36 H        4.3920     9.6800    -0.9730 H     1 <1>   0.0800 
 37 H        4.2790     8.9030    -2.5230 H     1 <1>   0.0800 
 38 H        6.2850     7.9670    -0.4980 H     1 <1>   0.0800 
 39 H        5.9780     7.2940    -2.0870 H     1 <1>   0.0800 
 40 H        5.8960     6.2670    -0.6750 H     1 <1>   0.0800 
@<TRIPOS>BOND
  1   1   2  1   
  2   2   3  ar  
  3   2   4  ar  
  4   3   5  ar  
  5   3  21  1   
  6   4   6  ar  
  7   4  22  1   
  8   5   7  ar  
  9   5  23  1   
 10   6   7  ar  
 11   6  24  1   
 12   7   8  1   
 13   8   9  2   
 14   8  10  am  
 15  10  11  1   
 16  10  12  1   
 17  11  13  1   
 18  11  14  1   
 19  11  25  1   
 20  12  15  1   
 21  12  26  1   
 22  12  27  1   
 23  13  16  1   
 24  13  28  1   
 25  13  29  1   
 26  14  17  1   
 27  14  30  1   
 28  14  31  1   
 29  15  18  1   
 30  15  19  1   
 31  15  32  1   
 32  16  18  1   
 33  17  19  1   
 34  17  20  1   
 35  17  33  1   
 36  18  34  1   
 37  18  35  1   
 38  19  36  1   
 39  19  37  1   
 40  20  38  1   
 41  20  39  1   
 42  20  40  1   
@<TRIPOS>SUBSTRUCTURE
  1 ****  10 GROUP 4 **** **** 0

# MOE 2024.06 (io_trps.svl 2023.06)
