@<TRIPOS>MOLECULE
NONAME
55 58 1 0 0 
SMALL
USER_CHARGES


@<TRIPOS>ATOM
  1 O       -0.7900    -0.2950    -0.6970 O.3   1 <1>  -0.3630 
  2 C       -1.2060    -1.4250    -0.0680 C.ar  1 <1>   0.0820 
  3 C       -1.6410     0.8180    -0.8730 C.3   1 <1>   0.0400 
  4 C       -0.2840    -2.4580     0.0610 C.ar  1 <1>  -0.1440 
  5 C       -2.4940    -1.5770     0.4390 C.ar  1 <1>  -0.1500 
  6 C       -0.6600    -3.6210     0.7160 C.ar  1 <1>  -0.1500 
  7 C        1.1090    -2.2630    -0.5490 C.3   1 <1>   0.2390 
  8 C       -2.8660    -2.7550     1.0600 C.ar  1 <1>  -0.1500 
  9 C       -1.9510    -3.7870     1.1940 C.ar  1 <1>  -0.1440 
 10 N        1.9920    -3.4590    -0.5130 N.pl3 1 <1>   0.3140 
 11 C       -2.3500    -5.1080     1.8170 C.3   1 <1>   0.4870 
 12 N        1.7240    -4.6130    -1.1740 N.2   1 <1>  -0.7070 
 13 C        3.2010    -3.5200     0.0830 C.2   1 <1>  -0.3020 
 14 N       -2.1770    -6.1420     0.7680 N.4   1 <1>  -0.9590 
 15 C        2.7850    -5.3450    -1.0070 C.2   1 <1>   0.1390 
 16 C        3.7380    -4.7200    -0.2150 C.2   1 <1>  -0.1500 
 17 C       -3.1720    -6.0200    -0.3500 C.3   1 <1>   0.3430 
 18 C       -2.2700    -7.5340     1.2710 C.3   1 <1>   0.3430 
 19 C       -3.7350    -7.4330    -0.5860 C.3   1 <1>   0.2000 
 20 C       -2.7010    -8.3560     0.0540 C.3   1 <1>  -0.0800 
 21 O       -4.9130    -7.5500     0.1410 O.3   1 <1>  -0.6800 
 22 C       -1.5300    -8.6580    -0.9090 C.3   1 <1>  -0.0170 
 23 C       -0.2680    -9.0100    -0.1400 C.ar  1 <1>  -0.1440 
 24 C        0.7780    -8.1160    -0.0240 C.ar  1 <1>  -0.1500 
 25 C       -0.1110   -10.2230     0.5000 C.ar  1 <1>  -0.1500 
 26 C        1.8890    -8.4570     0.7290 C.ar  1 <1>   0.1600 
 27 C        1.0440   -10.4670     1.2250 C.ar  1 <1>   0.1600 
 28 N        2.0390    -9.6070     1.3630 N.ar  1 <1>  -0.6200 
 29 H       -1.0890     1.5820    -1.3920 H     1 <1>   0.0800 
 30 H       -1.9470     1.1820     0.0920 H     1 <1>   0.0800 
 31 H       -2.4910     0.5200    -1.4610 H     1 <1>   0.0800 
 32 H       -3.2210    -0.7910     0.3550 H     1 <1>   0.1500 
 33 H        0.0560    -4.4130     0.8480 H     1 <1>   0.1500 
 34 H        1.6060    -1.4600    -0.0380 H     1 <1>   0.0800 
 35 H        1.0000    -1.9800    -1.5790 H     1 <1>   0.0800 
 36 H       -3.8720    -2.8550     1.4340 H     1 <1>   0.1500 
 37 H       -3.3730    -5.0790     2.1530 H     1 <1>   0.0800 
 38 H       -1.7090    -5.3170     2.6580 H     1 <1>   0.0800 
 39 H        3.6140    -2.7150     0.6650 H     1 <1>   0.1500 
 40 H       -1.2420    -5.9970     0.3630 H     1 <1>   0.4500 
 41 H        2.9100    -6.3250    -1.4390 H     1 <1>   0.1500 
 42 H        4.6940    -5.1240     0.0710 H     1 <1>   0.1500 
 43 H       -3.9720    -5.3420    -0.1010 H     1 <1>   0.0800 
 44 H       -2.6730    -5.6650    -1.2370 H     1 <1>   0.0800 
 45 H       -1.3380    -7.8750     1.6940 H     1 <1>   0.0800 
 46 H       -3.0430    -7.5970     2.0210 H     1 <1>   0.0800 
 47 H       -3.9440    -7.6350    -1.6240 H     1 <1>   0.0800 
 48 H       -3.1360    -9.2880     0.3730 H     1 <1>   0.0800 
 49 H       -5.4200    -8.3470    -0.1240 H     1 <1>   0.4000 
 50 H       -1.3220    -7.8110    -1.5400 H     1 <1>   0.0800 
 51 H       -1.7940    -9.4760    -1.5570 H     1 <1>   0.0800 
 52 H        0.7470    -7.1580    -0.5100 H     1 <1>   0.1500 
 53 H       -0.8700   -10.9830     0.4460 H     1 <1>   0.1500 
 54 H        2.6960    -7.7490     0.8160 H     1 <1>   0.1500 
 55 H        1.1550   -11.4180     1.7190 H     1 <1>   0.1500 
@<TRIPOS>BOND
  1   1   2  1   
  2   1   3  1   
  3   2   4  ar  
  4   2   5  ar  
  5   3  29  1   
  6   3  30  1   
  7   3  31  1   
  8   4   6  ar  
  9   4   7  1   
 10   5   8  ar  
 11   5  32  1   
 12   6   9  ar  
 13   6  33  1   
 14   7  10  1   
 15   7  34  1   
 16   7  35  1   
 17   8   9  ar  
 18   8  36  1   
 19   9  11  1   
 20  10  12  1   
 21  10  13  1   
 22  11  14  1   
 23  11  37  1   
 24  11  38  1   
 25  12  15  2   
 26  13  16  2   
 27  13  39  1   
 28  14  17  1   
 29  14  18  1   
 30  14  40  1   
 31  15  16  1   
 32  15  41  1   
 33  16  42  1   
 34  17  19  1   
 35  17  43  1   
 36  17  44  1   
 37  18  20  1   
 38  18  45  1   
 39  18  46  1   
 40  19  20  1   
 41  19  21  1   
 42  19  47  1   
 43  20  22  1   
 44  20  48  1   
 45  21  49  1   
 46  22  23  1   
 47  22  50  1   
 48  22  51  1   
 49  23  24  ar  
 50  23  25  ar  
 51  24  26  ar  
 52  24  52  1   
 53  25  27  ar  
 54  25  53  1   
 55  26  28  ar  
 56  26  54  1   
 57  27  28  ar  
 58  27  55  1   
@<TRIPOS>SUBSTRUCTURE
  1 ****   6 GROUP 4 **** **** 0

# MOE 2024.06 (io_trps.svl 2023.06)
