@<TRIPOS>MOLECULE
NONAME
52 54 1 0 0 
SMALL
USER_CHARGES


@<TRIPOS>ATOM
  1 O        1.7110    -0.0170    -0.0830 O.2   1 <1>  -0.5700 
  2 C        2.2970    -0.8470    -0.7500 C.2   1 <1>   0.5440 
  3 N        3.2900    -0.4190    -1.5890 N.am  1 <1>  -0.7300 
  4 C        1.9540    -2.2540    -0.6680 C.ar  1 <1>   0.0860 
  5 C        3.6700     1.0080    -1.7970 C.3   1 <1>   0.1400 
  6 C        0.6500    -2.6590    -0.3960 C.ar  1 <1>  -0.1500 
  7 C        2.9050    -3.2570    -0.8550 C.ar  1 <1>  -0.1500 
  8 C        4.3330     1.6270    -0.5550 C.3   1 <1>   0.2000 
  9 C        0.2760    -3.9900    -0.3220 C.ar  1 <1>   0.1000 
 10 C        2.5650    -4.5960    -0.7870 C.ar  1 <1>  -0.1500 
 11 O        4.7170     2.9440    -0.9030 O.3   1 <1>  -0.3620 
 12 C        5.5890     0.8670    -0.1040 C.3   1 <1>  -0.2400 
 13 N       -1.0720    -4.2550    -0.0460 N.pl3 1 <1>  -0.8380 
 14 C        1.2550    -4.9800    -0.5220 C.ar  1 <1>   0.0830 
 15 C        4.9230     3.9260     0.0150 C.ar  1 <1>   0.0830 
 16 C       -1.8450    -4.9340    -1.1260 C.3   1 <1>   0.2090 
 17 C       -1.3500    -4.8870     1.2760 C.3   1 <1>   0.2090 
 18 O        0.8860    -6.2920    -0.4460 O.3   1 <1>  -0.3630 
 19 C        5.3950     5.1490    -0.4490 C.ar  1 <1>   0.1600 
 20 C        4.6910     3.7820     1.3750 C.ar  1 <1>  -0.1500 
 21 C       -3.3400    -4.9990    -0.7610 C.3   1 <1>   0.1200 
 22 C       -2.8660    -4.9550     1.5350 C.3   1 <1>   0.1200 
 23 C        1.8150    -7.3440    -0.5900 C.3   1 <1>   0.0400 
 24 N        5.6510     6.2100     0.3040 N.ar  1 <1>  -0.6200 
 25 C        4.9510     4.8780     2.1720 C.ar  1 <1>  -0.1500 
 26 O       -3.5320    -5.6090     0.4880 O.3   1 <1>  -0.5600 
 27 C        5.4220     6.0470     1.5970 C.ar  1 <1>   0.1600 
 28 H        3.6970    -1.0840    -2.2470 H     1 <1>   0.3700 
 29 H        2.7820     1.5690    -2.0310 H     1 <1>   0.0800 
 30 H        4.3480     1.0700    -2.6300 H     1 <1>   0.0800 
 31 H       -0.1060    -1.9110    -0.2360 H     1 <1>   0.1500 
 32 H        3.9280    -2.9880    -1.0480 H     1 <1>   0.1500 
 33 H        3.5980     1.6780     0.2280 H     1 <1>   0.0800 
 34 H        3.3380    -5.3240    -0.9400 H     1 <1>   0.1500 
 35 H        6.2950     0.8020    -0.9110 H     1 <1>   0.0800 
 36 H        5.3240    -0.1280     0.2040 H     1 <1>   0.0800 
 37 H        6.0500     1.3600     0.7320 H     1 <1>   0.0800 
 38 H       -1.4740    -5.9330    -1.2710 H     1 <1>   0.0800 
 39 H       -1.7210    -4.3920    -2.0460 H     1 <1>   0.0800 
 40 H       -0.8770    -4.3100     2.0510 H     1 <1>   0.0800 
 41 H       -0.9420    -5.8820     1.3000 H     1 <1>   0.0800 
 42 H        5.5700     5.2460    -1.5050 H     1 <1>   0.1500 
 43 H        4.3250     2.8740     1.8150 H     1 <1>   0.1500 
 44 H       -3.8740    -5.5760    -1.4940 H     1 <1>   0.0800 
 45 H       -3.7560    -4.0080    -0.7270 H     1 <1>   0.0800 
 46 H       -3.2700    -3.9630     1.6330 H     1 <1>   0.0800 
 47 H       -3.0620    -5.5010     2.4400 H     1 <1>   0.0800 
 48 H        1.2860    -8.2720    -0.4730 H     1 <1>   0.0800 
 49 H        2.5660    -7.2530     0.1740 H     1 <1>   0.0800 
 50 H        2.2500    -7.2930    -1.5720 H     1 <1>   0.0800 
 51 H        4.7900     4.8300     3.2340 H     1 <1>   0.1500 
 52 H        5.6190     6.8920     2.2340 H     1 <1>   0.1500 
@<TRIPOS>BOND
  1   1   2  2   
  2   2   3  am  
  3   2   4  1   
  4   3   5  1   
  5   3  28  1   
  6   4   6  ar  
  7   4   7  ar  
  8   5   8  1   
  9   5  29  1   
 10   5  30  1   
 11   6   9  ar  
 12   6  31  1   
 13   7  10  ar  
 14   7  32  1   
 15   8  11  1   
 16   8  12  1   
 17   8  33  1   
 18   9  13  1   
 19   9  14  ar  
 20  10  14  ar  
 21  10  34  1   
 22  11  15  1   
 23  12  35  1   
 24  12  36  1   
 25  12  37  1   
 26  13  16  1   
 27  13  17  1   
 28  14  18  1   
 29  15  19  ar  
 30  15  20  ar  
 31  16  21  1   
 32  16  38  1   
 33  16  39  1   
 34  17  22  1   
 35  17  40  1   
 36  17  41  1   
 37  18  23  1   
 38  19  24  ar  
 39  19  42  1   
 40  20  25  ar  
 41  20  43  1   
 42  21  26  1   
 43  21  44  1   
 44  21  45  1   
 45  22  26  1   
 46  22  46  1   
 47  22  47  1   
 48  23  48  1   
 49  23  49  1   
 50  23  50  1   
 51  24  27  ar  
 52  25  27  ar  
 53  25  51  1   
 54  27  52  1   
@<TRIPOS>SUBSTRUCTURE
  1 ****   2 GROUP 4 **** **** 0

# MOE 2024.06 (io_trps.svl 2023.06)
