@<TRIPOS>MOLECULE
NONAME
46 48 1 0 0 
SMALL
USER_CHARGES


@<TRIPOS>ATOM
  1 CL      -0.8030    -0.7600    -1.4230 Cl    1 <1>  -0.1770 
  2 C       -2.2960    -1.5210    -0.9370 C.ar  1 <1>   0.1770 
  3 C       -2.5830    -1.6530     0.4080 C.ar  1 <1>  -0.1500 
  4 C       -3.1690    -1.9790    -1.9050 C.ar  1 <1>  -0.1500 
  5 C       -3.7690    -2.2560     0.7910 C.ar  1 <1>  -0.1500 
  6 C       -4.3540    -2.5820    -1.5160 C.ar  1 <1>  -0.1500 
  7 C       -4.6580    -2.7220    -0.1690 C.ar  1 <1>  -0.1430 
  8 C       -5.9630    -3.3780     0.2550 C.3   1 <1>  -0.0160 
  9 C       -7.0690    -2.3210     0.3960 C.3   1 <1>  -0.0990 
 10 C       -8.4180    -2.8880     0.8140 C.2   1 <1>   0.5690 
 11 O       -8.5080    -4.0800     1.0010 O.2   1 <1>  -0.5700 
 12 N       -9.4970    -2.0540     0.9660 N.am  1 <1>  -0.6600 
 13 C      -10.8420    -2.5920     1.3350 C.3   1 <1>   0.1400 
 14 C       -9.5000    -0.5810     0.7430 C.3   1 <1>   0.1400 
 15 C      -11.8810    -2.3010     0.2230 C.3   1 <1>   0.0000 
 16 C      -10.5000    -0.2310    -0.3650 C.3   1 <1>  -0.1600 
 17 C      -13.2850    -2.8290     0.5830 C.3   1 <1>   0.2000 
 18 C      -11.9050    -0.7830    -0.0640 C.3   1 <1>  -0.1600 
 19 C      -11.5580    -3.1230    -1.0390 C.3   1 <1>  -0.1600 
 20 O      -13.5850    -2.7010     1.9290 O.3   1 <1>  -0.6800 
 21 C      -13.3250    -4.3030     0.1730 C.3   1 <1>  -0.1600 
 22 C      -12.1370    -4.5140    -0.7750 C.3   1 <1>  -0.1600 
 23 H       -1.8870    -1.2890     1.1420 H     1 <1>   0.1500 
 24 H       -2.9220    -1.8660    -2.9450 H     1 <1>   0.1500 
 25 H       -3.9980    -2.3630     1.8370 H     1 <1>   0.1500 
 26 H       -5.0380    -2.9420    -2.2660 H     1 <1>   0.1500 
 27 H       -6.2550    -4.1140    -0.4750 H     1 <1>   0.0800 
 28 H       -5.8270    -3.8890     1.1920 H     1 <1>   0.0800 
 29 H       -7.1890    -1.8220    -0.5480 H     1 <1>   0.0800 
 30 H       -6.7630    -1.5980     1.1290 H     1 <1>   0.0800 
 31 H      -10.7890    -3.6500     1.5220 H     1 <1>   0.0800 
 32 H      -11.1480    -2.1160     2.2510 H     1 <1>   0.0800 
 33 H       -9.7910    -0.0940     1.6580 H     1 <1>   0.0800 
 34 H       -8.5250    -0.2200     0.4730 H     1 <1>   0.0800 
 35 H      -10.5520     0.8380    -0.4680 H     1 <1>   0.0800 
 36 H      -10.1420    -0.6290    -1.2980 H     1 <1>   0.0800 
 37 H      -14.0300    -2.2840     0.0280 H     1 <1>   0.0800 
 38 H      -12.5610    -0.5700    -0.8900 H     1 <1>   0.0800 
 39 H      -12.3000    -0.2760     0.8010 H     1 <1>   0.0800 
 40 H      -12.0610    -2.6950    -1.8890 H     1 <1>   0.0800 
 41 H      -10.5050    -3.1690    -1.2550 H     1 <1>   0.0800 
 42 H      -13.0770    -3.3540     2.4450 H     1 <1>   0.4000 
 43 H      -13.2350    -4.9590     1.0210 H     1 <1>   0.0800 
 44 H      -14.2490    -4.5080    -0.3370 H     1 <1>   0.0800 
 45 H      -11.3920    -5.1240    -0.2900 H     1 <1>   0.0800 
 46 H      -12.4340    -4.9960    -1.6900 H     1 <1>   0.0800 
@<TRIPOS>BOND
  1   1   2  1   
  2   2   3  ar  
  3   2   4  ar  
  4   3   5  ar  
  5   3  23  1   
  6   4   6  ar  
  7   4  24  1   
  8   5   7  ar  
  9   5  25  1   
 10   6   7  ar  
 11   6  26  1   
 12   7   8  1   
 13   8   9  1   
 14   8  27  1   
 15   8  28  1   
 16   9  10  1   
 17   9  29  1   
 18   9  30  1   
 19  10  11  2   
 20  10  12  am  
 21  12  13  1   
 22  12  14  1   
 23  13  15  1   
 24  13  31  1   
 25  13  32  1   
 26  14  16  1   
 27  14  33  1   
 28  14  34  1   
 29  15  17  1   
 30  15  18  1   
 31  15  19  1   
 32  16  18  1   
 33  16  35  1   
 34  16  36  1   
 35  17  20  1   
 36  17  21  1   
 37  17  37  1   
 38  18  38  1   
 39  18  39  1   
 40  19  22  1   
 41  19  40  1   
 42  19  41  1   
 43  20  42  1   
 44  21  22  1   
 45  21  43  1   
 46  21  44  1   
 47  22  45  1   
 48  22  46  1   
@<TRIPOS>SUBSTRUCTURE
  1 ****  10 GROUP 4 **** **** 0

# MOE 2024.06 (io_trps.svl 2023.06)
