@<TRIPOS>MOLECULE
NONAME
53 56 1 0 0 
SMALL
USER_CHARGES


@<TRIPOS>ATOM
  1 O       -0.2520    -0.0170     1.0250 O.3   1 <1>  -0.2800 
  2 C        0.8330    -0.6700     0.6460 C.2   1 <1>   0.4250 
  3 C       -1.0810    -0.8980     1.5000 C.2   1 <1>  -0.0400 
  4 N        0.7350    -1.9520     0.8500 N.2   1 <1>  -0.5650 
  5 C        1.9500     0.0490     0.0690 C.ar  1 <1>   0.0530 
  6 C       -0.4870    -2.0950     1.4030 C.2   1 <1>   0.0460 
  7 C       -2.4270    -0.4290     2.0150 C.3   1 <1>  -0.0600 
  8 C        3.1530    -0.5960    -0.2210 C.ar  1 <1>  -0.1500 
  9 C        1.8750     1.4130    -0.2210 C.ar  1 <1>  -0.1500 
 10 C       -1.0010    -3.4720     1.7880 C.3   1 <1>   0.5240 
 11 C        4.2230     0.0810    -0.7770 C.ar  1 <1>  -0.1500 
 12 C        2.9420     2.0940    -0.7760 C.ar  1 <1>  -0.1500 
 13 N       -0.7220    -4.3980     0.6530 N.4   1 <1>  -0.9590 
 14 C        4.1240     1.4320    -1.0600 C.ar  1 <1>  -0.1430 
 15 C       -1.6260    -4.0910    -0.4960 C.3   1 <1>   0.3430 
 16 C       -0.9500    -5.8250     1.0340 C.3   1 <1>   0.3430 
 17 C        5.2970     2.1790    -1.6680 C.3   1 <1>  -0.0970 
 18 C       -2.7710    -5.1000    -0.3840 C.3   1 <1>   0.2000 
 19 C       -2.0720    -6.3580     0.1280 C.3   1 <1>  -0.0800 
 20 O       -3.6500    -4.6620     0.6030 O.3   1 <1>  -0.6800 
 21 C       -1.5100    -7.2100    -1.0280 C.3   1 <1>  -0.0170 
 22 C       -0.6750    -8.3640    -0.4950 C.ar  1 <1>  -0.1430 
 23 C       -1.2440    -9.4150     0.1970 C.ar  1 <1>  -0.1500 
 24 C        0.6940    -8.4220    -0.6740 C.ar  1 <1>  -0.1500 
 25 C       -0.4390   -10.4330     0.6790 C.ar  1 <1>   0.1600 
 26 C        1.4080    -9.4880    -0.1520 C.ar  1 <1>   0.1600 
 27 N        0.8730   -10.4880     0.5280 N.ar  1 <1>  -0.6200 
 28 H       -3.0160    -1.2560     2.3670 H     1 <1>   0.0800 
 29 H       -2.9640     0.0710     1.2280 H     1 <1>   0.0800 
 30 H       -2.2840     0.2650     2.8240 H     1 <1>   0.0800 
 31 H        3.2530    -1.6450    -0.0060 H     1 <1>   0.1500 
 32 H        0.9680     1.9510    -0.0100 H     1 <1>   0.1500 
 33 H       -2.0560    -3.4360     2.0020 H     1 <1>   0.0800 
 34 H       -0.4740    -3.8020     2.6670 H     1 <1>   0.0800 
 35 H        5.1370    -0.4470    -0.9870 H     1 <1>   0.1500 
 36 H        2.8500     3.1460    -0.9870 H     1 <1>   0.1500 
 37 H        0.2560    -4.1910     0.3910 H     1 <1>   0.4500 
 38 H       -1.9900    -3.0770    -0.4760 H     1 <1>   0.0800 
 39 H       -1.0970    -4.2560    -1.4200 H     1 <1>   0.0800 
 40 H       -0.0490    -6.4050     0.9170 H     1 <1>   0.0800 
 41 H       -1.2660    -5.8860     2.0630 H     1 <1>   0.0800 
 42 H        5.8920     1.5190    -2.2720 H     1 <1>   0.0800 
 43 H        5.9130     2.5860    -0.8870 H     1 <1>   0.0800 
 44 H        4.9480     2.9840    -2.2900 H     1 <1>   0.0800 
 45 H       -3.3120    -5.2290    -1.3070 H     1 <1>   0.0800 
 46 H       -2.7470    -6.9710     0.7000 H     1 <1>   0.0800 
 47 H       -4.4910    -5.1690     0.5770 H     1 <1>   0.4000 
 48 H       -0.9070    -6.6100    -1.6870 H     1 <1>   0.0800 
 49 H       -2.3220    -7.6120    -1.6110 H     1 <1>   0.0800 
 50 H       -2.3040    -9.4610     0.3670 H     1 <1>   0.1500 
 51 H        1.2200    -7.6590    -1.2180 H     1 <1>   0.1500 
 52 H       -0.8970   -11.2470     1.2170 H     1 <1>   0.1500 
 53 H        2.4740    -9.5230    -0.3020 H     1 <1>   0.1500 
@<TRIPOS>BOND
  1   1   2  1   
  2   1   3  1   
  3   2   4  2   
  4   2   5  1   
  5   3   6  2   
  6   3   7  1   
  7   4   6  1   
  8   5   8  ar  
  9   5   9  ar  
 10   6  10  1   
 11   7  28  1   
 12   7  29  1   
 13   7  30  1   
 14   8  11  ar  
 15   8  31  1   
 16   9  12  ar  
 17   9  32  1   
 18  10  13  1   
 19  10  33  1   
 20  10  34  1   
 21  11  14  ar  
 22  11  35  1   
 23  12  14  ar  
 24  12  36  1   
 25  13  15  1   
 26  13  16  1   
 27  13  37  1   
 28  14  17  1   
 29  15  18  1   
 30  15  38  1   
 31  15  39  1   
 32  16  19  1   
 33  16  40  1   
 34  16  41  1   
 35  17  42  1   
 36  17  43  1   
 37  17  44  1   
 38  18  19  1   
 39  18  20  1   
 40  18  45  1   
 41  19  21  1   
 42  19  46  1   
 43  20  47  1   
 44  21  22  1   
 45  21  48  1   
 46  21  49  1   
 47  22  23  ar  
 48  22  24  ar  
 49  23  25  ar  
 50  23  50  1   
 51  24  26  ar  
 52  24  51  1   
 53  25  27  ar  
 54  25  52  1   
 55  26  27  ar  
 56  26  53  1   
@<TRIPOS>SUBSTRUCTURE
  1 ****  13 GROUP 4 **** **** 0

# MOE 2024.06 (io_trps.svl 2023.06)
