@<TRIPOS>MOLECULE
NONAME
52 54 1 0 0 
SMALL
USER_CHARGES


@<TRIPOS>ATOM
  1 O       -2.1460     2.1900     2.6050 O.3   1 <1>  -0.5600 
  2 C       -2.6260     1.9990     1.3030 C.3   1 <1>   0.1200 
  3 C       -0.7740     1.9450     2.6310 C.3   1 <1>   0.1200 
  4 C       -1.4070     1.9420     0.3650 C.3   1 <1>   0.2000 
  5 C       -0.2580     2.3780     1.2630 C.3   1 <1>   0.2890 
  6 O       -1.1560     0.6270    -0.0490 O.3   1 <1>  -0.5600 
  7 N       -0.1040     3.8620     1.2240 N.pl3 1 <1>  -0.8690 
  8 C       -1.9400     0.1830    -1.1090 C.3   1 <1>   0.1200 
  9 C        0.7770     4.6280     0.5680 C.ar  1 <1>   0.4100 
 10 C       -1.5340    -1.2540    -1.4040 C.3   1 <1>  -0.2400 
 11 N        0.6850     5.9120     0.8190 N.ar  1 <1>  -0.6200 
 12 C        1.7260     4.1050    -0.3290 C.ar  1 <1>  -0.1500 
 13 C        1.5370     6.7310     0.2160 C.ar  1 <1>   0.7710 
 14 C        2.5810     4.9560    -0.9460 C.ar  1 <1>   0.2180 
 15 N        2.4590     6.2720    -0.6500 N.ar  1 <1>  -0.1790 
 16 N        1.4770     8.0660     0.4720 N.pl3 1 <1>  -0.8380 
 17 C        3.6470     4.5120    -1.9400 C.3   1 <1>  -0.0170 
 18 C        2.5120     9.0810     0.0710 C.3   1 <1>   0.2090 
 19 C        0.3390     8.6030     1.3040 C.3   1 <1>   0.2090 
 20 C        5.0660     4.8150    -1.4400 C.3   1 <1>  -0.2400 
 21 C        2.6690    10.1480     1.1580 C.3   1 <1>  -0.1600 
 22 C        0.1200    10.0980     1.0570 C.3   1 <1>  -0.1600 
 23 C        1.3670    10.9310     1.3920 C.3   1 <1>  -0.1600 
 24 H       -3.1970     1.0880     1.2800 H     1 <1>   0.0800 
 25 H       -3.2560     2.8370     1.0660 H     1 <1>   0.0800 
 26 H       -0.3210     2.4890     3.4410 H     1 <1>   0.0800 
 27 H       -0.6320     0.8870     2.7690 H     1 <1>   0.0800 
 28 H       -1.5060     2.5740    -0.5000 H     1 <1>   0.0800 
 29 H        0.6650     1.8860     1.0140 H     1 <1>   0.0800 
 30 H       -0.7750     4.3430     1.8360 H     1 <1>   0.4000 
 31 H       -2.9790     0.2300    -0.8290 H     1 <1>   0.0800 
 32 H       -1.7600     0.8110    -1.9650 H     1 <1>   0.0800 
 33 H       -1.7050    -1.8710    -0.5400 H     1 <1>   0.0800 
 34 H       -0.4940    -1.2980    -1.6760 H     1 <1>   0.0800 
 35 H       -2.1180    -1.6380    -2.2200 H     1 <1>   0.0800 
 36 H        1.7500     3.0470    -0.5080 H     1 <1>   0.1500 
 37 H        3.0440     6.9750    -1.0800 H     1 <1>   0.4570 
 38 H        3.5610     3.4510    -2.1050 H     1 <1>   0.0800 
 39 H        3.4850     4.9960    -2.8870 H     1 <1>   0.0800 
 40 H        3.4700     8.6150    -0.0780 H     1 <1>   0.0800 
 41 H        2.2110     9.5560    -0.8490 H     1 <1>   0.0800 
 42 H       -0.5740     8.0800     1.0680 H     1 <1>   0.0800 
 43 H        0.5560     8.4380     2.3460 H     1 <1>   0.0800 
 44 H        5.2420     4.3340    -0.4920 H     1 <1>   0.0800 
 45 H        5.2310     5.8720    -1.3290 H     1 <1>   0.0800 
 46 H        5.7880     4.4370    -2.1440 H     1 <1>   0.0800 
 47 H        2.9680     9.6630     2.0710 H     1 <1>   0.0800 
 48 H        3.4520    10.8340     0.8870 H     1 <1>   0.0800 
 49 H       -0.1460    10.2370     0.0230 H     1 <1>   0.0800 
 50 H       -0.7100    10.4420     1.6480 H     1 <1>   0.0800 
 51 H        1.3610    11.8220     0.7870 H     1 <1>   0.0800 
 52 H        1.3310    11.2410     2.4230 H     1 <1>   0.0800 
@<TRIPOS>BOND
  1   1   2  1   
  2   1   3  1   
  3   2   4  1   
  4   2  24  1   
  5   2  25  1   
  6   3   5  1   
  7   3  26  1   
  8   3  27  1   
  9   4   5  1   
 10   4   6  1   
 11   4  28  1   
 12   5   7  1   
 13   5  29  1   
 14   6   8  1   
 15   7   9  1   
 16   7  30  1   
 17   8  10  1   
 18   8  31  1   
 19   8  32  1   
 20   9  11  ar  
 21   9  12  ar  
 22  10  33  1   
 23  10  34  1   
 24  10  35  1   
 25  11  13  ar  
 26  12  14  ar  
 27  12  36  1   
 28  13  15  ar  
 29  13  16  1   
 30  14  15  ar  
 31  14  17  1   
 32  15  37  1   
 33  16  18  1   
 34  16  19  1   
 35  17  20  1   
 36  17  38  1   
 37  17  39  1   
 38  18  21  1   
 39  18  40  1   
 40  18  41  1   
 41  19  22  1   
 42  19  42  1   
 43  19  43  1   
 44  20  44  1   
 45  20  45  1   
 46  20  46  1   
 47  21  23  1   
 48  21  47  1   
 49  21  48  1   
 50  22  23  1   
 51  22  49  1   
 52  22  50  1   
 53  23  51  1   
 54  23  52  1   
@<TRIPOS>SUBSTRUCTURE
  1 ****   9 GROUP 4 **** **** 0

# MOE 2024.06 (io_trps.svl 2023.06)
