@<TRIPOS>MOLECULE
NONAME
44 46 1 0 0 
SMALL
USER_CHARGES


@<TRIPOS>ATOM
  1 S        0.1830     0.8700     0.1420 S.3   1 <1>  -0.0800 
  2 C       -0.0360    -0.8620     0.4220 C.2   1 <1>  -0.0130 
  3 C       -1.3310     1.2660     0.9280 C.2   1 <1>  -0.1100 
  4 C        0.9750    -1.7880    -0.0290 C.ar  1 <1>   0.0530 
  5 C       -1.2100    -1.0450     1.0780 C.2   1 <1>  -0.1500 
  6 C       -1.9380     0.1480     1.3630 C.2   1 <1>  -0.1500 
  7 C        1.1240    -3.0270     0.5930 C.ar  1 <1>  -0.1500 
  8 C        1.8320    -1.4980    -1.0890 C.ar  1 <1>  -0.1500 
  9 C        2.0780    -3.9530     0.1950 C.ar  1 <1>  -0.1440 
 10 C        2.7880    -2.4030    -1.5020 C.ar  1 <1>  -0.1500 
 11 C        2.9230    -3.6250    -0.8670 C.ar  1 <1>   0.0830 
 12 C        2.1430    -5.2680     0.9610 C.3   1 <1>   0.4860 
 13 O        3.8510    -4.4640    -1.3690 O.3   1 <1>  -0.3630 
 14 N        2.0040    -6.4710     0.0910 N.4   1 <1>  -0.9590 
 15 C        5.0400    -4.7570    -0.6280 C.3   1 <1>   0.0140 
 16 C        0.9380    -6.3730    -0.9360 C.3   1 <1>   0.3430 
 17 C        2.0230    -7.7040     0.9260 C.3   1 <1>   0.3430 
 18 C        4.9450    -6.1270     0.0140 C.2   1 <1>   0.9060 
 19 C        0.9920    -7.5940    -1.8410 C.3   1 <1>  -0.1600 
 20 C        2.0160    -8.9530     0.0530 C.3   1 <1>  -0.1600 
 21 O        4.9830    -6.2280     1.2430 O.co2 1 <1>  -0.9000 
 22 O        4.5540    -7.0800    -0.6720 O.co2 1 <1>  -0.9000 
 23 C        0.9090    -8.8390    -0.9760 C.3   1 <1>   0.6800 
 24 F       -0.2610    -8.8420    -0.3480 F     1 <1>  -0.3400 
 25 F        0.8840    -9.9180    -1.7410 F     1 <1>  -0.3400 
 26 H       -1.6090     2.3040     0.9820 H     1 <1>   0.1500 
 27 H       -1.6030    -2.0000     1.3770 H     1 <1>   0.1500 
 28 H       -2.8820     0.1140     1.8790 H     1 <1>   0.1500 
 29 H        0.4730    -3.2550     1.4180 H     1 <1>   0.1500 
 30 H        1.7490    -0.5580    -1.6040 H     1 <1>   0.1500 
 31 H        3.4390    -2.1680    -2.3260 H     1 <1>   0.1500 
 32 H        1.3500    -5.2760     1.6890 H     1 <1>   0.0800 
 33 H        3.0680    -5.3110     1.5090 H     1 <1>   0.0800 
 34 H        2.9220    -6.5310    -0.4210 H     1 <1>   0.4500 
 35 H        5.1880    -4.0050     0.1240 H     1 <1>   0.0800 
 36 H        5.8650    -4.7530    -1.3130 H     1 <1>   0.0800 
 37 H        1.0820    -5.4840    -1.5290 H     1 <1>   0.0800 
 38 H       -0.0260    -6.3150    -0.4570 H     1 <1>   0.0800 
 39 H        1.1630    -7.7160     1.5760 H     1 <1>   0.0800 
 40 H        2.9170    -7.7070     1.5340 H     1 <1>   0.0800 
 41 H        1.9210    -7.5900    -2.3840 H     1 <1>   0.0800 
 42 H        0.1770    -7.5750    -2.5410 H     1 <1>   0.0800 
 43 H        1.8720    -9.8270     0.6600 H     1 <1>   0.0800 
 44 H        2.9650    -9.0390    -0.4440 H     1 <1>   0.0800 
@<TRIPOS>BOND
  1   1   2  1   
  2   1   3  1   
  3   2   4  1   
  4   2   5  2   
  5   3   6  2   
  6   3  26  1   
  7   4   7  ar  
  8   4   8  ar  
  9   5   6  1   
 10   5  27  1   
 11   6  28  1   
 12   7   9  ar  
 13   7  29  1   
 14   8  10  ar  
 15   8  30  1   
 16   9  11  ar  
 17   9  12  1   
 18  10  11  ar  
 19  10  31  1   
 20  11  13  1   
 21  12  14  1   
 22  12  32  1   
 23  12  33  1   
 24  13  15  1   
 25  14  16  1   
 26  14  17  1   
 27  14  34  1   
 28  15  18  1   
 29  15  35  1   
 30  15  36  1   
 31  16  19  1   
 32  16  37  1   
 33  16  38  1   
 34  17  20  1   
 35  17  39  1   
 36  17  40  1   
 37  18  21  ar  
 38  18  22  ar  
 39  19  23  1   
 40  19  41  1   
 41  19  42  1   
 42  20  23  1   
 43  20  43  1   
 44  20  44  1   
 45  23  24  1   
 46  23  25  1   
@<TRIPOS>SUBSTRUCTURE
  1 ****   9 GROUP 4 **** **** 0

# MOE 2024.06 (io_trps.svl 2023.06)
