@<TRIPOS>MOLECULE
NONAME
42 43 1 0 0 
SMALL
USER_CHARGES


@<TRIPOS>ATOM
  1 O        0.3930    -0.1530     1.0320 O.2   1 <1>  -0.5700 
  2 C        1.3340    -0.7330     0.5240 C.2   1 <1>   0.5440 
  3 N        2.3720     0.0310     0.0810 N.am  1 <1>  -0.7300 
  4 C        1.3540    -2.1800     0.4040 C.ar  1 <1>   0.0860 
  5 C        2.4190     1.5130     0.1750 C.3   1 <1>   0.3210 
  6 C        0.4920    -2.9750     1.1650 C.ar  1 <1>  -0.1500 
  7 C        2.2230    -2.8470    -0.4660 C.ar  1 <1>  -0.1500 
  8 C        3.7100     2.0840    -0.4150 C.2   1 <1>   0.3350 
  9 C        0.5000    -4.3530     1.0710 C.ar  1 <1>  -0.1500 
 10 C        2.2340    -4.2240    -0.5600 C.ar  1 <1>  -0.1500 
 11 N        4.6710     1.3810    -0.8880 N.2   1 <1>  -0.4100 
 12 N        3.9190     3.4050    -0.4710 N.2   1 <1>  -0.5650 
 13 C        1.3750    -4.9990     0.2060 C.ar  1 <1>   0.1000 
 14 O        5.5290     2.2520    -1.2650 O.3   1 <1>  -0.0190 
 15 C        5.0930     3.4580    -1.0220 C.2   1 <1>   0.3930 
 16 N        1.3990    -6.3780     0.0930 N.pl3 1 <1>  -0.8380 
 17 C        5.8940     4.6230    -1.3630 C.2   1 <1>   0.7150 
 18 C        1.8190    -7.1510     1.2870 C.3   1 <1>   0.2090 
 19 C        0.3500    -7.0010    -0.7520 C.3   1 <1>   0.2090 
 20 O        6.9900     4.5380    -1.8810 O.2   1 <1>  -0.5700 
 21 N        5.4560     5.8850    -1.1180 N.am  1 <1>  -0.8000 
 22 C        2.8330    -8.2080     0.8660 C.3   1 <1>  -0.2400 
 23 C        0.9330    -7.2680    -2.1330 C.3   1 <1>  -0.2400 
 24 H        3.2320    -0.3930    -0.2740 H     1 <1>   0.3700 
 25 H        2.3440     1.8020     1.2080 H     1 <1>   0.0800 
 26 H        1.5760     1.9250    -0.3510 H     1 <1>   0.0800 
 27 H       -0.1960    -2.4950     1.8400 H     1 <1>   0.1500 
 28 H        2.8980    -2.2850    -1.0850 H     1 <1>   0.1500 
 29 H       -0.1730    -4.9420     1.6650 H     1 <1>   0.1500 
 30 H        2.9070    -4.7270    -1.2300 H     1 <1>   0.1500 
 31 H        0.9630    -7.6100     1.7510 H     1 <1>   0.0800 
 32 H        2.2750    -6.4850     2.0020 H     1 <1>   0.0800 
 33 H       -0.4930    -6.3350    -0.8360 H     1 <1>   0.0800 
 34 H        0.0110    -7.9230    -0.3110 H     1 <1>   0.0800 
 35 H        6.0420     6.6810    -1.3700 H     1 <1>   0.3700 
 36 H        4.5510     6.0750    -0.6870 H     1 <1>   0.3700 
 37 H        2.3820    -8.9160     0.1960 H     1 <1>   0.0800 
 38 H        3.1890    -8.7340     1.7330 H     1 <1>   0.0800 
 39 H        3.6680    -7.7370     0.3810 H     1 <1>   0.0800 
 40 H        1.2350    -6.3420    -2.5880 H     1 <1>   0.0800 
 41 H        0.1930    -7.7330    -2.7580 H     1 <1>   0.0800 
 42 H        1.7830    -7.9210    -2.0570 H     1 <1>   0.0800 
@<TRIPOS>BOND
  1   1   2  2   
  2   2   3  am  
  3   2   4  1   
  4   3   5  1   
  5   3  24  1   
  6   4   6  ar  
  7   4   7  ar  
  8   5   8  1   
  9   5  25  1   
 10   5  26  1   
 11   6   9  ar  
 12   6  27  1   
 13   7  10  ar  
 14   7  28  1   
 15   8  11  2   
 16   8  12  1   
 17   9  13  ar  
 18   9  29  1   
 19  10  13  ar  
 20  10  30  1   
 21  11  14  1   
 22  12  15  2   
 23  13  16  1   
 24  14  15  1   
 25  15  17  1   
 26  16  18  1   
 27  16  19  1   
 28  17  20  2   
 29  17  21  am  
 30  18  22  1   
 31  18  31  1   
 32  18  32  1   
 33  19  23  1   
 34  19  33  1   
 35  19  34  1   
 36  21  35  1   
 37  21  36  1   
 38  22  37  1   
 39  22  38  1   
 40  22  39  1   
 41  23  40  1   
 42  23  41  1   
 43  23  42  1   
@<TRIPOS>SUBSTRUCTURE
  1 ****   3 GROUP 4 **** **** 0

# MOE 2024.06 (io_trps.svl 2023.06)
