@<TRIPOS>MOLECULE
NONAME
46 48 1 0 0 
SMALL
USER_CHARGES


@<TRIPOS>ATOM
  1 O       -0.1720    -0.0110     0.9440 O.3   1 <1>  -0.5600 
  2 C        0.5840     0.3880    -0.1620 C.3   1 <1>   0.1200 
  3 C       -1.4840     0.4640     0.8340 C.3   1 <1>   0.1200 
  4 C       -0.0830     1.6550    -0.6850 C.3   1 <1>   0.2890 
  5 C       -1.5450     1.3240    -0.4320 C.3   1 <1>  -0.0800 
  6 N        0.3530     2.8110     0.1400 N.pl3 1 <1>  -0.8690 
  7 C       -2.4970     2.5300    -0.3340 C.3   1 <1>  -0.0170 
  8 C        0.6460     4.0590    -0.3490 C.ar  1 <1>   0.4100 
  9 C       -3.9370     2.0730    -0.1620 C.ar  1 <1>  -0.1430 
 10 N        0.3000     4.3300    -1.5920 N.ar  1 <1>  -0.6200 
 11 C        1.2670     4.9950     0.4400 C.ar  1 <1>  -0.1500 
 12 C       -4.5530     2.0400     1.0730 C.ar  1 <1>  -0.1500 
 13 C       -4.7030     1.6660    -1.2360 C.ar  1 <1>  -0.1500 
 14 C        0.5970     5.5470    -2.0030 C.ar  1 <1>   0.4700 
 15 C        1.5250     6.2320    -0.0960 C.ar  1 <1>   0.4100 
 16 C       -5.8660     1.6080     1.1720 C.ar  1 <1>   0.1600 
 17 C       -6.0080     1.2520    -1.0280 C.ar  1 <1>   0.1600 
 18 N        1.1860     6.5200    -1.3380 N.ar  1 <1>  -0.6200 
 19 N        2.1420     7.2020     0.6580 N.pl3 1 <1>  -0.8690 
 20 N       -6.6080     1.2110     0.1510 N.ar  1 <1>  -0.6200 
 21 C        2.3490     8.5930     0.2360 C.3   1 <1>   0.2890 
 22 C        3.7060     9.0400     0.7640 C.3   1 <1>  -0.2400 
 23 C        1.2210     9.4360     0.8170 C.3   1 <1>  -0.2400 
 24 H        1.6060     0.5480     0.1320 H     1 <1>   0.0800 
 25 H        0.5310    -0.3970    -0.8960 H     1 <1>   0.0800 
 26 H       -2.1600    -0.3730     0.7850 H     1 <1>   0.0800 
 27 H       -1.6900     1.0470     1.7150 H     1 <1>   0.0800 
 28 H        0.1320     1.8170    -1.7280 H     1 <1>   0.0800 
 29 H       -1.8830     0.6930    -1.2350 H     1 <1>   0.0800 
 30 H        0.6240     2.5590     1.0940 H     1 <1>   0.4000 
 31 H       -2.4140     3.1230    -1.2280 H     1 <1>   0.0800 
 32 H       -2.2200     3.1610     0.4930 H     1 <1>   0.0800 
 33 H        1.5440     4.7660     1.4470 H     1 <1>   0.1500 
 34 H       -4.0270     2.3460     1.9580 H     1 <1>   0.1500 
 35 H       -4.2960     1.6680    -2.2300 H     1 <1>   0.1500 
 36 H        0.3200     5.7780    -3.0180 H     1 <1>   0.1500 
 37 H       -6.3300     1.5880     2.1430 H     1 <1>   0.1500 
 38 H       -6.5900     0.9380    -1.8780 H     1 <1>   0.1500 
 39 H        2.2230     7.0510     1.6620 H     1 <1>   0.4000 
 40 H        2.3440     8.6650    -0.8400 H     1 <1>   0.0800 
 41 H        3.7370     8.9860     1.8370 H     1 <1>   0.0800 
 42 H        3.8960    10.0540     0.4640 H     1 <1>   0.0800 
 43 H        4.4780     8.4160     0.3520 H     1 <1>   0.0800 
 44 H        1.2140     9.3800     1.8900 H     1 <1>   0.0800 
 45 H        0.2780     9.0880     0.4350 H     1 <1>   0.0800 
 46 H        1.3460    10.4630     0.5250 H     1 <1>   0.0800 
@<TRIPOS>BOND
  1   1   2  1   
  2   1   3  1   
  3   2   4  1   
  4   2  24  1   
  5   2  25  1   
  6   3   5  1   
  7   3  26  1   
  8   3  27  1   
  9   4   5  1   
 10   4   6  1   
 11   4  28  1   
 12   5   7  1   
 13   5  29  1   
 14   6   8  1   
 15   6  30  1   
 16   7   9  1   
 17   7  31  1   
 18   7  32  1   
 19   8  10  ar  
 20   8  11  ar  
 21   9  12  ar  
 22   9  13  ar  
 23  10  14  ar  
 24  11  15  ar  
 25  11  33  1   
 26  12  16  ar  
 27  12  34  1   
 28  13  17  ar  
 29  13  35  1   
 30  14  18  ar  
 31  14  36  1   
 32  15  18  ar  
 33  15  19  1   
 34  16  20  ar  
 35  16  37  1   
 36  17  20  ar  
 37  17  38  1   
 38  19  21  1   
 39  19  39  1   
 40  21  22  1   
 41  21  23  1   
 42  21  40  1   
 43  22  41  1   
 44  22  42  1   
 45  22  43  1   
 46  23  44  1   
 47  23  45  1   
 48  23  46  1   
@<TRIPOS>SUBSTRUCTURE
  1 ****   6 GROUP 4 **** **** 0

# MOE 2024.06 (io_trps.svl 2023.06)
