@<TRIPOS>MOLECULE
NONAME
60 63 1 0 0 
SMALL
USER_CHARGES


@<TRIPOS>ATOM
  1 O       -1.6030     0.6370    -0.2920 O.2   1 <1>  -0.5700 
  2 C       -0.9910     1.6380     0.0110 C.2   1 <1>   0.5690 
  3 N       -1.6650     2.6440     0.6520 N.am  1 <1>  -0.6600 
  4 C        0.4690     1.7570    -0.4310 C.3   1 <1>   0.1810 
  5 C       -2.7940     2.3260     1.5920 C.3   1 <1>   0.1400 
  6 C       -1.5510     4.0700     0.2390 C.3   1 <1>   0.1400 
  7 O        1.1850     2.6930     0.3580 O.3   1 <1>  -0.3620 
  8 C       -4.1850     2.4210     0.9160 C.3   1 <1>   0.4230 
  9 C       -2.7890     4.5490    -0.5580 C.3   1 <1>  -0.0800 
 10 C        2.4660     3.0260     0.0650 C.ar  1 <1>   0.0820 
 11 N       -4.0260     2.2700    -0.5800 N.4   1 <1>  -0.9590 
 12 C       -4.9610     3.6850     1.3400 C.3   1 <1>   0.1200 
 13 C       -3.7410     5.4270     0.2710 C.3   1 <1>   0.1200 
 14 C       -3.5650     3.4730    -1.3480 C.3   1 <1>   0.3430 
 15 C        3.2120     2.4280    -0.9470 C.ar  1 <1>  -0.1500 
 16 C        3.0410     4.0260     0.8320 C.ar  1 <1>  -0.1500 
 17 C       -5.1580     1.5730    -1.2410 C.3   1 <1>   0.5240 
 18 O       -4.1300     4.8020     1.4470 O.3   1 <1>  -0.5600 
 19 C        4.5120     2.8410    -1.1840 C.ar  1 <1>  -0.1500 
 20 C        4.3400     4.4360     0.5910 C.ar  1 <1>  -0.1500 
 21 C       -5.4410     0.2910    -0.4950 C.2   1 <1>  -0.1810 
 22 C        5.0820     3.8470    -0.4200 C.ar  1 <1>  -0.1440 
 23 C       -6.6160    -0.0360     0.1740 C.2   1 <1>   0.1080 
 24 C       -4.6270    -0.7690    -0.2940 C.2   1 <1>  -0.3020 
 25 C        6.5080     4.2960    -0.6830 C.3   1 <1>  -0.0970 
 26 N       -6.5320    -1.1850     0.7570 N.2   1 <1>  -0.7070 
 27 C       -7.8760     0.8000     0.2590 C.3   1 <1>  -0.0590 
 28 N       -5.3080    -1.6510     0.4610 N.pl3 1 <1>   0.3140 
 29 C       -4.8470    -2.9610     0.9340 C.3   1 <1>   0.0160 
 30 H        0.5070     2.0770    -1.4550 H     1 <1>   0.0800 
 31 H        0.9500     0.8010    -0.3290 H     1 <1>   0.0800 
 32 H       -2.6690     1.3200     1.9560 H     1 <1>   0.0800 
 33 H       -2.7430     2.9710     2.4530 H     1 <1>   0.0800 
 34 H       -1.4040     4.6820     1.1130 H     1 <1>   0.0800 
 35 H       -0.6780     4.1930    -0.3800 H     1 <1>   0.0800 
 36 H       -4.7540     1.5860     1.2890 H     1 <1>   0.0800 
 37 H       -2.4050     5.2210    -1.3040 H     1 <1>   0.0800 
 38 H       -3.2350     1.5940    -0.6170 H     1 <1>   0.4500 
 39 H       -5.3640     3.5200     2.3240 H     1 <1>   0.0800 
 40 H       -5.7790     3.9010     0.6760 H     1 <1>   0.0800 
 41 H       -4.6210     5.7030    -0.2850 H     1 <1>   0.0800 
 42 H       -3.2340     6.3320     0.5600 H     1 <1>   0.0800 
 43 H       -2.9380     3.1340    -2.1570 H     1 <1>   0.0800 
 44 H       -4.4220     3.9520    -1.7920 H     1 <1>   0.0800 
 45 H        2.8100     1.6420    -1.5570 H     1 <1>   0.1500 
 46 H        2.4680     4.4820     1.6180 H     1 <1>   0.1500 
 47 H       -6.0350     2.1990    -1.2370 H     1 <1>   0.0800 
 48 H       -4.9040     1.3380    -2.2620 H     1 <1>   0.0800 
 49 H        5.0830     2.3740    -1.9670 H     1 <1>   0.1500 
 50 H        4.7730     5.2140     1.1960 H     1 <1>   0.1500 
 51 H       -3.6210    -0.9540    -0.6280 H     1 <1>   0.1500 
 52 H        6.7570     4.1700    -1.7220 H     1 <1>   0.0800 
 53 H        7.1880     3.7120    -0.0890 H     1 <1>   0.0800 
 54 H        6.6290     5.3340    -0.4300 H     1 <1>   0.0800 
 55 H       -7.7380     1.6090     0.9520 H     1 <1>   0.0800 
 56 H       -8.6880     0.1870     0.6100 H     1 <1>   0.0800 
 57 H       -8.1390     1.1870    -0.7070 H     1 <1>   0.0800 
 58 H       -3.7830    -3.0360     0.8140 H     1 <1>   0.0800 
 59 H       -5.3350    -3.7280     0.3630 H     1 <1>   0.0800 
 60 H       -5.1060    -3.0680     1.9710 H     1 <1>   0.0800 
@<TRIPOS>BOND
  1   1   2  2   
  2   2   3  am  
  3   2   4  1   
  4   3   5  1   
  5   3   6  1   
  6   4   7  1   
  7   4  30  1   
  8   4  31  1   
  9   5   8  1   
 10   5  32  1   
 11   5  33  1   
 12   6   9  1   
 13   6  34  1   
 14   6  35  1   
 15   7  10  1   
 16   8  11  1   
 17   8  12  1   
 18   8  36  1   
 19   9  13  1   
 20   9  14  1   
 21   9  37  1   
 22  10  15  ar  
 23  10  16  ar  
 24  11  14  1   
 25  11  17  1   
 26  11  38  1   
 27  12  18  1   
 28  12  39  1   
 29  12  40  1   
 30  13  18  1   
 31  13  41  1   
 32  13  42  1   
 33  14  43  1   
 34  14  44  1   
 35  15  19  ar  
 36  15  45  1   
 37  16  20  ar  
 38  16  46  1   
 39  17  21  1   
 40  17  47  1   
 41  17  48  1   
 42  19  22  ar  
 43  19  49  1   
 44  20  22  ar  
 45  20  50  1   
 46  21  23  1   
 47  21  24  2   
 48  22  25  1   
 49  23  26  2   
 50  23  27  1   
 51  24  28  1   
 52  24  51  1   
 53  25  52  1   
 54  25  53  1   
 55  25  54  1   
 56  26  28  1   
 57  27  55  1   
 58  27  56  1   
 59  27  57  1   
 60  28  29  1   
 61  29  58  1   
 62  29  59  1   
 63  29  60  1   
@<TRIPOS>SUBSTRUCTURE
  1 ****   3 GROUP 4 **** **** 0

# MOE 2024.06 (io_trps.svl 2023.06)
