@<TRIPOS>MOLECULE
NONAME
55 57 1 0 0 
SMALL
USER_CHARGES


@<TRIPOS>ATOM
  1 O       -0.5150     0.1350     0.3980 O.3   1 <1>  -0.2800 
  2 C       -0.4350     1.1150    -0.4930 C.2   1 <1>   0.0870 
  3 C       -1.4270    -0.7350     0.0160 C.2   1 <1>  -0.0400 
  4 C        0.5010     2.2030    -0.3030 C.ar  1 <1>   0.0530 
  5 C       -1.3300     0.8620    -1.4840 C.2   1 <1>  -0.1500 
  6 C       -1.9720    -0.3330    -1.1550 C.2   1 <1>  -0.1500 
  7 C       -1.6470    -1.9310     0.9390 C.3   1 <1>   0.2900 
  8 C        1.2730     2.3050     0.8530 C.ar  1 <1>  -0.1500 
  9 C        0.6680     3.1940    -1.2700 C.ar  1 <1>  -0.1500 
 10 N       -2.7420    -2.8480     0.5410 N.3   1 <1>  -0.8100 
 11 C        2.1660     3.3450     1.0380 C.ar  1 <1>  -0.1500 
 12 C        1.5600     4.2360    -1.0910 C.ar  1 <1>  -0.1500 
 13 C       -2.3850    -3.6270    -0.6600 C.3   1 <1>   0.2900 
 14 C       -4.0610    -2.1800     0.4680 C.3   1 <1>   0.1100 
 15 C        2.3140     4.3200     0.0670 C.ar  1 <1>  -0.1430 
 16 C       -3.4670    -4.6550    -0.9030 C.2   1 <1>  -0.3320 
 17 C       -5.1130    -3.0040     1.2340 C.3   1 <1>   0.3430 
 18 C        3.2950     5.4610     0.2660 C.3   1 <1>  -0.0970 
 19 N       -3.6330    -5.7590    -0.1520 N.pl3 1 <1>   0.0330 
 20 C       -4.4400    -4.6790    -1.8380 C.2   1 <1>   0.0770 
 21 N       -6.5230    -2.6220     0.8930 N.4   1 <1>  -0.9590 
 22 C       -4.7330    -6.3620    -0.6540 C.2   1 <1>   0.0060 
 23 N       -5.2570    -5.7300    -1.6530 N.2   1 <1>  -0.5650 
 24 C       -7.4570    -3.1000     1.9560 C.3   1 <1>   0.2630 
 25 C       -6.9220    -3.2110    -0.4270 C.3   1 <1>   0.2630 
 26 C       -5.2810    -7.6600    -0.0980 C.3   1 <1>  -0.0600 
 27 H       -1.5270     1.4490    -2.3630 H     1 <1>   0.1500 
 28 H       -2.7360    -0.7930    -1.7520 H     1 <1>   0.1500 
 29 H       -1.8570    -1.5540     1.9250 H     1 <1>   0.0800 
 30 H       -0.7260    -2.4840     1.0070 H     1 <1>   0.0800 
 31 H        1.1720     1.5590     1.6200 H     1 <1>   0.1500 
 32 H        0.0960     3.1520    -2.1780 H     1 <1>   0.1500 
 33 H        2.7450     3.3910     1.9430 H     1 <1>   0.1500 
 34 H        1.6650     4.9830    -1.8580 H     1 <1>   0.1500 
 35 H       -1.4400    -4.1240    -0.5120 H     1 <1>   0.0800 
 36 H       -2.2930    -2.9850    -1.5180 H     1 <1>   0.0800 
 37 H       -4.3500    -2.0650    -0.5620 H     1 <1>   0.0800 
 38 H       -4.0070    -1.2020     0.9150 H     1 <1>   0.0800 
 39 H       -4.9410    -2.8640     2.2880 H     1 <1>   0.0800 
 40 H       -4.9720    -4.0460     1.0090 H     1 <1>   0.0800 
 41 H        3.3900     5.6960     1.3110 H     1 <1>   0.0800 
 42 H        2.9570     6.3420    -0.2490 H     1 <1>   0.0800 
 43 H        4.2600     5.1820    -0.1180 H     1 <1>   0.0800 
 44 H       -3.0470    -6.0780     0.6260 H     1 <1>   0.2700 
 45 H       -4.6080    -3.9780    -2.6400 H     1 <1>   0.1500 
 46 H       -6.5850    -1.5940     0.8380 H     1 <1>   0.4500 
 47 H       -7.4150    -4.1740     2.0340 H     1 <1>   0.0800 
 48 H       -8.4690    -2.8120     1.7220 H     1 <1>   0.0800 
 49 H       -7.1910    -2.6730     2.9090 H     1 <1>   0.0800 
 50 H       -6.8460    -4.2860    -0.3960 H     1 <1>   0.0800 
 51 H       -6.2790    -2.8510    -1.2120 H     1 <1>   0.0800 
 52 H       -7.9380    -2.9450    -0.6680 H     1 <1>   0.0800 
 53 H       -5.5360    -7.5470     0.9390 H     1 <1>   0.0800 
 54 H       -4.5490    -8.4410    -0.2010 H     1 <1>   0.0800 
 55 H       -6.1620    -7.9480    -0.6430 H     1 <1>   0.0800 
@<TRIPOS>BOND
  1   1   2  1   
  2   1   3  1   
  3   2   4  1   
  4   2   5  2   
  5   3   6  2   
  6   3   7  1   
  7   4   8  ar  
  8   4   9  ar  
  9   5   6  1   
 10   5  27  1   
 11   6  28  1   
 12   7  10  1   
 13   7  29  1   
 14   7  30  1   
 15   8  11  ar  
 16   8  31  1   
 17   9  12  ar  
 18   9  32  1   
 19  10  13  1   
 20  10  14  1   
 21  11  15  ar  
 22  11  33  1   
 23  12  15  ar  
 24  12  34  1   
 25  13  16  1   
 26  13  35  1   
 27  13  36  1   
 28  14  17  1   
 29  14  37  1   
 30  14  38  1   
 31  15  18  1   
 32  16  19  1   
 33  16  20  2   
 34  17  21  1   
 35  17  39  1   
 36  17  40  1   
 37  18  41  1   
 38  18  42  1   
 39  18  43  1   
 40  19  22  1   
 41  19  44  1   
 42  20  23  1   
 43  20  45  1   
 44  21  24  1   
 45  21  25  1   
 46  21  46  1   
 47  22  23  2   
 48  22  26  1   
 49  24  47  1   
 50  24  48  1   
 51  24  49  1   
 52  25  50  1   
 53  25  51  1   
 54  25  52  1   
 55  26  53  1   
 56  26  54  1   
 57  26  55  1   
@<TRIPOS>SUBSTRUCTURE
  1 ****   3 GROUP 4 **** **** 0

# MOE 2024.06 (io_trps.svl 2023.06)
