@<TRIPOS>MOLECULE
NONAME
56 59 1 0 0 
SMALL
USER_CHARGES


@<TRIPOS>ATOM
  1 O       -0.6160     0.3030     2.7360 O.3   1 <1>  -0.5600 
  2 C        0.3150     0.2990     1.6980 C.3   1 <1>   0.1200 
  3 C       -1.8590     0.7410     2.2730 C.3   1 <1>   0.1200 
  4 C       -0.1300     1.4070     0.7510 C.3   1 <1>   0.2890 
  5 C       -1.6450     1.2650     0.8480 C.3   1 <1>  -0.0800 
  6 N        0.3190     2.7140     1.2970 N.pl3 1 <1>  -0.8690 
  7 C       -2.4700     2.5260     0.5240 C.3   1 <1>  -0.0170 
  8 C        0.9640     3.7460     0.7380 C.ar  1 <1>   0.4100 
  9 C       -3.9660     2.2260     0.5620 C.ar  1 <1>  -0.1430 
 10 N        1.3220     4.6870     1.5780 N.ar  1 <1>  -0.6200 
 11 C        1.2430     3.8270    -0.6390 C.ar  1 <1>  -0.1500 
 12 C       -4.6350     1.5570    -0.4910 C.ar  1 <1>   0.0000 
 13 C       -4.7090     2.5980     1.6430 C.ar  1 <1>  -0.1500 
 14 C        1.9770     5.7380     1.1030 C.ar  1 <1>   0.7710 
 15 C        1.9170     4.9050    -1.1080 C.ar  1 <1>   0.2180 
 16 C       -6.0200     1.3050    -0.3340 C.ar  1 <1>   0.3100 
 17 C       -4.0150     1.1270    -1.6880 C.ar  1 <1>  -0.1500 
 18 C       -6.0780     2.3070     1.6950 C.ar  1 <1>   0.1600 
 19 N        2.2770     5.8470    -0.2040 N.ar  1 <1>  -0.1790 
 20 N        2.3610     6.7330     1.9520 N.pl3 1 <1>  -0.8380 
 21 C        2.2840     5.1040    -2.5730 C.3   1 <1>  -0.0170 
 22 N       -6.7250     1.6840     0.7610 N.ar  1 <1>  -0.6200 
 23 C       -6.7080     0.6310    -1.3560 C.ar  1 <1>  -0.1500 
 24 C       -4.7160     0.4740    -2.6660 C.ar  1 <1>  -0.1500 
 25 C        2.1970     6.5880     3.4380 C.3   1 <1>   0.1290 
 26 C        2.9110     8.0750     1.5790 C.3   1 <1>   0.1290 
 27 C        1.5920     6.3310    -3.1820 C.3   1 <1>  -0.2400 
 28 C       -6.0790     0.2200    -2.5000 C.ar  1 <1>  -0.1500 
 29 H        1.3010     0.4620     2.0960 H     1 <1>   0.0800 
 30 H        0.2650    -0.6620     1.2160 H     1 <1>   0.0800 
 31 H       -2.5510    -0.0830     2.2960 H     1 <1>   0.0800 
 32 H       -2.1960     1.5160     2.9380 H     1 <1>   0.0800 
 33 H        0.2390     1.2470    -0.2460 H     1 <1>   0.0800 
 34 H       -1.9420     0.4780     0.1790 H     1 <1>   0.0800 
 35 H        0.1880     2.7590     2.3160 H     1 <1>   0.4000 
 36 H       -2.2000     2.9120    -0.4420 H     1 <1>   0.0800 
 37 H       -2.2470     3.2990     1.2390 H     1 <1>   0.0800 
 38 H        0.9160     3.0380    -1.2870 H     1 <1>   0.1500 
 39 H       -4.2730     3.1150     2.4790 H     1 <1>   0.1500 
 40 H       -2.9710     1.3150    -1.8390 H     1 <1>   0.1500 
 41 H       -6.6250     2.6180     2.5680 H     1 <1>   0.1500 
 42 H        2.7980     6.6730    -0.4620 H     1 <1>   0.4570 
 43 H        3.3520     5.2050    -2.6700 H     1 <1>   0.0800 
 44 H        1.9950     4.2320    -3.1360 H     1 <1>   0.0800 
 45 H       -7.7560     0.4490    -1.2080 H     1 <1>   0.1500 
 46 H       -4.2320     0.1510    -3.5720 H     1 <1>   0.1500 
 47 H        3.0210     7.0530     3.9510 H     1 <1>   0.0800 
 48 H        2.1710     5.5520     3.7330 H     1 <1>   0.0800 
 49 H        1.2800     7.0580     3.7510 H     1 <1>   0.0800 
 50 H        2.4570     8.8360     2.1940 H     1 <1>   0.0800 
 51 H        2.7070     8.3240     0.5530 H     1 <1>   0.0800 
 52 H        3.9750     8.0940     1.7480 H     1 <1>   0.0800 
 53 H        1.9070     7.2410    -2.7040 H     1 <1>   0.0800 
 54 H        0.5220     6.2430    -3.0940 H     1 <1>   0.0800 
 55 H        1.8350     6.4030    -4.2290 H     1 <1>   0.0800 
 56 H       -6.6200    -0.2950    -3.2740 H     1 <1>   0.1500 
@<TRIPOS>BOND
  1   1   2  1   
  2   1   3  1   
  3   2   4  1   
  4   2  29  1   
  5   2  30  1   
  6   3   5  1   
  7   3  31  1   
  8   3  32  1   
  9   4   5  1   
 10   4   6  1   
 11   4  33  1   
 12   5   7  1   
 13   5  34  1   
 14   6   8  1   
 15   6  35  1   
 16   7   9  1   
 17   7  36  1   
 18   7  37  1   
 19   8  10  ar  
 20   8  11  ar  
 21   9  12  ar  
 22   9  13  ar  
 23  10  14  ar  
 24  11  15  ar  
 25  11  38  1   
 26  12  16  ar  
 27  12  17  ar  
 28  13  18  ar  
 29  13  39  1   
 30  14  19  ar  
 31  14  20  1   
 32  15  19  ar  
 33  15  21  1   
 34  16  22  ar  
 35  16  23  ar  
 36  17  24  ar  
 37  17  40  1   
 38  18  22  ar  
 39  18  41  1   
 40  19  42  1   
 41  20  25  1   
 42  20  26  1   
 43  21  27  1   
 44  21  43  1   
 45  21  44  1   
 46  23  28  ar  
 47  23  45  1   
 48  24  28  ar  
 49  24  46  1   
 50  25  47  1   
 51  25  48  1   
 52  25  49  1   
 53  26  50  1   
 54  26  51  1   
 55  26  52  1   
 56  27  53  1   
 57  27  54  1   
 58  27  55  1   
 59  28  56  1   
@<TRIPOS>SUBSTRUCTURE
  1 ****   7 GROUP 4 **** **** 0

# MOE 2024.06 (io_trps.svl 2023.06)
