@<TRIPOS>MOLECULE
NONAME
42 45 1 0 0 
SMALL
USER_CHARGES


@<TRIPOS>ATOM
  1 S        1.6360    -0.1200     0.1620 S.3   1 <1>  -0.2420 
  2 C        1.7150    -1.2570    -1.1860 C.2   1 <1>   0.6410 
  3 C        0.5560    -1.2000     1.0710 C.2   1 <1>  -0.0490 
  4 N        2.3950    -1.0480    -2.2530 N.2   1 <1>  -0.6610 
  5 N        0.9420    -2.3700    -0.9010 N.pl3 1 <1>  -0.1080 
  6 C        0.3110    -2.3170     0.3630 C.2   1 <1>   0.2090 
  7 C        2.2930    -2.0760    -3.1540 C.2   1 <1>   0.7810 
  8 N        0.8110    -3.4130    -1.7860 N.2   1 <1>  -0.4920 
  9 N       -0.4770    -3.4140     0.7150 N.am  1 <1>  -0.5390 
 10 O        2.9150    -1.9580    -4.2040 O.2   1 <1>  -0.5700 
 11 C        1.4830    -3.2490    -2.8800 C.2   1 <1>   0.3890 
 12 C       -1.3030    -3.6350     1.7710 C.2   1 <1>   0.5690 
 13 C        1.4040    -4.3580    -3.9200 C.3   1 <1>  -0.1790 
 14 O       -1.4600    -2.8430     2.6690 O.2   1 <1>  -0.5700 
 15 C       -2.0540    -4.9690     1.7730 C.3   1 <1>   0.1710 
 16 N       -2.0560    -5.6260     0.4320 N.3   1 <1>  -0.8100 
 17 C       -2.2690    -7.0820     0.5210 C.3   1 <1>   0.2530 
 18 C       -3.0430    -5.0260    -0.4800 C.3   1 <1>   0.1100 
 19 C       -2.3060    -7.7310    -0.8600 C.ar  1 <1>  -0.1430 
 20 C       -2.7480    -5.4770    -1.9130 C.3   1 <1>  -0.0170 
 21 C       -2.5480    -6.9830    -2.0070 C.ar  1 <1>  -0.1430 
 22 C       -2.1060    -9.0990    -0.9710 C.ar  1 <1>  -0.1500 
 23 C       -2.5910    -7.6060    -3.2440 C.ar  1 <1>  -0.1500 
 24 C       -2.1480    -9.7180    -2.2080 C.ar  1 <1>  -0.1500 
 25 C       -2.3930    -8.9710    -3.3460 C.ar  1 <1>  -0.1500 
 26 H        0.2220    -0.8780     2.0420 H     1 <1>   0.1500 
 27 H       -0.4980    -4.1770     0.0240 H     1 <1>   0.3700 
 28 H        2.3880    -4.7430    -4.1170 H     1 <1>   0.0800 
 29 H        0.9930    -3.9700    -4.8350 H     1 <1>   0.0800 
 30 H        0.7800    -5.1630    -3.5730 H     1 <1>   0.0800 
 31 H       -3.0620    -4.8100     2.1130 H     1 <1>   0.0800 
 32 H       -1.5590    -5.6060     2.4840 H     1 <1>   0.0800 
 33 H       -3.1980    -7.2840     1.0260 H     1 <1>   0.0800 
 34 H       -1.4680    -7.5190     1.0920 H     1 <1>   0.0800 
 35 H       -2.9950    -3.9510    -0.4360 H     1 <1>   0.0800 
 36 H       -4.0370    -5.3330    -0.1990 H     1 <1>   0.0800 
 37 H       -1.8540    -4.9860    -2.2540 H     1 <1>   0.0800 
 38 H       -3.5580    -5.1750    -2.5510 H     1 <1>   0.0800 
 39 H       -1.9170    -9.6910    -0.0940 H     1 <1>   0.1500 
 40 H       -2.7770    -7.0310    -4.1330 H     1 <1>   0.1500 
 41 H       -1.9920   -10.7800    -2.2850 H     1 <1>   0.1500 
 42 H       -2.4280    -9.4520    -4.3080 H     1 <1>   0.1500 
@<TRIPOS>BOND
  1   1   2  1   
  2   1   3  1   
  3   2   4  2   
  4   2   5  1   
  5   3   6  2   
  6   3  26  1   
  7   4   7  1   
  8   5   6  1   
  9   5   8  1   
 10   6   9  1   
 11   7  10  2   
 12   7  11  1   
 13   8  11  2   
 14   9  12  am  
 15   9  27  1   
 16  11  13  1   
 17  12  14  2   
 18  12  15  1   
 19  13  28  1   
 20  13  29  1   
 21  13  30  1   
 22  15  16  1   
 23  15  31  1   
 24  15  32  1   
 25  16  17  1   
 26  16  18  1   
 27  17  19  1   
 28  17  33  1   
 29  17  34  1   
 30  18  20  1   
 31  18  35  1   
 32  18  36  1   
 33  19  21  ar  
 34  19  22  ar  
 35  20  21  1   
 36  20  37  1   
 37  20  38  1   
 38  21  23  ar  
 39  22  24  ar  
 40  22  39  1   
 41  23  25  ar  
 42  23  40  1   
 43  24  25  ar  
 44  24  41  1   
 45  25  42  1   
@<TRIPOS>SUBSTRUCTURE
  1 ****   8 GROUP 4 **** **** 0

# MOE 2024.06 (io_trps.svl 2023.06)
