@<TRIPOS>MOLECULE
NONAME
54 56 1 0 0 
SMALL
USER_CHARGES


@<TRIPOS>ATOM
  1 O       -0.9600     0.8690     1.7040 O.2   1 <1>  -0.5700 
  2 C       -1.8790     1.4660     1.1870 C.2   1 <1>   0.5690 
  3 N       -2.7480     0.7970     0.3530 N.am  1 <1>  -0.6600 
  4 C       -2.0320     2.9500     1.5320 C.3   1 <1>   0.1810 
  5 C       -2.3580    -0.5000    -0.2570 C.3   1 <1>   0.1400 
  6 C       -4.0980     1.2880    -0.0400 C.3   1 <1>   0.1400 
  7 O       -2.4470     3.7420     0.4220 O.3   1 <1>  -0.3620 
  8 C       -3.3920    -1.5860     0.1040 C.3   1 <1>   0.4230 
  9 C       -5.1360     0.2170     0.3230 C.3   1 <1>  -0.1600 
 10 C       -1.5420     4.5670    -0.1660 C.ar  1 <1>   0.0820 
 11 N       -2.9940    -2.9860    -0.3460 N.4   1 <1>  -0.9590 
 12 C       -4.8420    -1.1790    -0.2990 C.3   1 <1>   0.0000 
 13 C       -0.3120     4.1300    -0.6690 C.ar  1 <1>   0.0820 
 14 C       -1.8880     5.9050    -0.2590 C.ar  1 <1>  -0.1500 
 15 C       -4.1300    -3.9630    -0.3900 C.3   1 <1>   0.3430 
 16 C       -2.2140    -3.0530    -1.6270 C.3   1 <1>   0.2630 
 17 C       -5.8460    -2.2110     0.2960 C.3   1 <1>  -0.1600 
 18 C       -4.9740    -1.1150    -1.8470 C.3   1 <1>   0.1200 
 19 O        0.0080     2.8100    -0.6170 O.3   1 <1>  -0.3630 
 20 C        0.5580     5.0530    -1.2400 C.ar  1 <1>  -0.1500 
 21 C       -1.0150     6.8170    -0.8280 C.ar  1 <1>  -0.1500 
 22 C       -5.2180    -3.5820     0.6130 C.3   1 <1>  -0.1600 
 23 O       -6.1960    -0.5900    -2.2360 O.3   1 <1>  -0.6800 
 24 C        1.3330     2.4310    -0.3130 C.3   1 <1>   0.0400 
 25 C        0.2080     6.3910    -1.3150 C.ar  1 <1>  -0.1500 
 26 H       -1.0990     3.3340     1.9020 H     1 <1>   0.0800 
 27 H       -2.7740     3.0570     2.2990 H     1 <1>   0.0800 
 28 H       -2.2920    -0.3600    -1.3200 H     1 <1>   0.0800 
 29 H       -1.3890    -0.8000     0.1010 H     1 <1>   0.0800 
 30 H       -4.3450     2.1960     0.4800 H     1 <1>   0.0800 
 31 H       -4.1140     1.4990    -1.0970 H     1 <1>   0.0800 
 32 H       -3.3990    -1.6080     1.1820 H     1 <1>   0.0800 
 33 H       -5.1540     0.1440     1.3970 H     1 <1>   0.0800 
 34 H       -6.1080     0.5670     0.0230 H     1 <1>   0.0800 
 35 H       -2.3630    -3.3210     0.3980 H     1 <1>   0.4500 
 36 H       -2.8410     6.2300     0.1180 H     1 <1>   0.1500 
 37 H       -4.5650    -3.9730    -1.3760 H     1 <1>   0.0800 
 38 H       -3.7680    -4.9570    -0.1770 H     1 <1>   0.0800 
 39 H       -2.7990    -2.6720    -2.4470 H     1 <1>   0.0800 
 40 H       -1.9420    -4.0740    -1.8450 H     1 <1>   0.0800 
 41 H       -1.3080    -2.4740    -1.5500 H     1 <1>   0.0800 
 42 H       -6.2760    -1.8380     1.2110 H     1 <1>   0.0800 
 43 H       -6.6710    -2.3550    -0.3790 H     1 <1>   0.0800 
 44 H       -4.8890    -2.0900    -2.2930 H     1 <1>   0.0800 
 45 H       -4.2220    -0.4790    -2.2790 H     1 <1>   0.0800 
 46 H        1.5030     4.7400    -1.6410 H     1 <1>   0.1500 
 47 H       -1.2890     7.8560    -0.8930 H     1 <1>   0.1500 
 48 H       -5.9890    -4.3340     0.6020 H     1 <1>   0.0800 
 49 H       -4.7970    -3.5780     1.6040 H     1 <1>   0.0800 
 50 H       -6.9480    -1.1390    -1.9400 H     1 <1>   0.4000 
 51 H        1.3250     1.3930    -0.0310 H     1 <1>   0.0800 
 52 H        1.6890     3.0270     0.5080 H     1 <1>   0.0800 
 53 H        1.9470     2.5700    -1.1840 H     1 <1>   0.0800 
 54 H        0.8850     7.1000    -1.7580 H     1 <1>   0.1500 
@<TRIPOS>BOND
  1   1   2  2   
  2   2   3  am  
  3   2   4  1   
  4   3   5  1   
  5   3   6  1   
  6   4   7  1   
  7   4  26  1   
  8   4  27  1   
  9   5   8  1   
 10   5  28  1   
 11   5  29  1   
 12   6   9  1   
 13   6  30  1   
 14   6  31  1   
 15   7  10  1   
 16   8  11  1   
 17   8  12  1   
 18   8  32  1   
 19   9  12  1   
 20   9  33  1   
 21   9  34  1   
 22  10  13  ar  
 23  10  14  ar  
 24  11  15  1   
 25  11  16  1   
 26  11  35  1   
 27  12  17  1   
 28  12  18  1   
 29  13  19  1   
 30  13  20  ar  
 31  14  21  ar  
 32  14  36  1   
 33  15  22  1   
 34  15  37  1   
 35  15  38  1   
 36  16  39  1   
 37  16  40  1   
 38  16  41  1   
 39  17  22  1   
 40  17  42  1   
 41  17  43  1   
 42  18  23  1   
 43  18  44  1   
 44  18  45  1   
 45  19  24  1   
 46  20  25  ar  
 47  20  46  1   
 48  21  25  ar  
 49  21  47  1   
 50  22  48  1   
 51  22  49  1   
 52  23  50  1   
 53  24  51  1   
 54  24  52  1   
 55  24  53  1   
 56  25  54  1   
@<TRIPOS>SUBSTRUCTURE
  1 ****   3 GROUP 4 **** **** 0

# MOE 2024.06 (io_trps.svl 2023.06)
