@<TRIPOS>MOLECULE
NONAME
56 59 1 0 0 
SMALL
USER_CHARGES


@<TRIPOS>ATOM
  1 O        1.3040    -0.6890     1.4880 O.3   1 <1>  -0.0190 
  2 N        1.4800     0.5810     1.2920 N.2   1 <1>  -0.4100 
  3 C        1.7900    -1.4030     0.5110 C.2   1 <1>  -0.0400 
  4 C        2.1070     0.6940     0.1730 C.2   1 <1>   0.1080 
  5 C        2.3370    -0.5630    -0.3820 C.2   1 <1>  -0.1500 
  6 C        1.6640    -2.9120     0.5610 C.3   1 <1>   0.5230 
  7 C        2.5390     2.0140    -0.4590 C.3   1 <1>   0.1010 
  8 N        0.2540    -3.3250     0.2850 N.4   1 <1>  -0.9590 
  9 C        3.5130     2.7730     0.4580 C.3   1 <1>  -0.1600 
 10 C        1.3180     2.8890    -0.7960 C.3   1 <1>  -0.1600 
 11 C       -0.6650    -2.9790     1.4110 C.3   1 <1>   0.3430 
 12 C        0.1720    -4.7690    -0.0660 C.3   1 <1>   0.3430 
 13 C        3.9370     4.1160    -0.1550 C.3   1 <1>  -0.1600 
 14 C        1.7380     4.2320    -1.4120 C.3   1 <1>  -0.1600 
 15 C       -2.1060    -3.2880     1.0050 C.3   1 <1>  -0.1600 
 16 C       -1.2530    -5.1160    -0.5000 C.3   1 <1>  -0.1600 
 17 C        2.7150     4.9790    -0.4950 C.3   1 <1>  -0.1600 
 18 C       -2.2970    -4.7510     0.5730 C.3   1 <1>  -0.0800 
 19 C       -3.7370    -4.9490     0.0610 C.3   1 <1>  -0.1600 
 20 C       -4.0980    -6.4140    -0.2430 C.3   1 <1>   0.0960 
 21 N       -5.4270    -6.4910    -0.8740 N.pl3 1 <1>   0.3140 
 22 N       -5.5970    -6.2050    -2.1770 N.2   1 <1>  -0.7070 
 23 C       -6.5930    -6.8220    -0.2870 C.2   1 <1>  -0.3020 
 24 C       -6.8690    -6.3640    -2.3870 C.2   1 <1>   0.1390 
 25 C       -7.5470    -6.7510    -1.2380 C.2   1 <1>  -0.1500 
 26 H        2.8420    -0.7560    -1.3120 H     1 <1>   0.1500 
 27 H        1.9810    -3.2710     1.5260 H     1 <1>   0.0800 
 28 H        2.3160    -3.3310    -0.1880 H     1 <1>   0.0800 
 29 H        3.0530     1.7940    -1.3780 H     1 <1>   0.0800 
 30 H       -0.0610    -2.7790    -0.5280 H     1 <1>   0.4500 
 31 H        4.3840     2.1680     0.6390 H     1 <1>   0.0800 
 32 H        3.0380     2.9550     1.4080 H     1 <1>   0.0800 
 33 H        0.7570     3.0750     0.1040 H     1 <1>   0.0800 
 34 H        0.6760     2.3640    -1.4810 H     1 <1>   0.0800 
 35 H       -0.5910    -1.9310     1.6520 H     1 <1>   0.0800 
 36 H       -0.4050    -3.5490     2.2880 H     1 <1>   0.0800 
 37 H        0.4420    -5.3690     0.7880 H     1 <1>   0.0800 
 38 H        0.8530    -4.9960    -0.8710 H     1 <1>   0.0800 
 39 H        4.5080     3.9370    -1.0510 H     1 <1>   0.0800 
 40 H        4.5690     4.6440     0.5380 H     1 <1>   0.0800 
 41 H        0.8650     4.8400    -1.5780 H     1 <1>   0.0800 
 42 H        2.2060     4.0590    -2.3660 H     1 <1>   0.0800 
 43 H       -2.3930    -2.6230     0.2080 H     1 <1>   0.0800 
 44 H       -2.7490    -3.0740     1.8420 H     1 <1>   0.0800 
 45 H       -1.2890    -6.1720    -0.7020 H     1 <1>   0.0800 
 46 H       -1.4750    -4.6070    -1.4220 H     1 <1>   0.0800 
 47 H        3.0370     5.8870    -0.9750 H     1 <1>   0.0800 
 48 H        2.2090     5.2520     0.4160 H     1 <1>   0.0800 
 49 H       -2.1480    -5.3820     1.4350 H     1 <1>   0.0800 
 50 H       -3.8780    -4.3670    -0.8350 H     1 <1>   0.0800 
 51 H       -4.4310    -4.5830     0.7990 H     1 <1>   0.0800 
 52 H       -4.1060    -6.9990     0.6580 H     1 <1>   0.0800 
 53 H       -3.3970    -6.8470    -0.9320 H     1 <1>   0.0800 
 54 H       -6.6810    -7.0840     0.7520 H     1 <1>   0.1500 
 55 H       -7.3340    -6.2100    -3.3470 H     1 <1>   0.1500 
 56 H       -8.6020    -6.9430    -1.1590 H     1 <1>   0.1500 
@<TRIPOS>BOND
  1   1   2  1   
  2   1   3  1   
  3   2   4  2   
  4   3   5  2   
  5   3   6  1   
  6   4   5  1   
  7   4   7  1   
  8   5  26  1   
  9   6   8  1   
 10   6  27  1   
 11   6  28  1   
 12   7   9  1   
 13   7  10  1   
 14   7  29  1   
 15   8  11  1   
 16   8  12  1   
 17   8  30  1   
 18   9  13  1   
 19   9  31  1   
 20   9  32  1   
 21  10  14  1   
 22  10  33  1   
 23  10  34  1   
 24  11  15  1   
 25  11  35  1   
 26  11  36  1   
 27  12  16  1   
 28  12  37  1   
 29  12  38  1   
 30  13  17  1   
 31  13  39  1   
 32  13  40  1   
 33  14  17  1   
 34  14  41  1   
 35  14  42  1   
 36  15  18  1   
 37  15  43  1   
 38  15  44  1   
 39  16  18  1   
 40  16  45  1   
 41  16  46  1   
 42  17  47  1   
 43  17  48  1   
 44  18  19  1   
 45  18  49  1   
 46  19  20  1   
 47  19  50  1   
 48  19  51  1   
 49  20  21  1   
 50  20  52  1   
 51  20  53  1   
 52  21  22  1   
 53  21  23  1   
 54  22  24  2   
 55  23  25  2   
 56  23  54  1   
 57  24  25  1   
 58  24  55  1   
 59  25  56  1   
@<TRIPOS>SUBSTRUCTURE
  1 ****   8 GROUP 4 **** **** 0

# MOE 2024.06 (io_trps.svl 2023.06)
