@<TRIPOS>MOLECULE
NONAME
47 49 1 0 0 
SMALL
USER_CHARGES


@<TRIPOS>ATOM
  1 O       -4.3930     0.2280    -1.3590 O.co2 1 <1>  -0.9000 
  2 C       -4.3050     1.4520    -1.2550 C.2   1 <1>   0.9060 
  3 O       -5.2100     2.1840    -1.6660 O.co2 1 <1>  -0.9000 
  4 C       -3.2640     2.0500    -0.3490 C.3   1 <1>  -0.2660 
  5 C       -3.4480     1.6660     1.1360 C.3   1 <1>  -0.1600 
  6 C       -4.8800     1.8630     1.6830 C.3   1 <1>  -0.1600 
  7 C       -5.8310     0.7070     1.3240 C.3   1 <1>   0.3430 
  8 N       -6.8020     1.0810     0.2680 N.4   1 <1>  -0.9590 
  9 C       -7.8820     2.0140     0.6990 C.3   1 <1>   0.3430 
 10 C       -7.2930    -0.1240    -0.4450 C.3   1 <1>   0.3430 
 11 C       -8.7500     2.4740    -0.4840 C.3   1 <1>   0.1430 
 12 C       -8.1370     0.2900    -1.6520 C.3   1 <1>  -0.1600 
 13 C       -9.9030     3.2880     0.0560 C.ar  1 <1>   0.1670 
 14 C       -9.2760     1.2550    -1.2720 C.3   1 <1>  -0.1600 
 15 C       -8.0250     3.4940    -1.4030 C.3   1 <1>  -0.1600 
 16 N      -10.6700     2.9260     1.0600 N.ar  1 <1>  -0.6200 
 17 C      -10.0540     4.4640    -0.6140 C.ar  1 <1>  -0.1430 
 18 C       -9.0280     4.6200    -1.7090 C.3   1 <1>  -0.0170 
 19 C      -11.6190     3.8040     1.3600 C.ar  1 <1>   0.4770 
 20 C      -11.0660     5.2990    -0.2150 C.ar  1 <1>   0.1600 
 21 N      -11.8610     4.9730     0.7830 N.ar  1 <1>  -0.6200 
 22 C      -12.5330     3.4330     2.5030 C.3   1 <1>  -0.0970 
 23 H       -3.3110     3.1180    -0.4560 H     1 <1>   0.0800 
 24 H       -2.3020     1.7240    -0.6940 H     1 <1>   0.0800 
 25 H       -2.7670     2.2650     1.7170 H     1 <1>   0.0800 
 26 H       -3.1550     0.6380     1.2650 H     1 <1>   0.0800 
 27 H       -5.2690     2.8150     1.3680 H     1 <1>   0.0800 
 28 H       -4.8070     1.8860     2.7560 H     1 <1>   0.0800 
 29 H       -6.3650     0.3860     2.2030 H     1 <1>   0.0800 
 30 H       -5.2340    -0.1220     0.9740 H     1 <1>   0.0800 
 31 H       -6.2410     1.5650    -0.4820 H     1 <1>   0.4500 
 32 H       -7.4520     2.8800     1.1720 H     1 <1>   0.0800 
 33 H       -8.5140     1.5200     1.4160 H     1 <1>   0.0800 
 34 H       -7.8800    -0.7300     0.2230 H     1 <1>   0.0800 
 35 H       -6.4490    -0.7030    -0.7900 H     1 <1>   0.0800 
 36 H       -8.5490    -0.5920    -2.1070 H     1 <1>   0.0800 
 37 H       -7.4830     0.7440    -2.3780 H     1 <1>   0.0800 
 38 H       -9.7900     1.5840    -2.1590 H     1 <1>   0.0800 
 39 H       -9.9890     0.7270    -0.6620 H     1 <1>   0.0800 
 40 H       -7.6490     3.0500    -2.3090 H     1 <1>   0.0800 
 41 H       -7.1860     3.9190    -0.8800 H     1 <1>   0.0800 
 42 H       -9.4920     4.4640    -2.6680 H     1 <1>   0.0800 
 43 H       -8.5560     5.5860    -1.6840 H     1 <1>   0.0800 
 44 H      -11.2290     6.2410    -0.7120 H     1 <1>   0.1500 
 45 H      -12.5550     2.3680     2.6340 H     1 <1>   0.0800 
 46 H      -13.5290     3.7800     2.3010 H     1 <1>   0.0800 
 47 H      -12.1770     3.8940     3.4050 H     1 <1>   0.0800 
@<TRIPOS>BOND
  1   1   2  ar  
  2   2   3  ar  
  3   2   4  1   
  4   4   5  1   
  5   4  23  1   
  6   4  24  1   
  7   5   6  1   
  8   5  25  1   
  9   5  26  1   
 10   6   7  1   
 11   6  27  1   
 12   6  28  1   
 13   7   8  1   
 14   7  29  1   
 15   7  30  1   
 16   8   9  1   
 17   8  10  1   
 18   8  31  1   
 19   9  11  1   
 20   9  32  1   
 21   9  33  1   
 22  10  12  1   
 23  10  34  1   
 24  10  35  1   
 25  11  13  1   
 26  11  14  1   
 27  11  15  1   
 28  12  14  1   
 29  12  36  1   
 30  12  37  1   
 31  13  16  ar  
 32  13  17  ar  
 33  14  38  1   
 34  14  39  1   
 35  15  18  1   
 36  15  40  1   
 37  15  41  1   
 38  16  19  ar  
 39  17  18  1   
 40  17  20  ar  
 41  18  42  1   
 42  18  43  1   
 43  19  21  ar  
 44  19  22  1   
 45  20  21  ar  
 46  20  44  1   
 47  22  45  1   
 48  22  46  1   
 49  22  47  1   
@<TRIPOS>SUBSTRUCTURE
  1 ****   9 GROUP 4 **** **** 0

# MOE 2024.06 (io_trps.svl 2023.06)
