@<TRIPOS>MOLECULE
NONAME
41 43 1 0 0 
SMALL
USER_CHARGES


@<TRIPOS>ATOM
  1 O       -1.6930    -1.2760    -2.5840 O.2   1 <1>  -0.5700 
  2 C       -2.3970    -1.7030    -1.6980 C.2   1 <1>   0.5690 
  3 N       -2.3010    -2.9920    -1.2360 N.am  1 <1>  -0.6600 
  4 C       -3.4490    -0.7670    -1.0920 C.3   1 <1>   0.1810 
  5 C       -3.1360    -3.4600    -0.0910 C.3   1 <1>   0.1400 
  6 C       -1.3040    -3.9620    -1.7610 C.3   1 <1>   0.0600 
  7 O       -3.9210    -1.1920     0.1680 O.3   1 <1>  -0.5600 
  8 C       -4.3360    -2.5310     0.1940 C.3   1 <1>   0.2000 
  9 C       -4.9670    -2.7960     1.5710 C.3   1 <1>   0.2090 
 10 N       -5.2220    -4.2490     1.8260 N.pl3 1 <1>  -0.8690 
 11 C       -6.2970    -4.9400     1.3260 C.ar  1 <1>   0.4100 
 12 N       -7.0090    -4.4000     0.3280 N.ar  1 <1>  -0.3100 
 13 C       -6.6290    -6.1750     1.8530 C.ar  1 <1>  -0.1500 
 14 N       -8.0380    -5.0260    -0.1750 N.ar  1 <1>  -0.3100 
 15 C       -7.7110    -6.8330     1.3270 C.ar  1 <1>  -0.1500 
 16 C       -8.4120    -6.2310     0.2870 C.ar  1 <1>   0.3270 
 17 C       -9.5770    -6.8440    -0.3230 C.cat 1 <1>   0.7830 
 18 N      -10.6780    -6.1690    -0.6780 N.pl3 1 <1>  -0.7000 
 19 N       -9.7800    -8.1440    -0.6440 N.pl3 1 <1>  -0.7640 
 20 C      -11.5930    -7.0310    -1.2150 C.2   1 <1>   0.2000 
 21 C      -11.0380    -8.2570    -1.1940 C.2   1 <1>   0.2000 
 22 C       -8.8290    -9.2870    -0.5490 C.3   1 <1>   0.2740 
 23 H       -4.2870    -0.6960    -1.7600 H     1 <1>   0.0800 
 24 H       -3.0220     0.2110    -0.9670 H     1 <1>   0.0800 
 25 H       -2.5170    -3.5180     0.7870 H     1 <1>   0.0800 
 26 H       -3.5070    -4.4480    -0.3000 H     1 <1>   0.0800 
 27 H       -0.7410    -3.5280    -2.5700 H     1 <1>   0.0800 
 28 H       -1.8070    -4.8400    -2.1250 H     1 <1>   0.0800 
 29 H       -0.6210    -4.2410    -0.9780 H     1 <1>   0.0800 
 30 H       -5.0870    -2.6630    -0.5650 H     1 <1>   0.0800 
 31 H       -5.8950    -2.2530     1.6390 H     1 <1>   0.0800 
 32 H       -4.3030    -2.4250     2.3320 H     1 <1>   0.0800 
 33 H       -4.7910    -4.6000     2.6860 H     1 <1>   0.4000 
 34 H       -6.0480    -6.5920     2.6550 H     1 <1>   0.1500 
 35 H       -8.0110    -7.7860     1.7260 H     1 <1>   0.1500 
 36 H      -10.7660    -5.1520    -0.5760 H     1 <1>   0.4500 
 37 H      -12.5630    -6.7240    -1.5770 H     1 <1>   0.1500 
 38 H      -11.4570    -9.1900    -1.5390 H     1 <1>   0.1500 
 39 H       -7.8100    -8.9370    -0.5460 H     1 <1>   0.0800 
 40 H       -8.9560    -9.9430    -1.3940 H     1 <1>   0.0800 
 41 H       -9.0140    -9.8470     0.3530 H     1 <1>   0.0800 
@<TRIPOS>BOND
  1   1   2  2   
  2   2   3  am  
  3   2   4  1   
  4   3   5  1   
  5   3   6  1   
  6   4   7  1   
  7   4  23  1   
  8   4  24  1   
  9   5   8  1   
 10   5  25  1   
 11   5  26  1   
 12   6  27  1   
 13   6  28  1   
 14   6  29  1   
 15   7   8  1   
 16   8   9  1   
 17   8  30  1   
 18   9  10  1   
 19   9  31  1   
 20   9  32  1   
 21  10  11  1   
 22  10  33  1   
 23  11  12  ar  
 24  11  13  ar  
 25  12  14  ar  
 26  13  15  ar  
 27  13  34  1   
 28  14  16  ar  
 29  15  16  ar  
 30  15  35  1   
 31  16  17  1   
 32  17  18  ar  
 33  17  19  ar  
 34  18  20  1   
 35  18  36  1   
 36  19  21  1   
 37  19  22  1   
 38  20  21  2   
 39  20  37  1   
 40  21  38  1   
 41  22  39  1   
 42  22  40  1   
 43  22  41  1   
@<TRIPOS>SUBSTRUCTURE
  1 ****  12 GROUP 4 **** **** 0

# MOE 2024.06 (io_trps.svl 2023.06)
