@<TRIPOS>MOLECULE
NONAME
46 48 1 0 0 
SMALL
USER_CHARGES


@<TRIPOS>ATOM
  1 O       -1.1020    -1.2440     0.5060 O.2   1 <1>  -0.5700 
  2 C       -0.2490    -1.7100    -0.2180 C.2   1 <1>   0.6900 
  3 N        0.6290    -2.6590     0.2220 N.am  1 <1>  -0.6600 
  4 N       -0.2000    -1.2710    -1.4800 N.am  1 <1>  -0.8000 
  5 C        0.5360    -3.2180     1.6190 C.3   1 <1>   0.2010 
  6 C        1.6910    -3.2760    -0.6240 C.3   1 <1>   0.0600 
  7 C        0.2300    -4.7200     1.6450 C.2   1 <1>   0.5690 
  8 O        1.1710    -5.4720     1.7670 O.2   1 <1>  -0.5700 
  9 N       -1.0490    -5.2050     1.5020 N.am  1 <1>  -0.6600 
 10 C       -1.3180    -6.6610     1.2940 C.3   1 <1>   0.1400 
 11 C       -2.2630    -4.3790     1.2190 C.3   1 <1>   0.1400 
 12 C       -1.9260    -6.9020    -0.1020 C.3   1 <1>   0.3430 
 13 C       -2.8140    -4.7110    -0.1810 C.3   1 <1>   0.2950 
 14 O       -3.0560    -6.0860    -0.2930 O.3   1 <1>  -0.5600 
 15 C       -2.3170    -8.3680    -0.2710 C.ar  1 <1>  -0.1430 
 16 C       -4.1360    -3.9890    -0.4510 C.3   1 <1>  -0.1950 
 17 C       -1.3900    -9.2680    -0.7780 C.ar  1 <1>  -0.1500 
 18 C       -3.5770    -8.8290     0.0860 C.ar  1 <1>  -0.1500 
 19 C       -4.5960    -3.7100    -1.8480 C.3   1 <1>  -0.2000 
 20 C       -4.1520    -2.5810    -0.9600 C.3   1 <1>  -0.2000 
 21 C       -1.7170   -10.6050    -0.9260 C.ar  1 <1>  -0.1500 
 22 C       -3.9050   -10.1650    -0.0610 C.ar  1 <1>  -0.1500 
 23 C       -2.9740   -11.0550    -0.5670 C.ar  1 <1>  -0.1500 
 24 H       -0.7890    -0.4780    -1.7290 H     1 <1>   0.3700 
 25 H        0.5930    -1.4670    -2.0810 H     1 <1>   0.3700 
 26 H        1.4780    -3.0610     2.1120 H     1 <1>   0.0800 
 27 H       -0.2060    -2.6960     2.1930 H     1 <1>   0.0800 
 28 H        2.5200    -3.5850    -0.0090 H     1 <1>   0.0800 
 29 H        2.0570    -2.5740    -1.3510 H     1 <1>   0.0800 
 30 H        1.2940    -4.1400    -1.1280 H     1 <1>   0.0800 
 31 H       -0.4130    -7.2360     1.3870 H     1 <1>   0.0800 
 32 H       -2.0050    -7.0100     2.0440 H     1 <1>   0.0800 
 33 H       -3.0170    -4.5960     1.9540 H     1 <1>   0.0800 
 34 H       -2.0520    -3.3310     1.2760 H     1 <1>   0.0800 
 35 H       -1.2040    -6.6410    -0.8560 H     1 <1>   0.0800 
 36 H       -2.0920    -4.4310    -0.9290 H     1 <1>   0.0800 
 37 H       -4.8910    -4.2510     0.2700 H     1 <1>   0.1000 
 38 H       -0.4070    -8.9350    -1.0610 H     1 <1>   0.1500 
 39 H       -4.3100    -8.1440     0.4770 H     1 <1>   0.1500 
 40 H       -3.9670    -4.0100    -2.6680 H     1 <1>   0.1000 
 41 H       -5.6430    -3.8200    -2.0710 H     1 <1>   0.1000 
 42 H       -4.8920    -1.9020    -0.5730 H     1 <1>   0.1000 
 43 H       -3.2180    -2.0910    -1.1740 H     1 <1>   0.1000 
 44 H       -0.9920   -11.2960    -1.3200 H     1 <1>   0.1500 
 45 H       -4.8850   -10.5110     0.2170 H     1 <1>   0.1500 
 46 H       -3.2290   -12.0940    -0.6820 H     1 <1>   0.1500 
@<TRIPOS>BOND
  1   1   2  2   
  2   2   3  am  
  3   2   4  am  
  4   3   5  1   
  5   3   6  1   
  6   4  24  1   
  7   4  25  1   
  8   5   7  1   
  9   5  26  1   
 10   5  27  1   
 11   6  28  1   
 12   6  29  1   
 13   6  30  1   
 14   7   8  2   
 15   7   9  am  
 16   9  10  1   
 17   9  11  1   
 18  10  12  1   
 19  10  31  1   
 20  10  32  1   
 21  11  13  1   
 22  11  33  1   
 23  11  34  1   
 24  12  14  1   
 25  12  15  1   
 26  12  35  1   
 27  13  14  1   
 28  13  16  1   
 29  13  36  1   
 30  15  17  ar  
 31  15  18  ar  
 32  16  19  1   
 33  16  20  1   
 34  16  37  1   
 35  17  21  ar  
 36  17  38  1   
 37  18  22  ar  
 38  18  39  1   
 39  19  20  1   
 40  19  40  1   
 41  19  41  1   
 42  20  42  1   
 43  20  43  1   
 44  21  23  ar  
 45  21  44  1   
 46  22  23  ar  
 47  22  45  1   
 48  23  46  1   
@<TRIPOS>SUBSTRUCTURE
  1 ****  13 GROUP 4 **** **** 0

# MOE 2024.06 (io_trps.svl 2023.06)
