@<TRIPOS>MOLECULE
NONAME
51 55 1 0 0 
SMALL
USER_CHARGES


@<TRIPOS>ATOM
  1 O        0.7260    -0.3680    -1.0540 O.3   1 <1>  -0.5600 
  2 C        1.7770    -0.9090    -0.2850 C.3   1 <1>   0.4240 
  3 C       -0.5770    -0.7040    -0.6910 C.3   1 <1>   0.1200 
  4 C        1.4940    -2.3770     0.1030 C.ar  1 <1>  -0.1440 
  5 C        1.9650    -0.0330     0.9650 C.3   1 <1>  -0.1600 
  6 C        3.0210    -0.8230    -1.1800 C.3   1 <1>  -0.1600 
  7 C       -0.7830    -2.1960    -0.9330 C.3   1 <1>  -0.0160 
  8 C        0.2850    -2.9870    -0.2040 C.ar  1 <1>  -0.1440 
  9 C        2.4510    -3.1220     0.7800 C.ar  1 <1>  -0.1500 
 10 C        2.3320     1.4070     0.6090 C.3   1 <1>   0.2090 
 11 C        3.3690     0.6240    -1.5210 C.3   1 <1>   0.2090 
 12 C        0.0470    -4.3050     0.1530 C.ar  1 <1>  -0.1500 
 13 C        2.2340    -4.4410     1.1380 C.ar  1 <1>   0.0820 
 14 N        3.5380     1.3910    -0.2580 N.pl3 1 <1>  -0.8380 
 15 C        1.0070    -5.0490     0.8330 C.ar  1 <1>   0.0820 
 16 O        3.2720    -5.0430     1.7850 O.3   1 <1>  -0.3630 
 17 C        4.7490     1.9600     0.1200 C.ar  1 <1>   0.4100 
 18 O        0.7700    -6.3380     1.2190 O.3   1 <1>  -0.3630 
 19 C        3.5760    -6.3990     1.5460 C.3   1 <1>   0.0400 
 20 N        5.8420     1.3550    -0.3120 N.ar  1 <1>  -0.6200 
 21 C        4.8560     3.1200     0.9230 C.ar  1 <1>   0.2270 
 22 C       -0.5000    -6.9380     1.0940 C.3   1 <1>   0.0400 
 23 C        7.0160     1.8820     0.0540 C.ar  1 <1>   0.4700 
 24 N        3.9500     3.9820     1.5070 N.2   1 <1>  -0.5650 
 25 C        6.1300     3.5430     1.2090 C.ar  1 <1>   0.1050 
 26 N        7.2460     2.9420     0.7910 N.ar  1 <1>  -0.5670 
 27 C        4.6810     4.8590     2.1030 C.2   1 <1>   0.0360 
 28 N        6.0140     4.6510     1.9620 N.pl3 1 <1>   0.0330 
 29 H       -1.2480    -0.1260    -1.3020 H     1 <1>   0.0800 
 30 H       -0.7350    -0.4510     0.3420 H     1 <1>   0.0800 
 31 H        2.7610    -0.4350     1.5640 H     1 <1>   0.0800 
 32 H        1.0790    -0.0490     1.5690 H     1 <1>   0.0800 
 33 H        2.8490    -1.3810    -2.0810 H     1 <1>   0.0800 
 34 H        3.8690    -1.2550    -0.6850 H     1 <1>   0.0800 
 35 H       -0.7270    -2.3970    -1.9880 H     1 <1>   0.0800 
 36 H       -1.7600    -2.4770    -0.5850 H     1 <1>   0.0800 
 37 H        3.3970    -2.6850     1.0430 H     1 <1>   0.1500 
 38 H        2.5160     1.9510     1.5170 H     1 <1>   0.0800 
 39 H        1.5230     1.8840     0.0840 H     1 <1>   0.0800 
 40 H        2.5770     1.0690    -2.0990 H     1 <1>   0.0800 
 41 H        4.2670     0.6570    -2.1140 H     1 <1>   0.0800 
 42 H       -0.8990    -4.7360    -0.1090 H     1 <1>   0.1500 
 43 H        4.6050    -6.5630     1.8090 H     1 <1>   0.0800 
 44 H        3.4220    -6.6170     0.5040 H     1 <1>   0.0800 
 45 H        2.9420    -7.0100     2.1620 H     1 <1>   0.0800 
 46 H       -0.4500    -7.9190     1.5310 H     1 <1>   0.0800 
 47 H       -0.7490    -7.0160     0.0500 H     1 <1>   0.0800 
 48 H       -1.2220    -6.3400     1.6220 H     1 <1>   0.0800 
 49 H        7.8820     1.3580    -0.3130 H     1 <1>   0.1500 
 50 H        4.2950     5.6920     2.6660 H     1 <1>   0.1500 
 51 H        6.7930     5.2000     2.3290 H     1 <1>   0.2700 
@<TRIPOS>BOND
  1   1   2  1   
  2   1   3  1   
  3   2   4  1   
  4   2   5  1   
  5   2   6  1   
  6   3   7  1   
  7   3  29  1   
  8   3  30  1   
  9   4   8  ar  
 10   4   9  ar  
 11   5  10  1   
 12   5  31  1   
 13   5  32  1   
 14   6  11  1   
 15   6  33  1   
 16   6  34  1   
 17   7   8  1   
 18   7  35  1   
 19   7  36  1   
 20   8  12  ar  
 21   9  13  ar  
 22   9  37  1   
 23  10  14  1   
 24  10  38  1   
 25  10  39  1   
 26  11  14  1   
 27  11  40  1   
 28  11  41  1   
 29  12  15  ar  
 30  12  42  1   
 31  13  15  ar  
 32  13  16  1   
 33  14  17  1   
 34  15  18  1   
 35  16  19  1   
 36  17  20  ar  
 37  17  21  ar  
 38  18  22  1   
 39  19  43  1   
 40  19  44  1   
 41  19  45  1   
 42  20  23  ar  
 43  21  24  1   
 44  21  25  ar  
 45  22  46  1   
 46  22  47  1   
 47  22  48  1   
 48  23  26  ar  
 49  23  49  1   
 50  24  27  2   
 51  25  26  ar  
 52  25  28  1   
 53  27  28  1   
 54  27  50  1   
 55  28  51  1   
@<TRIPOS>SUBSTRUCTURE
  1 ****   5 GROUP 4 **** **** 0

# MOE 2024.06 (io_trps.svl 2023.06)
