@<TRIPOS>MOLECULE
NONAME
40 41 1 0 0 
SMALL
USER_CHARGES


@<TRIPOS>ATOM
  1 O       -0.4830     0.3270     0.5140 O.co2 1 <1>  -0.9000 
  2 C       -1.3970     1.1760     0.5830 C.2   1 <1>   0.9790 
  3 O       -2.5150     0.7730     0.9750 O.co2 1 <1>  -0.9000 
  4 C       -1.2080     2.6000     0.2430 C.ar  1 <1>   0.1310 
  5 N       -0.0760     3.0920    -0.2740 N.ar  1 <1>  -0.6200 
  6 C       -2.2500     3.4850     0.4700 C.ar  1 <1>  -0.1500 
  7 C       -0.0060     4.3910    -0.5320 C.ar  1 <1>   0.7200 
  8 C       -2.0890     4.8140     0.1710 C.ar  1 <1>   0.1660 
  9 N       -0.9750     5.2820    -0.3250 N.ar  1 <1>  -0.6200 
 10 N        1.1860     4.8670    -1.0510 N.pl3 1 <1>  -0.8380 
 11 C       -3.2050     5.8070     0.4070 C.3   1 <1>  -0.0970 
 12 C        1.4000     6.3080    -1.3920 C.3   1 <1>   0.2090 
 13 C        2.4560     4.1010    -0.9170 C.3   1 <1>   0.2090 
 14 C        2.2260     6.9870    -0.2900 C.3   1 <1>   0.2000 
 15 C        3.2990     4.7360     0.1960 C.3   1 <1>  -0.1600 
 16 O        2.5200     8.2910    -0.6990 O.3   1 <1>  -0.5600 
 17 C        3.5470     6.2370    -0.0430 C.3   1 <1>  -0.1600 
 18 C        2.6920     9.2070     0.3330 C.3   1 <1>   0.1200 
 19 C        3.0050    10.5630    -0.2960 C.3   1 <1>  -0.1600 
 20 C        3.2100    11.6430     0.7730 C.3   1 <1>  -0.2400 
 21 H       -3.1730     3.1180     0.8790 H     1 <1>   0.1500 
 22 H       -4.0740     5.3190     0.8070 H     1 <1>   0.0800 
 23 H       -3.4650     6.2780    -0.5230 H     1 <1>   0.0800 
 24 H       -2.8750     6.5590     1.0990 H     1 <1>   0.0800 
 25 H        0.4660     6.8260    -1.5140 H     1 <1>   0.0800 
 26 H        1.9360     6.3650    -2.3230 H     1 <1>   0.0800 
 27 H        2.9870     4.1410    -1.8520 H     1 <1>   0.0800 
 28 H        2.2780     3.0640    -0.6900 H     1 <1>   0.0800 
 29 H        1.6260     7.0180     0.6050 H     1 <1>   0.0800 
 30 H        4.2390     4.2180     0.2630 H     1 <1>   0.0800 
 31 H        2.7810     4.5950     1.1290 H     1 <1>   0.0800 
 32 H        4.0520     6.6500     0.8100 H     1 <1>   0.0800 
 33 H        4.1770     6.3530    -0.9080 H     1 <1>   0.0800 
 34 H        3.5050     8.8840     0.9600 H     1 <1>   0.0800 
 35 H        1.7810     9.2580     0.9070 H     1 <1>   0.0800 
 36 H        2.1910    10.8490    -0.9380 H     1 <1>   0.0800 
 37 H        3.8980    10.4770    -0.8900 H     1 <1>   0.0800 
 38 H        2.3220    11.7540     1.3700 H     1 <1>   0.0800 
 39 H        3.4260    12.5860     0.3040 H     1 <1>   0.0800 
 40 H        4.0330    11.3850     1.4170 H     1 <1>   0.0800 
@<TRIPOS>BOND
  1   1   2  ar  
  2   2   3  ar  
  3   2   4  1   
  4   4   5  ar  
  5   4   6  ar  
  6   5   7  ar  
  7   6   8  ar  
  8   6  21  1   
  9   7   9  ar  
 10   7  10  1   
 11   8   9  ar  
 12   8  11  1   
 13  10  12  1   
 14  10  13  1   
 15  11  22  1   
 16  11  23  1   
 17  11  24  1   
 18  12  14  1   
 19  12  25  1   
 20  12  26  1   
 21  13  15  1   
 22  13  27  1   
 23  13  28  1   
 24  14  16  1   
 25  14  17  1   
 26  14  29  1   
 27  15  17  1   
 28  15  30  1   
 29  15  31  1   
 30  16  18  1   
 31  17  32  1   
 32  17  33  1   
 33  18  19  1   
 34  18  34  1   
 35  18  35  1   
 36  19  20  1   
 37  19  36  1   
 38  19  37  1   
 39  20  38  1   
 40  20  39  1   
 41  20  40  1   
@<TRIPOS>SUBSTRUCTURE
  1 ****   7 GROUP 4 **** **** 0

# MOE 2024.06 (io_trps.svl 2023.06)
