@<TRIPOS>MOLECULE
NONAME
50 54 1 0 0 
SMALL
USER_CHARGES


@<TRIPOS>ATOM
  1 O       -2.0960    -0.1610    -2.0080 O.2   1 <1>  -0.5700 
  2 C       -2.8300    -0.9080    -1.4120 C.2   1 <1>   0.5690 
  3 N       -3.6190    -1.7880    -2.0730 N.am  1 <1>  -0.5470 
  4 C       -2.8720    -0.9070     0.1160 C.3   1 <1>   0.1810 
  5 C       -4.5250    -2.6130    -1.4120 C.ar  1 <1>   0.1170 
  6 O       -4.0660    -1.4790     0.6600 O.3   1 <1>  -0.3630 
  7 C       -4.7330    -2.4410    -0.0400 C.ar  1 <1>   0.0830 
  8 C       -5.2350    -3.6000    -2.0790 C.ar  1 <1>  -0.1500 
  9 C       -5.6350    -3.2380     0.6360 C.ar  1 <1>  -0.1500 
 10 C       -6.1360    -4.3940    -1.3920 C.ar  1 <1>  -0.1500 
 11 C       -6.3640    -4.2270    -0.0240 C.ar  1 <1>   0.0860 
 12 C       -7.3180    -5.0460     0.6940 C.2   1 <1>   0.5440 
 13 O       -6.9540    -5.6400     1.6910 O.2   1 <1>  -0.5700 
 14 N       -8.6340    -5.1570     0.2910 N.am  1 <1>  -0.6600 
 15 C       -9.3150    -4.1740    -0.6090 C.3   1 <1>   0.1400 
 16 C       -9.5760    -6.1180     0.9310 C.3   1 <1>   0.1400 
 17 C      -10.3330    -3.3350     0.1860 C.3   1 <1>   0.1440 
 18 C      -10.6210    -5.3500     1.7500 C.3   1 <1>  -0.1600 
 19 C      -11.0840    -2.3940    -0.7380 C.ar  1 <1>   0.1670 
 20 C      -11.3300    -4.2640     0.9160 C.3   1 <1>  -0.1600 
 21 C       -9.6380    -2.3490     1.1640 C.3   1 <1>  -0.1600 
 22 N      -11.6410    -2.7320    -1.8810 N.ar  1 <1>  -0.6200 
 23 C      -11.1200    -1.1250    -0.2440 C.ar  1 <1>  -0.1430 
 24 C      -10.4040    -1.0170     1.0780 C.3   1 <1>  -0.0170 
 25 C      -12.2460    -1.7340    -2.5100 C.ar  1 <1>   0.4770 
 26 C      -11.7730    -0.1690    -0.9810 C.ar  1 <1>   0.1600 
 27 N      -12.3470    -0.4680    -2.1280 N.ar  1 <1>  -0.6200 
 28 C      -12.9070    -2.0740    -3.8240 C.3   1 <1>  -0.0970 
 29 H       -3.5430    -1.7920    -3.0900 H     1 <1>   0.3700 
 30 H       -2.7970     0.1010     0.4790 H     1 <1>   0.0800 
 31 H       -2.0410    -1.4760     0.4890 H     1 <1>   0.0800 
 32 H       -5.0820    -3.7500    -3.1330 H     1 <1>   0.1500 
 33 H       -5.7790    -3.0970     1.6920 H     1 <1>   0.1500 
 34 H       -6.6790    -5.1630    -1.9150 H     1 <1>   0.1500 
 35 H       -9.8280    -4.7150    -1.3850 H     1 <1>   0.0800 
 36 H       -8.6090    -3.5180    -1.0820 H     1 <1>   0.0800 
 37 H       -9.0460    -6.8050     1.5680 H     1 <1>   0.0800 
 38 H      -10.0640    -6.6910     0.1610 H     1 <1>   0.0800 
 39 H      -10.1300    -4.9100     2.5990 H     1 <1>   0.0800 
 40 H      -11.3500    -6.0450     2.1270 H     1 <1>   0.0800 
 41 H      -11.9460    -4.7490     0.1770 H     1 <1>   0.0800 
 42 H      -11.9800    -3.6830     1.5460 H     1 <1>   0.0800 
 43 H       -8.6280    -2.1730     0.8360 H     1 <1>   0.0800 
 44 H       -9.5980    -2.7170     2.1730 H     1 <1>   0.0800 
 45 H       -9.7360    -0.1740     1.1050 H     1 <1>   0.0800 
 46 H      -11.1240    -0.9410     1.8750 H     1 <1>   0.0800 
 47 H      -11.8290     0.8480    -0.6310 H     1 <1>   0.1500 
 48 H      -12.6330    -3.0640    -4.1400 H     1 <1>   0.0800 
 49 H      -12.6010    -1.3700    -4.5740 H     1 <1>   0.0800 
 50 H      -13.9730    -2.0250    -3.7070 H     1 <1>   0.0800 
@<TRIPOS>BOND
  1   1   2  2   
  2   2   3  am  
  3   2   4  1   
  4   3   5  1   
  5   3  29  1   
  6   4   6  1   
  7   4  30  1   
  8   4  31  1   
  9   5   7  ar  
 10   5   8  ar  
 11   6   7  1   
 12   7   9  ar  
 13   8  10  ar  
 14   8  32  1   
 15   9  11  ar  
 16   9  33  1   
 17  10  11  ar  
 18  10  34  1   
 19  11  12  1   
 20  12  13  2   
 21  12  14  am  
 22  14  15  1   
 23  14  16  1   
 24  15  17  1   
 25  15  35  1   
 26  15  36  1   
 27  16  18  1   
 28  16  37  1   
 29  16  38  1   
 30  17  19  1   
 31  17  20  1   
 32  17  21  1   
 33  18  20  1   
 34  18  39  1   
 35  18  40  1   
 36  19  22  ar  
 37  19  23  ar  
 38  20  41  1   
 39  20  42  1   
 40  21  24  1   
 41  21  43  1   
 42  21  44  1   
 43  22  25  ar  
 44  23  24  1   
 45  23  26  ar  
 46  24  45  1   
 47  24  46  1   
 48  25  27  ar  
 49  25  28  1   
 50  26  27  ar  
 51  26  47  1   
 52  28  48  1   
 53  28  49  1   
 54  28  50  1   
@<TRIPOS>SUBSTRUCTURE
  1 ****  15 GROUP 4 **** **** 0

# MOE 2024.06 (io_trps.svl 2023.06)
