@<TRIPOS>MOLECULE
NONAME
39 40 1 0 0 
SMALL
USER_CHARGES


@<TRIPOS>ATOM
  1 O       -0.4250    -0.2030    -0.9350 O.2   1 <1>  -0.5700 
  2 C       -1.4500    -0.8160    -0.7080 C.2   1 <1>   0.7800 
  3 O       -1.4050    -2.0690    -0.2450 O.3   1 <1>  -0.4300 
  4 N       -2.6890    -0.2660    -0.9190 N.am  1 <1>  -0.6600 
  5 C       -0.2590    -2.8390     0.0440 C.3   1 <1>   0.2800 
  6 C       -3.9640    -1.0200    -0.6680 C.3   1 <1>   0.1400 
  7 C       -2.8340     1.1330    -1.4480 C.3   1 <1>   0.1400 
  8 C        0.5650    -3.0650    -1.2290 C.3   1 <1>  -0.2400 
  9 C       -0.7960    -4.1820     0.5410 C.3   1 <1>  -0.2400 
 10 C        0.5570    -2.1780     1.1620 C.3   1 <1>  -0.2400 
 11 C       -4.8630    -0.1520     0.2060 C.3   1 <1>  -0.0800 
 12 C       -3.8410     1.9560    -0.6260 C.3   1 <1>  -0.1600 
 13 C       -5.1230     1.1480    -0.5120 C.3   1 <1>   0.2000 
 14 C       -6.2800    -0.6070     0.5150 C.3   1 <1>  -0.1600 
 15 O       -6.1060     1.7320     0.2540 O.3   1 <1>  -0.5600 
 16 C       -7.0760     0.7210     0.5110 C.3   1 <1>   0.0940 
 17 C       -8.2510     0.6960    -0.4980 C.2   1 <1>   0.9060 
 18 O       -8.0360     0.4070    -1.6870 O.co2 1 <1>  -0.9000 
 19 O       -9.4000     0.8920    -0.0790 O.co2 1 <1>  -0.9000 
 20 H       -4.4490    -1.2230    -1.6080 H     1 <1>   0.0800 
 21 H       -3.7770    -1.9560    -0.1710 H     1 <1>   0.0800 
 22 H       -1.8840     1.6380    -1.4480 H     1 <1>   0.0800 
 23 H       -3.1750     1.0740    -2.4680 H     1 <1>   0.0800 
 24 H        1.3560    -3.7670    -1.0350 H     1 <1>   0.0800 
 25 H        1.0190    -2.1510    -1.5650 H     1 <1>   0.0800 
 26 H       -0.0570    -3.4590    -2.0120 H     1 <1>   0.0800 
 27 H        0.0150    -4.8410     0.7890 H     1 <1>   0.0800 
 28 H       -1.3920    -4.6490    -0.2220 H     1 <1>   0.0800 
 29 H       -1.3990    -4.0400     1.4190 H     1 <1>   0.0800 
 30 H        1.3480    -2.8340     1.4760 H     1 <1>   0.0800 
 31 H       -0.0710    -1.9690     2.0090 H     1 <1>   0.0800 
 32 H        1.0090    -1.2640     0.8240 H     1 <1>   0.0800 
 33 H       -4.3570     0.0510     1.1350 H     1 <1>   0.0800 
 34 H       -4.0430     2.8860    -1.1230 H     1 <1>   0.0800 
 35 H       -3.4370     2.1580     0.3490 H     1 <1>   0.0800 
 36 H       -5.5390     0.9720    -1.4930 H     1 <1>   0.0800 
 37 H       -6.3510    -1.1010     1.4660 H     1 <1>   0.0800 
 38 H       -6.6540    -1.2640    -0.2520 H     1 <1>   0.0800 
 39 H       -7.4870     0.9180     1.4830 H     1 <1>   0.0800 
@<TRIPOS>BOND
  1   1   2  2   
  2   2   3  1   
  3   2   4  am  
  4   3   5  1   
  5   4   6  1   
  6   4   7  1   
  7   5   8  1   
  8   5   9  1   
  9   5  10  1   
 10   6  11  1   
 11   6  20  1   
 12   6  21  1   
 13   7  12  1   
 14   7  22  1   
 15   7  23  1   
 16   8  24  1   
 17   8  25  1   
 18   8  26  1   
 19   9  27  1   
 20   9  28  1   
 21   9  29  1   
 22  10  30  1   
 23  10  31  1   
 24  10  32  1   
 25  11  13  1   
 26  11  14  1   
 27  11  33  1   
 28  12  13  1   
 29  12  34  1   
 30  12  35  1   
 31  13  15  1   
 32  13  36  1   
 33  14  16  1   
 34  14  37  1   
 35  14  38  1   
 36  15  16  1   
 37  16  17  1   
 38  16  39  1   
 39  17  18  ar  
 40  17  19  ar  
@<TRIPOS>SUBSTRUCTURE
  1 ****   6 GROUP 4 **** **** 0

# MOE 2024.06 (io_trps.svl 2023.06)
