@<TRIPOS>MOLECULE
NONAME
51 54 1 0 0 
SMALL
USER_CHARGES


@<TRIPOS>ATOM
  1 O       -3.2920    -1.0100    -0.9850 O.co2 1 <1>  -0.9000 
  2 C       -2.5180    -1.7960    -0.4300 C.2   1 <1>   0.9060 
  3 O       -2.3540    -2.9370    -0.8540 O.co2 1 <1>  -0.9000 
  4 C       -2.1230    -1.4920     0.9900 C.3   1 <1>  -0.2660 
  5 C       -3.3480    -1.5010     1.9410 C.3   1 <1>  -0.1600 
  6 C       -4.2900    -2.6920     1.7000 C.3   1 <1>   0.3430 
  7 N       -5.1120    -2.4730     0.4810 N.4   1 <1>  -0.9590 
  8 C       -6.3720    -1.7100     0.6990 C.3   1 <1>   0.3430 
  9 C       -5.2820    -3.7230    -0.3000 C.3   1 <1>   0.3430 
 10 C       -7.0440    -1.3420    -0.6360 C.3   1 <1>   0.1430 
 11 C       -5.9230    -3.3990    -1.6520 C.3   1 <1>  -0.1600 
 12 C       -8.3810    -0.7000    -0.3470 C.ar  1 <1>   0.1670 
 13 C       -7.2330    -2.6020    -1.5090 C.3   1 <1>  -0.1600 
 14 C       -6.2920    -0.2160    -1.3940 C.3   1 <1>  -0.1600 
 15 N       -9.2760    -1.1800     0.4830 N.ar  1 <1>  -0.6200 
 16 C       -8.5510     0.4550    -1.0430 C.ar  1 <1>  -0.1440 
 17 C       -7.3570     0.7670    -1.9110 C.3   1 <1>  -0.0170 
 18 C      -10.3980    -0.4560     0.6030 C.ar  1 <1>   0.6200 
 19 C       -9.7240     1.1390    -0.8620 C.ar  1 <1>   0.1600 
 20 N      -10.6480     0.6930    -0.0420 N.ar  1 <1>  -0.6200 
 21 C      -11.4230    -0.9550     1.5090 C.ar  1 <1>   0.0000 
 22 C      -12.2670    -0.0880     2.2090 C.ar  1 <1>  -0.1500 
 23 C      -11.6090    -2.3250     1.7210 C.ar  1 <1>  -0.1500 
 24 C      -13.2390    -0.5590     3.0730 C.ar  1 <1>  -0.1500 
 25 C      -12.5790    -2.8020     2.5840 C.ar  1 <1>  -0.1500 
 26 C      -13.3980    -1.9190     3.2630 C.ar  1 <1>  -0.1500 
 27 H       -1.6390    -0.5340     1.0100 H     1 <1>   0.0800 
 28 H       -1.4120    -2.2370     1.2960 H     1 <1>   0.0800 
 29 H       -3.8950    -0.5810     1.8340 H     1 <1>   0.0800 
 30 H       -2.9850    -1.5460     2.9520 H     1 <1>   0.0800 
 31 H       -4.9350    -2.8370     2.5510 H     1 <1>   0.0800 
 32 H       -3.6860    -3.5770     1.5740 H     1 <1>   0.0800 
 33 H       -4.5160    -1.8840    -0.1580 H     1 <1>   0.4500 
 34 H       -6.1640    -0.8060     1.2450 H     1 <1>   0.0800 
 35 H       -7.0580    -2.3050     1.2790 H     1 <1>   0.0800 
 36 H       -5.9000    -4.4160     0.2450 H     1 <1>   0.0800 
 37 H       -4.3160    -4.1750    -0.4710 H     1 <1>   0.0800 
 38 H       -6.1140    -4.3190    -2.1750 H     1 <1>   0.0800 
 39 H       -5.2060    -2.8480    -2.2380 H     1 <1>   0.0800 
 40 H       -7.6000    -2.3240    -2.4820 H     1 <1>   0.0800 
 41 H       -7.9750    -3.2350    -1.0520 H     1 <1>   0.0800 
 42 H       -5.6770    -0.5840    -2.1960 H     1 <1>   0.0800 
 43 H       -5.6490     0.3130    -0.7110 H     1 <1>   0.0800 
 44 H       -7.5930     0.5630    -2.9420 H     1 <1>   0.0800 
 45 H       -7.0360     1.7890    -1.8040 H     1 <1>   0.0800 
 46 H       -9.9090     2.0590    -1.3900 H     1 <1>   0.1500 
 47 H      -12.1600     0.9740     2.0730 H     1 <1>   0.1500 
 48 H      -10.9850    -3.0270     1.1980 H     1 <1>   0.1500 
 49 H      -13.8740     0.1350     3.5970 H     1 <1>   0.1500 
 50 H      -12.7000    -3.8620     2.7260 H     1 <1>   0.1500 
 51 H      -14.1540    -2.2870     3.9350 H     1 <1>   0.1500 
@<TRIPOS>BOND
  1   1   2  ar  
  2   2   3  ar  
  3   2   4  1   
  4   4   5  1   
  5   4  27  1   
  6   4  28  1   
  7   5   6  1   
  8   5  29  1   
  9   5  30  1   
 10   6   7  1   
 11   6  31  1   
 12   6  32  1   
 13   7   8  1   
 14   7   9  1   
 15   7  33  1   
 16   8  10  1   
 17   8  34  1   
 18   8  35  1   
 19   9  11  1   
 20   9  36  1   
 21   9  37  1   
 22  10  12  1   
 23  10  13  1   
 24  10  14  1   
 25  11  13  1   
 26  11  38  1   
 27  11  39  1   
 28  12  15  ar  
 29  12  16  ar  
 30  13  40  1   
 31  13  41  1   
 32  14  17  1   
 33  14  42  1   
 34  14  43  1   
 35  15  18  ar  
 36  16  17  1   
 37  16  19  ar  
 38  17  44  1   
 39  17  45  1   
 40  18  20  ar  
 41  18  21  1   
 42  19  20  ar  
 43  19  46  1   
 44  21  22  ar  
 45  21  23  ar  
 46  22  24  ar  
 47  22  47  1   
 48  23  25  ar  
 49  23  48  1   
 50  24  26  ar  
 51  24  49  1   
 52  25  26  ar  
 53  25  50  1   
 54  26  51  1   
@<TRIPOS>SUBSTRUCTURE
  1 ****  12 GROUP 4 **** **** 0

# MOE 2024.06 (io_trps.svl 2023.06)
