@<TRIPOS>MOLECULE
NONAME
47 49 1 0 0 
SMALL
USER_CHARGES


@<TRIPOS>ATOM
  1 O       -0.6880    -0.1090     1.1420 O.co2 1 <1>  -0.9000 
  2 C       -1.8480    -0.4770     1.3870 C.2   1 <1>   0.9790 
  3 O       -2.1410    -0.8360     2.5410 O.co2 1 <1>  -0.9000 
  4 C       -2.8420    -0.6240     0.3480 C.ar  1 <1>  -0.1790 
  5 C       -3.5070     0.3950    -0.3610 C.ar  1 <1>   0.0820 
  6 C       -3.2100    -1.9390     0.0800 C.ar  1 <1>  -0.1500 
  7 O       -3.3130     1.7330    -0.2380 O.3   1 <1>  -0.3630 
  8 C       -4.4960     0.0580    -1.2750 C.ar  1 <1>  -0.1500 
  9 C       -4.2270    -2.2650    -0.7980 C.ar  1 <1>  -0.1430 
 10 C       -2.2520     2.3140     0.4880 C.3   1 <1>   0.0400 
 11 C       -4.8660    -1.2550    -1.4950 C.ar  1 <1>  -0.1500 
 12 C       -4.6500    -3.7100    -0.9280 C.3   1 <1>   0.4870 
 13 N       -5.0120    -4.2000     0.4320 N.4   1 <1>  -0.9590 
 14 C       -5.0540    -5.6760     0.5720 C.3   1 <1>   0.6030 
 15 C       -6.0880    -3.4040     1.0920 C.3   1 <1>   0.3430 
 16 C       -3.6020    -6.1310     0.5060 C.2   1 <1>  -0.0400 
 17 C       -5.9250    -6.3670    -0.4970 C.3   1 <1>  -0.1600 
 18 C       -7.4700    -4.0650     1.0910 C.3   1 <1>  -0.1600 
 19 O       -2.7430    -5.4940     1.2820 O.3   1 <1>  -0.2800 
 20 C       -2.9580    -7.0720    -0.2230 C.2   1 <1>  -0.1500 
 21 C       -7.4430    -6.1650    -0.3560 C.3   1 <1>  -0.1600 
 22 C       -7.9040    -4.7070    -0.2360 C.3   1 <1>  -0.1600 
 23 C       -1.5470    -6.0020     1.0690 C.2   1 <1>  -0.0100 
 24 C       -1.6100    -6.9870     0.1490 C.2   1 <1>  -0.1500 
 25 H       -2.6720    -2.7060     0.6150 H     1 <1>   0.1500 
 26 H       -4.9830     0.8520    -1.8110 H     1 <1>   0.1500 
 27 H       -2.3250     3.3810     0.3910 H     1 <1>   0.0800 
 28 H       -1.3190     1.9760     0.0730 H     1 <1>   0.0800 
 29 H       -2.3360     2.0380     1.5240 H     1 <1>   0.0800 
 30 H       -5.6500    -1.4690    -2.2000 H     1 <1>   0.1500 
 31 H       -3.8270    -4.2830    -1.3240 H     1 <1>   0.0800 
 32 H       -5.4900    -3.7940    -1.5950 H     1 <1>   0.0800 
 33 H       -4.1620    -3.9650     0.9720 H     1 <1>   0.4500 
 34 H       -5.4310    -5.9280     1.5500 H     1 <1>   0.0800 
 35 H       -6.1650    -2.4410     0.6120 H     1 <1>   0.0800 
 36 H       -5.8050    -3.2120     2.1160 H     1 <1>   0.0800 
 37 H       -5.7520    -7.4260    -0.4180 H     1 <1>   0.0800 
 38 H       -5.6090    -6.0860    -1.4840 H     1 <1>   0.0800 
 39 H       -8.1780    -3.2910     1.3340 H     1 <1>   0.0800 
 40 H       -7.5290    -4.7810     1.8910 H     1 <1>   0.0800 
 41 H       -3.3410    -7.7660    -0.9520 H     1 <1>   0.1500 
 42 H       -7.7950    -6.7130     0.5030 H     1 <1>   0.0800 
 43 H       -7.9230    -6.6040    -1.2160 H     1 <1>   0.0800 
 44 H       -7.5750    -4.1240    -1.0780 H     1 <1>   0.0800 
 45 H       -8.9820    -4.7110    -0.2640 H     1 <1>   0.0800 
 46 H       -0.7070    -5.6030     1.6150 H     1 <1>   0.1500 
 47 H       -0.8090    -7.5940    -0.2380 H     1 <1>   0.1500 
@<TRIPOS>BOND
  1   1   2  ar  
  2   2   3  ar  
  3   2   4  1   
  4   4   5  ar  
  5   4   6  ar  
  6   5   7  1   
  7   5   8  ar  
  8   6   9  ar  
  9   6  25  1   
 10   7  10  1   
 11   8  11  ar  
 12   8  26  1   
 13   9  11  ar  
 14   9  12  1   
 15  10  27  1   
 16  10  28  1   
 17  10  29  1   
 18  11  30  1   
 19  12  13  1   
 20  12  31  1   
 21  12  32  1   
 22  13  14  1   
 23  13  15  1   
 24  13  33  1   
 25  14  16  1   
 26  14  17  1   
 27  14  34  1   
 28  15  18  1   
 29  15  35  1   
 30  15  36  1   
 31  16  19  1   
 32  16  20  2   
 33  17  21  1   
 34  17  37  1   
 35  17  38  1   
 36  18  22  1   
 37  18  39  1   
 38  18  40  1   
 39  19  23  1   
 40  20  24  1   
 41  20  41  1   
 42  21  22  1   
 43  21  42  1   
 44  21  43  1   
 45  22  44  1   
 46  22  45  1   
 47  23  24  2   
 48  23  46  1   
 49  24  47  1   
@<TRIPOS>SUBSTRUCTURE
  1 ****   9 GROUP 4 **** **** 0

# MOE 2024.06 (io_trps.svl 2023.06)
