@<TRIPOS>MOLECULE
NONAME
51 54 1 0 0 
SMALL
USER_CHARGES


@<TRIPOS>ATOM
  1 F       -0.2240    -1.6980    -1.5760 F     1 <1>  -0.1900 
  2 C       -1.2000    -2.4440    -1.1390 C.ar  1 <1>   0.1900 
  3 C       -0.9470    -3.7650    -0.8290 C.ar  1 <1>  -0.1500 
  4 C       -2.4570    -1.8890    -1.0010 C.ar  1 <1>  -0.1500 
  5 C       -1.9900    -4.5490    -0.3670 C.ar  1 <1>  -0.1500 
  6 C       -3.4880    -2.6870    -0.5370 C.ar  1 <1>  -0.1500 
  7 C       -3.2820    -4.0330    -0.2100 C.ar  1 <1>   0.0530 
  8 C       -4.3630    -4.8690     0.2730 C.2   1 <1>   0.4250 
  9 O       -5.5530    -4.3430     0.5070 O.3   1 <1>  -0.2800 
 10 N       -4.3280    -6.1450     0.5210 N.2   1 <1>  -0.5650 
 11 C       -6.3170    -5.3050     0.9310 C.2   1 <1>  -0.0400 
 12 C       -5.5760    -6.4220     0.9510 C.2   1 <1>   0.0460 
 13 C       -7.7590    -4.9940     1.2820 C.3   1 <1>  -0.0600 
 14 C       -5.9640    -7.8370     1.3460 C.3   1 <1>   0.5240 
 15 N       -5.5260    -8.7600     0.2620 N.4   1 <1>  -0.9590 
 16 C       -6.3650    -8.5820    -0.9570 C.3   1 <1>   0.3430 
 17 C       -5.6500   -10.1900     0.6710 C.3   1 <1>   0.3430 
 18 C       -7.4740    -9.6290    -0.8330 C.3   1 <1>   0.2000 
 19 C       -6.7670   -10.8180    -0.1840 C.3   1 <1>  -0.0800 
 20 O       -8.4380    -9.1570     0.0540 O.3   1 <1>  -0.6800 
 21 C       -6.1910   -11.7810    -1.2400 C.3   1 <1>   0.0210 
 22 C       -5.5630   -12.9990    -0.5910 C.2   1 <1>   0.1080 
 23 N       -4.5180   -12.9290     0.1750 N.2   1 <1>  -0.7070 
 24 C       -6.0210   -14.3030    -0.7380 C.2   1 <1>  -0.1500 
 25 N       -4.2720   -14.2070     0.5330 N.pl3 1 <1>   0.3000 
 26 C       -5.1740   -15.0550    -0.0050 C.2   1 <1>  -0.3320 
 27 C       -5.1670   -16.5570     0.2150 C.3   1 <1>  -0.0600 
 28 H        0.0450    -4.1630    -0.9480 H     1 <1>   0.1500 
 29 H       -2.6180    -0.8550    -1.2510 H     1 <1>   0.1500 
 30 H       -1.8000    -5.5790    -0.1190 H     1 <1>   0.1500 
 31 H       -4.4690    -2.2570    -0.4270 H     1 <1>   0.1500 
 32 H       -8.2780    -5.8790     1.6010 H     1 <1>   0.0800 
 33 H       -8.2620    -4.5860     0.4240 H     1 <1>   0.0800 
 34 H       -7.7910    -4.2670     2.0740 H     1 <1>   0.0800 
 35 H       -7.0270    -7.9070     1.5020 H     1 <1>   0.0800 
 36 H       -5.4600    -8.0880     2.2640 H     1 <1>   0.0800 
 37 H       -4.5500    -8.4880     0.0610 H     1 <1>   0.4500 
 38 H       -6.7680    -7.5860    -1.0380 H     1 <1>   0.0800 
 39 H       -5.7740    -8.7960    -1.8310 H     1 <1>   0.0800 
 40 H       -4.7140   -10.6980     0.5110 H     1 <1>   0.0800 
 41 H       -5.9030   -10.2660     1.7160 H     1 <1>   0.0800 
 42 H       -7.9480    -9.8500    -1.7760 H     1 <1>   0.0800 
 43 H       -7.4400   -11.3790     0.4410 H     1 <1>   0.0800 
 44 H       -9.2280    -9.7410     0.0580 H     1 <1>   0.4000 
 45 H       -5.4430   -11.2920    -1.8390 H     1 <1>   0.0800 
 46 H       -6.9760   -12.1130    -1.8970 H     1 <1>   0.0800 
 47 H       -6.8680   -14.6250    -1.3180 H     1 <1>   0.1500 
 48 H       -3.4850   -14.4720     1.1380 H     1 <1>   0.2700 
 49 H       -5.9820   -17.0130    -0.3190 H     1 <1>   0.0800 
 50 H       -5.2750   -16.7820     1.2610 H     1 <1>   0.0800 
 51 H       -4.2450   -16.9810    -0.1420 H     1 <1>   0.0800 
@<TRIPOS>BOND
  1   1   2  1   
  2   2   3  ar  
  3   2   4  ar  
  4   3   5  ar  
  5   3  28  1   
  6   4   6  ar  
  7   4  29  1   
  8   5   7  ar  
  9   5  30  1   
 10   6   7  ar  
 11   6  31  1   
 12   7   8  1   
 13   8   9  1   
 14   8  10  2   
 15   9  11  1   
 16  10  12  1   
 17  11  12  2   
 18  11  13  1   
 19  12  14  1   
 20  13  32  1   
 21  13  33  1   
 22  13  34  1   
 23  14  15  1   
 24  14  35  1   
 25  14  36  1   
 26  15  16  1   
 27  15  17  1   
 28  15  37  1   
 29  16  18  1   
 30  16  38  1   
 31  16  39  1   
 32  17  19  1   
 33  17  40  1   
 34  17  41  1   
 35  18  19  1   
 36  18  20  1   
 37  18  42  1   
 38  19  21  1   
 39  19  43  1   
 40  20  44  1   
 41  21  22  1   
 42  21  45  1   
 43  21  46  1   
 44  22  23  2   
 45  22  24  1   
 46  23  25  1   
 47  24  26  2   
 48  24  47  1   
 49  25  26  1   
 50  25  48  1   
 51  26  27  1   
 52  27  49  1   
 53  27  50  1   
 54  27  51  1   
@<TRIPOS>SUBSTRUCTURE
  1 ****  15 GROUP 4 **** **** 0

# MOE 2024.06 (io_trps.svl 2023.06)
