@<TRIPOS>MOLECULE
NONAME
37 38 1 0 0 
SMALL
USER_CHARGES


@<TRIPOS>ATOM
  1 O       -0.0310    -0.1550     0.4460 O.2   1 <1>  -0.5700 
  2 C       -0.1560    -1.2740     0.8780 C.2   1 <1>   0.5690 
  3 N       -1.3970    -1.7530     1.1410 N.am  1 <1>  -0.7300 
  4 C        1.0920    -2.1530     1.1510 C.3   1 <1>   0.2810 
  5 C       -1.6860    -3.0330     1.8590 C.3   1 <1>   0.2810 
  6 N        0.8090    -3.2260     2.1580 N.am  1 <1>  -0.7300 
  7 C        1.6590    -2.8150    -0.1350 C.3   1 <1>  -0.0800 
  8 C       -0.4290    -3.6760     2.4810 C.2   1 <1>   0.5690 
  9 C       -2.3810    -4.0120     0.9030 C.3   1 <1>  -0.0170 
 10 C        2.8660    -3.7300     0.1530 C.3   1 <1>  -0.2400 
 11 C        2.0880    -1.7770    -1.1880 C.3   1 <1>  -0.2400 
 12 O       -0.5490    -4.5920     3.2570 O.2   1 <1>  -0.5700 
 13 C       -3.6830    -3.4410     0.3540 C.ar  1 <1>  -0.1440 
 14 C       -3.6970    -2.7730    -0.8630 C.ar  1 <1>  -0.1500 
 15 C       -4.8640    -3.5810     1.0700 C.ar  1 <1>  -0.1500 
 16 C       -4.8780    -2.2480    -1.3580 C.ar  1 <1>  -0.1500 
 17 C       -6.0470    -3.0580     0.5780 C.ar  1 <1>  -0.1500 
 18 C       -6.0490    -2.3920    -0.6360 C.ar  1 <1>   0.0820 
 19 O       -7.1870    -1.8790    -1.1260 O.3   1 <1>  -0.5330 
 20 H       -2.2030    -1.1760     0.8860 H     1 <1>   0.3700 
 21 H        1.8450    -1.5040     1.5620 H     1 <1>   0.0800 
 22 H       -2.3600    -2.8140     2.6690 H     1 <1>   0.0800 
 23 H        1.6120    -3.7000     2.5750 H     1 <1>   0.3700 
 24 H        0.8780    -3.4150    -0.5720 H     1 <1>   0.0800 
 25 H       -1.7140    -4.2600     0.0960 H     1 <1>   0.0800 
 26 H       -2.5940    -4.9260     1.4300 H     1 <1>   0.0800 
 27 H        3.6500    -3.1800     0.6450 H     1 <1>   0.0800 
 28 H        3.2580    -4.1320    -0.7640 H     1 <1>   0.0800 
 29 H        2.5840    -4.5620     0.7730 H     1 <1>   0.0800 
 30 H        2.8190    -1.1000    -0.7810 H     1 <1>   0.0800 
 31 H        1.2450    -1.2030    -1.5310 H     1 <1>   0.0800 
 32 H        2.5160    -2.2650    -2.0470 H     1 <1>   0.0800 
 33 H       -2.7890    -2.6560    -1.4300 H     1 <1>   0.1500 
 34 H       -4.8670    -4.0990     2.0130 H     1 <1>   0.1500 
 35 H       -4.8970    -1.7280    -2.2990 H     1 <1>   0.1500 
 36 H       -6.9560    -3.1720     1.1390 H     1 <1>   0.1500 
 37 H       -7.9570    -2.0390    -0.5530 H     1 <1>   0.4500 
@<TRIPOS>BOND
  1   1   2  2   
  2   2   3  am  
  3   2   4  1   
  4   3   5  1   
  5   3  20  1   
  6   4   6  1   
  7   4   7  1   
  8   4  21  1   
  9   5   8  1   
 10   5   9  1   
 11   5  22  1   
 12   6   8  am  
 13   6  23  1   
 14   7  10  1   
 15   7  11  1   
 16   7  24  1   
 17   8  12  2   
 18   9  13  1   
 19   9  25  1   
 20   9  26  1   
 21  10  27  1   
 22  10  28  1   
 23  10  29  1   
 24  11  30  1   
 25  11  31  1   
 26  11  32  1   
 27  13  14  ar  
 28  13  15  ar  
 29  14  16  ar  
 30  14  33  1   
 31  15  17  ar  
 32  15  34  1   
 33  16  18  ar  
 34  16  35  1   
 35  17  18  ar  
 36  17  36  1   
 37  18  19  1   
 38  19  37  1   
@<TRIPOS>SUBSTRUCTURE
  1 ****   3 GROUP 4 **** **** 0

# MOE 2024.06 (io_trps.svl 2023.06)
