@<TRIPOS>MOLECULE
NONAME
50 53 1 0 0 
SMALL
USER_CHARGES


@<TRIPOS>ATOM
  1 O       -0.8580     0.7830    -2.3790 O.2   1 <1>  -0.5700 
  2 C       -1.1160     1.2160    -1.2840 C.2   1 <1>   0.5690 
  3 N       -2.0150     0.7100    -0.4190 N.am  1 <1>  -0.6600 
  4 C       -0.4710     2.4490    -0.7180 C.3   1 <1>  -0.0990 
  5 C       -2.1430     1.5190     0.8050 C.3   1 <1>   0.1400 
  6 C       -3.0030    -0.3450    -0.7330 C.3   1 <1>   0.2840 
  7 C       -0.9060     2.4280     0.7650 C.3   1 <1>  -0.0190 
  8 C       -4.3620     0.2920    -0.9820 C.ar  1 <1>  -0.1440 
  9 C       -1.1670     3.7840     1.4080 C.2   1 <1>   0.5690 
 10 C       -5.3110     0.3960     0.0320 C.ar  1 <1>   0.0830 
 11 C       -4.6480     0.7870    -2.2450 C.ar  1 <1>  -0.1500 
 12 O       -1.8870     3.8270     2.3790 O.2   1 <1>  -0.5700 
 13 N       -0.5670     4.8890     0.8910 N.am  1 <1>  -0.4930 
 14 O       -4.9800    -0.0850     1.2600 O.3   1 <1>  -0.3630 
 15 C       -6.5420     0.9880    -0.2400 C.ar  1 <1>  -0.1500 
 16 C       -5.8720     1.3760    -2.5080 C.ar  1 <1>  -0.1500 
 17 C       -0.6430     6.2360     1.3280 C.2   1 <1>   0.0630 
 18 C       -5.8130     0.1160     2.3810 C.3   1 <1>   0.0400 
 19 C       -6.8200     1.4740    -1.5050 C.ar  1 <1>  -0.1500 
 20 C       -0.2040     7.3050     0.6220 C.2   1 <1>  -0.0680 
 21 C       -1.1230     6.7660     2.5290 C.2   1 <1>   0.1390 
 22 N       -0.4050     8.3870     1.4200 N.pl3 1 <1>   0.3140 
 23 N        0.3540     7.3760    -0.6790 N.pl3 1 <1>  -0.8530 
 24 N       -0.9870     8.0590     2.5970 N.2   1 <1>  -0.7070 
 25 C       -0.0580     9.7600     1.0230 C.3   1 <1>   0.0960 
 26 C        0.5350     8.7430    -1.2410 C.3   1 <1>   0.2090 
 27 C        0.9500     9.7330    -0.1410 C.3   1 <1>  -0.1600 
 28 H       -0.8730     3.2930    -1.2470 H     1 <1>   0.0800 
 29 H        0.5960     2.4060    -0.8300 H     1 <1>   0.0800 
 30 H       -2.1540     0.8970     1.6840 H     1 <1>   0.0800 
 31 H       -3.0530     2.0950     0.7580 H     1 <1>   0.0800 
 32 H       -3.0490    -1.0490     0.0790 H     1 <1>   0.0800 
 33 H       -2.6880    -0.8790    -1.6140 H     1 <1>   0.0800 
 34 H       -0.1370     1.9420     1.3380 H     1 <1>   0.0800 
 35 H       -3.9100     0.7180    -3.0270 H     1 <1>   0.1500 
 36 H        0.0640     4.7720     0.0990 H     1 <1>   0.3700 
 37 H       -7.2970     1.0790     0.5170 H     1 <1>   0.1500 
 38 H       -6.0850     1.7560    -3.4920 H     1 <1>   0.1500 
 39 H       -5.3210    -0.2980     3.2420 H     1 <1>   0.0800 
 40 H       -6.7480    -0.3900     2.2170 H     1 <1>   0.0800 
 41 H       -5.9640     1.1720     2.5190 H     1 <1>   0.0800 
 42 H       -7.7720     1.9300    -1.7110 H     1 <1>   0.1500 
 43 H       -1.5550     6.1700     3.3150 H     1 <1>   0.1500 
 44 H       -0.1390     6.7720    -1.3480 H     1 <1>   0.4000 
 45 H        0.3540    10.2700     1.8740 H     1 <1>   0.0800 
 46 H       -0.9640    10.2530     0.7250 H     1 <1>   0.0800 
 47 H       -0.3890     9.0640    -1.6930 H     1 <1>   0.0800 
 48 H        1.2940     8.7120    -2.0050 H     1 <1>   0.0800 
 49 H        1.9170     9.4490     0.2340 H     1 <1>   0.0800 
 50 H        1.0410    10.7200    -0.5580 H     1 <1>   0.0800 
@<TRIPOS>BOND
  1   1   2  2   
  2   2   3  am  
  3   2   4  1   
  4   3   5  1   
  5   3   6  1   
  6   4   7  1   
  7   4  28  1   
  8   4  29  1   
  9   5   7  1   
 10   5  30  1   
 11   5  31  1   
 12   6   8  1   
 13   6  32  1   
 14   6  33  1   
 15   7   9  1   
 16   7  34  1   
 17   8  10  ar  
 18   8  11  ar  
 19   9  12  2   
 20   9  13  am  
 21  10  14  1   
 22  10  15  ar  
 23  11  16  ar  
 24  11  35  1   
 25  13  17  1   
 26  13  36  1   
 27  14  18  1   
 28  15  19  ar  
 29  15  37  1   
 30  16  19  ar  
 31  16  38  1   
 32  17  20  2   
 33  17  21  1   
 34  18  39  1   
 35  18  40  1   
 36  18  41  1   
 37  19  42  1   
 38  20  22  1   
 39  20  23  1   
 40  21  24  2   
 41  21  43  1   
 42  22  24  1   
 43  22  25  1   
 44  23  26  1   
 45  23  44  1   
 46  25  27  1   
 47  25  45  1   
 48  25  46  1   
 49  26  27  1   
 50  26  47  1   
 51  26  48  1   
 52  27  49  1   
 53  27  50  1   
@<TRIPOS>SUBSTRUCTURE
  1 ****   9 GROUP 4 **** **** 0

# MOE 2024.06 (io_trps.svl 2023.06)
