@<TRIPOS>MOLECULE
NONAME
43 45 1 0 0 
SMALL
USER_CHARGES


@<TRIPOS>ATOM
  1 CL       0.2110     1.4310    -2.4520 Cl    1 <1>  -0.1770 
  2 C       -0.8630     1.8280    -1.1300 C.ar  1 <1>   0.1770 
  3 C       -1.2270     3.1450    -0.8720 C.ar  1 <1>  -0.1440 
  4 C       -1.3270     0.7840    -0.3500 C.ar  1 <1>  -0.1500 
  5 C       -2.0830     3.3930     0.1920 C.ar  1 <1>  -0.1500 
  6 C       -0.7280     4.3240    -1.7090 C.3   1 <1>   0.0450 
  7 C       -2.1760     1.0480     0.7100 C.ar  1 <1>  -0.1500 
  8 C       -2.5520     2.3530     0.9780 C.ar  1 <1>  -0.1500 
  9 C       -0.0420     5.3980    -0.8730 C.2   1 <1>   0.5690 
 10 O       -0.4570     6.5290    -0.9720 O.2   1 <1>  -0.5700 
 11 N        1.0330     5.1290    -0.0590 N.am  1 <1>  -0.6600 
 12 C        1.4160     6.0900     1.0280 C.3   1 <1>   0.1400 
 13 C        1.8970     3.9160    -0.1550 C.3   1 <1>   0.1400 
 14 C        2.8100     6.7570     0.8660 C.3   1 <1>   0.4230 
 15 C        3.3270     4.2820    -0.6080 C.3   1 <1>  -0.0800 
 16 N        3.3230     6.8780    -0.5580 N.4   1 <1>  -0.9590 
 17 C        3.8640     6.1100     1.7920 C.3   1 <1>   0.1200 
 18 C        4.3730     4.1740     0.5130 C.3   1 <1>   0.1200 
 19 C        3.3850     5.6140    -1.3770 C.3   1 <1>   0.3430 
 20 C        2.5140     7.8970    -1.2980 C.3   1 <1>   0.2630 
 21 O        3.8940     4.7210     1.6960 O.3   1 <1>  -0.5600 
 22 H       -1.0280    -0.2240    -0.5730 H     1 <1>   0.1500 
 23 H       -2.3940     4.4000     0.4170 H     1 <1>   0.1500 
 24 H       -1.5770     4.7650    -2.1990 H     1 <1>   0.0800 
 25 H       -0.0520     4.0160    -2.4810 H     1 <1>   0.0800 
 26 H       -2.5430     0.2430     1.3230 H     1 <1>   0.1500 
 27 H       -3.2150     2.5610     1.8010 H     1 <1>   0.1500 
 28 H        0.6810     6.8730     1.0920 H     1 <1>   0.0800 
 29 H        1.3750     5.5730     1.9720 H     1 <1>   0.0800 
 30 H        1.9110     3.4070     0.7950 H     1 <1>   0.0800 
 31 H        1.4860     3.2310    -0.8700 H     1 <1>   0.0800 
 32 H        2.6990     7.7600     1.2430 H     1 <1>   0.0800 
 33 H        3.6060     3.5280    -1.3220 H     1 <1>   0.0800 
 34 H        4.2840     7.2330    -0.4880 H     1 <1>   0.4500 
 35 H        3.6080     6.3340     2.8140 H     1 <1>   0.0800 
 36 H        4.8490     6.4990     1.6070 H     1 <1>   0.0800 
 37 H        5.3080     4.6400     0.2510 H     1 <1>   0.0800 
 38 H        4.5650     3.1330     0.7190 H     1 <1>   0.0800 
 39 H        2.5610     5.6120    -2.0730 H     1 <1>   0.0800 
 40 H        4.2890     5.6300    -1.9630 H     1 <1>   0.0800 
 41 H        1.4940     7.5650    -1.4010 H     1 <1>   0.0800 
 42 H        2.9200     8.0580    -2.2840 H     1 <1>   0.0800 
 43 H        2.5130     8.8370    -0.7700 H     1 <1>   0.0800 
@<TRIPOS>BOND
  1   1   2  1   
  2   2   3  ar  
  3   2   4  ar  
  4   3   5  ar  
  5   3   6  1   
  6   4   7  ar  
  7   4  22  1   
  8   5   8  ar  
  9   5  23  1   
 10   6   9  1   
 11   6  24  1   
 12   6  25  1   
 13   7   8  ar  
 14   7  26  1   
 15   8  27  1   
 16   9  10  2   
 17   9  11  am  
 18  11  12  1   
 19  11  13  1   
 20  12  14  1   
 21  12  28  1   
 22  12  29  1   
 23  13  15  1   
 24  13  30  1   
 25  13  31  1   
 26  14  16  1   
 27  14  17  1   
 28  14  32  1   
 29  15  18  1   
 30  15  19  1   
 31  15  33  1   
 32  16  19  1   
 33  16  20  1   
 34  16  34  1   
 35  17  21  1   
 36  17  35  1   
 37  17  36  1   
 38  18  21  1   
 39  18  37  1   
 40  18  38  1   
 41  19  39  1   
 42  19  40  1   
 43  20  41  1   
 44  20  42  1   
 45  20  43  1   
@<TRIPOS>SUBSTRUCTURE
  1 ****  11 GROUP 4 **** **** 0

# MOE 2024.06 (io_trps.svl 2023.06)
