@<TRIPOS>MOLECULE
NONAME
40 41 1 0 0 
SMALL
USER_CHARGES


@<TRIPOS>ATOM
  1 O        0.5060     0.0760     1.0990 O.2   1 <1>  -0.5700 
  2 C        1.3540     0.6060     0.4030 C.2   1 <1>   0.5440 
  3 N        1.1120     1.8730    -0.0630 N.am  1 <1>  -0.7300 
  4 C        2.5890    -0.0650     0.0680 C.ar  1 <1>   0.0860 
  5 C       -0.1070     2.6770     0.2100 C.3   1 <1>   0.0600 
  6 C        2.6220    -1.4340    -0.2660 C.ar  1 <1>   0.4100 
  7 C        3.7940     0.6290     0.0600 C.ar  1 <1>  -0.1500 
  8 N        3.7340    -2.0890    -0.5990 N.ar  1 <1>  -0.6200 
  9 N        1.4680    -2.1800    -0.2690 N.pl3 1 <1>  -0.8690 
 10 C        4.9390    -0.0520    -0.2830 C.ar  1 <1>  -0.1500 
 11 C        4.8530    -1.3950    -0.6010 C.ar  1 <1>   0.1600 
 12 C        1.4470    -3.6540    -0.2600 C.3   1 <1>   0.2090 
 13 C        0.0080    -4.1220    -0.0470 C.3   1 <1>  -0.1600 
 14 C       -0.0830    -5.6570    -0.0220 C.3   1 <1>  -0.1600 
 15 C       -1.5150    -6.1510     0.2480 C.3   1 <1>  -0.0800 
 16 C       -1.6150    -7.6780     0.3250 C.3   1 <1>   0.1200 
 17 C       -2.5030    -5.7880    -0.8510 C.3   1 <1>  -0.1600 
 18 O       -2.6350    -8.0650    -0.5430 O.3   1 <1>  -0.5600 
 19 C       -3.4400    -6.9810    -0.8630 C.3   1 <1>   0.1200 
 20 H        1.7560     2.2670    -0.7520 H     1 <1>   0.3700 
 21 H       -0.7080     2.2050     0.9700 H     1 <1>   0.0800 
 22 H       -0.6920     2.7670    -0.6880 H     1 <1>   0.0800 
 23 H        0.1730     3.6580     0.5530 H     1 <1>   0.0800 
 24 H        3.8310     1.6720     0.3220 H     1 <1>   0.1500 
 25 H        0.6870    -1.7390     0.2410 H     1 <1>   0.4000 
 26 H        5.8930     0.4450    -0.3020 H     1 <1>   0.1500 
 27 H        5.7520    -1.9220    -0.8700 H     1 <1>   0.1500 
 28 H        2.0810    -4.0150     0.5330 H     1 <1>   0.0800 
 29 H        1.8270    -4.0190    -1.1990 H     1 <1>   0.0800 
 30 H       -0.6000    -3.7340    -0.8450 H     1 <1>   0.0800 
 31 H       -0.3530    -3.7280     0.8870 H     1 <1>   0.0800 
 32 H        0.5650    -6.0330     0.7520 H     1 <1>   0.0800 
 33 H        0.2630    -6.0540    -0.9620 H     1 <1>   0.0800 
 34 H       -1.8580    -5.7500     1.1870 H     1 <1>   0.0800 
 35 H       -1.8710    -8.0050     1.3170 H     1 <1>   0.0800 
 36 H       -0.7090    -8.1630     0.0040 H     1 <1>   0.0800 
 37 H       -2.0140    -5.7240    -1.8070 H     1 <1>   0.0800 
 38 H       -3.0250    -4.8680    -0.6540 H     1 <1>   0.0800 
 39 H       -3.8940    -7.1470    -1.8250 H     1 <1>   0.0800 
 40 H       -4.1970    -6.8930    -0.1020 H     1 <1>   0.0800 
@<TRIPOS>BOND
  1   1   2  2   
  2   2   3  am  
  3   2   4  1   
  4   3   5  1   
  5   3  20  1   
  6   4   6  ar  
  7   4   7  ar  
  8   5  21  1   
  9   5  22  1   
 10   5  23  1   
 11   6   8  ar  
 12   6   9  1   
 13   7  10  ar  
 14   7  24  1   
 15   8  11  ar  
 16   9  12  1   
 17   9  25  1   
 18  10  11  ar  
 19  10  26  1   
 20  11  27  1   
 21  12  13  1   
 22  12  28  1   
 23  12  29  1   
 24  13  14  1   
 25  13  30  1   
 26  13  31  1   
 27  14  15  1   
 28  14  32  1   
 29  14  33  1   
 30  15  16  1   
 31  15  17  1   
 32  15  34  1   
 33  16  18  1   
 34  16  35  1   
 35  16  36  1   
 36  17  19  1   
 37  17  37  1   
 38  17  38  1   
 39  18  19  1   
 40  19  39  1   
 41  19  40  1   
@<TRIPOS>SUBSTRUCTURE
  1 ****   9 GROUP 4 **** **** 0

# MOE 2024.06 (io_trps.svl 2023.06)
