@<TRIPOS>MOLECULE
NONAME
46 49 1 0 0 
SMALL
USER_CHARGES


@<TRIPOS>ATOM
  1 O       -0.5690    -3.8220    -1.3210 O.3   1 <1>  -0.3630 
  2 C       -1.5480    -3.2860    -0.5510 C.ar  1 <1>   0.0830 
  3 C        0.3120    -2.9050    -1.9460 C.3   1 <1>   0.1200 
  4 C       -1.9120    -1.9450    -0.6720 C.ar  1 <1>   0.0820 
  5 C       -2.1950    -4.0980     0.3620 C.ar  1 <1>  -0.1500 
  6 C       -0.4780    -1.7340    -2.5490 C.3   1 <1>   0.1200 
  7 O       -1.3000    -1.1290    -1.5660 O.3   1 <1>  -0.3630 
  8 C       -2.9170    -1.4300     0.1270 C.ar  1 <1>  -0.1500 
  9 C       -3.2210    -3.5890     1.1460 C.ar  1 <1>  -0.1430 
 10 C       -3.5730    -2.2490     1.0320 C.ar  1 <1>  -0.1500 
 11 C       -3.9580    -4.5120     2.0930 C.3   1 <1>   0.4860 
 12 N       -4.8410    -5.3490     1.2510 N.4   1 <1>  -0.9590 
 13 C       -6.0520    -4.6630     0.7130 C.3   1 <1>   0.3430 
 14 C       -5.2810    -6.6510     1.7970 C.3   1 <1>   0.3430 
 15 C       -7.0740    -5.7790     0.4430 C.3   1 <1>   0.2000 
 16 C       -6.3970    -7.0980     0.8480 C.3   1 <1>  -0.0800 
 17 O       -8.1930    -5.5840     1.2430 O.3   1 <1>  -0.6800 
 18 C       -5.8740    -7.9080    -0.3700 C.3   1 <1>  -0.0170 
 19 C       -4.5760    -7.4060    -1.0020 C.ar  1 <1>   0.1670 
 20 N       -4.5930    -6.1870    -1.5210 N.ar  1 <1>  -0.6200 
 21 C       -3.4430    -8.2180    -1.0010 C.ar  1 <1>   0.1600 
 22 C       -3.4300    -5.8500    -2.0620 C.ar  1 <1>   0.1600 
 23 N       -2.2710    -7.8630    -1.4950 N.ar  1 <1>  -0.6200 
 24 C       -2.3020    -6.6600    -2.0430 C.ar  1 <1>   0.1600 
 25 H        1.0040    -2.5450    -1.2040 H     1 <1>   0.0800 
 26 H        0.8570    -3.4320    -2.7080 H     1 <1>   0.0800 
 27 H       -1.8830    -5.1260     0.4410 H     1 <1>   0.1500 
 28 H       -1.1120    -2.0810    -3.3460 H     1 <1>   0.0800 
 29 H        0.1870    -0.9820    -2.9320 H     1 <1>   0.0800 
 30 H       -3.1800    -0.3910     0.0320 H     1 <1>   0.1500 
 31 H       -4.3550    -1.8260     1.6390 H     1 <1>   0.1500 
 32 H       -4.5310    -3.9500     2.8120 H     1 <1>   0.0800 
 33 H       -3.2430    -5.1270     2.6150 H     1 <1>   0.0800 
 34 H       -4.3000    -5.5630     0.3890 H     1 <1>   0.4500 
 35 H       -6.4540    -3.9630     1.4260 H     1 <1>   0.0800 
 36 H       -5.8070    -4.1490    -0.2020 H     1 <1>   0.0800 
 37 H       -4.4730    -7.3640     1.8290 H     1 <1>   0.0800 
 38 H       -5.6810    -6.5150     2.7890 H     1 <1>   0.0800 
 39 H       -7.4000    -5.7700    -0.5840 H     1 <1>   0.0800 
 40 H       -7.0950    -7.7290     1.3710 H     1 <1>   0.0800 
 41 H       -8.0190    -5.7090     2.1960 H     1 <1>   0.4000 
 42 H       -6.6350    -7.9370    -1.1320 H     1 <1>   0.0800 
 43 H       -5.7280    -8.9270    -0.0540 H     1 <1>   0.0800 
 44 H       -3.4980    -9.2040    -0.5710 H     1 <1>   0.1500 
 45 H       -3.3570    -4.8850    -2.5350 H     1 <1>   0.1500 
 46 H       -1.3940    -6.2960    -2.4920 H     1 <1>   0.1500 
@<TRIPOS>BOND
  1   1   2  1   
  2   1   3  1   
  3   2   4  ar  
  4   2   5  ar  
  5   3   6  1   
  6   3  25  1   
  7   3  26  1   
  8   4   7  1   
  9   4   8  ar  
 10   5   9  ar  
 11   5  27  1   
 12   6   7  1   
 13   6  28  1   
 14   6  29  1   
 15   8  10  ar  
 16   8  30  1   
 17   9  10  ar  
 18   9  11  1   
 19  10  31  1   
 20  11  12  1   
 21  11  32  1   
 22  11  33  1   
 23  12  13  1   
 24  12  14  1   
 25  12  34  1   
 26  13  15  1   
 27  13  35  1   
 28  13  36  1   
 29  14  16  1   
 30  14  37  1   
 31  14  38  1   
 32  15  16  1   
 33  15  17  1   
 34  15  39  1   
 35  16  18  1   
 36  16  40  1   
 37  17  41  1   
 38  18  19  1   
 39  18  42  1   
 40  18  43  1   
 41  19  20  ar  
 42  19  21  ar  
 43  20  22  ar  
 44  21  23  ar  
 45  21  44  1   
 46  22  24  ar  
 47  22  45  1   
 48  23  24  ar  
 49  24  46  1   
@<TRIPOS>SUBSTRUCTURE
  1 ****   5 GROUP 4 **** **** 0

# MOE 2024.06 (io_trps.svl 2023.06)
