@<TRIPOS>MOLECULE
NONAME
49 52 1 0 0 
SMALL
USER_CHARGES


@<TRIPOS>ATOM
  1 S        0.0200    -0.3240     1.7520 S.o2  1 <1>   1.5010 
  2 O        0.1040    -1.7560     1.5580 O.2   1 <1>  -0.6500 
  3 O       -0.2820     0.1480     3.0850 O.2   1 <1>  -0.6500 
  4 N       -1.2980     0.2430     0.8690 N.am  1 <1>  -0.9140 
  5 C        1.4970     0.5620     1.1000 C.2   1 <1>   0.1640 
  6 C       -1.7980    -0.5100    -0.2860 C.3   1 <1>   0.2760 
  7 N        1.7870     0.7190    -0.2260 N.2   1 <1>  -0.5650 
  8 C        2.4820     1.1500     1.8290 C.2   1 <1>  -0.3020 
  9 C       -2.5410    -1.7980     0.0890 C.3   1 <1>  -0.0800 
 10 C       -0.7690    -0.9560    -1.3310 C.3   1 <1>   0.1200 
 11 C        2.8970     1.3780    -0.2540 C.2   1 <1>   0.0060 
 12 N        3.3740     1.6710     0.9700 N.pl3 1 <1>   0.0330 
 13 C       -1.8870    -2.8420    -0.8250 C.3   1 <1>   0.1200 
 14 C       -4.0550    -1.6730    -0.1720 C.3   1 <1>  -0.0170 
 15 O       -1.3090    -2.1220    -1.8620 O.3   1 <1>  -0.5600 
 16 C        3.6070     1.7840    -1.5340 C.3   1 <1>   0.0200 
 17 C       -4.9170    -2.8840     0.2130 C.ar  1 <1>  -0.1430 
 18 C        3.5750     3.3020    -1.7330 C.3   1 <1>  -0.2400 
 19 C       -6.2800    -2.9290    -0.1710 C.ar  1 <1>   0.0000 
 20 C       -4.4420    -3.9470     0.9310 C.ar  1 <1>  -0.1500 
 21 C       -7.0380    -4.0690     0.1930 C.ar  1 <1>   0.3100 
 22 C       -6.9400    -1.9060    -0.8940 C.ar  1 <1>  -0.1500 
 23 C       -5.2800    -5.0240     1.2440 C.ar  1 <1>   0.1600 
 24 N       -6.5240    -5.1060     0.8990 N.ar  1 <1>  -0.6200 
 25 C       -8.3890    -4.1420    -0.1850 C.ar  1 <1>  -0.1500 
 26 C       -8.2590    -2.0060    -1.2450 C.ar  1 <1>  -0.1500 
 27 C       -8.9950    -3.1380    -0.8890 C.ar  1 <1>  -0.1500 
 28 H       -2.0340     0.3220     1.5660 H     1 <1>   0.4200 
 29 H       -2.4810     0.1400    -0.8060 H     1 <1>   0.0800 
 30 H        2.5790     1.2170     2.8980 H     1 <1>   0.1500 
 31 H       -2.3750    -2.0580     1.1170 H     1 <1>   0.0800 
 32 H        0.1830    -1.2120    -0.9060 H     1 <1>   0.0800 
 33 H       -0.6460    -0.2330    -2.1170 H     1 <1>   0.0800 
 34 H        4.2330     2.1850     1.1880 H     1 <1>   0.2700 
 35 H       -2.5860    -3.5500    -1.2370 H     1 <1>   0.0800 
 36 H       -1.0990    -3.3650    -0.3070 H     1 <1>   0.0800 
 37 H       -4.1890    -1.4820    -1.2230 H     1 <1>   0.0800 
 38 H       -4.4290    -0.8200     0.3670 H     1 <1>   0.0800 
 39 H        4.6240     1.4360    -1.5070 H     1 <1>   0.0800 
 40 H        3.1190     1.3070    -2.3670 H     1 <1>   0.0800 
 41 H        4.0910     3.8030    -0.9340 H     1 <1>   0.0800 
 42 H        2.5560     3.6460    -1.7570 H     1 <1>   0.0800 
 43 H        4.0460     3.5610    -2.6650 H     1 <1>   0.0800 
 44 H       -3.4300    -4.0090     1.2820 H     1 <1>   0.1500 
 45 H       -6.4000    -1.0230    -1.1780 H     1 <1>   0.1500 
 46 H       -4.8590    -5.8390     1.8090 H     1 <1>   0.1500 
 47 H       -8.9340    -5.0220     0.1020 H     1 <1>   0.1500 
 48 H       -8.7460    -1.2200    -1.7960 H     1 <1>   0.1500 
 49 H      -10.0310    -3.2080    -1.1720 H     1 <1>   0.1500 
@<TRIPOS>BOND
  1   1   2  2   
  2   1   3  2   
  3   1   4  am  
  4   1   5  1   
  5   4   6  1   
  6   4  28  1   
  7   5   7  1   
  8   5   8  2   
  9   6   9  1   
 10   6  10  1   
 11   6  29  1   
 12   7  11  2   
 13   8  12  1   
 14   8  30  1   
 15   9  13  1   
 16   9  14  1   
 17   9  31  1   
 18  10  15  1   
 19  10  32  1   
 20  10  33  1   
 21  11  12  1   
 22  11  16  1   
 23  12  34  1   
 24  13  15  1   
 25  13  35  1   
 26  13  36  1   
 27  14  17  1   
 28  14  37  1   
 29  14  38  1   
 30  16  18  1   
 31  16  39  1   
 32  16  40  1   
 33  17  19  ar  
 34  17  20  ar  
 35  18  41  1   
 36  18  42  1   
 37  18  43  1   
 38  19  21  ar  
 39  19  22  ar  
 40  20  23  ar  
 41  20  44  1   
 42  21  24  ar  
 43  21  25  ar  
 44  22  26  ar  
 45  22  45  1   
 46  23  24  ar  
 47  23  46  1   
 48  25  27  ar  
 49  25  47  1   
 50  26  27  ar  
 51  26  48  1   
 52  27  49  1   
@<TRIPOS>SUBSTRUCTURE
  1 ****   9 GROUP 4 **** **** 0

# MOE 2024.06 (io_trps.svl 2023.06)
