@<TRIPOS>MOLECULE
NONAME
58 61 1 0 0 
SMALL
USER_CHARGES


@<TRIPOS>ATOM
  1 S        0.2910    -0.4340     0.4140 S.3   1 <1>  -0.3320 
  2 C       -1.3070    -1.2560     0.3020 C.ar  1 <1>   0.1020 
  3 C        0.3270     0.4880     2.0160 C.3   1 <1>  -0.0100 
  4 C       -1.5580    -1.9830    -0.8340 C.ar  1 <1>  -0.1500 
  5 C       -2.2520    -1.1650     1.3220 C.ar  1 <1>  -0.1500 
  6 C       -2.7780    -2.6580    -1.0060 C.ar  1 <1>   0.0000 
  7 C       -3.4540    -1.8170     1.1780 C.ar  1 <1>  -0.1500 
  8 C       -3.7320    -2.5630     0.0260 C.ar  1 <1>   0.3610 
  9 C       -3.1090    -3.4410    -2.1550 C.ar  1 <1>  -0.1440 
 10 N       -4.9330    -3.2310    -0.1150 N.ar  1 <1>  -0.1790 
 11 C       -4.3180    -4.0640    -2.2170 C.ar  1 <1>  -0.1500 
 12 C       -2.1170    -3.5720    -3.3040 C.3   1 <1>  -0.0970 
 13 C       -5.2700    -3.9670    -1.1710 C.ar  1 <1>   0.4610 
 14 N       -6.4590    -4.6010    -1.1770 N.pl3 1 <1>  -0.8380 
 15 C       -6.6650    -5.9270    -1.8560 C.3   1 <1>   0.2090 
 16 C       -7.7030    -4.0730    -0.5450 C.3   1 <1>   0.2090 
 17 C       -7.1930    -7.0170    -0.8860 C.3   1 <1>   0.0000 
 18 C       -8.1750    -5.0440     0.5280 C.3   1 <1>  -0.1600 
 19 C       -8.3860    -6.4310    -0.0790 C.3   1 <1>   0.2000 
 20 C       -7.7890    -8.1620    -1.7440 C.3   1 <1>   0.1200 
 21 C       -6.0490    -7.6440    -0.0170 C.3   1 <1>  -0.0170 
 22 O       -8.7800    -7.2910     0.9290 O.3   1 <1>  -0.6800 
 23 O       -6.8740    -8.5940    -2.6970 O.3   1 <1>  -0.6800 
 24 C       -5.1070    -6.7430     0.7830 C.ar  1 <1>  -0.1430 
 25 C       -3.8840    -6.3790     0.2370 C.ar  1 <1>  -0.1500 
 26 C       -5.4030    -6.3450     2.0780 C.ar  1 <1>  -0.1500 
 27 C       -2.9850    -5.6140     0.9610 C.ar  1 <1>  -0.1500 
 28 C       -4.5130    -5.5690     2.8010 C.ar  1 <1>  -0.1500 
 29 C       -3.3020    -5.2020     2.2420 C.ar  1 <1>  -0.1500 
 30 H        1.2760     0.9900     2.0770 H     1 <1>   0.0800 
 31 H        0.2230    -0.2240     2.8150 H     1 <1>   0.0800 
 32 H       -0.4790     1.1990     2.0110 H     1 <1>   0.0800 
 33 H       -0.7980    -2.0240    -1.5940 H     1 <1>   0.1500 
 34 H       -2.0470    -0.5940     2.2090 H     1 <1>   0.1500 
 35 H       -4.1860    -1.7510     1.9630 H     1 <1>   0.1500 
 36 H       -5.5490    -3.3090     0.6850 H     1 <1>   0.4570 
 37 H       -4.5890    -4.6420    -3.0810 H     1 <1>   0.1500 
 38 H       -2.5140    -4.1870    -4.0920 H     1 <1>   0.0800 
 39 H       -1.2030    -4.0230    -2.9580 H     1 <1>   0.0800 
 40 H       -1.8940    -2.6040    -3.7170 H     1 <1>   0.0800 
 41 H       -7.3700    -5.7900    -2.6590 H     1 <1>   0.0800 
 42 H       -5.7470    -6.2810    -2.2920 H     1 <1>   0.0800 
 43 H       -7.5460    -3.0960    -0.1220 H     1 <1>   0.0800 
 44 H       -8.4650    -3.9760    -1.3020 H     1 <1>   0.0800 
 45 H       -9.1120    -4.6920     0.9230 H     1 <1>   0.0800 
 46 H       -7.4660    -5.0600     1.3270 H     1 <1>   0.0800 
 47 H       -9.2310    -6.3480    -0.7430 H     1 <1>   0.0800 
 48 H       -8.6690    -7.8330    -2.2710 H     1 <1>   0.0800 
 49 H       -8.0550    -9.0020    -1.1230 H     1 <1>   0.0800 
 50 H       -6.4720    -8.3660     0.6580 H     1 <1>   0.0800 
 51 H       -5.4190    -8.2220    -0.6700 H     1 <1>   0.0800 
 52 H       -8.0680    -7.3970     1.5880 H     1 <1>   0.4000 
 53 H       -7.2200    -9.3710    -3.1840 H     1 <1>   0.4000 
 54 H       -3.6170    -6.7040    -0.7540 H     1 <1>   0.1500 
 55 H       -6.3220    -6.6530     2.5450 H     1 <1>   0.1500 
 56 H       -2.0330    -5.3520     0.5290 H     1 <1>   0.1500 
 57 H       -4.7540    -5.2700     3.8070 H     1 <1>   0.1500 
 58 H       -2.5980    -4.6160     2.8100 H     1 <1>   0.1500 
@<TRIPOS>BOND
  1   1   2  1   
  2   1   3  1   
  3   2   4  ar  
  4   2   5  ar  
  5   3  30  1   
  6   3  31  1   
  7   3  32  1   
  8   4   6  ar  
  9   4  33  1   
 10   5   7  ar  
 11   5  34  1   
 12   6   8  ar  
 13   6   9  ar  
 14   7   8  ar  
 15   7  35  1   
 16   8  10  ar  
 17   9  11  ar  
 18   9  12  1   
 19  10  13  ar  
 20  10  36  1   
 21  11  13  ar  
 22  11  37  1   
 23  12  38  1   
 24  12  39  1   
 25  12  40  1   
 26  13  14  1   
 27  14  15  1   
 28  14  16  1   
 29  15  17  1   
 30  15  41  1   
 31  15  42  1   
 32  16  18  1   
 33  16  43  1   
 34  16  44  1   
 35  17  19  1   
 36  17  20  1   
 37  17  21  1   
 38  18  19  1   
 39  18  45  1   
 40  18  46  1   
 41  19  22  1   
 42  19  47  1   
 43  20  23  1   
 44  20  48  1   
 45  20  49  1   
 46  21  24  1   
 47  21  50  1   
 48  21  51  1   
 49  22  52  1   
 50  23  53  1   
 51  24  25  ar  
 52  24  26  ar  
 53  25  27  ar  
 54  25  54  1   
 55  26  28  ar  
 56  26  55  1   
 57  27  29  ar  
 58  27  56  1   
 59  28  29  ar  
 60  28  57  1   
 61  29  58  1   
@<TRIPOS>SUBSTRUCTURE
  1 ****  10 GROUP 4 **** **** 0

# MOE 2024.06 (io_trps.svl 2023.06)
