@<TRIPOS>MOLECULE
NONAME
58 62 1 0 0 
SMALL
USER_CHARGES


@<TRIPOS>ATOM
  1 O       -2.6330     0.5850     0.7160 O.2   1 <1>  -0.5700 
  2 C       -2.8330     1.3190    -0.2240 C.2   1 <1>   0.5690 
  3 N       -3.4100     0.8240    -1.3560 N.am  1 <1>  -0.6600 
  4 C       -2.5580     2.8010    -0.0990 C.3   1 <1>  -0.0990 
  5 C       -4.8610     1.1200    -1.5560 C.3   1 <1>   0.1400 
  6 C       -3.0730    -0.5820    -1.7620 C.3   1 <1>   0.1400 
  7 C       -1.0800     3.0830     0.2220 C.3   1 <1>  -0.0160 
  8 C       -5.7330     0.1840    -0.6690 C.3   1 <1>   0.4230 
  9 C       -4.0640    -1.6090    -1.1610 C.3   1 <1>   0.3430 
 10 C       -0.7380     4.5690     0.3490 C.ar  1 <1>   0.1660 
 11 N       -4.9300    -0.9730    -0.1070 N.4   1 <1>  -0.9590 
 12 C       -6.9740    -0.3240    -1.4360 C.3   1 <1>   0.1200 
 13 N       -1.6940     5.4400     0.2250 N.ar  1 <1>  -0.6200 
 14 C        0.6200     4.9260     0.6010 C.ar  1 <1>   0.3930 
 15 C       -5.8010    -1.9060     0.6710 C.3   1 <1>   0.5180 
 16 O       -7.7260    -1.1920    -0.6360 O.3   1 <1>  -0.5600 
 17 C       -1.2980     6.7330     0.3560 C.ar  1 <1>   0.3100 
 18 O        1.5200     3.9230     0.7080 O.3   1 <1>  -0.3630 
 19 N        1.0330     6.1560     0.7300 N.ar  1 <1>  -0.6200 
 20 C       -4.9550    -3.0820     1.1970 C.3   1 <1>  -0.1950 
 21 C       -7.0370    -2.3220    -0.1640 C.3   1 <1>   0.1200 
 22 C        0.0520     7.0840     0.6060 C.ar  1 <1>   0.3100 
 23 C       -2.2520     7.7560     0.2420 C.ar  1 <1>  -0.1500 
 24 C        2.8870     4.1820     0.9640 C.3   1 <1>   0.0400 
 25 C       -4.6960    -4.3570     0.4470 C.3   1 <1>  -0.2000 
 26 C       -5.5570    -4.3680     1.6780 C.3   1 <1>  -0.2000 
 27 C        0.3810     8.4430     0.7280 C.ar  1 <1>  -0.1500 
 28 C       -1.9010     9.0760     0.3660 C.ar  1 <1>  -0.1500 
 29 C       -0.5710     9.4230     0.6120 C.ar  1 <1>  -0.1500 
 30 H       -2.8180     3.2940    -1.0180 H     1 <1>   0.0800 
 31 H       -3.1750     3.1990     0.6860 H     1 <1>   0.0800 
 32 H       -5.0700     2.1470    -1.3080 H     1 <1>   0.0800 
 33 H       -5.1040     0.9880    -2.5970 H     1 <1>   0.0800 
 34 H       -3.0710    -0.6600    -2.8360 H     1 <1>   0.0800 
 35 H       -2.0770    -0.8190    -1.4250 H     1 <1>   0.0800 
 36 H       -0.4680     2.6580    -0.5540 H     1 <1>   0.0800 
 37 H       -0.8220     2.5970     1.1470 H     1 <1>   0.0800 
 38 H       -6.0960     0.7750     0.1560 H     1 <1>   0.0800 
 39 H       -3.4950    -2.4200    -0.7380 H     1 <1>   0.0800 
 40 H       -4.6790    -2.0140    -1.9450 H     1 <1>   0.0800 
 41 H       -4.2420    -0.5450     0.5470 H     1 <1>   0.4500 
 42 H       -6.6950    -0.8430    -2.3360 H     1 <1>   0.0800 
 43 H       -7.6110     0.5020    -1.7010 H     1 <1>   0.0800 
 44 H       -6.1770    -1.3780     1.5330 H     1 <1>   0.0800 
 45 H       -4.1550    -2.7130     1.8170 H     1 <1>   0.1000 
 46 H       -7.7240    -2.8800     0.4470 H     1 <1>   0.0800 
 47 H       -6.7570    -2.9300    -1.0050 H     1 <1>   0.0800 
 48 H       -3.2700     7.4700     0.0530 H     1 <1>   0.1500 
 49 H        3.4080     3.2430     1.0090 H     1 <1>   0.0800 
 50 H        2.9730     4.6990     1.9040 H     1 <1>   0.0800 
 51 H        3.2820     4.7870     0.1660 H     1 <1>   0.0800 
 52 H       -5.1800    -4.5760    -0.4890 H     1 <1>   0.1000 
 53 H       -3.7240    -4.8190     0.5150 H     1 <1>   0.1000 
 54 H       -5.1620    -4.8230     2.5720 H     1 <1>   0.1000 
 55 H       -6.6060    -4.5790     1.5550 H     1 <1>   0.1000 
 56 H        1.4100     8.6910     0.9170 H     1 <1>   0.1500 
 57 H       -2.6410     9.8540     0.2770 H     1 <1>   0.1500 
 58 H       -0.3050    10.4620     0.7080 H     1 <1>   0.1500 
@<TRIPOS>BOND
  1   1   2  2   
  2   2   3  am  
  3   2   4  1   
  4   3   5  1   
  5   3   6  1   
  6   4   7  1   
  7   4  30  1   
  8   4  31  1   
  9   5   8  1   
 10   5  32  1   
 11   5  33  1   
 12   6   9  1   
 13   6  34  1   
 14   6  35  1   
 15   7  10  1   
 16   7  36  1   
 17   7  37  1   
 18   8  11  1   
 19   8  12  1   
 20   8  38  1   
 21   9  11  1   
 22   9  39  1   
 23   9  40  1   
 24  10  13  ar  
 25  10  14  ar  
 26  11  15  1   
 27  11  41  1   
 28  12  16  1   
 29  12  42  1   
 30  12  43  1   
 31  13  17  ar  
 32  14  18  1   
 33  14  19  ar  
 34  15  20  1   
 35  15  21  1   
 36  15  44  1   
 37  16  21  1   
 38  17  22  ar  
 39  17  23  ar  
 40  18  24  1   
 41  19  22  ar  
 42  20  25  1   
 43  20  26  1   
 44  20  45  1   
 45  21  46  1   
 46  21  47  1   
 47  22  27  ar  
 48  23  28  ar  
 49  23  48  1   
 50  24  49  1   
 51  24  50  1   
 52  24  51  1   
 53  25  26  1   
 54  25  52  1   
 55  25  53  1   
 56  26  54  1   
 57  26  55  1   
 58  27  29  ar  
 59  27  56  1   
 60  28  29  ar  
 61  28  57  1   
 62  29  58  1   
@<TRIPOS>SUBSTRUCTURE
  1 ****   4 GROUP 4 **** **** 0

# MOE 2024.06 (io_trps.svl 2023.06)
