@<TRIPOS>MOLECULE
NONAME
45 47 1 0 0 
SMALL
USER_CHARGES


@<TRIPOS>ATOM
  1 O       -1.1910    -4.2560     0.2550 O.2   1 <1>  -0.5700 
  2 C       -0.2370    -4.9140     0.6540 C.2   1 <1>   0.6900 
  3 N        0.4030    -5.9230    -0.0200 N.am  1 <1>  -0.4690 
  4 N        0.3490    -4.7420     1.8560 N.am  1 <1>  -0.5390 
  5 C        1.4310    -6.3570     0.8190 C.2   1 <1>  -0.0410 
  6 C        0.1970    -6.5110    -1.3780 C.3   1 <1>   0.1400 
  7 C        1.3980    -5.6410     1.9550 C.2   1 <1>  -0.0410 
  8 C       -0.7720    -5.7600    -2.3220 C.3   1 <1>   0.3430 
  9 N       -2.1810    -5.6670    -1.8270 N.4   1 <1>  -0.9590 
 10 C       -2.8020    -6.9930    -1.4970 C.3   1 <1>   0.3430 
 11 C       -3.0340    -4.8440    -2.7260 C.3   1 <1>   0.3430 
 12 C       -4.1990    -6.8310    -0.8690 C.3   1 <1>   0.2000 
 13 C       -4.4150    -4.6400    -2.0940 C.3   1 <1>  -0.1600 
 14 O       -4.7890    -8.0900    -0.7540 O.3   1 <1>  -0.5600 
 15 C       -5.1030    -5.9730    -1.7580 C.3   1 <1>  -0.1600 
 16 C       -4.6960    -8.6870     0.5180 C.3   1 <1>   0.2630 
 17 C       -3.2470    -9.0040     0.8910 C.ar  1 <1>   0.1670 
 18 N       -2.5590    -8.0480     1.5060 N.ar  1 <1>  -0.6200 
 19 C       -2.7200   -10.2460     0.5700 C.ar  1 <1>  -0.1500 
 20 C       -1.3150    -8.3540     1.8380 C.ar  1 <1>   0.1600 
 21 C       -1.4170   -10.5440     0.9060 C.ar  1 <1>  -0.1500 
 22 C       -0.7040    -9.5650     1.5620 C.ar  1 <1>  -0.1500 
 23 H        0.0460    -4.0300     2.5230 H     1 <1>   0.3700 
 24 H        2.1110    -7.1440     0.5360 H     1 <1>   0.1500 
 25 H       -0.1260    -7.5300    -1.2640 H     1 <1>   0.0800 
 26 H        1.1570    -6.5430    -1.8630 H     1 <1>   0.0800 
 27 H        2.0330    -5.6890     2.8260 H     1 <1>   0.1500 
 28 H       -0.7700    -6.2600    -3.2760 H     1 <1>   0.0800 
 29 H       -0.3840    -4.7660    -2.4740 H     1 <1>   0.0800 
 30 H       -2.1120    -5.1410    -0.9280 H     1 <1>   0.4500 
 31 H       -2.1720    -7.5220    -0.8040 H     1 <1>   0.0800 
 32 H       -2.8980    -7.5780    -2.3950 H     1 <1>   0.0800 
 33 H       -3.1450    -5.3390    -3.6770 H     1 <1>   0.0800 
 34 H       -2.5730    -3.8840    -2.8920 H     1 <1>   0.0800 
 35 H       -4.1160    -6.3770     0.1060 H     1 <1>   0.0800 
 36 H       -5.0340    -4.0850    -2.7780 H     1 <1>   0.0800 
 37 H       -4.3100    -4.0460    -1.2020 H     1 <1>   0.0800 
 38 H       -6.0310    -5.7830    -1.2460 H     1 <1>   0.0800 
 39 H       -5.3190    -6.5060    -2.6690 H     1 <1>   0.0800 
 40 H       -5.2740    -9.5930     0.4890 H     1 <1>   0.0800 
 41 H       -5.1380    -8.0290     1.2460 H     1 <1>   0.0800 
 42 H       -3.3250   -10.9780     0.0630 H     1 <1>   0.1500 
 43 H       -0.7510    -7.5990     2.3600 H     1 <1>   0.1500 
 44 H       -0.9800   -11.5010     0.6750 H     1 <1>   0.1500 
 45 H        0.3130    -9.7390     1.8650 H     1 <1>   0.1500 
@<TRIPOS>BOND
  1   1   2  2   
  2   2   3  am  
  3   2   4  am  
  4   3   5  1   
  5   3   6  1   
  6   4   7  1   
  7   4  23  1   
  8   5   7  2   
  9   5  24  1   
 10   6   8  1   
 11   6  25  1   
 12   6  26  1   
 13   7  27  1   
 14   8   9  1   
 15   8  28  1   
 16   8  29  1   
 17   9  10  1   
 18   9  11  1   
 19   9  30  1   
 20  10  12  1   
 21  10  31  1   
 22  10  32  1   
 23  11  13  1   
 24  11  33  1   
 25  11  34  1   
 26  12  14  1   
 27  12  15  1   
 28  12  35  1   
 29  13  15  1   
 30  13  36  1   
 31  13  37  1   
 32  14  16  1   
 33  15  38  1   
 34  15  39  1   
 35  16  17  1   
 36  16  40  1   
 37  16  41  1   
 38  17  18  ar  
 39  17  19  ar  
 40  18  20  ar  
 41  19  21  ar  
 42  19  42  1   
 43  20  22  ar  
 44  20  43  1   
 45  21  22  ar  
 46  21  44  1   
 47  22  45  1   
@<TRIPOS>SUBSTRUCTURE
  1 ****  10 GROUP 4 **** **** 0

# MOE 2024.06 (io_trps.svl 2023.06)
