@<TRIPOS>MOLECULE
NONAME
53 55 1 0 0 
SMALL
USER_CHARGES


@<TRIPOS>ATOM
  1 O        2.2210    -0.5680     1.6170 O.2   1 <1>  -0.5700 
  2 C        1.8820    -0.7650     0.4710 C.2   1 <1>   0.5690 
  3 N        1.7140     0.2880    -0.4080 N.am  1 <1>  -0.6600 
  4 C        1.7060    -2.2330     0.0330 C.3   1 <1>   0.1710 
  5 C        1.8940     1.6880     0.0660 C.3   1 <1>   0.1400 
  6 C        1.3950     0.1680    -1.8600 C.3   1 <1>   0.0600 
  7 N        0.3540    -2.8390     0.2250 N.3   1 <1>  -0.8100 
  8 C        3.3240     2.1530    -0.2150 C.3   1 <1>  -0.1600 
  9 C        0.3580    -4.2610    -0.1710 C.3   1 <1>   0.2530 
 10 C       -0.7360    -2.1000    -0.4230 C.3   1 <1>   0.1100 
 11 C        3.5770     3.5520     0.3540 C.3   1 <1>   0.0210 
 12 C       -1.0300    -4.9000    -0.1670 C.ar  1 <1>  -0.1440 
 13 C       -2.0810    -2.6260     0.0820 C.3   1 <1>  -0.0170 
 14 C        4.9970     3.9930     0.0460 C.2   1 <1>  -0.1810 
 15 C       -2.1850    -4.1350    -0.0660 C.ar  1 <1>  -0.1440 
 16 C       -1.1370    -6.2780    -0.2850 C.ar  1 <1>  -0.1500 
 17 C        5.4250     4.7300    -1.0570 C.2   1 <1>   0.1080 
 18 C        6.1200     3.7620     0.7610 C.2   1 <1>  -0.3320 
 19 C       -3.4280    -4.7490    -0.0840 C.ar  1 <1>  -0.1500 
 20 C       -2.3790    -6.8890    -0.3040 C.ar  1 <1>  -0.1500 
 21 N        6.7010     4.9480    -1.0380 N.2   1 <1>  -0.7070 
 22 C        4.5470     5.2430    -2.1760 C.3   1 <1>  -0.0590 
 23 N        7.1300     4.3500     0.0870 N.pl3 1 <1>   0.3000 
 24 C        6.3180     3.0020     2.0620 C.3   1 <1>  -0.0600 
 25 C       -3.5260    -6.1230    -0.2040 C.ar  1 <1>  -0.1500 
 26 H        2.4050    -2.8050     0.6170 H     1 <1>   0.0800 
 27 H        2.0070    -2.3350    -0.9920 H     1 <1>   0.0800 
 28 H        1.7000     1.7390     1.1250 H     1 <1>   0.0800 
 29 H        1.1860     2.3330    -0.4260 H     1 <1>   0.0800 
 30 H        1.1100    -0.8320    -2.1250 H     1 <1>   0.0800 
 31 H        2.2560     0.4460    -2.4440 H     1 <1>   0.0800 
 32 H        0.5800     0.8250    -2.1080 H     1 <1>   0.0800 
 33 H        3.5040     2.1660    -1.2750 H     1 <1>   0.0800 
 34 H        4.0150     1.4660     0.2410 H     1 <1>   0.0800 
 35 H        0.9930    -4.8060     0.5060 H     1 <1>   0.0800 
 36 H        0.7640    -4.3550    -1.1630 H     1 <1>   0.0800 
 37 H       -0.6760    -2.2190    -1.4910 H     1 <1>   0.0800 
 38 H       -0.6710    -1.0540    -0.1810 H     1 <1>   0.0800 
 39 H        3.4320     3.5420     1.4200 H     1 <1>   0.0800 
 40 H        2.8820     4.2580    -0.0640 H     1 <1>   0.0800 
 41 H       -2.8740    -2.1480    -0.4640 H     1 <1>   0.0800 
 42 H       -2.1870    -2.3690     1.1210 H     1 <1>   0.0800 
 43 H       -0.2520    -6.8830    -0.3640 H     1 <1>   0.1500 
 44 H       -4.3230    -4.1580     0.0000 H     1 <1>   0.1500 
 45 H       -2.4520    -7.9590    -0.3960 H     1 <1>   0.1500 
 46 H        3.8660     4.4760    -2.4940 H     1 <1>   0.0800 
 47 H        5.1570     5.5340    -3.0110 H     1 <1>   0.0800 
 48 H        3.9930     6.0980    -1.8350 H     1 <1>   0.0800 
 49 H        8.1180     4.3580     0.3640 H     1 <1>   0.2700 
 50 H        5.3880     2.5840     2.4030 H     1 <1>   0.0800 
 51 H        6.6960     3.6620     2.8230 H     1 <1>   0.0800 
 52 H        7.0150     2.1970     1.9170 H     1 <1>   0.0800 
 53 H       -4.4930    -6.5960    -0.2180 H     1 <1>   0.1500 
@<TRIPOS>BOND
  1   1   2  2   
  2   2   3  am  
  3   2   4  1   
  4   3   5  1   
  5   3   6  1   
  6   4   7  1   
  7   4  26  1   
  8   4  27  1   
  9   5   8  1   
 10   5  28  1   
 11   5  29  1   
 12   6  30  1   
 13   6  31  1   
 14   6  32  1   
 15   7   9  1   
 16   7  10  1   
 17   8  11  1   
 18   8  33  1   
 19   8  34  1   
 20   9  12  1   
 21   9  35  1   
 22   9  36  1   
 23  10  13  1   
 24  10  37  1   
 25  10  38  1   
 26  11  14  1   
 27  11  39  1   
 28  11  40  1   
 29  12  15  ar  
 30  12  16  ar  
 31  13  15  1   
 32  13  41  1   
 33  13  42  1   
 34  14  17  1   
 35  14  18  2   
 36  15  19  ar  
 37  16  20  ar  
 38  16  43  1   
 39  17  21  2   
 40  17  22  1   
 41  18  23  1   
 42  18  24  1   
 43  19  25  ar  
 44  19  44  1   
 45  20  25  ar  
 46  20  45  1   
 47  21  23  1   
 48  22  46  1   
 49  22  47  1   
 50  22  48  1   
 51  23  49  1   
 52  24  50  1   
 53  24  51  1   
 54  24  52  1   
 55  25  53  1   
@<TRIPOS>SUBSTRUCTURE
  1 ****   2 GROUP 4 **** **** 0

# MOE 2024.06 (io_trps.svl 2023.06)
