@<TRIPOS>MOLECULE
NONAME
33 33 1 0 0 
SMALL
USER_CHARGES


@<TRIPOS>ATOM
  1 S        0.3170     0.2650    -1.2110 S.o2  1 <1>   1.0900 
  2 O        1.6920    -0.1180    -1.4320 O.2   1 <1>  -0.6500 
  3 O       -0.6600     0.0970    -2.2590 O.2   1 <1>  -0.6500 
  4 C        0.3040     1.9880    -0.7190 C.3   1 <1>  -0.0550 
  5 C       -0.2770    -0.6050     0.2280 C.3   1 <1>  -0.1350 
  6 C        1.3960     2.3400     0.3060 C.3   1 <1>  -0.0990 
  7 C        1.3150     3.8020     0.6790 C.2   1 <1>   0.5690 
  8 O        0.3620     4.1530     1.3260 O.2   1 <1>  -0.5700 
  9 N        2.3080     4.6340     0.2520 N.am  1 <1>  -0.4940 
 10 C        2.4610     6.0100     0.4600 C.2   1 <1>   0.2040 
 11 O        1.6130     6.7110     1.1750 O.3   1 <1>  -0.0190 
 12 C        3.4210     6.8500     0.0260 C.2   1 <1>  -0.1810 
 13 N        1.9600     7.9710     1.2430 N.2   1 <1>  -0.4100 
 14 C        3.0430     8.0800     0.5630 C.2   1 <1>   0.1080 
 15 C        4.6370     6.5590    -0.8380 C.3   1 <1>   0.0210 
 16 C        3.7820     9.3900     0.3870 C.3   1 <1>  -0.0590 
 17 C        5.8550     6.2520     0.0340 C.3   1 <1>  -0.2400 
 18 H       -0.6590     2.2430    -0.3170 H     1 <1>   0.0800 
 19 H        0.4540     2.5940    -1.5930 H     1 <1>   0.0800 
 20 H       -0.3340    -1.6560     0.0190 H     1 <1>   0.0800 
 21 H       -1.2570    -0.2620     0.4990 H     1 <1>   0.0800 
 22 H        0.3840    -0.4640     1.0610 H     1 <1>   0.0800 
 23 H        2.3660     2.1130    -0.0980 H     1 <1>   0.0800 
 24 H        1.2630     1.7610     1.2010 H     1 <1>   0.0800 
 25 H        3.0570     4.2040    -0.2840 H     1 <1>   0.3700 
 26 H        4.8430     7.4050    -1.4710 H     1 <1>   0.0800 
 27 H        4.4320     5.7180    -1.4770 H     1 <1>   0.0800 
 28 H        4.7890     9.2950     0.7470 H     1 <1>   0.0800 
 29 H        3.2870    10.1660     0.9440 H     1 <1>   0.0800 
 30 H        3.7960     9.6650    -0.6510 H     1 <1>   0.0800 
 31 H        6.0810     7.0910     0.6680 H     1 <1>   0.0800 
 32 H        6.7110     6.0460    -0.5830 H     1 <1>   0.0800 
 33 H        5.6620     5.3960     0.6570 H     1 <1>   0.0800 
@<TRIPOS>BOND
  1   1   2  2   
  2   1   3  2   
  3   1   4  1   
  4   1   5  1   
  5   4   6  1   
  6   4  18  1   
  7   4  19  1   
  8   5  20  1   
  9   5  21  1   
 10   5  22  1   
 11   6   7  1   
 12   6  23  1   
 13   6  24  1   
 14   7   8  2   
 15   7   9  am  
 16   9  10  1   
 17   9  25  1   
 18  10  11  1   
 19  10  12  2   
 20  11  13  1   
 21  12  14  1   
 22  12  15  1   
 23  13  14  2   
 24  14  16  1   
 25  15  17  1   
 26  15  26  1   
 27  15  27  1   
 28  16  28  1   
 29  16  29  1   
 30  16  30  1   
 31  17  31  1   
 32  17  32  1   
 33  17  33  1   
@<TRIPOS>SUBSTRUCTURE
  1 ****   9 GROUP 4 **** **** 0

# MOE 2024.06 (io_trps.svl 2023.06)
