@<TRIPOS>MOLECULE
NONAME
47 50 1 0 0 
SMALL
USER_CHARGES


@<TRIPOS>ATOM
  1 F        0.4270     0.3290    -1.5720 F     1 <1>  -0.1900 
  2 C        1.2820    -0.5630    -1.1530 C.ar  1 <1>   0.1900 
  3 C        1.0730    -1.8850    -1.4770 C.ar  1 <1>  -0.1500 
  4 C        2.3580    -0.1510    -0.3950 C.ar  1 <1>  -0.1500 
  5 C        1.9590    -2.8620    -1.0260 C.ar  1 <1>   0.0860 
  6 C        3.2580    -1.1070     0.0380 C.ar  1 <1>  -0.1500 
  7 C        3.0730    -2.4470    -0.2750 C.ar  1 <1>  -0.1440 
  8 C        1.6780    -4.2530    -1.3350 C.2   1 <1>   0.5440 
  9 C        4.1220    -3.4460     0.2000 C.3   1 <1>  -0.0960 
 10 O        1.4600    -4.5960    -2.4800 O.2   1 <1>  -0.5700 
 11 N        1.5330    -5.2060    -0.3490 N.am  1 <1>  -0.6600 
 12 C        0.8180    -4.8970     0.9230 C.3   1 <1>   0.1400 
 13 C        1.5000    -6.6530    -0.7080 C.3   1 <1>   0.1400 
 14 C       -0.6530    -5.3790     0.8550 C.3   1 <1>   0.4230 
 15 C        0.0400    -7.1160    -0.8350 C.3   1 <1>   0.3430 
 16 N       -0.7600    -6.8340     0.4210 N.4   1 <1>  -0.9590 
 17 C       -1.4870    -4.4640    -0.0750 C.3   1 <1>   0.1200 
 18 C       -2.2080    -7.2060     0.2890 C.3   1 <1>   0.5180 
 19 O       -2.8160    -4.9010    -0.1230 O.3   1 <1>  -0.5600 
 20 C       -2.3340    -8.6500    -0.2110 C.3   1 <1>  -0.1950 
 21 C       -2.9850    -6.2080    -0.5990 C.3   1 <1>   0.1200 
 22 C       -3.4000    -9.5440     0.3420 C.3   1 <1>  -0.2000 
 23 C       -1.9560    -9.8180     0.6490 C.3   1 <1>  -0.2000 
 24 H        0.2270    -2.1560    -2.0830 H     1 <1>   0.1500 
 25 H        2.4880     0.8910    -0.1600 H     1 <1>   0.1500 
 26 H        4.1100    -0.7940     0.6190 H     1 <1>   0.1500 
 27 H        5.0340    -2.9430     0.4730 H     1 <1>   0.0800 
 28 H        4.3570    -4.1460    -0.5820 H     1 <1>   0.0800 
 29 H        3.7640    -3.9860     1.0570 H     1 <1>   0.0800 
 30 H        1.3220    -5.3860     1.7380 H     1 <1>   0.0800 
 31 H        0.8410    -3.8390     1.1220 H     1 <1>   0.0800 
 32 H        2.0110    -6.8160    -1.6430 H     1 <1>   0.0800 
 33 H        2.0110    -7.2270     0.0450 H     1 <1>   0.0800 
 34 H       -1.0710    -5.2780     1.8430 H     1 <1>   0.0800 
 35 H        0.0280    -8.1720    -1.0510 H     1 <1>   0.0800 
 36 H       -0.4010    -6.6020    -1.6740 H     1 <1>   0.0800 
 37 H       -0.3760    -7.4240     1.1660 H     1 <1>   0.4500 
 38 H       -1.0930    -4.4510    -1.0770 H     1 <1>   0.0800 
 39 H       -1.4920    -3.4560     0.3010 H     1 <1>   0.0800 
 40 H       -2.6560    -7.1660     1.2680 H     1 <1>   0.0800 
 41 H       -2.1830    -8.7360    -1.2740 H     1 <1>   0.1000 
 42 H       -4.0370    -6.4330    -0.5680 H     1 <1>   0.0800 
 43 H       -2.6570    -6.2510    -1.6220 H     1 <1>   0.0800 
 44 H       -4.0330    -9.2060     1.1460 H     1 <1>   0.1000 
 45 H       -3.9150   -10.2200    -0.3210 H     1 <1>   0.1000 
 46 H       -1.5040   -10.6850     0.1960 H     1 <1>   0.1000 
 47 H       -1.6360    -9.6800     1.6680 H     1 <1>   0.1000 
@<TRIPOS>BOND
  1   1   2  1   
  2   2   3  ar  
  3   2   4  ar  
  4   3   5  ar  
  5   3  24  1   
  6   4   6  ar  
  7   4  25  1   
  8   5   7  ar  
  9   5   8  1   
 10   6   7  ar  
 11   6  26  1   
 12   7   9  1   
 13   8  10  2   
 14   8  11  am  
 15   9  27  1   
 16   9  28  1   
 17   9  29  1   
 18  11  12  1   
 19  11  13  1   
 20  12  14  1   
 21  12  30  1   
 22  12  31  1   
 23  13  15  1   
 24  13  32  1   
 25  13  33  1   
 26  14  16  1   
 27  14  17  1   
 28  14  34  1   
 29  15  16  1   
 30  15  35  1   
 31  15  36  1   
 32  16  18  1   
 33  16  37  1   
 34  17  19  1   
 35  17  38  1   
 36  17  39  1   
 37  18  20  1   
 38  18  21  1   
 39  18  40  1   
 40  19  21  1   
 41  20  22  1   
 42  20  23  1   
 43  20  41  1   
 44  21  42  1   
 45  21  43  1   
 46  22  23  1   
 47  22  44  1   
 48  22  45  1   
 49  23  46  1   
 50  23  47  1   
@<TRIPOS>SUBSTRUCTURE
  1 ****  11 GROUP 4 **** **** 0

# MOE 2024.06 (io_trps.svl 2023.06)
