@<TRIPOS>MOLECULE
NONAME
48 50 1 0 0 
SMALL
USER_CHARGES


@<TRIPOS>ATOM
  1 S       -0.0810    -0.2510     1.5820 S.o2  1 <1>   1.4470 
  2 O       -0.3220     0.4830     2.8020 O.2   1 <1>  -0.6500 
  3 O        0.0740    -1.6920     1.6340 O.2   1 <1>  -0.6500 
  4 N       -1.4310    -0.0080     0.5760 N.am  1 <1>  -0.8490 
  5 C        1.2890     0.5100     0.6640 C.ar  1 <1>  -0.0090 
  6 C       -1.5310    -1.0240    -0.4960 C.3   1 <1>   0.1960 
  7 C       -2.6720     0.1680     1.3750 C.3   1 <1>   0.1960 
  8 C        1.1490     1.7550     0.0620 C.ar  1 <1>  -0.1500 
  9 C        2.5240    -0.1200     0.5560 C.ar  1 <1>  -0.1500 
 10 C       -2.4190    -2.1860    -0.0030 C.3   1 <1>   0.4230 
 11 C       -3.9340    -0.2560     0.6040 C.3   1 <1>  -0.1600 
 12 C        2.1970     2.3450    -0.6260 C.ar  1 <1>  -0.1500 
 13 C        3.5740     0.4670    -0.1300 C.ar  1 <1>  -0.1500 
 14 N       -2.2130    -3.5510    -0.6200 N.4   1 <1>  -0.9590 
 15 C       -3.8970    -1.7310     0.0900 C.3   1 <1>   0.0000 
 16 C        3.4280     1.7100    -0.7330 C.ar  1 <1>   0.0730 
 17 C       -3.3020    -4.5190    -0.2470 C.3   1 <1>   0.3430 
 18 C       -1.9580    -3.5610    -2.0970 C.3   1 <1>   0.2630 
 19 C       -4.5820    -2.7030     1.0900 C.3   1 <1>  -0.1600 
 20 C       -4.6050    -1.7790    -1.2930 C.3   1 <1>   0.1200 
 21 C        4.5180     2.3230    -1.4400 C.1   1 <1>   0.4840 
 22 C       -3.9800    -4.1320     1.0770 C.3   1 <1>  -0.1600 
 23 O       -5.8650    -1.2070    -1.2320 O.3   1 <1>  -0.6800 
 24 N        5.3830     2.8070    -2.0040 N.1   1 <1>  -0.5570 
 25 H       -1.9710    -0.5680    -1.3650 H     1 <1>   0.0800 
 26 H       -0.5500    -1.3770    -0.7650 H     1 <1>   0.0800 
 27 H       -2.6190    -0.4230     2.2760 H     1 <1>   0.0800 
 28 H       -2.7520     1.2010     1.6750 H     1 <1>   0.0800 
 29 H        0.2070     2.2740     0.1360 H     1 <1>   0.1500 
 30 H        2.6700    -1.0820     1.0220 H     1 <1>   0.1500 
 31 H       -2.1140    -2.3120     1.0240 H     1 <1>   0.0800 
 32 H       -4.8000    -0.1000     1.2240 H     1 <1>   0.0800 
 33 H       -4.0350     0.4290    -0.2220 H     1 <1>   0.0800 
 34 H        2.0560     3.3120    -1.0800 H     1 <1>   0.1500 
 35 H        4.5200    -0.0460    -0.1940 H     1 <1>   0.1500 
 36 H       -1.3570    -3.9030    -0.1610 H     1 <1>   0.4500 
 37 H       -4.0520    -4.5380    -1.0200 H     1 <1>   0.0800 
 38 H       -2.8940    -5.5150    -0.1670 H     1 <1>   0.0800 
 39 H       -2.8140    -3.1860    -2.6330 H     1 <1>   0.0800 
 40 H       -1.7590    -4.5670    -2.4320 H     1 <1>   0.0800 
 41 H       -1.1040    -2.9500    -2.3380 H     1 <1>   0.0800 
 42 H       -4.4850    -2.3210     2.0930 H     1 <1>   0.0800 
 43 H       -5.6390    -2.7570     0.8900 H     1 <1>   0.0800 
 44 H       -4.7310    -2.7810    -1.6570 H     1 <1>   0.0800 
 45 H       -4.0490    -1.2170    -2.0230 H     1 <1>   0.0800 
 46 H       -4.7590    -4.8430     1.2950 H     1 <1>   0.0800 
 47 H       -3.2540    -4.2210     1.8680 H     1 <1>   0.0800 
 48 H       -6.4690    -1.6940    -0.6380 H     1 <1>   0.4000 
@<TRIPOS>BOND
  1   1   2  2   
  2   1   3  2   
  3   1   4  am  
  4   1   5  1   
  5   4   6  1   
  6   4   7  1   
  7   5   8  ar  
  8   5   9  ar  
  9   6  10  1   
 10   6  25  1   
 11   6  26  1   
 12   7  11  1   
 13   7  27  1   
 14   7  28  1   
 15   8  12  ar  
 16   8  29  1   
 17   9  13  ar  
 18   9  30  1   
 19  10  14  1   
 20  10  15  1   
 21  10  31  1   
 22  11  15  1   
 23  11  32  1   
 24  11  33  1   
 25  12  16  ar  
 26  12  34  1   
 27  13  16  ar  
 28  13  35  1   
 29  14  17  1   
 30  14  18  1   
 31  14  36  1   
 32  15  19  1   
 33  15  20  1   
 34  16  21  1   
 35  17  22  1   
 36  17  37  1   
 37  17  38  1   
 38  18  39  1   
 39  18  40  1   
 40  18  41  1   
 41  19  22  1   
 42  19  42  1   
 43  19  43  1   
 44  20  23  1   
 45  20  44  1   
 46  20  45  1   
 47  21  24  3   
 48  22  46  1   
 49  22  47  1   
 50  23  48  1   
@<TRIPOS>SUBSTRUCTURE
  1 ****   6 GROUP 4 **** **** 0

# MOE 2024.06 (io_trps.svl 2023.06)
