@<TRIPOS>MOLECULE
NONAME
38 38 1 0 0 
SMALL
USER_CHARGES


@<TRIPOS>ATOM
  1 O        0.2700     0.2580     0.7830 O.2   1 <1>  -0.5700 
  2 C        1.2950     0.8590     0.5410 C.2   1 <1>   0.7800 
  3 O        1.2670     2.0580    -0.0460 O.3   1 <1>  -0.4300 
  4 N        2.5310     0.3420     0.8470 N.am  1 <1>  -0.6600 
  5 C        0.1240     2.7980    -0.4240 C.3   1 <1>   0.2800 
  6 C        3.7980     1.0650     0.5470 C.3   1 <1>   0.2200 
  7 C        2.6560    -0.9880     1.5140 C.3   1 <1>   0.1400 
  8 C       -0.7220     3.1350     0.8100 C.3   1 <1>  -0.2400 
  9 C        0.6680     4.0940    -1.0270 C.3   1 <1>  -0.2400 
 10 C       -0.6740     2.0410    -1.4920 C.3   1 <1>  -0.2400 
 11 C        4.7570     0.1380    -0.2540 C.3   1 <1>   0.4230 
 12 C        4.3730     1.6130     1.8630 C.3   1 <1>  -0.2400 
 13 C        3.5900    -1.8910     0.7010 C.3   1 <1>  -0.1600 
 14 N        6.0960     0.7440    -0.4590 N.4   1 <1>  -0.8530 
 15 C        4.9480    -1.2270     0.4240 C.3   1 <1>  -0.1600 
 16 H        3.5810     1.9080    -0.0860 H     1 <1>   0.0800 
 17 H        3.0400    -0.8520     2.5110 H     1 <1>   0.0800 
 18 H        1.6920    -1.4640     1.6030 H     1 <1>   0.0800 
 19 H       -1.5110     3.8130     0.5400 H     1 <1>   0.0800 
 20 H       -0.1170     3.6010     1.5660 H     1 <1>   0.0800 
 21 H       -1.1820     2.2540     1.2190 H     1 <1>   0.0800 
 22 H       -0.1420     4.7260    -1.3420 H     1 <1>   0.0800 
 23 H        1.2800     3.8800    -1.8850 H     1 <1>   0.0800 
 24 H        1.2500     4.6300    -0.3000 H     1 <1>   0.0800 
 25 H       -1.4610     2.6660    -1.8720 H     1 <1>   0.0800 
 26 H       -1.1330     1.1590    -1.0830 H     1 <1>   0.0800 
 27 H       -0.0370     1.7610    -2.3110 H     1 <1>   0.0800 
 28 H        4.3000    -0.0310    -1.2170 H     1 <1>   0.0800 
 29 H        4.6820     0.8250     2.5250 H     1 <1>   0.0800 
 30 H        3.6190     2.1980     2.3620 H     1 <1>   0.0800 
 31 H        5.2100     2.2620     1.6800 H     1 <1>   0.0800 
 32 H        3.7380    -2.8120     1.2390 H     1 <1>   0.0800 
 33 H        3.1020    -2.1400    -0.2270 H     1 <1>   0.0800 
 34 H        6.5500     0.9130     0.4450 H     1 <1>   0.4500 
 35 H        6.0240     1.6350    -0.9610 H     1 <1>   0.4500 
 36 H        6.6940     0.1140    -1.0050 H     1 <1>   0.4500 
 37 H        5.5220    -1.8790    -0.2120 H     1 <1>   0.0800 
 38 H        5.4700    -1.1140     1.3580 H     1 <1>   0.0800 
@<TRIPOS>BOND
  1   1   2  2   
  2   2   3  1   
  3   2   4  am  
  4   3   5  1   
  5   4   6  1   
  6   4   7  1   
  7   5   8  1   
  8   5   9  1   
  9   5  10  1   
 10   6  11  1   
 11   6  12  1   
 12   6  16  1   
 13   7  13  1   
 14   7  17  1   
 15   7  18  1   
 16   8  19  1   
 17   8  20  1   
 18   8  21  1   
 19   9  22  1   
 20   9  23  1   
 21   9  24  1   
 22  10  25  1   
 23  10  26  1   
 24  10  27  1   
 25  11  14  1   
 26  11  15  1   
 27  11  28  1   
 28  12  29  1   
 29  12  30  1   
 30  12  31  1   
 31  13  15  1   
 32  13  32  1   
 33  13  33  1   
 34  14  34  1   
 35  14  35  1   
 36  14  36  1   
 37  15  37  1   
 38  15  38  1   
@<TRIPOS>SUBSTRUCTURE
  1 ****   4 GROUP 4 **** **** 0

# MOE 2024.06 (io_trps.svl 2023.06)
