@<TRIPOS>MOLECULE
NONAME
46 47 1 0 0 
SMALL
USER_CHARGES


@<TRIPOS>ATOM
  1 S        0.1470    -1.2630     2.1390 S.3   1 <1>  -0.3320 
  2 C       -0.1050    -2.7380     1.1690 C.ar  1 <1>   0.7220 
  3 C       -0.5510     0.1150     1.1220 C.3   1 <1>  -0.0100 
  4 N        0.3480    -3.8520     1.7190 N.ar  1 <1>  -0.6200 
  5 N       -0.7190    -2.5800     0.0050 N.ar  1 <1>  -0.6200 
  6 C        0.1600    -4.9360     1.0080 C.ar  1 <1>   0.1600 
  7 C       -0.8960    -3.6850    -0.6790 C.ar  1 <1>   0.1600 
  8 C       -0.4820    -4.9140    -0.2110 C.ar  1 <1>  -0.1430 
  9 C       -0.7210    -6.1880    -0.9880 C.3   1 <1>   0.4870 
 10 N       -1.8770    -6.9020    -0.3820 N.4   1 <1>  -0.9590 
 11 C       -1.9300    -8.3340    -0.7860 C.3   1 <1>   0.4860 
 12 C       -3.1840    -6.2050    -0.6450 C.3   1 <1>   0.3430 
 13 C       -2.8540    -9.0490     0.1800 C.ar  1 <1>  -0.1430 
 14 C       -3.9850    -5.9650     0.6380 C.3   1 <1>   0.1200 
 15 C       -2.4650    -9.3490     1.4850 C.ar  1 <1>  -0.1430 
 16 C       -4.1270    -9.3910    -0.2550 C.ar  1 <1>  -0.1500 
 17 O       -5.1220    -5.2610     0.2710 O.3   1 <1>  -0.5600 
 18 C       -3.3720    -9.9640     2.3340 C.ar  1 <1>  -0.1500 
 19 C       -1.0770    -9.0400     2.0350 C.3   1 <1>  -0.0970 
 20 C       -5.0200   -10.0070     0.6010 C.ar  1 <1>  -0.1500 
 21 C       -5.9820    -4.9750     1.3300 C.3   1 <1>   0.0400 
 22 C       -4.6420   -10.2910     1.8980 C.ar  1 <1>  -0.1500 
 23 H       -0.4160     1.0290     1.6710 H     1 <1>   0.0800 
 24 H       -1.5940    -0.0880     0.9600 H     1 <1>   0.0800 
 25 H       -0.0140     0.1420     0.1900 H     1 <1>   0.0800 
 26 H        0.5320    -5.8580     1.4250 H     1 <1>   0.1500 
 27 H       -1.3900    -3.5910    -1.6330 H     1 <1>   0.1500 
 28 H        0.1640    -6.8020    -0.9360 H     1 <1>   0.0800 
 29 H       -0.9190    -5.9640    -2.0240 H     1 <1>   0.0800 
 30 H       -1.7550    -6.9170     0.6380 H     1 <1>   0.4500 
 31 H       -0.9510    -8.7810    -0.7320 H     1 <1>   0.0800 
 32 H       -2.2970    -8.4320    -1.7950 H     1 <1>   0.0800 
 33 H       -3.7870    -6.7880    -1.3210 H     1 <1>   0.0800 
 34 H       -3.0050    -5.2450    -1.1000 H     1 <1>   0.0800 
 35 H       -3.4260    -5.3630     1.3350 H     1 <1>   0.0800 
 36 H       -4.2890    -6.8930     1.0910 H     1 <1>   0.0800 
 37 H       -4.4480    -9.1840    -1.2630 H     1 <1>   0.1500 
 38 H       -3.0970   -10.2030     3.3480 H     1 <1>   0.1500 
 39 H       -0.3140    -9.2290     1.3020 H     1 <1>   0.0800 
 40 H       -0.8650    -9.6700     2.8810 H     1 <1>   0.0800 
 41 H       -1.0200    -8.0190     2.3650 H     1 <1>   0.0800 
 42 H       -6.0080   -10.2700     0.2610 H     1 <1>   0.1500 
 43 H       -6.8260    -4.4340     0.9400 H     1 <1>   0.0800 
 44 H       -5.4690    -4.3670     2.0560 H     1 <1>   0.0800 
 45 H       -6.3190    -5.8950     1.7770 H     1 <1>   0.0800 
 46 H       -5.3350   -10.7710     2.5680 H     1 <1>   0.1500 
@<TRIPOS>BOND
  1   1   2  1   
  2   1   3  1   
  3   2   4  ar  
  4   2   5  ar  
  5   3  23  1   
  6   3  24  1   
  7   3  25  1   
  8   4   6  ar  
  9   5   7  ar  
 10   6   8  ar  
 11   6  26  1   
 12   7   8  ar  
 13   7  27  1   
 14   8   9  1   
 15   9  10  1   
 16   9  28  1   
 17   9  29  1   
 18  10  11  1   
 19  10  12  1   
 20  10  30  1   
 21  11  13  1   
 22  11  31  1   
 23  11  32  1   
 24  12  14  1   
 25  12  33  1   
 26  12  34  1   
 27  13  15  ar  
 28  13  16  ar  
 29  14  17  1   
 30  14  35  1   
 31  14  36  1   
 32  15  18  ar  
 33  15  19  1   
 34  16  20  ar  
 35  16  37  1   
 36  17  21  1   
 37  18  22  ar  
 38  18  38  1   
 39  19  39  1   
 40  19  40  1   
 41  19  41  1   
 42  20  22  ar  
 43  20  42  1   
 44  21  43  1   
 45  21  44  1   
 46  21  45  1   
 47  22  46  1   
@<TRIPOS>SUBSTRUCTURE
  1 ****  10 GROUP 4 **** **** 0

# MOE 2024.06 (io_trps.svl 2023.06)
