@<TRIPOS>MOLECULE
NONAME
37 39 1 0 0 
SMALL
USER_CHARGES


@<TRIPOS>ATOM
  1 O        0.7630     1.2410     1.0780 O.3   1 <1>  -0.0190 
  2 N        1.5190     0.2100     1.3220 N.2   1 <1>  -0.4100 
  3 C        0.9830     1.7340    -0.1110 C.2   1 <1>  -0.0400 
  4 C        2.2360     0.0360     0.2700 C.2   1 <1>   0.1080 
  5 C        1.9350     0.9920    -0.6960 C.2   1 <1>  -0.1500 
  6 C        0.2080     2.9480    -0.5850 C.3   1 <1>   0.0200 
  7 C        3.2650    -1.0600     0.1140 C.3   1 <1>  -0.0590 
  8 C        0.5110     4.1730     0.2900 C.3   1 <1>  -0.0800 
  9 C       -0.1770     5.4420    -0.2020 C.3   1 <1>   0.2000 
 10 C        1.9890     4.5530     0.3230 C.3   1 <1>   0.2090 
 11 O       -1.4830     5.4880     0.2640 O.3   1 <1>  -0.6800 
 12 C        0.6670     6.5950     0.3410 C.3   1 <1>   0.2090 
 13 N        2.0160     6.0200     0.5860 N.pl3 1 <1>  -0.8380 
 14 C        3.1420     6.7750     0.3180 C.ar  1 <1>   0.4100 
 15 N        4.0900     6.2260    -0.4330 N.ar  1 <1>  -0.6200 
 16 C        3.2500     8.0650     0.8330 C.ar  1 <1>  -0.1500 
 17 C        5.1530     6.9750    -0.6780 C.ar  1 <1>   0.1600 
 18 C        4.3600     8.8320     0.5680 C.ar  1 <1>  -0.1500 
 19 C        5.3530     8.2690    -0.2190 C.ar  1 <1>   0.0730 
 20 C        6.5460     8.9840    -0.5530 C.1   1 <1>   0.4840 
 21 N        7.4970     9.5510    -0.8240 N.1   1 <1>  -0.5570 
 22 H        2.3820     1.0830    -1.6680 H     1 <1>   0.1500 
 23 H        0.4690     3.1550    -1.6080 H     1 <1>   0.0800 
 24 H       -0.8440     2.7290    -0.5470 H     1 <1>   0.0800 
 25 H        3.0060    -1.6880    -0.7190 H     1 <1>   0.0800 
 26 H        3.3000    -1.6600     1.0050 H     1 <1>   0.0800 
 27 H        4.2350    -0.6290    -0.0530 H     1 <1>   0.0800 
 28 H        0.2150     3.9720     1.3050 H     1 <1>   0.0800 
 29 H       -0.1970     5.4870    -1.2770 H     1 <1>   0.0800 
 30 H        2.4470     4.3430    -0.6290 H     1 <1>   0.0800 
 31 H        2.5170     4.0200     1.0960 H     1 <1>   0.0800 
 32 H       -1.5030     5.3580     1.2320 H     1 <1>   0.4000 
 33 H        0.2660     6.9560     1.2720 H     1 <1>   0.0800 
 34 H        0.7170     7.3960    -0.3760 H     1 <1>   0.0800 
 35 H        2.4570     8.4470     1.4470 H     1 <1>   0.1500 
 36 H        5.9200     6.5270    -1.2870 H     1 <1>   0.1500 
 37 H        4.4580     9.8310     0.9590 H     1 <1>   0.1500 
@<TRIPOS>BOND
  1   1   2  1   
  2   1   3  1   
  3   2   4  2   
  4   3   5  2   
  5   3   6  1   
  6   4   5  1   
  7   4   7  1   
  8   5  22  1   
  9   6   8  1   
 10   6  23  1   
 11   6  24  1   
 12   7  25  1   
 13   7  26  1   
 14   7  27  1   
 15   8   9  1   
 16   8  10  1   
 17   8  28  1   
 18   9  11  1   
 19   9  12  1   
 20   9  29  1   
 21  10  13  1   
 22  10  30  1   
 23  10  31  1   
 24  11  32  1   
 25  12  13  1   
 26  12  33  1   
 27  12  34  1   
 28  13  14  1   
 29  14  15  ar  
 30  14  16  ar  
 31  15  17  ar  
 32  16  18  ar  
 33  16  35  1   
 34  17  19  ar  
 35  17  36  1   
 36  18  19  ar  
 37  18  37  1   
 38  19  20  1   
 39  20  21  3   
@<TRIPOS>SUBSTRUCTURE
  1 ****  10 GROUP 4 **** **** 0

# MOE 2024.06 (io_trps.svl 2023.06)
