@<TRIPOS>MOLECULE
NONAME
53 55 1 0 0 
SMALL
USER_CHARGES


@<TRIPOS>ATOM
  1 O        3.0710    -3.4630    -0.8930 O.2   1 <1>  -0.5700 
  2 C        2.7240    -2.4320    -0.3460 C.2   1 <1>   0.5440 
  3 N        3.2790    -1.2370    -0.7520 N.am  1 <1>  -0.6600 
  4 C        1.7380    -2.4860     0.7110 C.ar  1 <1>   0.0860 
  5 C        4.5040    -1.2690    -1.6130 C.3   1 <1>   0.1400 
  6 C        2.6980     0.0840    -0.3890 C.3   1 <1>   0.1400 
  7 C        0.3950    -2.7800     0.4910 C.ar  1 <1>  -0.1440 
  8 C        2.1330    -2.2200     2.0200 C.ar  1 <1>   0.1600 
  9 C        5.2410     0.0650    -1.8260 C.3   1 <1>   0.1100 
 10 C        3.5670     0.8010     0.6460 C.3   1 <1>  -0.1600 
 11 C       -0.4400    -2.7730     1.5890 C.ar  1 <1>  -0.1500 
 12 C       -0.1370    -3.0990    -0.8990 C.3   1 <1>  -0.0960 
 13 N        1.3430    -2.2010     3.0820 N.ar  1 <1>  -0.6200 
 14 N        5.7350     0.6590    -0.5650 N.3   1 <1>  -0.8100 
 15 C        4.7500     1.5620     0.0490 C.3   1 <1>   0.1100 
 16 C        0.0730    -2.4800     2.8410 C.ar  1 <1>   0.1600 
 17 C        7.0480     1.3450    -0.7640 C.3   1 <1>   0.1710 
 18 C        7.8360     1.8330     0.4760 C.2   1 <1>   0.5690 
 19 O        7.4760     1.5050     1.5860 O.2   1 <1>  -0.5700 
 20 N        8.9450     2.6350     0.3070 N.am  1 <1>  -0.6600 
 21 C        9.7220     3.1300     1.4810 C.3   1 <1>   0.1400 
 22 C        9.5290     3.0440    -1.0040 C.3   1 <1>   0.1400 
 23 C       11.1620     2.6120     1.4010 C.3   1 <1>  -0.1600 
 24 C       10.9660     2.5220    -1.1120 C.3   1 <1>  -0.1600 
 25 C       11.8270     2.9890     0.0700 C.3   1 <1>  -0.1600 
 26 H        4.2210    -1.6580    -2.5750 H     1 <1>   0.0800 
 27 H        5.2010    -1.9670    -1.1830 H     1 <1>   0.0800 
 28 H        1.7130    -0.0540     0.0220 H     1 <1>   0.0800 
 29 H        2.5870     0.6890    -1.2720 H     1 <1>   0.0800 
 30 H        3.1760    -2.0080     2.1890 H     1 <1>   0.1500 
 31 H        4.6130     0.7590    -2.3560 H     1 <1>   0.0800 
 32 H        6.0780    -0.1530    -2.4660 H     1 <1>   0.0800 
 33 H        3.9220     0.1110     1.3890 H     1 <1>   0.0800 
 34 H        2.9490     1.5210     1.1510 H     1 <1>   0.0800 
 35 H       -1.4870    -2.9930     1.4860 H     1 <1>   0.1500 
 36 H        0.0830    -2.2920    -1.5750 H     1 <1>   0.0800 
 37 H       -1.2010    -3.2510    -0.8820 H     1 <1>   0.0800 
 38 H        0.3300    -3.9940    -1.2710 H     1 <1>   0.0800 
 39 H        5.2130     2.1070     0.8540 H     1 <1>   0.0800 
 40 H        4.4060     2.2830    -0.6740 H     1 <1>   0.0800 
 41 H       -0.5940    -2.4780     3.6870 H     1 <1>   0.1500 
 42 H        6.8850     2.1910    -1.4050 H     1 <1>   0.0800 
 43 H        7.7040     0.6650    -1.2760 H     1 <1>   0.0800 
 44 H        9.2760     2.8040     2.4050 H     1 <1>   0.0800 
 45 H        9.7180     4.2060     1.4750 H     1 <1>   0.0800 
 46 H        9.5290     4.1190    -1.0630 H     1 <1>   0.0800 
 47 H        8.9550     2.6670    -1.8290 H     1 <1>   0.0800 
 48 H       11.1480     1.5410     1.5120 H     1 <1>   0.0800 
 49 H       11.7300     3.0180     2.2190 H     1 <1>   0.0800 
 50 H       11.4020     2.8670    -2.0330 H     1 <1>   0.0800 
 51 H       10.9450     1.4470    -1.1410 H     1 <1>   0.0800 
 52 H       12.8030     2.5390     0.0110 H     1 <1>   0.0800 
 53 H       11.9500     4.0580     0.0230 H     1 <1>   0.0800 
@<TRIPOS>BOND
  1   1   2  2   
  2   2   3  am  
  3   2   4  1   
  4   3   5  1   
  5   3   6  1   
  6   4   7  ar  
  7   4   8  ar  
  8   5   9  1   
  9   5  26  1   
 10   5  27  1   
 11   6  10  1   
 12   6  28  1   
 13   6  29  1   
 14   7  11  ar  
 15   7  12  1   
 16   8  13  ar  
 17   8  30  1   
 18   9  14  1   
 19   9  31  1   
 20   9  32  1   
 21  10  15  1   
 22  10  33  1   
 23  10  34  1   
 24  11  16  ar  
 25  11  35  1   
 26  12  36  1   
 27  12  37  1   
 28  12  38  1   
 29  13  16  ar  
 30  14  15  1   
 31  14  17  1   
 32  15  39  1   
 33  15  40  1   
 34  16  41  1   
 35  17  18  1   
 36  17  42  1   
 37  17  43  1   
 38  18  19  2   
 39  18  20  am  
 40  20  21  1   
 41  20  22  1   
 42  21  23  1   
 43  21  44  1   
 44  21  45  1   
 45  22  24  1   
 46  22  46  1   
 47  22  47  1   
 48  23  25  1   
 49  23  48  1   
 50  23  49  1   
 51  24  25  1   
 52  24  50  1   
 53  24  51  1   
 54  25  52  1   
 55  25  53  1   
@<TRIPOS>SUBSTRUCTURE
  1 ****  14 GROUP 4 **** **** 0

# MOE 2024.06 (io_trps.svl 2023.06)
