@<TRIPOS>MOLECULE
NONAME
59 62 1 0 0 
SMALL
USER_CHARGES


@<TRIPOS>ATOM
  1 O       -0.8460     0.7660    -0.7400 O.2   1 <1>  -0.5700 
  2 C       -1.7600     1.1800    -0.0670 C.2   1 <1>   0.5690 
  3 N       -2.7580     0.3500     0.3650 N.am  1 <1>  -0.6600 
  4 C       -1.7530     2.6740     0.2730 C.3   1 <1>  -0.0190 
  5 C       -3.9890     0.7110     1.1150 C.3   1 <1>   0.1400 
  6 C       -2.7370    -1.1090     0.0810 C.3   1 <1>   0.1400 
  7 C       -1.9280     3.5150    -1.0060 C.3   1 <1>  -0.1600 
  8 C       -0.4460     3.0620     0.9910 C.3   1 <1>  -0.1600 
  9 C       -4.8410    -0.5570     1.1110 C.3   1 <1>   0.2000 
 10 C       -3.8530    -1.7050     0.9400 C.3   1 <1>  -0.0800 
 11 C       -1.7680     5.0110    -0.7450 C.3   1 <1>   0.3430 
 12 C       -0.3280     4.5690     1.2060 C.3   1 <1>   0.3430 
 13 O       -5.5450    -0.6960     2.2950 O.3   1 <1>  -0.6800 
 14 C       -4.4860    -2.9690     0.3370 C.3   1 <1>   0.0210 
 15 N       -0.4460     5.2690    -0.1030 N.4   1 <1>  -0.9590 
 16 C       -3.4380    -4.0400     0.1050 C.2   1 <1>   0.1080 
 17 C       -0.0740     6.7120     0.0310 C.3   1 <1>   0.4230 
 18 N       -2.7480    -4.5670     1.0690 N.2   1 <1>  -0.7070 
 19 C       -3.0930    -4.5620    -1.1360 C.2   1 <1>  -0.1500 
 20 C       -1.1480     7.5510     0.7270 C.3   1 <1>  -0.1600 
 21 C        0.0880     7.3670    -1.3400 C.3   1 <1>  -0.1600 
 22 N       -1.9350    -5.4500     0.4600 N.pl3 1 <1>   0.3000 
 23 C       -2.1240    -5.4640    -0.8760 C.2   1 <1>  -0.3320 
 24 C       -2.0330     8.1580    -0.3680 C.3   1 <1>  -0.1600 
 25 C       -1.2260     8.0900    -1.6680 C.3   1 <1>  -0.1600 
 26 C       -1.3540    -6.3520    -1.8370 C.3   1 <1>  -0.0600 
 27 H       -2.5690     2.8970     0.9350 H     1 <1>   0.0800 
 28 H       -3.7240     0.9830     2.1220 H     1 <1>   0.0800 
 29 H       -4.5110     1.5150     0.6290 H     1 <1>   0.0800 
 30 H       -2.9290    -1.2650    -0.9660 H     1 <1>   0.0800 
 31 H       -1.7800    -1.5380     0.3320 H     1 <1>   0.0800 
 32 H       -2.9040     3.3320    -1.4210 H     1 <1>   0.0800 
 33 H       -1.2080     3.2110    -1.7470 H     1 <1>   0.0800 
 34 H        0.4040     2.7240     0.4210 H     1 <1>   0.0800 
 35 H       -0.4040     2.5640     1.9440 H     1 <1>   0.0800 
 36 H       -5.5470    -0.5180     0.2990 H     1 <1>   0.0800 
 37 H       -3.4160    -1.9530     1.8920 H     1 <1>   0.0800 
 38 H       -2.5610     5.3560    -0.1010 H     1 <1>   0.0800 
 39 H       -1.8360     5.5410    -1.6800 H     1 <1>   0.0800 
 40 H        0.6250     4.7890     1.6600 H     1 <1>   0.0800 
 41 H       -1.1070     4.9020     1.8730 H     1 <1>   0.0800 
 42 H       -4.9540    -1.0060     3.0090 H     1 <1>   0.4000 
 43 H       -4.9690    -2.7360    -0.5940 H     1 <1>   0.0800 
 44 H       -5.2280    -3.3560     1.0130 H     1 <1>   0.0800 
 45 H        0.2580     4.8470    -0.7220 H     1 <1>   0.4500 
 46 H        0.8560     6.7840     0.5730 H     1 <1>   0.0800 
 47 H       -3.5190    -4.2870    -2.0840 H     1 <1>   0.1500 
 48 H       -1.7170     7.0060     1.4580 H     1 <1>   0.0800 
 49 H       -0.6500     8.3610     1.2330 H     1 <1>   0.0800 
 50 H        0.8620     8.1110    -1.2590 H     1 <1>   0.0800 
 51 H        0.3770     6.6720    -2.1090 H     1 <1>   0.0800 
 52 H       -1.2640    -6.0250     0.9830 H     1 <1>   0.2700 
 53 H       -2.9470     7.5990    -0.4710 H     1 <1>   0.0800 
 54 H       -2.2920     9.1770    -0.1280 H     1 <1>   0.0800 
 55 H       -1.0240     9.0800    -2.0430 H     1 <1>   0.0800 
 56 H       -1.7790     7.5560    -2.4230 H     1 <1>   0.0800 
 57 H       -1.6850    -6.1790    -2.8460 H     1 <1>   0.0800 
 58 H       -1.5130    -7.3880    -1.5960 H     1 <1>   0.0800 
 59 H       -0.3010    -6.1350    -1.7810 H     1 <1>   0.0800 
@<TRIPOS>BOND
  1   1   2  2   
  2   2   3  am  
  3   2   4  1   
  4   3   5  1   
  5   3   6  1   
  6   4   7  1   
  7   4   8  1   
  8   4  27  1   
  9   5   9  1   
 10   5  28  1   
 11   5  29  1   
 12   6  10  1   
 13   6  30  1   
 14   6  31  1   
 15   7  11  1   
 16   7  32  1   
 17   7  33  1   
 18   8  12  1   
 19   8  34  1   
 20   8  35  1   
 21   9  10  1   
 22   9  13  1   
 23   9  36  1   
 24  10  14  1   
 25  10  37  1   
 26  11  15  1   
 27  11  38  1   
 28  11  39  1   
 29  12  15  1   
 30  12  40  1   
 31  12  41  1   
 32  13  42  1   
 33  14  16  1   
 34  14  43  1   
 35  14  44  1   
 36  15  17  1   
 37  15  45  1   
 38  16  18  2   
 39  16  19  1   
 40  17  20  1   
 41  17  21  1   
 42  17  46  1   
 43  18  22  1   
 44  19  23  2   
 45  19  47  1   
 46  20  24  1   
 47  20  48  1   
 48  20  49  1   
 49  21  25  1   
 50  21  50  1   
 51  21  51  1   
 52  22  23  1   
 53  22  52  1   
 54  23  26  1   
 55  24  25  1   
 56  24  53  1   
 57  24  54  1   
 58  25  55  1   
 59  25  56  1   
 60  26  57  1   
 61  26  58  1   
 62  26  59  1   
@<TRIPOS>SUBSTRUCTURE
  1 ****   2 GROUP 4 **** **** 0

# MOE 2024.06 (io_trps.svl 2023.06)
