@<TRIPOS>MOLECULE
NONAME
64 66 1 0 0 
SMALL
USER_CHARGES


@<TRIPOS>ATOM
  1 O       -1.1390     0.4390    -1.2710 O.co2 1 <1>  -0.9000 
  2 C       -1.1060     0.8680    -0.1130 C.2   1 <1>   0.9060 
  3 O       -1.4720     0.1690     0.8460 O.co2 1 <1>  -0.9000 
  4 C       -0.7340     2.3230     0.1650 C.3   1 <1>  -0.1060 
  5 C       -2.0400     2.9750     0.6720 C.3   1 <1>   0.2000 
  6 C       -0.3180     3.0290    -1.1470 C.3   1 <1>   0.1400 
  7 C        0.4130     2.4020     1.2160 C.3   1 <1>  -0.0160 
  8 O       -2.3900     2.4510     1.9000 O.3   1 <1>  -0.6800 
  9 C       -1.9710     4.4950     0.8090 C.3   1 <1>  -0.1600 
 10 N       -0.2670     4.5230    -0.9720 N.am  1 <1>  -0.6600 
 11 C        1.7300     1.7620     0.7840 C.ar  1 <1>  -0.1430 
 12 C       -1.5580     5.1140    -0.5230 C.3   1 <1>   0.1400 
 13 C        0.8550     5.2490    -1.2800 C.2   1 <1>   0.5690 
 14 C        1.8940     0.3860     0.8450 C.ar  1 <1>  -0.1500 
 15 C        2.7840     2.5440     0.3390 C.ar  1 <1>  -0.1500 
 16 O        1.7920     4.7720    -1.8780 O.2   1 <1>  -0.5700 
 17 C        0.9490     6.7070    -0.8580 C.3   1 <1>  -0.0990 
 18 C        3.0900    -0.1980     0.4650 C.ar  1 <1>  -0.1500 
 19 C        3.9820     1.9640    -0.0420 C.ar  1 <1>  -0.1500 
 20 C        2.3710     7.2970    -0.9500 C.3   1 <1>  -0.0990 
 21 C        4.1360     0.5900     0.0220 C.ar  1 <1>  -0.1500 
 22 C        2.4720     8.7450    -0.4870 C.2   1 <1>   0.5690 
 23 O        1.4910     9.2330     0.0260 O.2   1 <1>  -0.5700 
 24 N        3.6470     9.4450    -0.6600 N.am  1 <1>  -0.6600 
 25 C        3.8030    10.8920    -0.3140 C.3   1 <1>   0.2200 
 26 C        4.8950     8.8450    -1.2230 C.3   1 <1>   0.0600 
 27 C        3.6680    11.1330     1.1960 C.3   1 <1>  -0.1600 
 28 C        2.8490    11.7820    -1.1240 C.3   1 <1>  -0.1600 
 29 C        3.8820    12.6160     1.5340 C.3   1 <1>  -0.1600 
 30 C        3.0660    13.2650    -0.7840 C.3   1 <1>  -0.1600 
 31 C        2.9300    13.5110     0.7260 C.3   1 <1>  -0.1600 
 32 H       -2.8350     2.7220    -0.0120 H     1 <1>   0.0800 
 33 H       -1.0350     2.8060    -1.9190 H     1 <1>   0.0800 
 34 H        0.6310     2.6470    -1.4820 H     1 <1>   0.0800 
 35 H        0.6000     3.4290     1.4660 H     1 <1>   0.0800 
 36 H        0.1000     1.9160     2.1230 H     1 <1>   0.0800 
 37 H       -2.2260     1.4650     1.8250 H     1 <1>   0.4000 
 38 H       -2.9390     4.8680     1.0880 H     1 <1>   0.0800 
 39 H       -1.2660     4.7750     1.5700 H     1 <1>   0.0800 
 40 H       -1.4950     6.1820    -0.4200 H     1 <1>   0.0800 
 41 H       -2.3090     4.9000    -1.2650 H     1 <1>   0.0800 
 42 H        1.0800    -0.2370     1.1820 H     1 <1>   0.1500 
 43 H        2.6720     3.6110     0.2800 H     1 <1>   0.1500 
 44 H        0.2890     7.2850    -1.4780 H     1 <1>   0.0800 
 45 H        0.6160     6.7840     0.1610 H     1 <1>   0.0800 
 46 H        3.1940    -1.2670     0.5110 H     1 <1>   0.1500 
 47 H        4.7860     2.5840    -0.3940 H     1 <1>   0.1500 
 48 H        2.6980     7.2410    -1.9720 H     1 <1>   0.0800 
 49 H        3.0300     6.7010    -0.3460 H     1 <1>   0.0800 
 50 H        5.0630     0.1360    -0.2770 H     1 <1>   0.1500 
 51 H        4.8010    11.1930    -0.5850 H     1 <1>   0.0800 
 52 H        5.7310     9.0920    -0.5910 H     1 <1>   0.0800 
 53 H        5.0710     9.2420    -2.2070 H     1 <1>   0.0800 
 54 H        4.8360     7.7750    -1.2870 H     1 <1>   0.0800 
 55 H        2.6860    10.8460     1.5270 H     1 <1>   0.0800 
 56 H        4.3910    10.5360     1.7210 H     1 <1>   0.0800 
 57 H        3.0160    11.6260    -2.1740 H     1 <1>   0.0800 
 58 H        1.8290    11.5290    -0.9010 H     1 <1>   0.0800 
 59 H        3.7160    12.7730     2.5860 H     1 <1>   0.0800 
 60 H        4.9000    12.8910     1.3160 H     1 <1>   0.0800 
 61 H        4.0470    13.5680    -1.1070 H     1 <1>   0.0800 
 62 H        2.3450    13.8640    -1.3120 H     1 <1>   0.0800 
 63 H        3.1350    14.5450     0.9430 H     1 <1>   0.0800 
 64 H        1.9160    13.3070     1.0260 H     1 <1>   0.0800 
@<TRIPOS>BOND
  1   1   2  ar  
  2   2   3  ar  
  3   2   4  1   
  4   4   5  1   
  5   4   6  1   
  6   4   7  1   
  7   5   8  1   
  8   5   9  1   
  9   5  32  1   
 10   6  10  1   
 11   6  33  1   
 12   6  34  1   
 13   7  11  1   
 14   7  35  1   
 15   7  36  1   
 16   8  37  1   
 17   9  12  1   
 18   9  38  1   
 19   9  39  1   
 20  10  12  1   
 21  10  13  am  
 22  11  14  ar  
 23  11  15  ar  
 24  12  40  1   
 25  12  41  1   
 26  13  16  2   
 27  13  17  1   
 28  14  18  ar  
 29  14  42  1   
 30  15  19  ar  
 31  15  43  1   
 32  17  20  1   
 33  17  44  1   
 34  17  45  1   
 35  18  21  ar  
 36  18  46  1   
 37  19  21  ar  
 38  19  47  1   
 39  20  22  1   
 40  20  48  1   
 41  20  49  1   
 42  21  50  1   
 43  22  23  2   
 44  22  24  am  
 45  24  25  1   
 46  24  26  1   
 47  25  27  1   
 48  25  28  1   
 49  25  51  1   
 50  26  52  1   
 51  26  53  1   
 52  26  54  1   
 53  27  29  1   
 54  27  55  1   
 55  27  56  1   
 56  28  30  1   
 57  28  57  1   
 58  28  58  1   
 59  29  31  1   
 60  29  59  1   
 61  29  60  1   
 62  30  31  1   
 63  30  61  1   
 64  30  62  1   
 65  31  63  1   
 66  31  64  1   
@<TRIPOS>SUBSTRUCTURE
  1 ****  13 GROUP 4 **** **** 0

# MOE 2024.06 (io_trps.svl 2023.06)
