@<TRIPOS>MOLECULE
NONAME
60 63 1 0 0 
SMALL
USER_CHARGES


@<TRIPOS>ATOM
  1 O        0.2790     0.5920    -0.9430 O.2   1 <1>  -0.5700 
  2 C        0.0840     1.7470    -0.6460 C.2   1 <1>   0.5690 
  3 N       -1.0920     2.1760    -0.0940 N.am  1 <1>  -0.6600 
  4 C        1.1980     2.7560    -0.9350 C.3   1 <1>   0.1810 
  5 C       -1.3150     3.6180     0.2610 C.3   1 <1>   0.3640 
  6 C       -2.1820     1.2300     0.2860 C.3   1 <1>   0.0600 
  7 O        1.0940     3.9320    -0.1710 O.3   1 <1>  -0.5600 
  8 C       -2.6610     4.0740    -0.3270 C.ar  1 <1>  -0.1430 
  9 C       -0.1780     4.5530    -0.2360 C.3   1 <1>   0.2610 
 10 C       -3.7020     4.5760     0.4560 C.ar  1 <1>  -0.1430 
 11 C       -2.8470     3.9710    -1.7020 C.ar  1 <1>  -0.1500 
 12 C       -0.1510     5.8840     0.5310 C.2   1 <1>   0.5690 
 13 C       -4.8800     4.9850    -0.1530 C.ar  1 <1>  -0.1500 
 14 C       -3.6150     4.6950     1.9730 C.3   1 <1>  -0.0960 
 15 C       -4.0260     4.3780    -2.2990 C.ar  1 <1>  -0.1500 
 16 O       -0.5370     5.9220     1.6780 O.2   1 <1>  -0.5700 
 17 N        0.3410     7.0160    -0.0730 N.am  1 <1>  -0.6600 
 18 C       -5.0440     4.8910    -1.5210 C.ar  1 <1>  -0.1500 
 19 C        0.4740     8.3010     0.6460 C.3   1 <1>   0.1400 
 20 C        1.1880     7.0250    -1.2870 C.3   1 <1>   0.1400 
 21 C        1.8690     8.7990     0.2550 C.3   1 <1>   0.0000 
 22 C        1.9750     8.3350    -1.2100 C.3   1 <1>  -0.1600 
 23 C        2.9300     8.1090     1.1420 C.3   1 <1>  -0.1600 
 24 C        2.0000    10.3250     0.4010 C.3   1 <1>  -0.1600 
 25 C        4.3420     8.6310     0.8840 C.3   1 <1>   0.3430 
 26 C        3.4270    10.8050     0.1330 C.3   1 <1>   0.3430 
 27 N        4.3730    10.1120     1.0570 N.4   1 <1>  -0.9590 
 28 C        5.7620    10.6360     0.8900 C.3   1 <1>   0.2630 
 29 H        1.1780     3.0200    -1.9760 H     1 <1>   0.0800 
 30 H        2.1470     2.3040    -0.7110 H     1 <1>   0.0800 
 31 H       -1.3390     3.6700     1.3330 H     1 <1>   0.0800 
 32 H       -2.4630     1.3890     1.3120 H     1 <1>   0.0800 
 33 H       -1.8570     0.2100     0.1730 H     1 <1>   0.0800 
 34 H       -3.0400     1.3880    -0.3440 H     1 <1>   0.0800 
 35 H       -0.3580     4.7840    -1.2680 H     1 <1>   0.0800 
 36 H       -2.0720     3.5600    -2.3250 H     1 <1>   0.1500 
 37 H       -5.6860     5.3830     0.4390 H     1 <1>   0.1500 
 38 H       -4.5820     4.8990     2.3970 H     1 <1>   0.0800 
 39 H       -2.9590     5.4990     2.2460 H     1 <1>   0.0800 
 40 H       -3.2570     3.7800     2.4080 H     1 <1>   0.0800 
 41 H       -4.1510     4.2930    -3.3640 H     1 <1>   0.1500 
 42 H       -5.9630     5.2130    -1.9780 H     1 <1>   0.1500 
 43 H       -0.2900     8.9720     0.2920 H     1 <1>   0.0800 
 44 H        0.3690     8.1790     1.7110 H     1 <1>   0.0800 
 45 H        1.8590     6.1820    -1.2690 H     1 <1>   0.0800 
 46 H        0.5780     6.9870    -2.1740 H     1 <1>   0.0800 
 47 H        2.9840     8.2000    -1.5530 H     1 <1>   0.0800 
 48 H        1.4910     9.0430    -1.8610 H     1 <1>   0.0800 
 49 H        2.9190     7.0450     0.9760 H     1 <1>   0.0800 
 50 H        2.6920     8.2600     2.1800 H     1 <1>   0.0800 
 51 H        1.7110    10.6230     1.3940 H     1 <1>   0.0800 
 52 H        1.3300    10.8180    -0.2820 H     1 <1>   0.0800 
 53 H        4.6450     8.3740    -0.1180 H     1 <1>   0.0800 
 54 H        5.0270     8.1630     1.5730 H     1 <1>   0.0800 
 55 H        3.4800    11.8720     0.2820 H     1 <1>   0.0800 
 56 H        3.6930    10.5910    -0.8900 H     1 <1>   0.0800 
 57 H        4.0630    10.3120     2.0200 H     1 <1>   0.4500 
 58 H        6.1180    10.4420    -0.1090 H     1 <1>   0.0800 
 59 H        6.4280    10.1590     1.5920 H     1 <1>   0.0800 
 60 H        5.7850    11.6990     1.0640 H     1 <1>   0.0800 
@<TRIPOS>BOND
  1   1   2  2   
  2   2   3  am  
  3   2   4  1   
  4   3   5  1   
  5   3   6  1   
  6   4   7  1   
  7   4  29  1   
  8   4  30  1   
  9   5   8  1   
 10   5   9  1   
 11   5  31  1   
 12   6  32  1   
 13   6  33  1   
 14   6  34  1   
 15   7   9  1   
 16   8  10  ar  
 17   8  11  ar  
 18   9  12  1   
 19   9  35  1   
 20  10  13  ar  
 21  10  14  1   
 22  11  15  ar  
 23  11  36  1   
 24  12  16  2   
 25  12  17  am  
 26  13  18  ar  
 27  13  37  1   
 28  14  38  1   
 29  14  39  1   
 30  14  40  1   
 31  15  18  ar  
 32  15  41  1   
 33  17  19  1   
 34  17  20  1   
 35  18  42  1   
 36  19  21  1   
 37  19  43  1   
 38  19  44  1   
 39  20  22  1   
 40  20  45  1   
 41  20  46  1   
 42  21  22  1   
 43  21  23  1   
 44  21  24  1   
 45  22  47  1   
 46  22  48  1   
 47  23  25  1   
 48  23  49  1   
 49  23  50  1   
 50  24  26  1   
 51  24  51  1   
 52  24  52  1   
 53  25  27  1   
 54  25  53  1   
 55  25  54  1   
 56  26  27  1   
 57  26  55  1   
 58  26  56  1   
 59  27  28  1   
 60  27  57  1   
 61  28  58  1   
 62  28  59  1   
 63  28  60  1   
@<TRIPOS>SUBSTRUCTURE
  1 ****  12 GROUP 4 **** **** 0

# MOE 2024.06 (io_trps.svl 2023.06)
