@<TRIPOS>MOLECULE
NONAME
46 47 1 0 0 
SMALL
USER_CHARGES


@<TRIPOS>ATOM
  1 CL      -4.5230    -1.5990    -2.2260 Cl    1 <1>  -0.1770 
  2 C       -4.0950     0.0030    -1.6430 C.ar  1 <1>   0.1770 
  3 C       -4.4530     1.1110    -2.4040 C.ar  1 <1>   0.0830 
  4 C       -3.4270     0.1530    -0.4340 C.ar  1 <1>  -0.1440 
  5 O       -5.1410     0.9670    -3.5530 O.3   1 <1>  -0.5320 
  6 C       -4.1100     2.3830    -1.9740 C.ar  1 <1>  -0.1500 
  7 C       -3.0920     1.4340    -0.0140 C.ar  1 <1>  -0.1500 
  8 C       -3.0640    -1.0490     0.4260 C.3   1 <1>   0.2530 
  9 C       -3.4290     2.5390    -0.7790 C.ar  1 <1>  -0.1500 
 10 N       -4.2930    -1.7080     0.9080 N.3   1 <1>  -0.8100 
 11 C       -4.0340    -3.0790     1.3790 C.3   1 <1>   0.2900 
 12 C       -5.0590    -0.8880     1.8890 C.3   1 <1>   0.1100 
 13 C       -5.1560    -3.9370     0.8520 C.2   1 <1>  -0.3320 
 14 C       -6.5730    -1.1730     1.8100 C.3   1 <1>   0.3430 
 15 N       -5.3330    -4.1780    -0.4610 N.pl3 1 <1>   0.0330 
 16 C       -6.1430    -4.5980     1.4950 C.2   1 <1>   0.0770 
 17 N       -6.9730    -1.3220     0.3830 N.4   1 <1>  -0.9590 
 18 C       -6.4360    -4.9510    -0.5350 C.2   1 <1>   0.0060 
 19 N       -6.9600    -5.2100     0.6180 N.2   1 <1>  -0.5650 
 20 C       -7.0810    -0.0260    -0.3450 C.3   1 <1>   0.2630 
 21 C       -8.1910    -2.1680     0.2210 C.3   1 <1>   0.2630 
 22 C       -6.9900    -5.4600    -1.8480 C.3   1 <1>  -0.0600 
 23 H       -5.1960     1.7830    -4.0840 H     1 <1>   0.4500 
 24 H       -4.3680     3.2490    -2.5570 H     1 <1>   0.1500 
 25 H       -2.5620     1.5820     0.9130 H     1 <1>   0.1500 
 26 H       -2.4500    -0.7550     1.2600 H     1 <1>   0.0800 
 27 H       -2.4940    -1.7320    -0.1820 H     1 <1>   0.0800 
 28 H       -3.1560     3.5260    -0.4430 H     1 <1>   0.1500 
 29 H       -3.9870    -3.1210     2.4550 H     1 <1>   0.0800 
 30 H       -3.1020    -3.4560     0.9890 H     1 <1>   0.0800 
 31 H       -4.9200     0.1580     1.6820 H     1 <1>   0.0800 
 32 H       -4.7020    -1.0590     2.8910 H     1 <1>   0.0800 
 33 H       -7.1360    -0.3880     2.2880 H     1 <1>   0.0800 
 34 H       -6.7690    -2.0950     2.3310 H     1 <1>   0.0800 
 35 H       -4.7570    -3.8390    -1.2410 H     1 <1>   0.2700 
 36 H       -6.3190    -4.6670     2.5560 H     1 <1>   0.1500 
 37 H       -6.1510    -1.8380    -0.0020 H     1 <1>   0.4500 
 38 H       -7.9220     0.5410     0.0190 H     1 <1>   0.0800 
 39 H       -7.2080    -0.2030    -1.4010 H     1 <1>   0.0800 
 40 H       -6.1830     0.5550    -0.2050 H     1 <1>   0.0800 
 41 H       -9.0580    -1.6550     0.6010 H     1 <1>   0.0800 
 42 H       -8.0770    -3.0950     0.7580 H     1 <1>   0.0800 
 43 H       -8.3480    -2.3980    -0.8200 H     1 <1>   0.0800 
 44 H       -7.2210    -4.6390    -2.5020 H     1 <1>   0.0800 
 45 H       -7.8870    -6.0260    -1.6710 H     1 <1>   0.0800 
 46 H       -6.2710    -6.1010    -2.3250 H     1 <1>   0.0800 
@<TRIPOS>BOND
  1   1   2  1   
  2   2   3  ar  
  3   2   4  ar  
  4   3   5  1   
  5   3   6  ar  
  6   4   7  ar  
  7   4   8  1   
  8   5  23  1   
  9   6   9  ar  
 10   6  24  1   
 11   7   9  ar  
 12   7  25  1   
 13   8  10  1   
 14   8  26  1   
 15   8  27  1   
 16   9  28  1   
 17  10  11  1   
 18  10  12  1   
 19  11  13  1   
 20  11  29  1   
 21  11  30  1   
 22  12  14  1   
 23  12  31  1   
 24  12  32  1   
 25  13  15  1   
 26  13  16  2   
 27  14  17  1   
 28  14  33  1   
 29  14  34  1   
 30  15  18  1   
 31  15  35  1   
 32  16  19  1   
 33  16  36  1   
 34  17  20  1   
 35  17  21  1   
 36  17  37  1   
 37  18  19  2   
 38  18  22  1   
 39  20  38  1   
 40  20  39  1   
 41  20  40  1   
 42  21  41  1   
 43  21  42  1   
 44  21  43  1   
 45  22  44  1   
 46  22  45  1   
 47  22  46  1   
@<TRIPOS>SUBSTRUCTURE
  1 ****  10 GROUP 4 **** **** 0

# MOE 2024.06 (io_trps.svl 2023.06)
