@<TRIPOS>MOLECULE
NONAME
59 62 1 0 0 
SMALL
USER_CHARGES


@<TRIPOS>ATOM
  1 O        2.3780     0.1750    -2.6820 O.3   1 <1>  -0.6800 
  2 C        3.0540     0.8370    -1.6570 C.3   1 <1>   0.2000 
  3 C        3.5370     0.0340    -0.3340 C.3   1 <1>   0.0000 
  4 C        2.3210     2.1050    -1.2380 C.3   1 <1>  -0.1600 
  5 C        4.8730     0.9280    -0.3560 C.3   1 <1>   0.2090 
  6 C        2.1820    -0.8210    -0.2330 C.3   1 <1>   0.1200 
  7 C        4.1120    -0.7600     0.9440 C.3   1 <1>  -0.0170 
  8 C        3.1160     2.7620    -0.1000 C.3   1 <1>   0.2090 
  9 N        4.5850     2.4190    -0.2180 N.pl3 1 <1>  -0.8380 
 10 O        1.4130    -0.3490     0.8390 O.3   1 <1>  -0.6800 
 11 C        5.3250    -1.6350     0.6060 C.ar  1 <1>  -0.1440 
 12 C        5.5670     3.3650    -0.1390 C.ar  1 <1>   0.4100 
 13 C        6.3870    -1.7130     1.4960 C.ar  1 <1>  -0.1500 
 14 C        5.3820    -2.3540    -0.5800 C.ar  1 <1>  -0.1500 
 15 N        5.2180     4.5950     0.1890 N.ar  1 <1>  -0.6200 
 16 C        6.9180     3.0460    -0.3960 C.ar  1 <1>  -0.1500 
 17 C        7.4950    -2.4880     1.2000 C.ar  1 <1>  -0.1500 
 18 C        6.4910    -3.1270    -0.8770 C.ar  1 <1>  -0.1500 
 19 C        6.1580     5.5230     0.2820 C.ar  1 <1>   0.7710 
 20 C        7.8650     4.0100    -0.2990 C.ar  1 <1>   0.2170 
 21 C        7.5490    -3.1930     0.0120 C.ar  1 <1>  -0.1500 
 22 N        7.4510     5.2500     0.0450 N.ar  1 <1>  -0.1790 
 23 N        5.8090     6.7880     0.6230 N.pl3 1 <1>  -0.8380 
 24 C        9.3430     3.7700    -0.5570 C.3   1 <1>  -0.0960 
 25 C        6.6870     7.9680     0.8500 C.3   1 <1>   0.2090 
 26 C        4.3860     7.1610     0.8660 C.3   1 <1>   0.2090 
 27 C        5.7940     9.0020     1.5220 C.3   1 <1>  -0.1600 
 28 C        4.3910     8.6740     1.0280 C.3   1 <1>  -0.1600 
 29 H        2.0970     0.8110    -3.3680 H     1 <1>   0.4000 
 30 H        3.8760     1.2100    -2.2480 H     1 <1>   0.0800 
 31 H        2.2630     2.7880    -2.0660 H     1 <1>   0.0800 
 32 H        1.3270     1.8830    -0.8930 H     1 <1>   0.0800 
 33 H        5.4290     0.7350    -1.2590 H     1 <1>   0.0800 
 34 H        5.6160     0.7440     0.4020 H     1 <1>   0.0800 
 35 H        2.3620    -1.8770    -0.1020 H     1 <1>   0.0800 
 36 H        1.4700    -0.8220    -1.0280 H     1 <1>   0.0800 
 37 H        4.3550    -0.0610     1.7310 H     1 <1>   0.0800 
 38 H        3.4800    -1.4440     1.4880 H     1 <1>   0.0800 
 39 H        2.7560     2.3910     0.8450 H     1 <1>   0.0800 
 40 H        2.9430     3.8240    -0.1180 H     1 <1>   0.0800 
 41 H        1.8560    -0.5110     1.6930 H     1 <1>   0.4000 
 42 H        6.3580    -1.1740     2.4270 H     1 <1>   0.1500 
 43 H        4.5680    -2.3220    -1.2840 H     1 <1>   0.1500 
 44 H        7.1840     2.0450    -0.6710 H     1 <1>   0.1500 
 45 H        8.3140    -2.5460     1.8950 H     1 <1>   0.1500 
 46 H        6.5290    -3.6790    -1.8000 H     1 <1>   0.1500 
 47 H        8.4100    -3.7960    -0.2190 H     1 <1>   0.1500 
 48 H        8.0830     6.0330     0.1340 H     1 <1>   0.4570 
 49 H        9.5170     2.7410    -0.8180 H     1 <1>   0.0800 
 50 H        9.9190     3.9940     0.3230 H     1 <1>   0.0800 
 51 H        9.6870     4.3850    -1.3700 H     1 <1>   0.0800 
 52 H        7.5270     7.7300     1.4820 H     1 <1>   0.0800 
 53 H        7.0290     8.3500    -0.0980 H     1 <1>   0.0800 
 54 H        3.7550     6.8570     0.0470 H     1 <1>   0.0800 
 55 H        4.0450     6.6890     1.7740 H     1 <1>   0.0800 
 56 H        5.8440     8.8720     2.5890 H     1 <1>   0.0800 
 57 H        6.0880    10.0080     1.2790 H     1 <1>   0.0800 
 58 H        4.2210     9.1300     0.0680 H     1 <1>   0.0800 
 59 H        3.6270     9.0050     1.7100 H     1 <1>   0.0800 
@<TRIPOS>BOND
  1   1   2  1   
  2   1  29  1   
  3   2   3  1   
  4   2   4  1   
  5   2  30  1   
  6   3   5  1   
  7   3   6  1   
  8   3   7  1   
  9   4   8  1   
 10   4  31  1   
 11   4  32  1   
 12   5   9  1   
 13   5  33  1   
 14   5  34  1   
 15   6  10  1   
 16   6  35  1   
 17   6  36  1   
 18   7  11  1   
 19   7  37  1   
 20   7  38  1   
 21   8   9  1   
 22   8  39  1   
 23   8  40  1   
 24   9  12  1   
 25  10  41  1   
 26  11  13  ar  
 27  11  14  ar  
 28  12  15  ar  
 29  12  16  ar  
 30  13  17  ar  
 31  13  42  1   
 32  14  18  ar  
 33  14  43  1   
 34  15  19  ar  
 35  16  20  ar  
 36  16  44  1   
 37  17  21  ar  
 38  17  45  1   
 39  18  21  ar  
 40  18  46  1   
 41  19  22  ar  
 42  19  23  1   
 43  20  22  ar  
 44  20  24  1   
 45  21  47  1   
 46  22  48  1   
 47  23  25  1   
 48  23  26  1   
 49  24  49  1   
 50  24  50  1   
 51  24  51  1   
 52  25  27  1   
 53  25  52  1   
 54  25  53  1   
 55  26  28  1   
 56  26  54  1   
 57  26  55  1   
 58  27  28  1   
 59  27  56  1   
 60  27  57  1   
 61  28  58  1   
 62  28  59  1   
@<TRIPOS>SUBSTRUCTURE
  1 ****   9 GROUP 4 **** **** 0

# MOE 2024.06 (io_trps.svl 2023.06)
