@<TRIPOS>MOLECULE
NONAME
35 37 1 0 0 
SMALL
USER_CHARGES


@<TRIPOS>ATOM
  1 CL      -0.2410    -0.8760     2.0070 Cl    1 <1>  -0.1770 
  2 C        0.4010    -2.2480     1.1380 C.ar  1 <1>   0.1770 
  3 C       -0.4730    -3.1650     0.5820 C.ar  1 <1>  -0.1500 
  4 C        1.7710    -2.3900     1.0170 C.ar  1 <1>  -0.1500 
  5 C        0.0250    -4.2580    -0.1130 C.ar  1 <1>  -0.1440 
  6 C        2.2740    -3.4830     0.3330 C.ar  1 <1>  -0.1500 
  7 C        1.4040    -4.4160    -0.2130 C.ar  1 <1>   0.0830 
  8 C       -0.9280    -5.2380    -0.7770 C.3   1 <1>   0.2540 
  9 O        1.9310    -5.4880    -0.8360 O.3   1 <1>  -0.3630 
 10 N       -0.8440    -6.5740    -0.1560 N.3   1 <1>  -0.8100 
 11 C        1.6770    -6.7380    -0.2290 C.3   1 <1>   0.1200 
 12 C        0.3270    -7.3220    -0.6710 C.3   1 <1>   0.1100 
 13 C       -2.0940    -7.3310    -0.3690 C.3   1 <1>   0.1100 
 14 C       -2.3100    -8.3350     0.7660 C.3   1 <1>   0.0960 
 15 N       -3.4880    -9.1750     0.4830 N.pl3 1 <1>   0.3140 
 16 N       -4.7140    -8.6480     0.2540 N.2   1 <1>  -0.7070 
 17 C       -3.5060   -10.5250     0.4100 C.2   1 <1>  -0.3020 
 18 C       -5.4880    -9.6730     0.0430 C.2   1 <1>   0.1390 
 19 C       -4.7780   -10.8600     0.1300 C.2   1 <1>   0.1230 
 20 CL      -5.4370   -12.4720    -0.0880 Cl    1 <1>  -0.1230 
 21 H       -1.5310    -3.0130     0.6930 H     1 <1>   0.1500 
 22 H        2.4270    -1.6590     1.4520 H     1 <1>   0.1500 
 23 H        3.3340    -3.6230     0.2250 H     1 <1>   0.1500 
 24 H       -0.7110    -5.3010    -1.8300 H     1 <1>   0.0800 
 25 H       -1.9270    -4.8500    -0.6740 H     1 <1>   0.0800 
 26 H        1.7110    -6.6240     0.8400 H     1 <1>   0.0800 
 27 H        2.4700    -7.3980    -0.5310 H     1 <1>   0.0800 
 28 H        0.2970    -7.3710    -1.7470 H     1 <1>   0.0800 
 29 H        0.2870    -8.3310    -0.3020 H     1 <1>   0.0800 
 30 H       -2.0660    -7.8350    -1.3210 H     1 <1>   0.0800 
 31 H       -2.9380    -6.6610    -0.3670 H     1 <1>   0.0800 
 32 H       -2.4850    -7.8060     1.6850 H     1 <1>   0.0800 
 33 H       -1.4550    -8.9710     0.8790 H     1 <1>   0.0800 
 34 H       -2.6480   -11.1510     0.5580 H     1 <1>   0.1500 
 35 H       -6.5410    -9.6050    -0.1700 H     1 <1>   0.1500 
@<TRIPOS>BOND
  1   1   2  1   
  2   2   3  ar  
  3   2   4  ar  
  4   3   5  ar  
  5   3  21  1   
  6   4   6  ar  
  7   4  22  1   
  8   5   7  ar  
  9   5   8  1   
 10   6   7  ar  
 11   6  23  1   
 12   7   9  1   
 13   8  10  1   
 14   8  24  1   
 15   8  25  1   
 16   9  11  1   
 17  10  12  1   
 18  10  13  1   
 19  11  12  1   
 20  11  26  1   
 21  11  27  1   
 22  12  28  1   
 23  12  29  1   
 24  13  14  1   
 25  13  30  1   
 26  13  31  1   
 27  14  15  1   
 28  14  32  1   
 29  14  33  1   
 30  15  16  1   
 31  15  17  1   
 32  16  18  2   
 33  17  19  2   
 34  17  34  1   
 35  18  19  1   
 36  18  35  1   
 37  19  20  1   
@<TRIPOS>SUBSTRUCTURE
  1 ****  10 GROUP 4 **** **** 0

# MOE 2024.06 (io_trps.svl 2023.06)
