@<TRIPOS>MOLECULE
NONAME
54 58 1 0 0 
SMALL
USER_CHARGES


@<TRIPOS>ATOM
  1 O        0.7820    -0.5860    -1.2640 O.3   1 <1>  -0.5600 
  2 C        1.8170    -1.0090    -0.4010 C.3   1 <1>   0.4600 
  3 C       -0.5470    -0.8740    -0.9000 C.3   1 <1>   0.1200 
  4 C        1.4880    -2.3980     0.1360 C.2   1 <1>  -0.3320 
  5 C        1.9680     0.0060     0.7350 C.3   1 <1>  -0.1600 
  6 C        3.0920    -1.0500    -1.2420 C.3   1 <1>  -0.1600 
  7 C       -0.7960    -2.3910    -0.8600 C.3   1 <1>   0.0210 
  8 N        2.3070    -3.1970     0.8850 N.pl3 1 <1>   0.0330 
  9 C        0.3160    -3.0320    -0.0680 C.2   1 <1>  -0.1810 
 10 C        2.3430     1.3890     0.2060 C.3   1 <1>   0.2090 
 11 C        3.4530     0.3400    -1.7570 C.3   1 <1>   0.2090 
 12 C        1.6320    -4.3640     1.1530 C.ar  1 <1>  -0.1520 
 13 C        0.3730    -4.2910     0.5630 C.ar  1 <1>   0.0000 
 14 N        3.5910     1.2890    -0.6080 N.pl3 1 <1>  -0.8380 
 15 C        2.0210    -5.4970     1.8720 C.ar  1 <1>  -0.1500 
 16 C       -0.5140    -5.3650     0.6880 C.ar  1 <1>  -0.1500 
 17 C        4.7730     1.8640    -0.2850 C.ar  1 <1>   0.4100 
 18 C        1.1380    -6.5460     1.9890 C.ar  1 <1>  -0.1500 
 19 C       -0.1290    -6.4800     1.3970 C.ar  1 <1>  -0.1500 
 20 N        5.8460     1.0760    -0.4460 N.ar  1 <1>  -0.6200 
 21 C        4.9240     3.1840     0.2040 C.ar  1 <1>  -0.1440 
 22 C        7.0030     1.5100    -0.0670 C.ar  1 <1>   0.5280 
 23 C        6.1690     3.5880     0.6180 C.ar  1 <1>   0.2180 
 24 C        3.7450     4.1660     0.2050 C.3   1 <1>  -0.0970 
 25 N        7.1930     2.7250     0.4740 N.ar  1 <1>  -0.1790 
 26 C        8.2020     0.6010    -0.2400 C.3   1 <1>  -0.0970 
 27 C        6.5000     4.9510     1.2170 C.3   1 <1>  -0.0970 
 28 H       -1.1940    -0.4110    -1.6240 H     1 <1>   0.0800 
 29 H       -0.7410    -0.4390     0.0640 H     1 <1>   0.0800 
 30 H        2.7420    -0.3240     1.4030 H     1 <1>   0.0800 
 31 H        1.0600     0.0600     1.3040 H     1 <1>   0.0800 
 32 H        2.9470    -1.7220    -2.0680 H     1 <1>   0.0800 
 33 H        3.9100    -1.4200    -0.6550 H     1 <1>   0.0800 
 34 H       -0.8070    -2.7880    -1.8590 H     1 <1>   0.0800 
 35 H       -1.7440    -2.5910    -0.3970 H     1 <1>   0.0800 
 36 H        3.2610    -2.9870     1.1880 H     1 <1>   0.2700 
 37 H        2.4890     2.0410     1.0460 H     1 <1>   0.0800 
 38 H        1.5470     1.7810    -0.4050 H     1 <1>   0.0800 
 39 H        2.6780     0.6960    -2.4160 H     1 <1>   0.0800 
 40 H        4.3660     0.2930    -2.3260 H     1 <1>   0.0800 
 41 H        2.9960    -5.5400     2.3230 H     1 <1>   0.1500 
 42 H       -1.4810    -5.3010     0.2280 H     1 <1>   0.1500 
 43 H        1.4140    -7.4300     2.5380 H     1 <1>   0.1500 
 44 H       -0.8000    -7.3140     1.5020 H     1 <1>   0.1500 
 45 H        3.0310     3.9050    -0.5560 H     1 <1>   0.0800 
 46 H        4.0680     5.1670    -0.0170 H     1 <1>   0.0800 
 47 H        3.2530     4.1670     1.1610 H     1 <1>   0.0800 
 48 H        8.1340     2.9920     0.7590 H     1 <1>   0.4570 
 49 H        7.8960    -0.3310    -0.6840 H     1 <1>   0.0800 
 50 H        8.6510     0.3860     0.7130 H     1 <1>   0.0800 
 51 H        8.9280     1.0570    -0.8870 H     1 <1>   0.0800 
 52 H        5.6280     5.4210     1.6350 H     1 <1>   0.0800 
 53 H        6.9050     5.5990     0.4590 H     1 <1>   0.0800 
 54 H        7.2180     4.8550     2.0120 H     1 <1>   0.0800 
@<TRIPOS>BOND
  1   1   2  1   
  2   1   3  1   
  3   2   4  1   
  4   2   5  1   
  5   2   6  1   
  6   3   7  1   
  7   3  28  1   
  8   3  29  1   
  9   4   8  1   
 10   4   9  2   
 11   5  10  1   
 12   5  30  1   
 13   5  31  1   
 14   6  11  1   
 15   6  32  1   
 16   6  33  1   
 17   7   9  1   
 18   7  34  1   
 19   7  35  1   
 20   8  12  1   
 21   8  36  1   
 22   9  13  1   
 23  10  14  1   
 24  10  37  1   
 25  10  38  1   
 26  11  14  1   
 27  11  39  1   
 28  11  40  1   
 29  12  13  ar  
 30  12  15  ar  
 31  13  16  ar  
 32  14  17  1   
 33  15  18  ar  
 34  15  41  1   
 35  16  19  ar  
 36  16  42  1   
 37  17  20  ar  
 38  17  21  ar  
 39  18  19  ar  
 40  18  43  1   
 41  19  44  1   
 42  20  22  ar  
 43  21  23  ar  
 44  21  24  1   
 45  22  25  ar  
 46  22  26  1   
 47  23  25  ar  
 48  23  27  1   
 49  24  45  1   
 50  24  46  1   
 51  24  47  1   
 52  25  48  1   
 53  26  49  1   
 54  26  50  1   
 55  26  51  1   
 56  27  52  1   
 57  27  53  1   
 58  27  54  1   
@<TRIPOS>SUBSTRUCTURE
  1 ****   2 GROUP 4 **** **** 0

# MOE 2024.06 (io_trps.svl 2023.06)
