@<TRIPOS>MOLECULE
NONAME
42 45 1 0 0 
SMALL
USER_CHARGES


@<TRIPOS>ATOM
  1 O       -0.9830     4.2100    -2.5880 O.2   1 <1>  -0.5700 
  2 C       -0.6350     3.7260    -1.5150 C.2   1 <1>   0.5440 
  3 N       -1.6620     3.3020    -0.6730 N.am  1 <1>  -0.6600 
  4 C        0.7760     3.6110    -1.2060 C.ar  1 <1>   0.3960 
  5 C       -3.0730     3.7650    -0.8940 C.3   1 <1>   0.1400 
  6 C       -1.4200     2.3980     0.4920 C.3   1 <1>   0.1400 
  7 N        1.2200     3.6580     0.0810 N.ar  1 <1>  -0.6200 
  8 C        1.6820     3.4540    -2.2660 C.ar  1 <1>   0.1600 
  9 C       -3.8320     3.9260     0.4360 C.3   1 <1>   0.1440 
 10 C       -2.6960     1.6400     0.8750 C.3   1 <1>  -0.1600 
 11 C        2.5140     3.5210     0.1880 C.ar  1 <1>   0.1600 
 12 N        2.9810     3.3100    -2.1680 N.ar  1 <1>  -0.6200 
 13 C       -5.2140     4.4820     0.1310 C.ar  1 <1>   0.1670 
 14 C       -3.8850     2.5710     1.1930 C.3   1 <1>  -0.1600 
 15 C       -3.2080     5.0650     1.2970 C.3   1 <1>  -0.1600 
 16 C        3.4070     3.3390    -0.8940 C.ar  1 <1>   0.1390 
 17 N       -6.2110     3.8070    -0.4010 N.ar  1 <1>  -0.6200 
 18 C       -5.3110     5.8020     0.4560 C.ar  1 <1>  -0.1440 
 19 C       -4.0220     6.3400     1.0210 C.3   1 <1>  -0.0170 
 20 O        4.6220     3.1990    -0.6820 O.3   1 <1>  -0.8290 
 21 C       -7.3180     4.5120    -0.5810 C.ar  1 <1>   0.4770 
 22 C       -6.5060     6.4350     0.2250 C.ar  1 <1>   0.1600 
 23 N       -7.5290     5.7910    -0.2980 N.ar  1 <1>  -0.6200 
 24 C       -8.4800     3.7660    -1.1890 C.3   1 <1>  -0.0970 
 25 H       -3.5820     3.0450    -1.5120 H     1 <1>   0.0800 
 26 H       -3.0720     4.7040    -1.4190 H     1 <1>   0.0800 
 27 H       -1.0820     2.9860     1.3280 H     1 <1>   0.0800 
 28 H       -0.6450     1.6920     0.2450 H     1 <1>   0.0800 
 29 H        1.2800     3.4440    -3.2610 H     1 <1>   0.1500 
 30 H       -2.4970     1.0070     1.7210 H     1 <1>   0.0800 
 31 H       -2.9570     0.9990     0.0510 H     1 <1>   0.0800 
 32 H        2.9720     3.5410     1.1580 H     1 <1>   0.1500 
 33 H       -4.7830     2.0430     0.9220 H     1 <1>   0.0800 
 34 H       -3.9410     2.7390     2.2530 H     1 <1>   0.0800 
 35 H       -2.1640     5.2210     1.0880 H     1 <1>   0.0800 
 36 H       -3.3050     4.8340     2.3420 H     1 <1>   0.0800 
 37 H       -3.5300     6.9500     0.2820 H     1 <1>   0.0800 
 38 H       -4.1850     6.9090     1.9190 H     1 <1>   0.0800 
 39 H       -6.6280     7.4770     0.4660 H     1 <1>   0.1500 
 40 H       -8.5170     2.7660    -0.7990 H     1 <1>   0.0800 
 41 H       -8.3550     3.7250    -2.2540 H     1 <1>   0.0800 
 42 H       -9.4040     4.2630    -0.9610 H     1 <1>   0.0800 
@<TRIPOS>BOND
  1   1   2  2   
  2   2   3  am  
  3   2   4  1   
  4   3   5  1   
  5   3   6  1   
  6   4   7  ar  
  7   4   8  ar  
  8   5   9  1   
  9   5  25  1   
 10   5  26  1   
 11   6  10  1   
 12   6  27  1   
 13   6  28  1   
 14   7  11  ar  
 15   8  12  ar  
 16   8  29  1   
 17   9  13  1   
 18   9  14  1   
 19   9  15  1   
 20  10  14  1   
 21  10  30  1   
 22  10  31  1   
 23  11  16  ar  
 24  11  32  1   
 25  12  16  ar  
 26  13  17  ar  
 27  13  18  ar  
 28  14  33  1   
 29  14  34  1   
 30  15  19  1   
 31  15  35  1   
 32  15  36  1   
 33  16  20  1   
 34  17  21  ar  
 35  18  19  1   
 36  18  22  ar  
 37  19  37  1   
 38  19  38  1   
 39  21  23  ar  
 40  21  24  1   
 41  22  23  ar  
 42  22  39  1   
 43  24  40  1   
 44  24  41  1   
 45  24  42  1   
@<TRIPOS>SUBSTRUCTURE
  1 ****   3 GROUP 4 **** **** 0

# MOE 2024.06 (io_trps.svl 2023.06)
