@<TRIPOS>MOLECULE
NONAME
47 48 1 0 0 
SMALL
USER_CHARGES


@<TRIPOS>ATOM
  1 S        1.3300    -0.7230    -1.3600 S.o2  1 <1>   1.3330 
  2 O        2.5410    -1.1780    -0.7140 O.2   1 <1>  -0.6500 
  3 O        1.0930    -1.0530    -2.7460 O.2   1 <1>  -0.6500 
  4 N        0.0090    -1.3240    -0.4750 N.am  1 <1>  -0.8490 
  5 C        1.1830     1.0590    -1.1540 C.3   1 <1>  -0.0550 
  6 C        0.2620    -2.6680     0.0560 C.3   1 <1>   0.1160 
  7 C       -1.2490    -1.3210    -1.2300 C.3   1 <1>   0.1160 
  8 C        1.7150     1.6720     0.1610 C.3   1 <1>  -0.0800 
  9 C        3.2380     1.5860     0.3010 C.3   1 <1>   0.2200 
 10 C        1.1920     1.0760     1.4720 C.3   1 <1>   0.1200 
 11 N        3.8020     2.9530     0.2970 N.am  1 <1>  -0.7300 
 12 C        3.4270     0.9240     1.6640 C.3   1 <1>   0.1200 
 13 O        2.2530     1.1930     2.3610 O.3   1 <1>  -0.5600 
 14 C        4.0800     3.6700    -0.8220 C.2   1 <1>   0.7150 
 15 O        3.8960     3.1460    -1.9040 O.2   1 <1>  -0.5700 
 16 C        4.5440     5.0200    -0.6900 C.2   1 <1>  -0.2370 
 17 N        4.8500     5.8500    -1.7240 N.pl3 1 <1>   0.3140 
 18 C        4.7710     5.7580     0.4340 C.2   1 <1>  -0.1500 
 19 N        5.2490     7.0580    -1.3020 N.2   1 <1>  -0.7070 
 20 C        4.7950     5.5660    -3.1680 C.3   1 <1>   0.0160 
 21 C        5.1990     6.9950    -0.0080 C.2   1 <1>   0.1080 
 22 C        5.5740     8.1640     0.8840 C.3   1 <1>   0.0210 
 23 C        4.3800     9.1000     1.0960 C.3   1 <1>  -0.2400 
 24 H        1.7160     1.5290    -1.9590 H     1 <1>   0.0800 
 25 H        0.1540     1.3340    -1.2670 H     1 <1>   0.0800 
 26 H       -0.5890    -3.0160     0.6160 H     1 <1>   0.0800 
 27 H        1.1130    -2.6500     0.7160 H     1 <1>   0.0800 
 28 H        0.4640    -3.3560    -0.7490 H     1 <1>   0.0800 
 29 H       -2.0640    -1.6210    -0.5920 H     1 <1>   0.0800 
 30 H       -1.1900    -2.0020    -2.0640 H     1 <1>   0.0800 
 31 H       -1.4580    -0.3350    -1.6060 H     1 <1>   0.0800 
 32 H        1.4210     2.7070     0.1580 H     1 <1>   0.0800 
 33 H        3.7090     1.0010    -0.4710 H     1 <1>   0.0800 
 34 H        0.9580     0.0300     1.3960 H     1 <1>   0.0800 
 35 H        0.3450     1.6130     1.8620 H     1 <1>   0.0800 
 36 H        3.7940     3.4300     1.1980 H     1 <1>   0.3700 
 37 H        4.2710     1.3070     2.2080 H     1 <1>   0.0800 
 38 H        3.5100    -0.1440     1.5570 H     1 <1>   0.0800 
 39 H        4.6510     5.4710     1.4620 H     1 <1>   0.1500 
 40 H        5.4350     4.7340    -3.3890 H     1 <1>   0.0800 
 41 H        5.1260     6.4310    -3.7130 H     1 <1>   0.0800 
 42 H        3.7840     5.3310    -3.4430 H     1 <1>   0.0800 
 43 H        5.9200     7.7940     1.8310 H     1 <1>   0.0800 
 44 H        6.3800     8.7060     0.4210 H     1 <1>   0.0800 
 45 H        3.5710     8.5710     1.5660 H     1 <1>   0.0800 
 46 H        4.0400     9.4760     0.1470 H     1 <1>   0.0800 
 47 H        4.6640     9.9300     1.7170 H     1 <1>   0.0800 
@<TRIPOS>BOND
  1   1   2  2   
  2   1   3  2   
  3   1   4  am  
  4   1   5  1   
  5   4   6  1   
  6   4   7  1   
  7   5   8  1   
  8   5  24  1   
  9   5  25  1   
 10   6  26  1   
 11   6  27  1   
 12   6  28  1   
 13   7  29  1   
 14   7  30  1   
 15   7  31  1   
 16   8   9  1   
 17   8  10  1   
 18   8  32  1   
 19   9  11  1   
 20   9  12  1   
 21   9  33  1   
 22  10  13  1   
 23  10  34  1   
 24  10  35  1   
 25  11  14  am  
 26  11  36  1   
 27  12  13  1   
 28  12  37  1   
 29  12  38  1   
 30  14  15  2   
 31  14  16  1   
 32  16  17  1   
 33  16  18  2   
 34  17  19  1   
 35  17  20  1   
 36  18  21  1   
 37  18  39  1   
 38  19  21  2   
 39  20  40  1   
 40  20  41  1   
 41  20  42  1   
 42  21  22  1   
 43  22  23  1   
 44  22  43  1   
 45  22  44  1   
 46  23  45  1   
 47  23  46  1   
 48  23  47  1   
@<TRIPOS>SUBSTRUCTURE
  1 ****  11 GROUP 4 **** **** 0

# MOE 2024.06 (io_trps.svl 2023.06)
