@<TRIPOS>MOLECULE
NONAME
48 50 1 0 0 
SMALL
USER_CHARGES


@<TRIPOS>ATOM
  1 S       -0.3860     0.1080     0.8520 S.o2  1 <1>   1.4470 
  2 O       -0.1930    -1.2170     1.4080 O.2   1 <1>  -0.6500 
  3 O       -0.9900     1.1220     1.6800 O.2   1 <1>  -0.6500 
  4 N       -1.3640    -0.1220    -0.5250 N.am  1 <1>  -0.8490 
  5 C        1.1830     0.7230     0.1790 C.ar  1 <1>  -0.0090 
  6 C       -1.4560    -1.5120    -0.9970 C.3   1 <1>   0.1960 
  7 C       -2.6810     0.5390    -0.4840 C.3   1 <1>   0.1960 
  8 C        1.2420     1.8910    -0.5870 C.ar  1 <1>   0.0730 
  9 C        2.3640     0.0300     0.4290 C.ar  1 <1>  -0.1500 
 10 C       -2.4270    -2.3630    -0.1270 C.3   1 <1>   0.4230 
 11 C       -3.6640    -0.2490     0.3960 C.3   1 <1>  -0.1600 
 12 C        0.0750     2.6690    -0.8950 C.1   1 <1>   0.4840 
 13 C        2.4710     2.3220    -1.0810 C.ar  1 <1>  -0.1500 
 14 C        3.5780     0.4670    -0.0670 C.ar  1 <1>  -0.1500 
 15 N       -2.4320    -3.8500    -0.4600 N.4   1 <1>  -0.9590 
 16 C       -3.8440    -1.7270    -0.0480 C.3   1 <1>   0.0000 
 17 N       -0.8460     3.2810    -1.1720 N.1   1 <1>  -0.5570 
 18 C        3.6310     1.6180    -0.8260 C.ar  1 <1>  -0.1500 
 19 C       -3.6230    -4.5890     0.0770 C.3   1 <1>   0.3430 
 20 C       -2.2230    -4.1970    -1.9040 C.3   1 <1>   0.2630 
 21 C       -4.6820    -2.4780     1.0290 C.3   1 <1>  -0.1600 
 22 C       -4.5470    -1.8000    -1.4340 C.3   1 <1>   0.1200 
 23 C       -4.1790    -3.9040     1.3240 C.3   1 <1>  -0.1600 
 24 O       -5.7160    -1.0600    -1.4550 O.3   1 <1>  -0.6800 
 25 H       -1.7900    -1.4930    -2.0180 H     1 <1>   0.0800 
 26 H       -0.4730    -1.9530    -0.9820 H     1 <1>   0.0800 
 27 H       -2.5890     1.5470    -0.1110 H     1 <1>   0.0800 
 28 H       -3.0720     0.6170    -1.4850 H     1 <1>   0.0800 
 29 H        2.3410    -0.8670     1.0270 H     1 <1>   0.1500 
 30 H       -2.0470    -2.2950     0.8780 H     1 <1>   0.0800 
 31 H       -3.3070    -0.2060     1.4100 H     1 <1>   0.0800 
 32 H       -4.6090     0.2650     0.3910 H     1 <1>   0.0800 
 33 H        2.5230     3.2210    -1.6730 H     1 <1>   0.1500 
 34 H        4.4800    -0.0850     0.1400 H     1 <1>   0.1500 
 35 H       -1.6220    -4.2230     0.0590 H     1 <1>   0.4500 
 36 H        4.5750     1.9660    -1.2150 H     1 <1>   0.1500 
 37 H       -4.4000    -4.6200    -0.6690 H     1 <1>   0.0800 
 38 H       -3.3480    -5.6060     0.3110 H     1 <1>   0.0800 
 39 H       -3.0220    -3.8000    -2.5080 H     1 <1>   0.0800 
 40 H       -2.2000    -5.2680    -2.0300 H     1 <1>   0.0800 
 41 H       -1.2880    -3.7970    -2.2590 H     1 <1>   0.0800 
 42 H       -4.6740    -1.9370     1.9610 H     1 <1>   0.0800 
 43 H       -5.7140    -2.5280     0.7250 H     1 <1>   0.0800 
 44 H       -4.8050    -2.8110    -1.6930 H     1 <1>   0.0800 
 45 H       -3.9250    -1.3980    -2.2130 H     1 <1>   0.0800 
 46 H       -4.9910    -4.4890     1.7190 H     1 <1>   0.0800 
 47 H       -3.4140    -3.8770     2.0820 H     1 <1>   0.0800 
 48 H       -6.3680    -1.3730    -0.7970 H     1 <1>   0.4000 
@<TRIPOS>BOND
  1   1   2  2   
  2   1   3  2   
  3   1   4  am  
  4   1   5  1   
  5   4   6  1   
  6   4   7  1   
  7   5   8  ar  
  8   5   9  ar  
  9   6  10  1   
 10   6  25  1   
 11   6  26  1   
 12   7  11  1   
 13   7  27  1   
 14   7  28  1   
 15   8  12  1   
 16   8  13  ar  
 17   9  14  ar  
 18   9  29  1   
 19  10  15  1   
 20  10  16  1   
 21  10  30  1   
 22  11  16  1   
 23  11  31  1   
 24  11  32  1   
 25  12  17  3   
 26  13  18  ar  
 27  13  33  1   
 28  14  18  ar  
 29  14  34  1   
 30  15  19  1   
 31  15  20  1   
 32  15  35  1   
 33  16  21  1   
 34  16  22  1   
 35  18  36  1   
 36  19  23  1   
 37  19  37  1   
 38  19  38  1   
 39  20  39  1   
 40  20  40  1   
 41  20  41  1   
 42  21  23  1   
 43  21  42  1   
 44  21  43  1   
 45  22  24  1   
 46  22  44  1   
 47  22  45  1   
 48  23  46  1   
 49  23  47  1   
 50  24  48  1   
@<TRIPOS>SUBSTRUCTURE
  1 ****   4 GROUP 4 **** **** 0

# MOE 2024.06 (io_trps.svl 2023.06)
