@<TRIPOS>MOLECULE
NONAME
52 54 1 0 0 
SMALL
USER_CHARGES


@<TRIPOS>ATOM
  1 O       -0.6770     0.6770     0.0540 O.2   1 <1>  -0.5700 
  2 C       -1.3150     1.6500    -0.2630 C.2   1 <1>   0.5690 
  3 N       -2.4550     1.6580    -0.9800 N.am  1 <1>  -0.6600 
  4 C       -0.9220     3.0460     0.1250 C.3   1 <1>  -0.0990 
  5 C       -3.0080     3.0130    -1.1540 C.3   1 <1>   0.1400 
  6 C       -3.1770     0.4560    -1.4560 C.3   1 <1>   0.2840 
  7 C       -2.2060     3.8570    -0.1460 C.3   1 <1>  -0.0190 
  8 C       -4.5330     0.3730    -0.7740 C.ar  1 <1>  -0.1440 
  9 C       -1.9480     5.2900    -0.5890 C.2   1 <1>   0.5690 
 10 C       -4.6120     0.0160     0.5630 C.ar  1 <1>  -0.1500 
 11 C       -5.6980     0.6560    -1.4700 C.ar  1 <1>  -0.1500 
 12 O       -2.4180     5.6820    -1.6300 O.2   1 <1>  -0.5700 
 13 N       -1.1820     6.0740     0.2300 N.am  1 <1>  -0.4940 
 14 C       -5.8400    -0.0570     1.1970 C.ar  1 <1>  -0.1500 
 15 C       -6.9260     0.5830    -0.8350 C.ar  1 <1>  -0.1500 
 16 C       -0.8340     7.4410     0.0920 C.2   1 <1>  -0.0880 
 17 C       -7.0040     0.2270     0.5020 C.ar  1 <1>  -0.1430 
 18 N        0.4070     7.9460     0.3330 N.pl3 1 <1>   0.3140 
 19 C       -1.6030     8.4950    -0.2740 C.2   1 <1>  -0.1810 
 20 C       -8.3540     0.1450     1.1980 C.3   1 <1>  -0.0170 
 21 N        0.4490     9.2820     0.1390 N.2   1 <1>  -0.7070 
 22 C        1.6260     7.1930     0.6940 C.3   1 <1>   0.0960 
 23 C       -0.7540     9.5950    -0.2270 C.2   1 <1>   0.1390 
 24 C       -3.0710     8.5370    -0.6560 C.3   1 <1>  -0.0590 
 25 C       -8.9460    -1.2580     1.0580 C.3   1 <1>  -0.2400 
 26 C        1.6920     6.9250     2.2030 C.3   1 <1>  -0.2400 
 27 H       -0.1150     3.3600    -0.5120 H     1 <1>   0.0800 
 28 H       -0.6250     3.0840     1.1560 H     1 <1>   0.0800 
 29 H       -4.0610     3.0420    -0.9320 H     1 <1>   0.0800 
 30 H       -2.8400     3.3310    -2.1700 H     1 <1>   0.0800 
 31 H       -2.6030    -0.4260    -1.2270 H     1 <1>   0.0800 
 32 H       -3.2940     0.5120    -2.5240 H     1 <1>   0.0800 
 33 H       -2.7850     3.8930     0.7590 H     1 <1>   0.0800 
 34 H       -3.7120    -0.2040     1.1120 H     1 <1>   0.1500 
 35 H       -5.6560     0.9350    -2.5080 H     1 <1>   0.1500 
 36 H       -0.8050     5.6130     1.0570 H     1 <1>   0.3700 
 37 H       -5.8840    -0.3390     2.2340 H     1 <1>   0.1500 
 38 H       -7.8220     0.8020    -1.3870 H     1 <1>   0.1500 
 39 H       -9.0270     0.8660     0.7680 H     1 <1>   0.0800 
 40 H       -8.2390     0.3870     2.2400 H     1 <1>   0.0800 
 41 H        2.4770     7.7760     0.3900 H     1 <1>   0.0800 
 42 H        1.6340     6.2710     0.1440 H     1 <1>   0.0800 
 43 H       -1.0520    10.6030    -0.4660 H     1 <1>   0.1500 
 44 H       -3.5990     7.7200    -0.2000 H     1 <1>   0.0800 
 45 H       -3.1680     8.4560    -1.7240 H     1 <1>   0.0800 
 46 H       -3.5160     9.4590    -0.3300 H     1 <1>   0.0800 
 47 H       -9.0800    -1.5030     0.0190 H     1 <1>   0.0800 
 48 H       -9.8990    -1.3100     1.5530 H     1 <1>   0.0800 
 49 H       -8.2850    -1.9840     1.4990 H     1 <1>   0.0800 
 50 H        1.6980     7.8590     2.7390 H     1 <1>   0.0800 
 51 H        2.5960     6.3930     2.4390 H     1 <1>   0.0800 
 52 H        0.8520     6.3380     2.5260 H     1 <1>   0.0800 
@<TRIPOS>BOND
  1   1   2  2   
  2   2   3  am  
  3   2   4  1   
  4   3   5  1   
  5   3   6  1   
  6   4   7  1   
  7   4  27  1   
  8   4  28  1   
  9   5   7  1   
 10   5  29  1   
 11   5  30  1   
 12   6   8  1   
 13   6  31  1   
 14   6  32  1   
 15   7   9  1   
 16   7  33  1   
 17   8  10  ar  
 18   8  11  ar  
 19   9  12  2   
 20   9  13  am  
 21  10  14  ar  
 22  10  34  1   
 23  11  15  ar  
 24  11  35  1   
 25  13  16  1   
 26  13  36  1   
 27  14  17  ar  
 28  14  37  1   
 29  15  17  ar  
 30  15  38  1   
 31  16  18  1   
 32  16  19  2   
 33  17  20  1   
 34  18  21  1   
 35  18  22  1   
 36  19  23  1   
 37  19  24  1   
 38  20  25  1   
 39  20  39  1   
 40  20  40  1   
 41  21  23  2   
 42  22  26  1   
 43  22  41  1   
 44  22  42  1   
 45  23  43  1   
 46  24  44  1   
 47  24  45  1   
 48  24  46  1   
 49  25  47  1   
 50  25  48  1   
 51  25  49  1   
 52  26  50  1   
 53  26  51  1   
 54  26  52  1   
@<TRIPOS>SUBSTRUCTURE
  1 ****   7 GROUP 4 **** **** 0

# MOE 2024.06 (io_trps.svl 2023.06)
