@<TRIPOS>MOLECULE
NONAME
23 23 1 0 0 
SMALL
USER_CHARGES


@<TRIPOS>ATOM
  1 O       -3.9850    -0.3510    -0.0750 O.3   1 <1>  -0.5600 
  2 C       -5.1730     0.2350     0.3620 C.3   1 <1>   0.2000 
  3 C       -3.8390    -1.6940     0.3110 C.3   1 <1>   0.1200 
  4 C       -6.3670    -0.5900    -0.1610 C.3   1 <1>   0.1200 
  5 C       -5.1700     1.6820    -0.1540 C.3   1 <1>   0.3430 
  6 C       -5.0530    -2.5220    -0.1500 C.3   1 <1>   0.1200 
  7 O       -6.2410    -1.9090     0.2670 O.3   1 <1>  -0.5600 
  8 N       -6.3030     2.5080     0.3830 N.4   1 <1>  -0.9060 
  9 C       -6.2390     3.9180    -0.1040 C.3   1 <1>   0.2630 
 10 H       -5.1610     0.2310     1.4380 H     1 <1>   0.0800 
 11 H       -2.9370    -2.0740    -0.1350 H     1 <1>   0.0800 
 12 H       -3.7400    -1.7390     1.3820 H     1 <1>   0.0800 
 13 H       -6.4050    -0.5820    -1.2370 H     1 <1>   0.0800 
 14 H       -7.2970    -0.2170     0.2280 H     1 <1>   0.0800 
 15 H       -5.2130     1.6610    -1.2300 H     1 <1>   0.0800 
 16 H       -4.2350     2.1330     0.1360 H     1 <1>   0.0800 
 17 H       -5.0200    -3.5080     0.2790 H     1 <1>   0.0800 
 18 H       -5.0670    -2.6130    -1.2220 H     1 <1>   0.0800 
 19 H       -7.2050     2.0930     0.1100 H     1 <1>   0.4500 
 20 H       -6.2720     2.5020     1.4130 H     1 <1>   0.4500 
 21 H       -6.2970     3.9480    -1.1810 H     1 <1>   0.0800 
 22 H       -5.3130     4.3800     0.2030 H     1 <1>   0.0800 
 23 H       -7.0580     4.4930     0.2990 H     1 <1>   0.0800 
@<TRIPOS>BOND
  1   1   2  1   
  2   1   3  1   
  3   2   4  1   
  4   2   5  1   
  5   2  10  1   
  6   3   6  1   
  7   3  11  1   
  8   3  12  1   
  9   4   7  1   
 10   4  13  1   
 11   4  14  1   
 12   5   8  1   
 13   5  15  1   
 14   5  16  1   
 15   6   7  1   
 16   6  17  1   
 17   6  18  1   
 18   8   9  1   
 19   8  19  1   
 20   8  20  1   
 21   9  21  1   
 22   9  22  1   
 23   9  23  1   
@<TRIPOS>SUBSTRUCTURE
  1 ****   2 GROUP 4 **** **** 0

# MOE 2024.06 (io_trps.svl 2023.06)
