@<TRIPOS>MOLECULE
NONAME
37 38 1 0 0 
SMALL
USER_CHARGES


@<TRIPOS>ATOM
  1 O       -0.7060     0.4300    -1.3340 O.2   1 <1>  -0.5700 
  2 C       -1.0450     0.6180    -0.1830 C.2   1 <1>   0.6900 
  3 N       -1.8420    -0.2570     0.4940 N.am  1 <1>  -0.5470 
  4 N       -0.6480     1.7320     0.4780 N.am  1 <1>  -0.7300 
  5 C       -2.3440    -1.5170     0.1380 C.ar  1 <1>   0.1170 
  6 C        0.1650     2.8190    -0.1030 C.3   1 <1>   0.2200 
  7 C       -3.4840    -1.9880     0.7800 C.ar  1 <1>  -0.1500 
  8 C       -1.7410    -2.3330    -0.8160 C.ar  1 <1>  -0.1500 
  9 C       -0.5840     4.1640     0.0100 C.3   1 <1>  -0.0800 
 10 C        1.5080     2.8580     0.6340 C.3   1 <1>  -0.1600 
 11 C       -4.0120    -3.2310     0.4780 C.ar  1 <1>  -0.1500 
 12 C       -2.2660    -3.5760    -1.1220 C.ar  1 <1>  -0.1500 
 13 C        0.3050     5.3180    -0.4860 C.3   1 <1>  -0.1600 
 14 C       -1.9040     4.1560    -0.7810 C.3   1 <1>  -0.2400 
 15 C        2.3860     4.0140     0.1350 C.3   1 <1>  -0.1600 
 16 C       -3.4030    -4.0270    -0.4760 C.ar  1 <1>  -0.1500 
 17 C        1.6500     5.3540     0.2530 C.3   1 <1>  -0.1600 
 18 H       -2.1960     0.1100     1.3680 H     1 <1>   0.3700 
 19 H       -0.8690     1.8440     1.4620 H     1 <1>   0.3700 
 20 H        0.3500     2.6140    -1.1460 H     1 <1>   0.0800 
 21 H       -3.9680    -1.3780     1.5200 H     1 <1>   0.1500 
 22 H       -0.8550    -1.9990    -1.3230 H     1 <1>   0.1500 
 23 H       -0.8070     4.3430     1.0480 H     1 <1>   0.0800 
 24 H        1.3390     2.9780     1.6890 H     1 <1>   0.0800 
 25 H        2.0250     1.9280     0.4730 H     1 <1>   0.0800 
 26 H       -4.8970    -3.5800     0.9820 H     1 <1>   0.1500 
 27 H       -1.7870    -4.1900    -1.8650 H     1 <1>   0.1500 
 28 H        0.4880     5.2020    -1.5420 H     1 <1>   0.0800 
 29 H       -0.2020     6.2560    -0.3420 H     1 <1>   0.0800 
 30 H       -1.7180     3.9440    -1.8190 H     1 <1>   0.0800 
 31 H       -2.3940     5.1100    -0.7050 H     1 <1>   0.0800 
 32 H       -2.5720     3.4050    -0.3980 H     1 <1>   0.0800 
 33 H        3.2970     4.0490     0.7070 H     1 <1>   0.0800 
 34 H        2.6490     3.8410    -0.8950 H     1 <1>   0.0800 
 35 H       -3.8110    -4.9940    -0.7140 H     1 <1>   0.1500 
 36 H        2.2640     6.1380    -0.1570 H     1 <1>   0.0800 
 37 H        1.4810     5.5790     1.2920 H     1 <1>   0.0800 
@<TRIPOS>BOND
  1   1   2  2   
  2   2   3  am  
  3   2   4  am  
  4   3   5  1   
  5   3  18  1   
  6   4   6  1   
  7   4  19  1   
  8   5   7  ar  
  9   5   8  ar  
 10   6   9  1   
 11   6  10  1   
 12   6  20  1   
 13   7  11  ar  
 14   7  21  1   
 15   8  12  ar  
 16   8  22  1   
 17   9  13  1   
 18   9  14  1   
 19   9  23  1   
 20  10  15  1   
 21  10  24  1   
 22  10  25  1   
 23  11  16  ar  
 24  11  26  1   
 25  12  16  ar  
 26  12  27  1   
 27  13  17  1   
 28  13  28  1   
 29  13  29  1   
 30  14  30  1   
 31  14  31  1   
 32  14  32  1   
 33  15  17  1   
 34  15  33  1   
 35  15  34  1   
 36  16  35  1   
 37  17  36  1   
 38  17  37  1   
@<TRIPOS>SUBSTRUCTURE
  1 ****   2 GROUP 4 **** **** 0

# MOE 2024.06 (io_trps.svl 2023.06)
