@<TRIPOS>MOLECULE
NONAME
37 38 1 0 0 
SMALL
USER_CHARGES


@<TRIPOS>ATOM
  1 O        0.2800     1.6370    -1.5620 O.3   1 <1>  -0.2800 
  2 C        1.4980     2.1390    -1.6270 C.2   1 <1>  -0.0100 
  3 C        0.2900     0.6960    -0.6390 C.2   1 <1>  -0.0100 
  4 C        2.3180     1.5260    -0.7460 C.2   1 <1>  -0.1810 
  5 C        1.5190     0.5740    -0.0940 C.2   1 <1>  -0.1500 
  6 C        3.7920     1.7850    -0.4910 C.3   1 <1>   0.3900 
  7 N        3.9540     2.8690     0.5090 N.pl3 1 <1>  -0.8380 
  8 C        5.0830     3.6450     0.4130 C.ar  1 <1>   0.4100 
  9 C        3.4370     2.5680     1.8680 C.3   1 <1>   0.1290 
 10 N        6.2330     3.0020     0.3690 N.ar  1 <1>  -0.6200 
 11 C        5.0260     5.0320     0.3700 C.ar  1 <1>  -0.1430 
 12 C        7.3110     3.7550     0.2970 C.ar  1 <1>   0.4770 
 13 C        6.2220     5.6960     0.2920 C.ar  1 <1>   0.1600 
 14 C        3.7090     5.8000     0.3900 C.3   1 <1>  -0.0160 
 15 N        7.3820     5.0720     0.2560 N.ar  1 <1>  -0.6200 
 16 C        8.6330     3.0280     0.2520 C.3   1 <1>  -0.0970 
 17 C        3.1130     5.8830    -1.0200 C.3   1 <1>  -0.1600 
 18 C        1.7720     6.6230    -1.0230 C.3   1 <1>  -0.2400 
 19 H        1.6950     2.9320    -2.3270 H     1 <1>   0.1500 
 20 H       -0.6210     0.1620    -0.4350 H     1 <1>   0.1500 
 21 H        1.8480    -0.0990     0.6770 H     1 <1>   0.1500 
 22 H        4.2650     2.0810    -1.4120 H     1 <1>   0.0800 
 23 H        4.2750     0.8900    -0.1390 H     1 <1>   0.0800 
 24 H        2.3620     2.6170     1.8660 H     1 <1>   0.0800 
 25 H        3.8170     3.2860     2.5750 H     1 <1>   0.0800 
 26 H        3.7510     1.5850     2.1720 H     1 <1>   0.0800 
 27 H        6.2400     6.7710     0.2520 H     1 <1>   0.1500 
 28 H        3.8720     6.7930     0.7720 H     1 <1>   0.0800 
 29 H        3.0120     5.3120     1.0490 H     1 <1>   0.0800 
 30 H        8.4980     1.9860     0.4750 H     1 <1>   0.0800 
 31 H        9.3040     3.4560     0.9730 H     1 <1>   0.0800 
 32 H        9.0580     3.1260    -0.7290 H     1 <1>   0.0800 
 33 H        2.9680     4.8860    -1.3970 H     1 <1>   0.0800 
 34 H        3.8040     6.3870    -1.6730 H     1 <1>   0.0800 
 35 H        1.0600     6.1100    -0.3990 H     1 <1>   0.0800 
 36 H        1.3780     6.6640    -2.0230 H     1 <1>   0.0800 
 37 H        1.8930     7.6280    -0.6610 H     1 <1>   0.0800 
@<TRIPOS>BOND
  1   1   2  1   
  2   1   3  1   
  3   2   4  2   
  4   2  19  1   
  5   3   5  2   
  6   3  20  1   
  7   4   5  1   
  8   4   6  1   
  9   5  21  1   
 10   6   7  1   
 11   6  22  1   
 12   6  23  1   
 13   7   8  1   
 14   7   9  1   
 15   8  10  ar  
 16   8  11  ar  
 17   9  24  1   
 18   9  25  1   
 19   9  26  1   
 20  10  12  ar  
 21  11  13  ar  
 22  11  14  1   
 23  12  15  ar  
 24  12  16  1   
 25  13  15  ar  
 26  13  27  1   
 27  14  17  1   
 28  14  28  1   
 29  14  29  1   
 30  16  30  1   
 31  16  31  1   
 32  16  32  1   
 33  17  18  1   
 34  17  33  1   
 35  17  34  1   
 36  18  35  1   
 37  18  36  1   
 38  18  37  1   
@<TRIPOS>SUBSTRUCTURE
  1 ****   7 GROUP 4 **** **** 0

# MOE 2024.06 (io_trps.svl 2023.06)
