@<TRIPOS>MOLECULE
NONAME
58 60 1 0 0 
SMALL
USER_CHARGES


@<TRIPOS>ATOM
  1 F       -1.5230     0.1480    -1.5950 F     1 <1>  -0.1900 
  2 C       -2.3700     0.7680    -0.8020 C.ar  1 <1>   0.1900 
  3 C       -1.9860     1.9780    -0.1870 C.ar  1 <1>  -0.1710 
  4 C       -3.6040     0.2020    -0.6120 C.ar  1 <1>  -0.1500 
  5 O       -0.8740     2.5360    -0.3540 O.3   1 <1>  -0.8290 
  6 C       -2.9260     2.5750     0.6600 C.ar  1 <1>  -0.1500 
  7 C       -4.5550     0.8230     0.2120 C.ar  1 <1>   0.0860 
  8 C       -4.1650     2.0110     0.8540 C.ar  1 <1>  -0.1500 
  9 C       -5.8700     0.2640     0.3740 C.2   1 <1>   0.5440 
 10 O       -6.0120    -0.9430     0.5230 O.2   1 <1>  -0.5700 
 11 N       -7.0150     1.0450     0.3460 N.am  1 <1>  -0.6600 
 12 C       -8.3220     0.4580     0.7480 C.3   1 <1>   0.1400 
 13 C       -7.0520     2.3600    -0.3570 C.3   1 <1>   0.1400 
 14 C       -9.3470     1.5590     1.0320 C.3   1 <1>  -0.1600 
 15 C       -8.3690     2.4930    -1.1200 C.3   1 <1>  -0.1600 
 16 C       -9.5910     2.5180    -0.1650 C.3   1 <1>   0.2800 
 17 O       -9.6330     3.8050     0.4170 O.3   1 <1>  -0.5600 
 18 C      -10.9530     2.1870    -0.8830 C.3   1 <1>   0.2000 
 19 C      -10.2870     4.8260    -0.2710 C.3   1 <1>   0.1200 
 20 O      -10.8690     2.3990    -2.2700 O.3   1 <1>  -0.6800 
 21 C      -12.1360     3.0210    -0.3040 C.3   1 <1>   0.3000 
 22 C      -11.7870     4.5200    -0.4110 C.3   1 <1>  -0.1600 
 23 N      -12.3030     2.7470     1.1440 N.am  1 <1>  -0.7300 
 24 C      -13.4590     2.7710    -1.0450 C.3   1 <1>  -0.2400 
 25 C      -12.8760     1.7620     1.8870 C.2   1 <1>   0.5690 
 26 O      -12.6440     1.7480     3.0710 O.2   1 <1>  -0.5700 
 27 C      -13.7190     0.6160     1.3180 C.3   1 <1>   0.1810 
 28 O      -15.0070     1.0320     0.9480 O.3   1 <1>  -0.5600 
 29 C      -15.8300     0.0080     0.5050 C.3   1 <1>   0.1200 
 30 C      -17.1520     0.6360     0.0840 C.3   1 <1>  -0.2400 
 31 H       -3.8500    -0.7210    -1.0980 H     1 <1>   0.1500 
 32 H       -2.6290     3.4860     1.1470 H     1 <1>   0.1500 
 33 H       -4.8600     2.4890     1.5180 H     1 <1>   0.1500 
 34 H       -8.6740    -0.1850    -0.0410 H     1 <1>   0.0800 
 35 H       -8.1820    -0.1440     1.6310 H     1 <1>   0.0800 
 36 H       -6.9640     3.1550     0.3650 H     1 <1>   0.0800 
 37 H       -6.2290     2.4330    -1.0490 H     1 <1>   0.0800 
 38 H       -8.9880     2.1150     1.8810 H     1 <1>   0.0800 
 39 H      -10.2570     1.0820     1.3360 H     1 <1>   0.0800 
 40 H       -8.4400     1.6510    -1.7870 H     1 <1>   0.0800 
 41 H       -8.3410     3.3760    -1.7290 H     1 <1>   0.0800 
 42 H      -11.1680     1.1400    -0.7700 H     1 <1>   0.0800 
 43 H      -10.1430     5.7380     0.2840 H     1 <1>   0.0800 
 44 H       -9.8240     4.9420    -1.2340 H     1 <1>   0.0800 
 45 H      -10.6630     3.3340    -2.4540 H     1 <1>   0.4000 
 46 H      -12.3430     5.0790     0.3220 H     1 <1>   0.0800 
 47 H      -12.0920     4.9030    -1.3670 H     1 <1>   0.0800 
 48 H      -11.7000     3.3590     1.7010 H     1 <1>   0.3700 
 49 H      -13.4270     3.1850    -2.0360 H     1 <1>   0.0800 
 50 H      -14.2800     3.2250    -0.5170 H     1 <1>   0.0800 
 51 H      -13.6440     1.7210    -1.1600 H     1 <1>   0.0800 
 52 H      -13.8170    -0.1420     2.0750 H     1 <1>   0.0800 
 53 H      -13.2280     0.1960     0.4610 H     1 <1>   0.0800 
 54 H      -15.3610    -0.4840    -0.3300 H     1 <1>   0.0800 
 55 H      -15.9800    -0.6910     1.3120 H     1 <1>   0.0800 
 56 H      -16.9890     1.3410    -0.7110 H     1 <1>   0.0800 
 57 H      -17.6030     1.1380     0.9210 H     1 <1>   0.0800 
 58 H      -17.8240    -0.1270    -0.2640 H     1 <1>   0.0800 
@<TRIPOS>BOND
  1   1   2  1   
  2   2   3  ar  
  3   2   4  ar  
  4   3   5  1   
  5   3   6  ar  
  6   4   7  ar  
  7   4  31  1   
  8   6   8  ar  
  9   6  32  1   
 10   7   8  ar  
 11   7   9  1   
 12   8  33  1   
 13   9  10  2   
 14   9  11  am  
 15  11  12  1   
 16  11  13  1   
 17  12  14  1   
 18  12  34  1   
 19  12  35  1   
 20  13  15  1   
 21  13  36  1   
 22  13  37  1   
 23  14  16  1   
 24  14  38  1   
 25  14  39  1   
 26  15  16  1   
 27  15  40  1   
 28  15  41  1   
 29  16  17  1   
 30  16  18  1   
 31  17  19  1   
 32  18  20  1   
 33  18  21  1   
 34  18  42  1   
 35  19  22  1   
 36  19  43  1   
 37  19  44  1   
 38  20  45  1   
 39  21  22  1   
 40  21  23  1   
 41  21  24  1   
 42  22  46  1   
 43  22  47  1   
 44  23  25  am  
 45  23  48  1   
 46  24  49  1   
 47  24  50  1   
 48  24  51  1   
 49  25  26  2   
 50  25  27  1   
 51  27  28  1   
 52  27  52  1   
 53  27  53  1   
 54  28  29  1   
 55  29  30  1   
 56  29  54  1   
 57  29  55  1   
 58  30  56  1   
 59  30  57  1   
 60  30  58  1   
@<TRIPOS>SUBSTRUCTURE
  1 ****  14 GROUP 4 **** **** 0

# MOE 2024.06 (io_trps.svl 2023.06)
