@<TRIPOS>MOLECULE
NONAME
47 49 1 0 0 
SMALL
USER_CHARGES


@<TRIPOS>ATOM
  1 O        2.5260    -1.0080     2.5620 O.2   1 <1>  -0.5700 
  2 C        2.3390    -1.1210     1.3620 C.2   1 <1>   0.5440 
  3 N        2.6090    -0.0250     0.5560 N.am  1 <1>  -0.6600 
  4 C        1.9120    -2.4000     0.8350 C.ar  1 <1>   0.0860 
  5 C        2.9570     1.2830     1.1930 C.3   1 <1>   0.1400 
  6 C        2.8100    -0.1780    -0.9180 C.3   1 <1>   0.1400 
  7 C        0.7320    -2.5560     0.0960 C.ar  1 <1>   0.0830 
  8 C        2.6980    -3.5290     1.0630 C.ar  1 <1>  -0.1500 
  9 C        4.4750     1.6010     1.1710 C.3   1 <1>   0.4230 
 10 C        4.1580     0.3600    -1.4440 C.3   1 <1>  -0.0800 
 11 O       -0.0360    -1.4590    -0.1190 O.3   1 <1>  -0.3630 
 12 C        0.3780    -3.8100    -0.3960 C.ar  1 <1>  -0.1500 
 13 C        2.3480    -4.7740     0.5750 C.ar  1 <1>  -0.1430 
 14 N        4.9080     2.3470    -0.0680 N.4   1 <1>  -0.9590 
 15 C        5.4000     0.3760     1.4080 C.3   1 <1>   0.1200 
 16 C        5.4150    -0.3700    -0.9210 C.3   1 <1>   0.1200 
 17 C        4.2430     1.8830    -1.3220 C.3   1 <1>   0.3430 
 18 C       -1.3660    -1.5510    -0.5820 C.3   1 <1>   0.0400 
 19 C        1.1810    -4.9090    -0.1580 C.ar  1 <1>  -0.1500 
 20 C        3.2210    -5.9870     0.8370 C.3   1 <1>  -0.0970 
 21 C        4.7460     3.8250     0.0960 C.3   1 <1>   0.2630 
 22 O        5.3510    -0.6460     0.4420 O.3   1 <1>  -0.5600 
 23 H        2.3980     2.0710     0.7230 H     1 <1>   0.0800 
 24 H        2.6420     1.2720     2.2220 H     1 <1>   0.0800 
 25 H        2.7510    -1.2180    -1.1880 H     1 <1>   0.0800 
 26 H        1.9970     0.3180    -1.4200 H     1 <1>   0.0800 
 27 H        3.6000    -3.4090     1.6390 H     1 <1>   0.1500 
 28 H        4.6460     2.2580     2.0070 H     1 <1>   0.0800 
 29 H        4.1350     0.1730    -2.5030 H     1 <1>   0.0800 
 30 H       -0.5180    -3.9520    -0.9680 H     1 <1>   0.1500 
 31 H        5.9100     2.1370    -0.1700 H     1 <1>   0.4500 
 32 H        5.1240    -0.0830     2.3420 H     1 <1>   0.0800 
 33 H        6.4220     0.6950     1.4950 H     1 <1>   0.0800 
 34 H        6.3210     0.1720    -1.1280 H     1 <1>   0.0800 
 35 H        5.4870    -1.3270    -1.4110 H     1 <1>   0.0800 
 36 H        3.2450     2.2870    -1.3780 H     1 <1>   0.0800 
 37 H        4.7940     2.2650    -2.1660 H     1 <1>   0.0800 
 38 H       -1.8010    -0.5680    -0.5500 H     1 <1>   0.0800 
 39 H       -1.9150    -2.2130     0.0640 H     1 <1>   0.0800 
 40 H       -1.3610    -1.9150    -1.5940 H     1 <1>   0.0800 
 41 H        0.8970    -5.8740    -0.5420 H     1 <1>   0.1500 
 42 H        3.4710    -6.4690    -0.0920 H     1 <1>   0.0800 
 43 H        2.6960    -6.6870     1.4620 H     1 <1>   0.0800 
 44 H        4.1340    -5.7050     1.3310 H     1 <1>   0.0800 
 45 H        3.7050     4.0780     0.2150 H     1 <1>   0.0800 
 46 H        5.1300     4.3420    -0.7680 H     1 <1>   0.0800 
 47 H        5.2850     4.1670     0.9650 H     1 <1>   0.0800 
@<TRIPOS>BOND
  1   1   2  2   
  2   2   3  am  
  3   2   4  1   
  4   3   5  1   
  5   3   6  1   
  6   4   7  ar  
  7   4   8  ar  
  8   5   9  1   
  9   5  23  1   
 10   5  24  1   
 11   6  10  1   
 12   6  25  1   
 13   6  26  1   
 14   7  11  1   
 15   7  12  ar  
 16   8  13  ar  
 17   8  27  1   
 18   9  14  1   
 19   9  15  1   
 20   9  28  1   
 21  10  16  1   
 22  10  17  1   
 23  10  29  1   
 24  11  18  1   
 25  12  19  ar  
 26  12  30  1   
 27  13  19  ar  
 28  13  20  1   
 29  14  17  1   
 30  14  21  1   
 31  14  31  1   
 32  15  22  1   
 33  15  32  1   
 34  15  33  1   
 35  16  22  1   
 36  16  34  1   
 37  16  35  1   
 38  17  36  1   
 39  17  37  1   
 40  18  38  1   
 41  18  39  1   
 42  18  40  1   
 43  19  41  1   
 44  20  42  1   
 45  20  43  1   
 46  20  44  1   
 47  21  45  1   
 48  21  46  1   
 49  21  47  1   
@<TRIPOS>SUBSTRUCTURE
  1 ****   3 GROUP 4 **** **** 0

# MOE 2024.06 (io_trps.svl 2023.06)
