@<TRIPOS>MOLECULE
NONAME
51 54 1 0 0 
SMALL
USER_CHARGES


@<TRIPOS>ATOM
  1 O       -1.7200     1.1210     2.2250 O.2   1 <1>  -0.5700 
  2 C       -1.6050     1.6890     1.1490 C.2   1 <1>   0.5440 
  3 N       -2.3730     1.2050     0.0970 N.am  1 <1>  -0.6600 
  4 C       -0.6960     2.8400     1.0460 C.ar  1 <1>   0.3960 
  5 C       -2.9940    -0.1510     0.1910 C.3   1 <1>   0.1400 
  6 C       -2.6310     1.9940    -1.1430 C.3   1 <1>   0.1400 
  7 N       -0.0310     3.0990    -0.0640 N.ar  1 <1>  -0.6200 
  8 C       -0.5480     3.6670     2.1840 C.ar  1 <1>  -0.1500 
  9 C       -4.3940    -0.0720     0.8160 C.3   1 <1>   0.1400 
 10 C       -4.0670     1.8800    -1.6760 C.3   1 <1>  -0.1600 
 11 C        0.7960     4.1690    -0.0990 C.ar  1 <1>   0.3100 
 12 C        0.2720     4.7520     2.1750 C.ar  1 <1>  -0.1500 
 13 N       -5.4030     0.4880    -0.1360 N.am  1 <1>  -0.6600 
 14 C       -5.1480     1.8840    -0.5890 C.3   1 <1>   0.1400 
 15 C        0.9790     5.0370     0.9990 C.ar  1 <1>   0.0000 
 16 C        1.5040     4.4370    -1.2830 C.ar  1 <1>  -0.1500 
 17 C       -6.5590    -0.1840    -0.4850 C.2   1 <1>   0.7160 
 18 C        1.8530     6.1340     0.8710 C.ar  1 <1>  -0.1500 
 19 C        2.3500     5.5090    -1.3880 C.ar  1 <1>  -0.1500 
 20 O       -7.4960     0.4450    -0.9400 O.2   1 <1>  -0.5700 
 21 C       -6.6810    -1.6160    -0.3270 C.2   1 <1>  -0.0860 
 22 C        2.5250     6.3670    -0.2980 C.ar  1 <1>  -0.1500 
 23 C       -7.6920    -2.3450     0.2210 C.2   1 <1>  -0.0400 
 24 C       -5.7460    -2.5890    -0.7410 C.2   1 <1>  -0.1500 
 25 O       -7.4280    -3.6280     0.1800 O.3   1 <1>  -0.2800 
 26 C       -9.0040    -1.9030     0.8360 C.3   1 <1>  -0.0600 
 27 C       -6.2590    -3.7860    -0.4000 C.2   1 <1>  -0.0400 
 28 C       -5.7260    -5.1900    -0.5820 C.3   1 <1>  -0.0600 
 29 H       -2.3760    -0.7750     0.8130 H     1 <1>   0.0800 
 30 H       -3.0420    -0.6100    -0.7800 H     1 <1>   0.0800 
 31 H       -1.9350     1.6870    -1.9050 H     1 <1>   0.0800 
 32 H       -2.4480     3.0340    -0.9380 H     1 <1>   0.0800 
 33 H       -1.1040     3.4120     3.0690 H     1 <1>   0.1500 
 34 H       -4.3510     0.5440     1.6970 H     1 <1>   0.0800 
 35 H       -4.6860    -1.0550     1.1360 H     1 <1>   0.0800 
 36 H       -4.1690     1.0030    -2.2890 H     1 <1>   0.0800 
 37 H       -4.2350     2.7250    -2.3200 H     1 <1>   0.0800 
 38 H        0.3890     5.3860     3.0360 H     1 <1>   0.1500 
 39 H       -6.0490     2.3100    -0.9960 H     1 <1>   0.0800 
 40 H       -4.8490     2.4950     0.2460 H     1 <1>   0.0800 
 41 H        1.3600     3.7670    -2.1100 H     1 <1>   0.1500 
 42 H        1.9850     6.7890     1.7140 H     1 <1>   0.1500 
 43 H        2.8870     5.7030    -2.3010 H     1 <1>   0.1500 
 44 H        3.1930     7.2060    -0.3940 H     1 <1>   0.1500 
 45 H       -4.8170    -2.3750    -1.2370 H     1 <1>   0.1500 
 46 H       -9.0910    -0.8320     0.8160 H     1 <1>   0.0800 
 47 H       -9.0590    -2.2400     1.8540 H     1 <1>   0.0800 
 48 H       -9.8210    -2.3270     0.2820 H     1 <1>   0.0800 
 49 H       -4.7690    -5.1650    -1.0690 H     1 <1>   0.0800 
 50 H       -6.4110    -5.7610    -1.1810 H     1 <1>   0.0800 
 51 H       -5.6220    -5.6640     0.3770 H     1 <1>   0.0800 
@<TRIPOS>BOND
  1   1   2  2   
  2   2   3  am  
  3   2   4  1   
  4   3   5  1   
  5   3   6  1   
  6   4   7  ar  
  7   4   8  ar  
  8   5   9  1   
  9   5  29  1   
 10   5  30  1   
 11   6  10  1   
 12   6  31  1   
 13   6  32  1   
 14   7  11  ar  
 15   8  12  ar  
 16   8  33  1   
 17   9  13  1   
 18   9  34  1   
 19   9  35  1   
 20  10  14  1   
 21  10  36  1   
 22  10  37  1   
 23  11  15  ar  
 24  11  16  ar  
 25  12  15  ar  
 26  12  38  1   
 27  13  14  1   
 28  13  17  am  
 29  14  39  1   
 30  14  40  1   
 31  15  18  ar  
 32  16  19  ar  
 33  16  41  1   
 34  17  20  2   
 35  17  21  1   
 36  18  22  ar  
 37  18  42  1   
 38  19  22  ar  
 39  19  43  1   
 40  21  23  2   
 41  21  24  1   
 42  22  44  1   
 43  23  25  1   
 44  23  26  1   
 45  24  27  2   
 46  24  45  1   
 47  25  27  1   
 48  26  46  1   
 49  26  47  1   
 50  26  48  1   
 51  27  28  1   
 52  28  49  1   
 53  28  50  1   
 54  28  51  1   
@<TRIPOS>SUBSTRUCTURE
  1 ****   3 GROUP 4 **** **** 0

# MOE 2024.06 (io_trps.svl 2023.06)
