@<TRIPOS>MOLECULE
NONAME
54 56 1 0 0 
SMALL
USER_CHARGES


@<TRIPOS>ATOM
  1 O       -2.5690     1.4330     0.0720 O.co2 1 <1>  -0.9000 
  2 C       -1.4560     1.6770     0.5640 C.2   1 <1>   0.9060 
  3 O       -0.6810     0.8110     0.9670 O.co2 1 <1>  -0.9000 
  4 C       -1.0740     3.1590     0.6840 C.3   1 <1>   0.3170 
  5 N       -2.3110     4.0620     0.7440 N.4   1 <1>  -0.9590 
  6 C       -0.1740     3.4780    -0.5270 C.3   1 <1>   0.1100 
  7 C       -2.0050     5.5020     0.4860 C.3   1 <1>   0.3430 
  8 C       -3.0520     3.8230     2.0130 C.3   1 <1>   0.2630 
  9 N        0.1200     4.9230    -0.6710 N.3   1 <1>  -0.8100 
 10 C       -1.1370     5.6940    -0.7710 C.3   1 <1>   0.1100 
 11 C        1.0130     5.1530    -1.8200 C.3   1 <1>   0.2910 
 12 C        1.4240     6.6110    -1.8820 C.2   1 <1>  -0.1810 
 13 C        1.2230     7.4770    -2.9500 C.2   1 <1>   0.1390 
 14 C        2.0340     7.3680    -0.9470 C.2   1 <1>  -0.3020 
 15 N        1.6600     8.6700    -2.7010 N.2   1 <1>  -0.7070 
 16 N        2.1850     8.6200    -1.4470 N.pl3 1 <1>   0.5930 
 17 C        2.7600     9.7430    -0.7830 C.ar  1 <1>  -0.0230 
 18 C        3.7960     9.5860     0.1350 C.ar  1 <1>  -0.1500 
 19 C        2.2940    11.0300    -1.0350 C.ar  1 <1>  -0.1500 
 20 C        4.3380    10.6790     0.7860 C.ar  1 <1>  -0.1500 
 21 C        2.8370    12.1230    -0.3830 C.ar  1 <1>  -0.1500 
 22 C        3.8610    11.9550     0.5340 C.ar  1 <1>  -0.1430 
 23 C        4.4570    13.1560     1.2490 C.3   1 <1>  -0.0170 
 24 C        5.6350    13.7270     0.4520 C.3   1 <1>  -0.1600 
 25 C        6.2560    14.9420     1.1520 C.3   1 <1>  -0.1600 
 26 C        7.4300    15.5010     0.3440 C.3   1 <1>  -0.2400 
 27 H       -0.4930     3.2720     1.5790 H     1 <1>   0.0800 
 28 H       -2.8940     3.6480    -0.0090 H     1 <1>   0.4500 
 29 H       -0.6530     3.1100    -1.4210 H     1 <1>   0.0800 
 30 H        0.7470     2.9320    -0.4080 H     1 <1>   0.0800 
 31 H       -1.4700     5.9100     1.3260 H     1 <1>   0.0800 
 32 H       -2.9230     6.0540     0.3720 H     1 <1>   0.0800 
 33 H       -2.4480     4.1060     2.8580 H     1 <1>   0.0800 
 34 H       -3.3000     2.7750     2.0990 H     1 <1>   0.0800 
 35 H       -3.9670     4.3910     2.0250 H     1 <1>   0.0800 
 36 H       -0.9140     6.7430    -0.8610 H     1 <1>   0.0800 
 37 H       -1.6900     5.3930    -1.6440 H     1 <1>   0.0800 
 38 H        0.5210     4.8670    -2.7350 H     1 <1>   0.0800 
 39 H        1.9000     4.5520    -1.7090 H     1 <1>   0.0800 
 40 H        0.7560     7.2030    -3.8820 H     1 <1>   0.1500 
 41 H        2.3580     7.0940     0.0390 H     1 <1>   0.1500 
 42 H        4.1910     8.6070     0.3420 H     1 <1>   0.1500 
 43 H        1.5010    11.1760    -1.7490 H     1 <1>   0.1500 
 44 H        5.1390    10.5350     1.4910 H     1 <1>   0.1500 
 45 H        2.4590    13.1080    -0.5970 H     1 <1>   0.1500 
 46 H        4.7890    12.8630     2.2300 H     1 <1>   0.0800 
 47 H        3.7020    13.9120     1.3730 H     1 <1>   0.0800 
 48 H        5.2910    14.0110    -0.5280 H     1 <1>   0.0800 
 49 H        6.3820    12.9600     0.3300 H     1 <1>   0.0800 
 50 H        6.6030    14.6590     2.1310 H     1 <1>   0.0800 
 51 H        5.5110    15.7110     1.2710 H     1 <1>   0.0800 
 52 H        8.1980    14.7560     0.2320 H     1 <1>   0.0800 
 53 H        7.8520    16.3530     0.8490 H     1 <1>   0.0800 
 54 H        7.1020    15.8110    -0.6320 H     1 <1>   0.0800 
@<TRIPOS>BOND
  1   1   2  ar  
  2   2   3  ar  
  3   2   4  1   
  4   4   5  1   
  5   4   6  1   
  6   4  27  1   
  7   5   7  1   
  8   5   8  1   
  9   5  28  1   
 10   6   9  1   
 11   6  29  1   
 12   6  30  1   
 13   7  10  1   
 14   7  31  1   
 15   7  32  1   
 16   8  33  1   
 17   8  34  1   
 18   8  35  1   
 19   9  10  1   
 20   9  11  1   
 21  10  36  1   
 22  10  37  1   
 23  11  12  1   
 24  11  38  1   
 25  11  39  1   
 26  12  13  1   
 27  12  14  2   
 28  13  15  2   
 29  13  40  1   
 30  14  16  1   
 31  14  41  1   
 32  15  16  1   
 33  16  17  1   
 34  17  18  ar  
 35  17  19  ar  
 36  18  20  ar  
 37  18  42  1   
 38  19  21  ar  
 39  19  43  1   
 40  20  22  ar  
 41  20  44  1   
 42  21  22  ar  
 43  21  45  1   
 44  22  23  1   
 45  23  24  1   
 46  23  46  1   
 47  23  47  1   
 48  24  25  1   
 49  24  48  1   
 50  24  49  1   
 51  25  26  1   
 52  25  50  1   
 53  25  51  1   
 54  26  52  1   
 55  26  53  1   
 56  26  54  1   
@<TRIPOS>SUBSTRUCTURE
  1 ****  14 GROUP 4 **** **** 0

# MOE 2024.06 (io_trps.svl 2023.06)
