@<TRIPOS>MOLECULE
NONAME
48 50 1 0 0 
SMALL
USER_CHARGES


@<TRIPOS>ATOM
  1 S        0.4740     0.3670     1.0980 S.o2  1 <1>   1.3330 
  2 O       -0.5080     1.2060     1.7470 O.2   1 <1>  -0.6500 
  3 O        1.4080    -0.3960     1.8960 O.2   1 <1>  -0.6500 
  4 N        1.3680     1.3390     0.0400 N.am  1 <1>  -0.8490 
  5 C       -0.3940    -0.7390    -0.0250 C.3   1 <1>  -0.0550 
  6 C        1.6530     2.6640     0.6280 C.3   1 <1>   0.1960 
  7 C        2.6470     0.7150    -0.3690 C.3   1 <1>   0.1960 
  8 C       -1.3200    -1.7530     0.6700 C.3   1 <1>  -0.2400 
  9 C        2.4120     3.5980    -0.3370 C.3   1 <1>   0.2090 
 10 C        3.4050     1.5720    -1.3990 C.3   1 <1>   0.2090 
 11 N        3.6440     2.9490    -0.8750 N.pl3 1 <1>  -0.8380 
 12 C        4.9110     3.3590    -0.5010 C.ar  1 <1>   0.4100 
 13 N        5.6330     2.4240     0.1200 N.ar  1 <1>  -0.6200 
 14 C        5.3880     4.6610    -0.7540 C.ar  1 <1>   0.0860 
 15 C        6.8530     2.7570     0.4860 C.ar  1 <1>   0.1600 
 16 C        4.5770     5.6620    -1.3940 C.2   1 <1>   0.5440 
 17 C        6.6810     4.9720    -0.3560 C.ar  1 <1>  -0.1500 
 18 C        7.4220     4.0000     0.2740 C.ar  1 <1>  -0.1500 
 19 O        4.3850     5.6380    -2.5970 O.2   1 <1>  -0.5700 
 20 N        4.0310     6.6950    -0.6640 N.am  1 <1>  -0.6600 
 21 C        3.1320     7.7060    -1.2590 C.3   1 <1>   0.1400 
 22 C        4.1700     6.8900     0.7950 C.3   1 <1>   0.1400 
 23 C        2.8090     8.6630    -0.1160 C.3   1 <1>  -0.1600 
 24 C        3.0430     7.8500     1.1560 C.3   1 <1>  -0.1600 
 25 H        0.3260    -1.2790    -0.6080 H     1 <1>   0.0800 
 26 H       -0.9800    -0.1470    -0.7010 H     1 <1>   0.0800 
 27 H        2.2370     2.5420     1.5250 H     1 <1>   0.0800 
 28 H        0.7290     3.1460     0.8980 H     1 <1>   0.0800 
 29 H        2.4590    -0.2530    -0.7970 H     1 <1>   0.0800 
 30 H        3.2840     0.5790     0.4910 H     1 <1>   0.0800 
 31 H       -0.7500    -2.3770     1.3370 H     1 <1>   0.0800 
 32 H       -1.8050    -2.3760    -0.0600 H     1 <1>   0.0800 
 33 H       -2.0710    -1.2360     1.2400 H     1 <1>   0.0800 
 34 H        2.6660     4.5000     0.1870 H     1 <1>   0.0800 
 35 H        1.7690     3.8630    -1.1590 H     1 <1>   0.0800 
 36 H        2.8270     1.6370    -2.3040 H     1 <1>   0.0800 
 37 H        4.3420     1.1000    -1.6420 H     1 <1>   0.0800 
 38 H        7.4370     2.0000     0.9830 H     1 <1>   0.1500 
 39 H        7.0850     5.9510    -0.5450 H     1 <1>   0.1500 
 40 H        8.4290     4.1960     0.5980 H     1 <1>   0.1500 
 41 H        2.2410     7.2170    -1.6140 H     1 <1>   0.0800 
 42 H        3.6160     8.2100    -2.0790 H     1 <1>   0.0800 
 43 H        5.1250     7.3440     0.9980 H     1 <1>   0.0800 
 44 H        4.0870     5.9590     1.3290 H     1 <1>   0.0800 
 45 H        1.8040     9.0410    -0.1840 H     1 <1>   0.0800 
 46 H        3.4960     9.4900    -0.1520 H     1 <1>   0.0800 
 47 H        3.2980     8.4690     1.9980 H     1 <1>   0.0800 
 48 H        2.1610     7.2810     1.3930 H     1 <1>   0.0800 
@<TRIPOS>BOND
  1   1   2  2   
  2   1   3  2   
  3   1   4  am  
  4   1   5  1   
  5   4   6  1   
  6   4   7  1   
  7   5   8  1   
  8   5  25  1   
  9   5  26  1   
 10   6   9  1   
 11   6  27  1   
 12   6  28  1   
 13   7  10  1   
 14   7  29  1   
 15   7  30  1   
 16   8  31  1   
 17   8  32  1   
 18   8  33  1   
 19   9  11  1   
 20   9  34  1   
 21   9  35  1   
 22  10  11  1   
 23  10  36  1   
 24  10  37  1   
 25  11  12  1   
 26  12  13  ar  
 27  12  14  ar  
 28  13  15  ar  
 29  14  16  1   
 30  14  17  ar  
 31  15  18  ar  
 32  15  38  1   
 33  16  19  2   
 34  16  20  am  
 35  17  18  ar  
 36  17  39  1   
 37  18  40  1   
 38  20  21  1   
 39  20  22  1   
 40  21  23  1   
 41  21  41  1   
 42  21  42  1   
 43  22  24  1   
 44  22  43  1   
 45  22  44  1   
 46  23  24  1   
 47  23  45  1   
 48  23  46  1   
 49  24  47  1   
 50  24  48  1   
@<TRIPOS>SUBSTRUCTURE
  1 ****   9 GROUP 4 **** **** 0

# MOE 2024.06 (io_trps.svl 2023.06)
