@<TRIPOS>MOLECULE
NONAME
49 52 1 0 0 
SMALL
USER_CHARGES


@<TRIPOS>ATOM
  1 O       -0.4990     5.3990    -1.0580 O.2   1 <1>  -0.5700 
  2 C       -0.4960     4.1840    -0.9630 C.2   1 <1>   0.6160 
  3 N       -1.6970     3.5300    -0.7730 N.am  1 <1>  -0.6600 
  4 C        0.7630     3.4770    -1.0320 C.2   1 <1>   0.0140 
  5 C       -3.0030     4.2290    -0.9820 C.3   1 <1>   0.1400 
  6 C       -1.7950     2.2050    -0.0850 C.3   1 <1>   0.1400 
  7 C        1.8910     3.9480    -0.4050 C.2   1 <1>  -0.0410 
  8 C        0.8910     2.2620    -1.7780 C.2   1 <1>  -0.1500 
  9 C       -3.7100     4.5270     0.3620 C.3   1 <1>   0.1440 
 10 C       -3.0760     2.0840     0.7590 C.3   1 <1>  -0.1600 
 11 N        3.0830     3.2710    -0.4590 N.am  1 <1>  -0.5390 
 12 C        2.0800     1.6010    -1.8270 C.2   1 <1>  -0.1360 
 13 C       -5.1900     4.6970     0.0620 C.ar  1 <1>   0.1670 
 14 C       -3.4400     3.4240     1.4190 C.3   1 <1>  -0.1600 
 15 C       -3.3310     5.9270     0.9110 C.3   1 <1>  -0.1600 
 16 C        3.2240     2.0990    -1.1470 C.2   1 <1>   0.6160 
 17 N       -6.0290     3.7260    -0.2000 N.ar  1 <1>  -0.6200 
 18 C       -5.5560     6.0090     0.0770 C.ar  1 <1>  -0.1430 
 19 C       -4.3910     6.9130     0.3920 C.3   1 <1>  -0.0170 
 20 O        4.3070     1.5420    -1.1460 O.2   1 <1>  -0.5700 
 21 C       -7.2840     4.1080    -0.4470 C.ar  1 <1>   0.7200 
 22 C       -6.8670     6.3080    -0.1900 C.ar  1 <1>   0.1600 
 23 N       -7.7410     5.3650    -0.4540 N.ar  1 <1>  -0.6200 
 24 N       -8.1960     3.1080    -0.7250 N.pl3 1 <1>  -0.8380 
 25 C       -9.5360     3.3990    -1.3050 C.3   1 <1>   0.1290 
 26 C       -7.9170     1.6770    -0.4240 C.3   1 <1>   0.1290 
 27 H       -3.6300     3.5840    -1.5740 H     1 <1>   0.0800 
 28 H       -2.8690     5.1380    -1.5420 H     1 <1>   0.0800 
 29 H       -0.9430     2.0850     0.5620 H     1 <1>   0.0800 
 30 H       -1.7770     1.4160    -0.8180 H     1 <1>   0.0800 
 31 H        1.8620     4.8730     0.1500 H     1 <1>   0.1500 
 32 H        0.0260     1.8980    -2.3050 H     1 <1>   0.1500 
 33 H       -2.9360     1.3290     1.5120 H     1 <1>   0.0800 
 34 H       -3.8900     1.7630     0.1320 H     1 <1>   0.0800 
 35 H        3.9360     3.6020    -0.0040 H     1 <1>   0.3700 
 36 H        2.2150     0.6880    -2.3760 H     1 <1>   0.1500 
 37 H       -4.3040     3.3040     2.0510 H     1 <1>   0.0800 
 38 H       -2.6150     3.7170     2.0430 H     1 <1>   0.0800 
 39 H       -2.3350     6.2220     0.6310 H     1 <1>   0.0800 
 40 H       -3.3910     5.9180     1.9850 H     1 <1>   0.0800 
 41 H       -4.0510     7.3950    -0.5090 H     1 <1>   0.0800 
 42 H       -4.6420     7.6510     1.1330 H     1 <1>   0.0800 
 43 H       -7.2040     7.3300    -0.1890 H     1 <1>   0.1500 
 44 H       -9.4980     4.2870    -1.9130 H     1 <1>   0.0800 
 45 H      -10.2460     3.5500    -0.5110 H     1 <1>   0.0800 
 46 H       -9.8580     2.5800    -1.9230 H     1 <1>   0.0800 
 47 H       -7.2270     1.5910     0.3970 H     1 <1>   0.0800 
 48 H       -7.4900     1.2040    -1.2910 H     1 <1>   0.0800 
 49 H       -8.8270     1.1710    -0.1540 H     1 <1>   0.0800 
@<TRIPOS>BOND
  1   1   2  2   
  2   2   3  am  
  3   2   4  1   
  4   3   5  1   
  5   3   6  1   
  6   4   7  2   
  7   4   8  1   
  8   5   9  1   
  9   5  27  1   
 10   5  28  1   
 11   6  10  1   
 12   6  29  1   
 13   6  30  1   
 14   7  11  1   
 15   7  31  1   
 16   8  12  2   
 17   8  32  1   
 18   9  13  1   
 19   9  14  1   
 20   9  15  1   
 21  10  14  1   
 22  10  33  1   
 23  10  34  1   
 24  11  16  am  
 25  11  35  1   
 26  12  16  1   
 27  12  36  1   
 28  13  17  ar  
 29  13  18  ar  
 30  14  37  1   
 31  14  38  1   
 32  15  19  1   
 33  15  39  1   
 34  15  40  1   
 35  16  20  2   
 36  17  21  ar  
 37  18  19  1   
 38  18  22  ar  
 39  19  41  1   
 40  19  42  1   
 41  21  23  ar  
 42  21  24  1   
 43  22  23  ar  
 44  22  43  1   
 45  24  25  1   
 46  24  26  1   
 47  25  44  1   
 48  25  45  1   
 49  25  46  1   
 50  26  47  1   
 51  26  48  1   
 52  26  49  1   
@<TRIPOS>SUBSTRUCTURE
  1 ****   5 GROUP 4 **** **** 0

# MOE 2024.06 (io_trps.svl 2023.06)
