@<TRIPOS>MOLECULE
NONAME
43 45 1 0 0 
SMALL
USER_CHARGES


@<TRIPOS>ATOM
  1 O        0.5390    -2.0550    -1.3950 O.2   1 <1>  -0.5700 
  2 C        1.2980    -2.6610    -0.6700 C.2   1 <1>   0.7800 
  3 O        2.4840    -3.0780    -1.0870 O.3   1 <1>  -0.4300 
  4 N        1.0480    -3.0370     0.6020 N.am  1 <1>  -0.6600 
  5 C        3.1390    -3.8210    -0.0760 C.3   1 <1>   0.1200 
  6 C        2.1360    -3.8990     1.0800 C.3   1 <1>   0.1400 
  7 C       -0.3030    -3.0700     1.2420 C.3   1 <1>   0.2010 
  8 C       -0.8640    -4.4930     1.3120 C.2   1 <1>   0.5690 
  9 O       -0.7180    -5.0930     2.3530 O.2   1 <1>  -0.5700 
 10 N       -1.4450    -5.0780     0.2180 N.am  1 <1>  -0.6600 
 11 C       -1.4410    -6.5760     0.1300 C.3   1 <1>   0.3640 
 12 C       -2.0160    -4.2950    -0.9240 C.3   1 <1>   0.1400 
 13 C       -0.0200    -7.0420    -0.2100 C.ar  1 <1>  -0.1440 
 14 C       -2.4630    -7.1890    -0.8730 C.3   1 <1>   0.2000 
 15 C       -2.6290    -5.1650    -2.0280 C.3   1 <1>   0.1200 
 16 C        0.7080    -6.4850    -1.2540 C.ar  1 <1>  -0.1500 
 17 C        0.5610    -8.0520     0.5440 C.ar  1 <1>  -0.1500 
 18 O       -3.3100    -6.2390    -1.4650 O.3   1 <1>  -0.5600 
 19 C       -3.3620    -8.2400    -0.2100 C.3   1 <1>   0.1200 
 20 C        1.9840    -6.9350    -1.5450 C.ar  1 <1>  -0.1500 
 21 C        1.8390    -8.5010     0.2580 C.ar  1 <1>  -0.1500 
 22 O       -2.6010    -9.2910     0.2970 O.3   1 <1>  -0.6800 
 23 C        2.5510    -7.9440    -0.7880 C.ar  1 <1>  -0.1500 
 24 H        3.3860    -4.7950    -0.4570 H     1 <1>   0.0800 
 25 H        4.0320    -3.2950     0.2110 H     1 <1>   0.0800 
 26 H        2.5560    -3.5210     1.9960 H     1 <1>   0.0800 
 27 H        1.7990    -4.9130     1.2190 H     1 <1>   0.0800 
 28 H       -0.2210    -2.6860     2.2420 H     1 <1>   0.0800 
 29 H       -0.9790    -2.4340     0.7010 H     1 <1>   0.0800 
 30 H       -1.6820    -6.9570     1.1080 H     1 <1>   0.0800 
 31 H       -2.7830    -3.6440    -0.5420 H     1 <1>   0.0800 
 32 H       -1.2550    -3.6800    -1.3640 H     1 <1>   0.0800 
 33 H       -1.9290    -7.6670    -1.6760 H     1 <1>   0.0800 
 34 H       -1.8710    -5.5400    -2.6950 H     1 <1>   0.0800 
 35 H       -3.3320    -4.5890    -2.6040 H     1 <1>   0.0800 
 36 H        0.2930    -5.6920    -1.8480 H     1 <1>   0.1500 
 37 H        0.0170    -8.4940     1.3620 H     1 <1>   0.1500 
 38 H       -4.0590    -8.6450    -0.9230 H     1 <1>   0.0800 
 39 H       -3.9020    -7.8000     0.6110 H     1 <1>   0.0800 
 40 H        2.5340    -6.4970    -2.3600 H     1 <1>   0.1500 
 41 H        2.2760    -9.2850     0.8520 H     1 <1>   0.1500 
 42 H       -2.1780    -9.7980    -0.4250 H     1 <1>   0.4000 
 43 H        3.5430    -8.2960    -1.0130 H     1 <1>   0.1500 
@<TRIPOS>BOND
  1   1   2  2   
  2   2   3  1   
  3   2   4  am  
  4   3   5  1   
  5   4   6  1   
  6   4   7  1   
  7   5   6  1   
  8   5  24  1   
  9   5  25  1   
 10   6  26  1   
 11   6  27  1   
 12   7   8  1   
 13   7  28  1   
 14   7  29  1   
 15   8   9  2   
 16   8  10  am  
 17  10  11  1   
 18  10  12  1   
 19  11  13  1   
 20  11  14  1   
 21  11  30  1   
 22  12  15  1   
 23  12  31  1   
 24  12  32  1   
 25  13  16  ar  
 26  13  17  ar  
 27  14  18  1   
 28  14  19  1   
 29  14  33  1   
 30  15  18  1   
 31  15  34  1   
 32  15  35  1   
 33  16  20  ar  
 34  16  36  1   
 35  17  21  ar  
 36  17  37  1   
 37  19  22  1   
 38  19  38  1   
 39  19  39  1   
 40  20  23  ar  
 41  20  40  1   
 42  21  23  ar  
 43  21  41  1   
 44  22  42  1   
 45  23  43  1   
@<TRIPOS>SUBSTRUCTURE
  1 ****  10 GROUP 4 **** **** 0

# MOE 2024.06 (io_trps.svl 2023.06)
