@<TRIPOS>MOLECULE
NONAME
44 46 1 0 0 
SMALL
USER_CHARGES


@<TRIPOS>ATOM
  1 O        3.7390     0.0680     0.9270 O.2   1 <1>  -0.5700 
  2 C        2.9220    -0.4810     0.2170 C.2   1 <1>   0.9370 
  3 N        2.8630    -1.8890     0.2670 N.pl3 1 <1>  -0.5760 
  4 C        2.0490     0.2510    -0.6430 C.2   1 <1>   0.0290 
  5 C        1.9820    -2.5580    -0.5180 C.cat 1 <1>   0.7390 
  6 C        3.6910    -2.6090     1.1010 C.2   1 <1>   0.1910 
  7 C        2.0730     1.6860    -0.7170 C.2   1 <1>   0.6160 
  8 C        1.1890    -0.4760    -1.4060 C.2   1 <1>   0.1910 
  9 N        1.1700    -1.8430    -1.3320 N.pl3 1 <1>  -0.6450 
 10 C        1.9200    -3.9570    -0.4780 C.2   1 <1>  -0.1800 
 11 C        3.6440    -3.9750     1.1530 C.2   1 <1>  -0.1500 
 12 O        1.3480     2.2110    -1.5360 O.2   1 <1>  -0.5700 
 13 N        2.8680     2.4780     0.0810 N.am  1 <1>  -0.4940 
 14 C        2.7420    -4.6750     0.3490 C.2   1 <1>  -0.1500 
 15 C        3.1490     3.8650     0.0520 C.2   1 <1>  -0.0880 
 16 N        2.3120     4.9050    -0.2330 N.pl3 1 <1>   0.3140 
 17 C        4.3490     4.4170     0.3530 C.2   1 <1>  -0.1810 
 18 N        2.9480     6.0890    -0.1210 N.2   1 <1>  -0.7070 
 19 C        0.8720     4.8920    -0.5210 C.3   1 <1>   0.0160 
 20 C        4.1590     5.7920     0.2250 C.2   1 <1>   0.1080 
 21 C        5.6330     3.7030     0.7430 C.3   1 <1>   0.0210 
 22 C        5.2090     6.8650     0.4520 C.3   1 <1>   0.0210 
 23 C        5.6930     3.4980     2.2580 C.3   1 <1>  -0.2400 
 24 C        5.9900     7.1550    -0.8330 C.3   1 <1>  -0.2400 
 25 H        4.3950    -2.0800     1.7290 H     1 <1>   0.1500 
 26 H        0.4960    -0.0010    -2.0910 H     1 <1>   0.1500 
 27 H        0.5130    -2.3700    -1.9220 H     1 <1>   0.4500 
 28 H        1.2160    -4.4710    -1.1070 H     1 <1>   0.1500 
 29 H        4.2980    -4.5240     1.8100 H     1 <1>   0.1500 
 30 H        3.5050     1.9700     0.7070 H     1 <1>   0.3700 
 31 H        2.7080    -5.7540     0.3930 H     1 <1>   0.1500 
 32 H        0.4010     4.1110     0.0440 H     1 <1>   0.0800 
 33 H        0.7290     4.7260    -1.5720 H     1 <1>   0.0800 
 34 H        0.4510     5.8410    -0.2470 H     1 <1>   0.0800 
 35 H        6.4830     4.2780     0.4190 H     1 <1>   0.0800 
 36 H        5.6810     2.7500     0.2470 H     1 <1>   0.0800 
 37 H        5.8820     6.5550     1.2300 H     1 <1>   0.0800 
 38 H        4.7160     7.7630     0.7810 H     1 <1>   0.0800 
 39 H        5.6610     4.4480     2.7610 H     1 <1>   0.0800 
 40 H        6.6030     2.9940     2.5280 H     1 <1>   0.0800 
 41 H        4.8570     2.9090     2.5890 H     1 <1>   0.0800 
 42 H        6.4890     6.2670    -1.1770 H     1 <1>   0.0800 
 43 H        6.7210     7.9230    -0.6590 H     1 <1>   0.0800 
 44 H        5.3120     7.4870    -1.6000 H     1 <1>   0.0800 
@<TRIPOS>BOND
  1   1   2  2   
  2   2   3  1   
  3   2   4  1   
  4   3   5  ar  
  5   3   6  1   
  6   4   7  1   
  7   4   8  2   
  8   5   9  ar  
  9   5  10  1   
 10   6  11  2   
 11   6  25  1   
 12   7  12  2   
 13   7  13  am  
 14   8   9  1   
 15   8  26  1   
 16   9  27  1   
 17  10  14  2   
 18  10  28  1   
 19  11  14  1   
 20  11  29  1   
 21  13  15  1   
 22  13  30  1   
 23  14  31  1   
 24  15  16  1   
 25  15  17  2   
 26  16  18  1   
 27  16  19  1   
 28  17  20  1   
 29  17  21  1   
 30  18  20  2   
 31  19  32  1   
 32  19  33  1   
 33  19  34  1   
 34  20  22  1   
 35  21  23  1   
 36  21  35  1   
 37  21  36  1   
 38  22  24  1   
 39  22  37  1   
 40  22  38  1   
 41  23  39  1   
 42  23  40  1   
 43  23  41  1   
 44  24  42  1   
 45  24  43  1   
 46  24  44  1   
@<TRIPOS>SUBSTRUCTURE
  1 ****  13 GROUP 4 **** **** 0

# MOE 2024.06 (io_trps.svl 2023.06)
