@<TRIPOS>MOLECULE
NONAME
45 48 1 0 0 
SMALL
USER_CHARGES


@<TRIPOS>ATOM
  1 O       -0.8100     4.2580     2.3280 O.2   1 <1>  -0.5700 
  2 C       -0.5410     3.9780     1.1710 C.2   1 <1>   0.5440 
  3 N       -1.5910     3.6270     0.3370 N.am  1 <1>  -0.6600 
  4 C        0.8620     4.0100     0.7550 C.ar  1 <1>   0.3960 
  5 C       -3.0170     3.8280     0.7730 C.3   1 <1>   0.1400 
  6 C       -1.3860     3.0690    -1.0350 C.3   1 <1>   0.1400 
  7 N        1.2230     4.4150    -0.4770 N.ar  1 <1>  -0.6200 
  8 C        1.8270     3.6150     1.6890 C.ar  1 <1>   0.1600 
  9 C       -3.9260     4.2210    -0.4060 C.3   1 <1>   0.1440 
 10 C       -2.6120     2.2790    -1.5030 C.3   1 <1>  -0.1600 
 11 C        2.5280     4.3880    -0.6750 C.ar  1 <1>   0.1600 
 12 N        3.1340     3.5790     1.4850 N.ar  1 <1>  -0.6200 
 13 C       -5.3200     4.4910     0.1380 C.ar  1 <1>   0.1670 
 14 C       -3.9110     3.1100    -1.4920 C.3   1 <1>  -0.1600 
 15 C       -3.5260     5.6150    -0.9750 C.3   1 <1>  -0.1600 
 16 C        3.4620     3.9820     0.2730 C.ar  1 <1>   0.1670 
 17 N       -6.1760     3.5760     0.5410 N.ar  1 <1>  -0.6200 
 18 C       -5.5920     5.8250     0.1910 C.ar  1 <1>  -0.1430 
 19 C       -4.4360     6.6560    -0.3010 C.3   1 <1>  -0.0170 
 20 C        4.9430     3.9820    -0.0470 C.3   1 <1>  -0.0970 
 21 C       -7.3270     4.0570     0.9860 C.ar  1 <1>   0.4770 
 22 C       -6.8170     6.2140     0.6720 C.ar  1 <1>   0.1600 
 23 N       -7.7030     5.3270     1.0750 N.ar  1 <1>  -0.6200 
 24 C       -8.3310     3.0330     1.4550 C.3   1 <1>  -0.0970 
 25 H       -3.0680     4.5950     1.5270 H     1 <1>   0.0800 
 26 H       -3.3790     2.9150     1.2130 H     1 <1>   0.0800 
 27 H       -0.5270     2.4200    -1.0370 H     1 <1>   0.0800 
 28 H       -1.1970     3.8800    -1.7180 H     1 <1>   0.0800 
 29 H        1.4820     3.3100     2.6620 H     1 <1>   0.1500 
 30 H       -2.7280     1.4310    -0.8500 H     1 <1>   0.0800 
 31 H       -2.4380     1.8960    -2.4930 H     1 <1>   0.0800 
 32 H        2.8790     4.7060    -1.6410 H     1 <1>   0.1500 
 33 H       -4.0760     3.5380    -2.4640 H     1 <1>   0.0800 
 34 H       -4.7250     2.4280    -1.3200 H     1 <1>   0.0800 
 35 H       -3.7160     5.6510    -2.0320 H     1 <1>   0.0800 
 36 H       -2.4880     5.8480    -0.8150 H     1 <1>   0.0800 
 37 H       -4.7530     7.4140    -0.9960 H     1 <1>   0.0800 
 38 H       -3.9350     7.1110     0.5360 H     1 <1>   0.0800 
 39 H        5.1270     4.3210    -1.0490 H     1 <1>   0.0800 
 40 H        5.3340     2.9860     0.0620 H     1 <1>   0.0800 
 41 H        5.4580     4.6290     0.6400 H     1 <1>   0.0800 
 42 H       -7.0750     7.2570     0.7310 H     1 <1>   0.1500 
 43 H       -8.2760     2.1570     0.8360 H     1 <1>   0.0800 
 44 H       -9.3260     3.4360     1.4020 H     1 <1>   0.0800 
 45 H       -8.1120     2.7630     2.4700 H     1 <1>   0.0800 
@<TRIPOS>BOND
  1   1   2  2   
  2   2   3  am  
  3   2   4  1   
  4   3   5  1   
  5   3   6  1   
  6   4   7  ar  
  7   4   8  ar  
  8   5   9  1   
  9   5  25  1   
 10   5  26  1   
 11   6  10  1   
 12   6  27  1   
 13   6  28  1   
 14   7  11  ar  
 15   8  12  ar  
 16   8  29  1   
 17   9  13  1   
 18   9  14  1   
 19   9  15  1   
 20  10  14  1   
 21  10  30  1   
 22  10  31  1   
 23  11  16  ar  
 24  11  32  1   
 25  12  16  ar  
 26  13  17  ar  
 27  13  18  ar  
 28  14  33  1   
 29  14  34  1   
 30  15  19  1   
 31  15  35  1   
 32  15  36  1   
 33  16  20  1   
 34  17  21  ar  
 35  18  19  1   
 36  18  22  ar  
 37  19  37  1   
 38  19  38  1   
 39  20  39  1   
 40  20  40  1   
 41  20  41  1   
 42  21  23  ar  
 43  21  24  1   
 44  22  23  ar  
 45  22  42  1   
 46  24  43  1   
 47  24  44  1   
 48  24  45  1   
@<TRIPOS>SUBSTRUCTURE
  1 ****   3 GROUP 4 **** **** 0

# MOE 2024.06 (io_trps.svl 2023.06)
