@<TRIPOS>MOLECULE
NONAME
25 25 1 0 0 
SMALL
USER_CHARGES


@<TRIPOS>ATOM
  1 F        0.9780     1.5250    -0.2130 F     1 <1>  -0.3400 
  2 C        1.3930     0.6520     0.7040 C.3   1 <1>   0.6610 
  3 F        1.4670     1.3510     1.8350 F     1 <1>  -0.3400 
  4 C        2.7450     0.0380     0.3290 C.2   1 <1>   0.4230 
  5 O        2.7910    -1.1700     0.2560 O.2   1 <1>  -0.5700 
  6 C        3.9070     0.8700     0.0630 C.ar  1 <1>   0.0860 
  7 C        3.9210     2.2610     0.1990 C.ar  1 <1>  -0.1500 
  8 C        5.1010     0.2740    -0.3550 C.ar  1 <1>  -0.1500 
  9 C        5.0460     3.0270    -0.0670 C.ar  1 <1>   0.1000 
 10 C        6.2340     1.0180    -0.6260 C.ar  1 <1>  -0.1500 
 11 N        4.9810     4.4090     0.0850 N.pl3 1 <1>  -0.8380 
 12 C        6.2070     2.3900    -0.4850 C.ar  1 <1>  -0.1500 
 13 C        4.2380     5.1790    -0.9460 C.3   1 <1>   0.1290 
 14 C        6.1190     5.1310     0.7140 C.3   1 <1>   0.1290 
 15 H        0.6260    -0.0900     0.8250 H     1 <1>   0.0800 
 16 H        3.0500     2.7970     0.5260 H     1 <1>   0.1500 
 17 H        5.1430    -0.7960    -0.4720 H     1 <1>   0.1500 
 18 H        7.1370     0.5280    -0.9490 H     1 <1>   0.1500 
 19 H        7.0820     2.9720    -0.7040 H     1 <1>   0.1500 
 20 H        3.5320     4.5420    -1.4490 H     1 <1>   0.0800 
 21 H        4.9240     5.5790    -1.6730 H     1 <1>   0.0800 
 22 H        3.7030     5.9870    -0.4790 H     1 <1>   0.0800 
 23 H        6.6210     4.4840     1.4130 H     1 <1>   0.0800 
 24 H        5.7520     5.9920     1.2440 H     1 <1>   0.0800 
 25 H        6.8180     5.4480    -0.0400 H     1 <1>   0.0800 
@<TRIPOS>BOND
  1   1   2  1   
  2   2   3  1   
  3   2   4  1   
  4   2  15  1   
  5   4   5  2   
  6   4   6  1   
  7   6   7  ar  
  8   6   8  ar  
  9   7   9  ar  
 10   7  16  1   
 11   8  10  ar  
 12   8  17  1   
 13   9  11  1   
 14   9  12  ar  
 15  10  12  ar  
 16  10  18  1   
 17  11  13  1   
 18  11  14  1   
 19  12  19  1   
 20  13  20  1   
 21  13  21  1   
 22  13  22  1   
 23  14  23  1   
 24  14  24  1   
 25  14  25  1   
@<TRIPOS>SUBSTRUCTURE
  1 ****   7 GROUP 4 **** **** 0

# MOE 2024.06 (io_trps.svl 2023.06)
