@<TRIPOS>MOLECULE
NONAME
53 56 1 0 0 
SMALL
USER_CHARGES


@<TRIPOS>ATOM
  1 F        0.5440    -0.1010     0.9860 F     1 <1>  -0.1900 
  2 C        1.3290    -0.9980     0.4360 C.ar  1 <1>   0.1900 
  3 C        2.5370    -0.6240    -0.1800 C.ar  1 <1>   0.1000 
  4 C        0.8890    -2.3060     0.5080 C.ar  1 <1>  -0.1500 
  5 N        3.0560     0.6880    -0.2940 N.pl3 1 <1>  -0.8380 
  6 C        3.2710    -1.6690    -0.7430 C.ar  1 <1>  -0.1500 
  7 C        1.6560    -3.3110    -0.0530 C.ar  1 <1>  -0.1500 
  8 C        4.5090     0.9360    -0.0990 C.3   1 <1>   0.2090 
  9 C        2.2950     1.9030     0.0810 C.3   1 <1>   0.2090 
 10 C        2.8460    -2.9860    -0.6800 C.ar  1 <1>  -0.1500 
 11 C        4.6260     2.3720     0.4130 C.3   1 <1>  -0.0800 
 12 C        3.3110     3.0300    -0.0070 C.3   1 <1>  -0.1600 
 13 C        5.8770     3.0730    -0.1250 C.3   1 <1>   0.2090 
 14 N        5.9500     4.4560     0.4010 N.pl3 1 <1>  -0.8690 
 15 C        7.1030     5.1920     0.4720 C.ar  1 <1>   0.4100 
 16 N        8.2300     4.6100     0.0810 N.ar  1 <1>  -0.6200 
 17 C        7.0560     6.5020     0.9400 C.ar  1 <1>  -0.1500 
 18 C        9.3260     5.3450     0.1610 C.ar  1 <1>   0.1600 
 19 C        8.2040     7.2540     1.0080 C.ar  1 <1>  -0.1500 
 20 C        9.3960     6.6670     0.5920 C.ar  1 <1>   0.0860 
 21 C       10.6600     7.3620     0.6100 C.2   1 <1>   0.5440 
 22 O       11.6210     6.8250     1.1290 O.2   1 <1>  -0.5700 
 23 N       10.8260     8.6120     0.0510 N.am  1 <1>  -0.6600 
 24 C       12.0620     9.4170     0.2830 C.3   1 <1>   0.1400 
 25 C        9.9350     9.2070    -0.9900 C.3   1 <1>   0.1400 
 26 C       11.7120    10.9000     0.4860 C.3   1 <1>   0.1200 
 27 C        9.6970    10.6990    -0.7060 C.3   1 <1>   0.1200 
 28 O       10.9140    11.3750    -0.5640 O.3   1 <1>  -0.5600 
 29 H       -0.0420    -2.5320     0.9950 H     1 <1>   0.1500 
 30 H        4.1890    -1.4480    -1.2520 H     1 <1>   0.1500 
 31 H        1.3290    -4.3360    -0.0050 H     1 <1>   0.1500 
 32 H        5.0050     0.8280    -1.0480 H     1 <1>   0.0800 
 33 H        4.9260     0.2380     0.6080 H     1 <1>   0.0800 
 34 H        1.9490     1.8170     1.0960 H     1 <1>   0.0800 
 35 H        1.4620     2.0560    -0.5840 H     1 <1>   0.0800 
 36 H        3.4450    -3.7620    -1.1250 H     1 <1>   0.1500 
 37 H        4.6830     2.3320     1.4860 H     1 <1>   0.0800 
 38 H        3.0400     3.8540     0.6280 H     1 <1>   0.0800 
 39 H        3.3640     3.3670    -1.0270 H     1 <1>   0.0800 
 40 H        5.8550     3.1070    -1.2020 H     1 <1>   0.0800 
 41 H        6.7540     2.5250     0.1780 H     1 <1>   0.0800 
 42 H        5.0550     4.9370     0.4920 H     1 <1>   0.4000 
 43 H        6.1150     6.9100     1.2520 H     1 <1>   0.1500 
 44 H       10.2470     4.8750    -0.1390 H     1 <1>   0.1500 
 45 H        8.1970     8.2650     1.3760 H     1 <1>   0.1500 
 46 H       12.7160     9.3150    -0.5650 H     1 <1>   0.0800 
 47 H       12.5870     9.0560     1.1510 H     1 <1>   0.0800 
 48 H        8.9930     8.6930    -1.0380 H     1 <1>   0.0800 
 49 H       10.4100     9.1090    -1.9520 H     1 <1>   0.0800 
 50 H       12.6100    11.4930     0.5100 H     1 <1>   0.0800 
 51 H       11.1820    11.0390     1.4120 H     1 <1>   0.0800 
 52 H        9.1240    10.8280     0.1960 H     1 <1>   0.0800 
 53 H        9.1640    11.1530    -1.5230 H     1 <1>   0.0800 
@<TRIPOS>BOND
  1   1   2  1   
  2   2   3  ar  
  3   2   4  ar  
  4   3   5  1   
  5   3   6  ar  
  6   4   7  ar  
  7   4  29  1   
  8   5   8  1   
  9   5   9  1   
 10   6  10  ar  
 11   6  30  1   
 12   7  10  ar  
 13   7  31  1   
 14   8  11  1   
 15   8  32  1   
 16   8  33  1   
 17   9  12  1   
 18   9  34  1   
 19   9  35  1   
 20  10  36  1   
 21  11  12  1   
 22  11  13  1   
 23  11  37  1   
 24  12  38  1   
 25  12  39  1   
 26  13  14  1   
 27  13  40  1   
 28  13  41  1   
 29  14  15  1   
 30  14  42  1   
 31  15  16  ar  
 32  15  17  ar  
 33  16  18  ar  
 34  17  19  ar  
 35  17  43  1   
 36  18  20  ar  
 37  18  44  1   
 38  19  20  ar  
 39  19  45  1   
 40  20  21  1   
 41  21  22  2   
 42  21  23  am  
 43  23  24  1   
 44  23  25  1   
 45  24  26  1   
 46  24  46  1   
 47  24  47  1   
 48  25  27  1   
 49  25  48  1   
 50  25  49  1   
 51  26  28  1   
 52  26  50  1   
 53  26  51  1   
 54  27  28  1   
 55  27  52  1   
 56  27  53  1   
@<TRIPOS>SUBSTRUCTURE
  1 ****  14 GROUP 4 **** **** 0

# MOE 2024.06 (io_trps.svl 2023.06)
