@<TRIPOS>MOLECULE
NONAME
43 44 1 0 0 
SMALL
USER_CHARGES


@<TRIPOS>ATOM
  1 S       -0.6910    -0.2120     0.8350 S.3   1 <1>  -0.0800 
  2 C       -0.4390    -1.4190    -0.3820 C.2   1 <1>   0.4420 
  3 C       -0.0280     0.9460    -0.2710 C.2   1 <1>   0.1980 
  4 N        0.0900    -0.9330    -1.4440 N.2   1 <1>  -0.3380 
  5 N       -0.8300    -2.7010    -0.0600 N.am  1 <1>  -0.4940 
  6 N        0.3210     0.4140    -1.3750 N.2   1 <1>  -0.3380 
  7 C        0.0780     2.4000     0.1920 C.3   1 <1>   0.3800 
  8 C       -0.7330    -3.8480    -0.7930 C.2   1 <1>   0.5690 
  9 O       -1.1200     2.7740     0.8160 O.3   1 <1>  -0.5600 
 10 C        0.3340     3.3670    -0.9700 C.3   1 <1>  -0.2400 
 11 O       -0.2260    -3.9120    -1.8820 O.2   1 <1>  -0.5700 
 12 C       -1.2990    -5.1160    -0.1810 C.3   1 <1>  -0.0990 
 13 C       -1.0160     3.7730     1.7830 C.3   1 <1>   0.0400 
 14 C       -2.8390    -5.1380    -0.2190 C.3   1 <1>  -0.1600 
 15 C       -3.4560    -6.3420     0.5170 C.3   1 <1>  -0.0800 
 16 C       -3.0840    -7.6830    -0.1460 C.3   1 <1>  -0.1600 
 17 C       -4.9860    -6.1830     0.5710 C.3   1 <1>  -0.1600 
 18 C       -3.7610    -8.8700     0.5540 C.3   1 <1>  -0.1600 
 19 C       -5.6580    -7.3670     1.2780 C.3   1 <1>  -0.1600 
 20 C       -5.2820    -8.6930     0.6070 C.3   1 <1>  -0.1600 
 21 H       -1.2730    -2.7950     0.8470 H     1 <1>   0.3700 
 22 H        0.8760     2.4630     0.9110 H     1 <1>   0.0800 
 23 H       -0.4840     3.3220    -1.6670 H     1 <1>   0.0800 
 24 H        1.2330     3.0820    -1.4860 H     1 <1>   0.0800 
 25 H        0.4540     4.3730    -0.6180 H     1 <1>   0.0800 
 26 H       -0.9510    -5.2000     0.8320 H     1 <1>   0.0800 
 27 H       -0.9070    -5.9500    -0.7330 H     1 <1>   0.0800 
 28 H       -1.9980     3.9450     2.1890 H     1 <1>   0.0800 
 29 H       -0.6530     4.6800     1.3320 H     1 <1>   0.0800 
 30 H       -0.3560     3.4460     2.5670 H     1 <1>   0.0800 
 31 H       -3.1630    -5.1390    -1.2470 H     1 <1>   0.0800 
 32 H       -3.2110    -4.2350     0.2320 H     1 <1>   0.0800 
 33 H       -3.0880    -6.3520     1.5290 H     1 <1>   0.0800 
 34 H       -2.0200    -7.8350    -0.1140 H     1 <1>   0.0800 
 35 H       -3.3840    -7.6680    -1.1800 H     1 <1>   0.0800 
 36 H       -5.3750    -6.1080    -0.4300 H     1 <1>   0.0800 
 37 H       -5.2410    -5.2760     1.0910 H     1 <1>   0.0800 
 38 H       -3.3780    -8.9580     1.5560 H     1 <1>   0.0800 
 39 H       -3.5230    -9.7800     0.0300 H     1 <1>   0.0800 
 40 H       -6.7270    -7.2430     1.2550 H     1 <1>   0.0800 
 41 H       -5.3500    -7.3900     2.3100 H     1 <1>   0.0800 
 42 H       -5.7220    -9.5110     1.1520 H     1 <1>   0.0800 
 43 H       -5.6790    -8.7120    -0.3940 H     1 <1>   0.0800 
@<TRIPOS>BOND
  1   1   2  1   
  2   1   3  1   
  3   2   4  2   
  4   2   5  1   
  5   3   6  2   
  6   3   7  1   
  7   4   6  1   
  8   5   8  am  
  9   5  21  1   
 10   7   9  1   
 11   7  10  1   
 12   7  22  1   
 13   8  11  2   
 14   8  12  1   
 15   9  13  1   
 16  10  23  1   
 17  10  24  1   
 18  10  25  1   
 19  12  14  1   
 20  12  26  1   
 21  12  27  1   
 22  13  28  1   
 23  13  29  1   
 24  13  30  1   
 25  14  15  1   
 26  14  31  1   
 27  14  32  1   
 28  15  16  1   
 29  15  17  1   
 30  15  33  1   
 31  16  18  1   
 32  16  34  1   
 33  16  35  1   
 34  17  19  1   
 35  17  36  1   
 36  17  37  1   
 37  18  20  1   
 38  18  38  1   
 39  18  39  1   
 40  19  20  1   
 41  19  40  1   
 42  19  41  1   
 43  20  42  1   
 44  20  43  1   
@<TRIPOS>SUBSTRUCTURE
  1 ****   5 GROUP 4 **** **** 0

# MOE 2024.06 (io_trps.svl 2023.06)
