@<TRIPOS>MOLECULE
NONAME
43 46 1 0 0 
SMALL
USER_CHARGES


@<TRIPOS>ATOM
  1 S        2.0920    -0.5840     2.0300 S.3   1 <1>  -0.0800 
  2 C        1.2780    -0.9110     0.4960 C.2   1 <1>   0.3250 
  3 C        2.7710     0.8690     1.3770 C.2   1 <1>  -0.1100 
  4 N        1.5350     0.0100    -0.3820 N.2   1 <1>  -0.5650 
  5 C        0.4510    -2.1110     0.3940 C.ar  1 <1>   0.6730 
  6 C        2.3630     1.0040     0.1070 C.2   1 <1>   0.0460 
  7 N       -0.2060    -2.3280    -0.7570 N.ar  1 <1>  -0.6200 
  8 N        0.3880    -2.9330     1.4540 N.ar  1 <1>  -0.6200 
  9 C        2.7170     2.1400    -0.8460 C.3   1 <1>   0.3900 
 10 C       -0.9470    -3.4060    -0.8390 C.ar  1 <1>   0.1600 
 11 C       -0.3610    -4.0040     1.3460 C.ar  1 <1>   0.1600 
 12 N        3.6080     3.1420    -0.2010 N.pl3 1 <1>  -0.8690 
 13 C       -1.0600    -4.2910     0.2020 C.ar  1 <1>  -0.1500 
 14 C        4.9320     3.2220    -0.5360 C.ar  1 <1>   0.4100 
 15 N        5.3360     4.4560    -0.7430 N.ar  1 <1>  -0.6200 
 16 C        5.7770     2.1060    -0.6430 C.ar  1 <1>   0.1600 
 17 C        6.6350     4.5510    -1.0810 C.ar  1 <1>   0.3960 
 18 N        7.0500     2.1620    -0.9770 N.ar  1 <1>  -0.6200 
 19 C        7.2580     5.8490    -1.3520 C.2   1 <1>   0.5440 
 20 C        7.4400     3.4120    -1.1930 C.ar  1 <1>   0.1600 
 21 O        8.1770     5.9060    -2.1520 O.2   1 <1>  -0.5700 
 22 N        6.8880     7.0310    -0.7350 N.am  1 <1>  -0.6600 
 23 C        5.9090     7.1730     0.3660 C.3   1 <1>   0.1400 
 24 C        7.5220     8.3300    -1.0500 C.3   1 <1>   0.1400 
 25 C        6.1580     8.5670     0.9290 C.3   1 <1>  -0.1600 
 26 C        6.7340     9.3570    -0.2430 C.3   1 <1>  -0.1600 
 27 H        3.4000     1.4720     2.0060 H     1 <1>   0.1500 
 28 H        1.8090     2.6230    -1.1600 H     1 <1>   0.0800 
 29 H        3.1920     1.7300    -1.7210 H     1 <1>   0.0800 
 30 H       -1.4770    -3.5850    -1.7600 H     1 <1>   0.1500 
 31 H       -0.4180    -4.6690     2.1920 H     1 <1>   0.1500 
 32 H        3.1860     4.0730    -0.1750 H     1 <1>   0.4000 
 33 H       -1.6710    -5.1710     0.1250 H     1 <1>   0.1500 
 34 H        5.3600     1.1380    -0.4350 H     1 <1>   0.1500 
 35 H        8.4690     3.5500    -1.4780 H     1 <1>   0.1500 
 36 H        6.0500     6.4130     1.1150 H     1 <1>   0.0800 
 37 H        4.9140     7.1050    -0.0400 H     1 <1>   0.0800 
 38 H        7.4750     8.5310    -2.1070 H     1 <1>   0.0800 
 39 H        8.5500     8.3040    -0.7330 H     1 <1>   0.0800 
 40 H        6.8870     8.5010     1.7180 H     1 <1>   0.0800 
 41 H        5.2580     9.0080     1.3190 H     1 <1>   0.0800 
 42 H        5.9360     9.7410    -0.8540 H     1 <1>   0.0800 
 43 H        7.3560    10.1740     0.0770 H     1 <1>   0.0800 
@<TRIPOS>BOND
  1   1   2  1   
  2   1   3  1   
  3   2   4  2   
  4   2   5  1   
  5   3   6  2   
  6   3  27  1   
  7   4   6  1   
  8   5   7  ar  
  9   5   8  ar  
 10   6   9  1   
 11   7  10  ar  
 12   8  11  ar  
 13   9  12  1   
 14   9  28  1   
 15   9  29  1   
 16  10  13  ar  
 17  10  30  1   
 18  11  13  ar  
 19  11  31  1   
 20  12  14  1   
 21  12  32  1   
 22  13  33  1   
 23  14  15  ar  
 24  14  16  ar  
 25  15  17  ar  
 26  16  18  ar  
 27  16  34  1   
 28  17  19  1   
 29  17  20  ar  
 30  18  20  ar  
 31  19  21  2   
 32  19  22  am  
 33  20  35  1   
 34  22  23  1   
 35  22  24  1   
 36  23  25  1   
 37  23  36  1   
 38  23  37  1   
 39  24  26  1   
 40  24  38  1   
 41  24  39  1   
 42  25  26  1   
 43  25  40  1   
 44  25  41  1   
 45  26  42  1   
 46  26  43  1   
@<TRIPOS>SUBSTRUCTURE
  1 ****  12 GROUP 4 **** **** 0

# MOE 2024.06 (io_trps.svl 2023.06)
