@<TRIPOS>MOLECULE
NONAME
49 52 1 0 0 
SMALL
USER_CHARGES


@<TRIPOS>ATOM
  1 S        0.1150     1.6470    -0.2300 S.3   1 <1>  -0.0800 
  2 C       -0.2440     2.3150    -1.8280 C.2   1 <1>  -0.0450 
  3 C       -0.2750     0.0190    -0.7380 C.2   1 <1>  -0.1400 
  4 C       -0.0920     3.7280    -2.0800 C.2   1 <1>   0.7150 
  5 C       -0.6100     1.2960    -2.6450 C.2   1 <1>  -0.1500 
  6 C       -0.6350     0.0080    -2.0340 C.2   1 <1>  -0.1500 
  7 C       -0.1560    -1.0810     0.2960 C.3   1 <1>  -0.0600 
  8 O        0.2520     4.0910    -3.1920 O.2   1 <1>  -0.5700 
  9 N       -0.3250     4.6980    -1.1290 N.am  1 <1>  -0.6600 
 10 C       -1.4290     4.6190    -0.1070 C.3   1 <1>   0.2200 
 11 C        0.4830     5.9530    -1.1640 C.3   1 <1>   0.1400 
 12 C       -1.7070     5.9680     0.6300 C.3   1 <1>   0.1380 
 13 C       -2.7140     3.9500    -0.6410 C.3   1 <1>  -0.1600 
 14 C        0.7900     6.4950     0.2440 C.3   1 <1>  -0.1600 
 15 C       -2.2250     7.1490    -0.2500 C.2   1 <1>  -0.2760 
 16 C       -2.7570     5.6730     1.7450 C.3   1 <1>   0.1200 
 17 C       -0.3530     6.3520     1.2720 C.3   1 <1>  -0.1600 
 18 C       -3.9350     4.3590     0.1870 C.3   1 <1>   0.1200 
 19 C       -2.5620     7.0950    -1.5470 C.2   1 <1>  -0.2880 
 20 C       -2.3260     8.5150     0.4400 C.3   1 <1>  -0.0220 
 21 O       -3.5270     4.5240     1.5070 O.3   1 <1>  -0.5600 
 22 C       -3.0360     8.2860    -2.3720 C.3   1 <1>   0.2580 
 23 C       -3.2090     9.4820    -0.3610 C.3   1 <1>   0.1200 
 24 O       -2.8010     9.4830    -1.6930 O.3   1 <1>  -0.5600 
 25 H       -0.8640     1.4220    -3.6840 H     1 <1>   0.1500 
 26 H       -0.9210    -0.8640    -2.5950 H     1 <1>   0.1500 
 27 H       -0.4210    -2.0280    -0.1370 H     1 <1>   0.0800 
 28 H       -0.8130    -0.8790     1.1220 H     1 <1>   0.0800 
 29 H        0.8550    -1.1340     0.6580 H     1 <1>   0.0800 
 30 H       -1.0710     3.9590     0.6640 H     1 <1>   0.0800 
 31 H        1.4110     5.7730    -1.6810 H     1 <1>   0.0800 
 32 H       -0.0500     6.6940    -1.7300 H     1 <1>   0.0800 
 33 H       -2.6120     2.8830    -0.5620 H     1 <1>   0.0800 
 34 H       -2.8940     4.1790    -1.6720 H     1 <1>   0.0800 
 35 H        1.6640     5.9930     0.6200 H     1 <1>   0.0800 
 36 H        1.0470     7.5350     0.1430 H     1 <1>   0.0800 
 37 H       -3.4460     6.4880     1.8610 H     1 <1>   0.0800 
 38 H       -2.2690     5.5180     2.6900 H     1 <1>   0.0800 
 39 H       -0.4360     7.2500     1.8570 H     1 <1>   0.0800 
 40 H       -0.0720     5.5710     1.9590 H     1 <1>   0.0800 
 41 H       -4.6900     3.5920     0.1600 H     1 <1>   0.0800 
 42 H       -4.3610     5.2850    -0.1620 H     1 <1>   0.0800 
 43 H       -2.5160     6.2110    -2.1500 H     1 <1>   0.1500 
 44 H       -1.3450     8.9480     0.5240 H     1 <1>   0.0800 
 45 H       -2.7350     8.4390     1.4290 H     1 <1>   0.0800 
 46 H       -4.0890     8.2110    -2.5820 H     1 <1>   0.0800 
 47 H       -2.4940     8.3350    -3.3000 H     1 <1>   0.0800 
 48 H       -3.1120    10.4840     0.0170 H     1 <1>   0.0800 
 49 H       -4.2430     9.1850    -0.3190 H     1 <1>   0.0800 
@<TRIPOS>BOND
  1   1   2  1   
  2   1   3  1   
  3   2   4  1   
  4   2   5  2   
  5   3   6  2   
  6   3   7  1   
  7   4   8  2   
  8   4   9  am  
  9   5   6  1   
 10   5  25  1   
 11   6  26  1   
 12   7  27  1   
 13   7  28  1   
 14   7  29  1   
 15   9  10  1   
 16   9  11  1   
 17  10  12  1   
 18  10  13  1   
 19  10  30  1   
 20  11  14  1   
 21  11  31  1   
 22  11  32  1   
 23  12  15  1   
 24  12  16  1   
 25  12  17  1   
 26  13  18  1   
 27  13  33  1   
 28  13  34  1   
 29  14  17  1   
 30  14  35  1   
 31  14  36  1   
 32  15  19  2   
 33  15  20  1   
 34  16  21  1   
 35  16  37  1   
 36  16  38  1   
 37  17  39  1   
 38  17  40  1   
 39  18  21  1   
 40  18  41  1   
 41  18  42  1   
 42  19  22  1   
 43  19  43  1   
 44  20  23  1   
 45  20  44  1   
 46  20  45  1   
 47  22  24  1   
 48  22  46  1   
 49  22  47  1   
 50  23  24  1   
 51  23  48  1   
 52  23  49  1   
@<TRIPOS>SUBSTRUCTURE
  1 ****  10 GROUP 4 **** **** 0

# MOE 2024.06 (io_trps.svl 2023.06)
