@<TRIPOS>MOLECULE
NONAME
52 53 1 0 0 
SMALL
USER_CHARGES


@<TRIPOS>ATOM
  1 O        0.0750    -0.3030     1.5390 O.2   1 <1>  -0.5700 
  2 C        1.0420    -0.7130     0.9470 C.2   1 <1>   0.5690 
  3 N        2.0910     0.0740     0.5710 N.am  1 <1>  -0.4940 
  4 C        1.1100    -2.1950     0.5980 C.3   1 <1>  -0.0990 
  5 C        2.2630     1.4550     0.7330 C.2   1 <1>   0.2040 
  6 C       -0.2710    -2.8890     0.5360 C.3   1 <1>  -0.0800 
  7 O        1.3450     2.2190     1.2770 O.3   1 <1>  -0.0190 
  8 C        3.3040     2.2450     0.4000 C.2   1 <1>  -0.1810 
  9 C       -0.1270    -4.4020     0.3120 C.3   1 <1>  -0.1600 
 10 C       -1.1510    -2.3220    -0.5920 C.3   1 <1>  -0.1600 
 11 N        1.7200     3.4720     1.3270 N.2   1 <1>  -0.4100 
 12 C        2.8930     3.5130     0.8070 C.2   1 <1>   0.1080 
 13 C        4.6220     1.8770    -0.2600 C.3   1 <1>   0.0210 
 14 C       -1.4770    -5.1390     0.2440 C.3   1 <1>   0.5030 
 15 C       -2.5340    -2.9870    -0.6780 C.3   1 <1>   0.5030 
 16 C        3.6900     4.7930     0.6710 C.3   1 <1>  -0.0590 
 17 C        5.7090     1.6540     0.7930 C.3   1 <1>  -0.2400 
 18 N       -2.4210    -4.4560    -0.6560 N.4   1 <1>  -0.9060 
 19 C       -1.2690    -6.5260    -0.3600 C.3   1 <1>  -0.2400 
 20 C       -2.1080    -5.3150     1.6280 C.3   1 <1>  -0.2400 
 21 C       -3.1790    -2.6480    -2.0210 C.3   1 <1>  -0.2400 
 22 C       -3.4730    -2.5120     0.4320 C.3   1 <1>  -0.2400 
 23 H        2.8780    -0.3960     0.1340 H     1 <1>   0.3700 
 24 H        1.7080    -2.6700     1.3550 H     1 <1>   0.0800 
 25 H        1.6150    -2.3110    -0.3430 H     1 <1>   0.0800 
 26 H       -0.7520    -2.7220     1.4850 H     1 <1>   0.0800 
 27 H        0.4630    -4.8270     1.1060 H     1 <1>   0.0800 
 28 H        0.4170    -4.5680    -0.6020 H     1 <1>   0.0800 
 29 H       -0.6360    -2.4390    -1.5300 H     1 <1>   0.0800 
 30 H       -1.2930    -1.2640    -0.4500 H     1 <1>   0.0800 
 31 H        4.9210     2.6610    -0.9340 H     1 <1>   0.0800 
 32 H        4.4980     0.9800    -0.8400 H     1 <1>   0.0800 
 33 H        4.6010     4.7200     1.2330 H     1 <1>   0.0800 
 34 H        3.1180     5.6220     1.0470 H     1 <1>   0.0800 
 35 H        3.9200     4.9730    -0.3630 H     1 <1>   0.0800 
 36 H        5.8650     2.5500     1.3660 H     1 <1>   0.0800 
 37 H        6.6360     1.3830     0.3190 H     1 <1>   0.0800 
 38 H        5.4210     0.8650     1.4650 H     1 <1>   0.0800 
 39 H       -3.3520    -4.8370    -0.4850 H     1 <1>   0.4500 
 40 H       -2.1620    -4.7330    -1.6030 H     1 <1>   0.4500 
 41 H       -0.8510    -6.4650    -1.3490 H     1 <1>   0.0800 
 42 H       -2.1930    -7.0760    -0.4010 H     1 <1>   0.0800 
 43 H       -0.5820    -7.0910     0.2470 H     1 <1>   0.0800 
 44 H       -2.1650    -4.3950     2.1730 H     1 <1>   0.0800 
 45 H       -1.5020    -5.9800     2.2190 H     1 <1>   0.0800 
 46 H       -3.0910    -5.7470     1.5580 H     1 <1>   0.0800 
 47 H       -2.5720    -2.9810    -2.8440 H     1 <1>   0.0800 
 48 H       -3.2890    -1.5810    -2.1130 H     1 <1>   0.0800 
 49 H       -4.1590    -3.0850    -2.1040 H     1 <1>   0.0800 
 50 H       -3.0310    -2.5870     1.4050 H     1 <1>   0.0800 
 51 H       -4.4030    -3.0520     0.4200 H     1 <1>   0.0800 
 52 H       -3.7000    -1.4690     0.2880 H     1 <1>   0.0800 
@<TRIPOS>BOND
  1   1   2  2   
  2   2   3  am  
  3   2   4  1   
  4   3   5  1   
  5   3  23  1   
  6   4   6  1   
  7   4  24  1   
  8   4  25  1   
  9   5   7  1   
 10   5   8  2   
 11   6   9  1   
 12   6  10  1   
 13   6  26  1   
 14   7  11  1   
 15   8  12  1   
 16   8  13  1   
 17   9  14  1   
 18   9  27  1   
 19   9  28  1   
 20  10  15  1   
 21  10  29  1   
 22  10  30  1   
 23  11  12  2   
 24  12  16  1   
 25  13  17  1   
 26  13  31  1   
 27  13  32  1   
 28  14  18  1   
 29  14  19  1   
 30  14  20  1   
 31  15  18  1   
 32  15  21  1   
 33  15  22  1   
 34  16  33  1   
 35  16  34  1   
 36  16  35  1   
 37  17  36  1   
 38  17  37  1   
 39  17  38  1   
 40  18  39  1   
 41  18  40  1   
 42  19  41  1   
 43  19  42  1   
 44  19  43  1   
 45  20  44  1   
 46  20  45  1   
 47  20  46  1   
 48  21  47  1   
 49  21  48  1   
 50  21  49  1   
 51  22  50  1   
 52  22  51  1   
 53  22  52  1   
@<TRIPOS>SUBSTRUCTURE
  1 ****   2 GROUP 4 **** **** 0

# MOE 2024.06 (io_trps.svl 2023.06)
