@<TRIPOS>MOLECULE
NONAME
46 48 1 0 0 
SMALL
USER_CHARGES


@<TRIPOS>ATOM
  1 F       -0.8790    -2.5870    -1.1130 F     1 <1>  -0.3400 
  2 C       -0.5690    -2.7340     0.1730 C.3   1 <1>   0.9600 
  3 F       -0.0860    -3.9710     0.2500 F     1 <1>  -0.3400 
  4 O       -1.7830    -2.7480     0.9250 O.3   1 <1>  -0.3630 
  5 C        0.5260    -1.7150     0.6100 C.3   1 <1>   0.6000 
  6 C       -2.6820    -1.7500     0.7710 C.ar  1 <1>   0.0830 
  7 F        0.7320    -1.7340     1.9280 F     1 <1>  -0.3400 
  8 F        0.1940    -0.4500     0.3450 F     1 <1>  -0.3400 
  9 C       -3.7340    -1.8480    -0.1560 C.ar  1 <1>   0.0860 
 10 C       -2.5490    -0.6360     1.5880 C.ar  1 <1>  -0.1500 
 11 C       -3.9770    -3.0180    -0.9830 C.2   1 <1>   0.5440 
 12 C       -4.5900    -0.7490    -0.2570 C.ar  1 <1>  -0.1500 
 13 C       -3.4220     0.4270     1.4690 C.ar  1 <1>  -0.1500 
 14 O       -4.5350    -2.9170    -2.0580 O.2   1 <1>  -0.5700 
 15 N       -3.6300    -4.2690    -0.5650 N.am  1 <1>  -0.7300 
 16 C       -4.4420     0.3720     0.5370 C.ar  1 <1>  -0.1500 
 17 C       -3.7740    -5.5180    -1.3460 C.3   1 <1>   0.2200 
 18 C       -4.9120    -6.3730    -0.8080 C.3   1 <1>  -0.0800 
 19 C       -2.5830    -6.4210    -1.0540 C.3   1 <1>   0.1200 
 20 C       -4.2540    -7.1310     0.3500 C.3   1 <1>   0.1200 
 21 C       -6.1960    -5.6150    -0.4230 C.3   1 <1>  -0.0170 
 22 O       -2.8700    -7.0240     0.1710 O.3   1 <1>  -0.5600 
 23 C       -7.2820    -6.5800     0.0260 C.ar  1 <1>  -0.1430 
 24 C       -8.0680    -7.2610    -0.8820 C.ar  1 <1>  -0.1500 
 25 C       -7.5390    -6.8250     1.3590 C.ar  1 <1>  -0.1500 
 26 C       -9.0410    -8.1340    -0.4250 C.ar  1 <1>   0.1600 
 27 C       -8.5370    -7.7200     1.7110 C.ar  1 <1>   0.1600 
 28 N       -9.2920    -8.3820     0.8500 N.ar  1 <1>  -0.6200 
 29 H        1.4650    -1.9100     0.1270 H     1 <1>   0.0800 
 30 H       -1.7600    -0.5930     2.3180 H     1 <1>   0.1500 
 31 H       -5.3930    -0.7810    -0.9750 H     1 <1>   0.1500 
 32 H       -3.3100     1.2950     2.0970 H     1 <1>   0.1500 
 33 H       -3.1590    -4.3880     0.3370 H     1 <1>   0.3700 
 34 H       -5.1220     1.2010     0.4340 H     1 <1>   0.1500 
 35 H       -3.8750    -5.3020    -2.3970 H     1 <1>   0.0800 
 36 H       -5.1640    -7.0970    -1.5630 H     1 <1>   0.0800 
 37 H       -1.6560    -5.8800    -0.9870 H     1 <1>   0.0800 
 38 H       -2.5040    -7.1980    -1.7940 H     1 <1>   0.0800 
 39 H       -4.5290    -8.1710     0.3560 H     1 <1>   0.0800 
 40 H       -4.4910    -6.6860     1.3000 H     1 <1>   0.0800 
 41 H       -6.5440    -5.0510    -1.2710 H     1 <1>   0.0800 
 42 H       -5.9960    -4.9140     0.3680 H     1 <1>   0.0800 
 43 H       -7.9320    -7.1190    -1.9380 H     1 <1>   0.1500 
 44 H       -6.9750    -6.3310     2.1290 H     1 <1>   0.1500 
 45 H       -9.6440    -8.6570    -1.1480 H     1 <1>   0.1500 
 46 H       -8.7230    -7.9000     2.7560 H     1 <1>   0.1500 
@<TRIPOS>BOND
  1   1   2  1   
  2   2   3  1   
  3   2   4  1   
  4   2   5  1   
  5   4   6  1   
  6   5   7  1   
  7   5   8  1   
  8   5  29  1   
  9   6   9  ar  
 10   6  10  ar  
 11   9  11  1   
 12   9  12  ar  
 13  10  13  ar  
 14  10  30  1   
 15  11  14  2   
 16  11  15  am  
 17  12  16  ar  
 18  12  31  1   
 19  13  16  ar  
 20  13  32  1   
 21  15  17  1   
 22  15  33  1   
 23  16  34  1   
 24  17  18  1   
 25  17  19  1   
 26  17  35  1   
 27  18  20  1   
 28  18  21  1   
 29  18  36  1   
 30  19  22  1   
 31  19  37  1   
 32  19  38  1   
 33  20  22  1   
 34  20  39  1   
 35  20  40  1   
 36  21  23  1   
 37  21  41  1   
 38  21  42  1   
 39  23  24  ar  
 40  23  25  ar  
 41  24  26  ar  
 42  24  43  1   
 43  25  27  ar  
 44  25  44  1   
 45  26  28  ar  
 46  26  45  1   
 47  27  28  ar  
 48  27  46  1   
@<TRIPOS>SUBSTRUCTURE
  1 ****  15 GROUP 4 **** **** 0

# MOE 2024.06 (io_trps.svl 2023.06)
