@<TRIPOS>MOLECULE
NONAME
46 49 1 0 0 
SMALL
USER_CHARGES


@<TRIPOS>ATOM
  1 CL      -2.0150     0.9900    -1.6840 Cl    1 <1>  -0.1770 
  2 C       -1.1410     2.3120    -0.9440 C.ar  1 <1>   0.1770 
  3 C       -1.5290     2.7670     0.3170 C.ar  1 <1>  -0.1440 
  4 C       -0.0880     2.8800    -1.6450 C.ar  1 <1>  -0.1500 
  5 C       -0.8390     3.8260     0.9010 C.ar  1 <1>  -0.1500 
  6 C       -2.6910     2.1160     1.0420 C.3   1 <1>   0.4870 
  7 C        0.5720     3.9290    -1.0400 C.ar  1 <1>   0.0830 
  8 C        0.2070     4.3870     0.1940 C.ar  1 <1>   0.0830 
  9 N       -3.9600     2.4280     0.3240 N.4   1 <1>  -0.9590 
 10 O        1.6050     4.6370    -1.5040 O.3   1 <1>  -0.3630 
 11 O        0.9930     5.4030     0.5580 O.3   1 <1>  -0.3620 
 12 C       -4.2330     3.8940     0.2650 C.3   1 <1>   0.3430 
 13 C       -5.1040     1.6460     0.8650 C.3   1 <1>   0.3430 
 14 C        1.9320     5.5980    -0.5000 C.3   1 <1>   0.4000 
 15 C       -5.4490     4.1410    -0.6170 C.3   1 <1>  -0.1600 
 16 C       -6.3510     1.9010     0.0200 C.3   1 <1>  -0.1600 
 17 C       -6.6930     3.3940    -0.1030 C.3   1 <1>   0.2800 
 18 O       -7.6370     3.4480    -1.1330 O.3   1 <1>  -0.5600 
 19 C       -7.2260     3.9380     1.2580 C.3   1 <1>   0.1400 
 20 C       -8.7800     4.2550    -1.0650 C.3   1 <1>   0.1200 
 21 N       -7.4470     5.4080     1.2920 N.am  1 <1>  -0.7300 
 22 C       -8.4240     5.7410    -1.0120 C.3   1 <1>  -0.0990 
 23 C       -7.9380     6.2300     0.3370 C.2   1 <1>   0.5690 
 24 O       -7.9880     7.4090     0.5640 O.2   1 <1>  -0.5700 
 25 H        0.2080     2.5250    -2.6150 H     1 <1>   0.1500 
 26 H       -1.0820     4.2190     1.8730 H     1 <1>   0.1500 
 27 H       -2.7380     2.4770     2.0560 H     1 <1>   0.0800 
 28 H       -2.5350     1.0490     1.0670 H     1 <1>   0.0800 
 29 H       -3.8080     2.1160    -0.6480 H     1 <1>   0.4500 
 30 H       -3.3850     4.4150    -0.1530 H     1 <1>   0.0800 
 31 H       -4.4130     4.2820     1.2540 H     1 <1>   0.0800 
 32 H       -5.2920     1.9290     1.8880 H     1 <1>   0.0800 
 33 H       -4.8730     0.5920     0.8440 H     1 <1>   0.0800 
 34 H        1.8280     6.5910    -0.9000 H     1 <1>   0.0800 
 35 H        2.9290     5.4160    -0.1380 H     1 <1>   0.0800 
 36 H       -5.2230     3.8210    -1.6190 H     1 <1>   0.0800 
 37 H       -5.6270     5.1990    -0.6540 H     1 <1>   0.0800 
 38 H       -7.1840     1.3760     0.4540 H     1 <1>   0.0800 
 39 H       -6.1880     1.4880    -0.9610 H     1 <1>   0.0800 
 40 H       -6.5140     3.7090     2.0300 H     1 <1>   0.0800 
 41 H       -8.1410     3.4350     1.5210 H     1 <1>   0.0800 
 42 H       -9.3900     3.9580    -0.2300 H     1 <1>   0.0800 
 43 H       -9.3400     4.0640    -1.9640 H     1 <1>   0.0800 
 44 H       -7.2780     5.8780     2.1870 H     1 <1>   0.3700 
 45 H       -9.3110     6.3000    -1.2430 H     1 <1>   0.0800 
 46 H       -7.6970     5.9740    -1.7670 H     1 <1>   0.0800 
@<TRIPOS>BOND
  1   1   2  1   
  2   2   3  ar  
  3   2   4  ar  
  4   3   5  ar  
  5   3   6  1   
  6   4   7  ar  
  7   4  25  1   
  8   5   8  ar  
  9   5  26  1   
 10   6   9  1   
 11   6  27  1   
 12   6  28  1   
 13   7   8  ar  
 14   7  10  1   
 15   8  11  1   
 16   9  12  1   
 17   9  13  1   
 18   9  29  1   
 19  10  14  1   
 20  11  14  1   
 21  12  15  1   
 22  12  30  1   
 23  12  31  1   
 24  13  16  1   
 25  13  32  1   
 26  13  33  1   
 27  14  34  1   
 28  14  35  1   
 29  15  17  1   
 30  15  36  1   
 31  15  37  1   
 32  16  17  1   
 33  16  38  1   
 34  16  39  1   
 35  17  18  1   
 36  17  19  1   
 37  18  20  1   
 38  19  21  1   
 39  19  40  1   
 40  19  41  1   
 41  20  22  1   
 42  20  42  1   
 43  20  43  1   
 44  21  23  am  
 45  21  44  1   
 46  22  23  1   
 47  22  45  1   
 48  22  46  1   
 49  23  24  2   
@<TRIPOS>SUBSTRUCTURE
  1 ****  12 GROUP 4 **** **** 0

# MOE 2024.06 (io_trps.svl 2023.06)
