@<TRIPOS>MOLECULE
NONAME
51 53 1 0 0 
SMALL
USER_CHARGES


@<TRIPOS>ATOM
  1 S       -0.1090     0.6640     0.8260 S.3   1 <1>  -0.3320 
  2 C        1.4600     1.1820     0.0840 C.ar  1 <1>   0.1020 
  3 C       -0.9500     2.2190     1.4050 C.3   1 <1>   0.1310 
  4 C        2.0940     0.2950    -0.7890 C.ar  1 <1>   0.1170 
  5 C        2.0030     2.4210     0.3840 C.ar  1 <1>  -0.1500 
  6 C       -2.4410     1.9830     1.5990 C.2   1 <1>   0.5690 
  7 N        1.5030    -0.9590    -1.0360 N.am  1 <1>  -0.5470 
  8 C        3.2930     0.7010    -1.3660 C.ar  1 <1>  -0.1500 
  9 C        3.1960     2.8020    -0.2060 C.ar  1 <1>  -0.1500 
 10 O       -2.8450     1.9660     2.7390 O.2   1 <1>  -0.5700 
 11 N       -3.2880     1.8180     0.5280 N.am  1 <1>  -0.6600 
 12 C        1.7500    -1.9320    -1.9590 C.2   1 <1>   0.5690 
 13 C        3.8370     1.9420    -1.0810 C.ar  1 <1>  -0.1500 
 14 C       -4.7340     1.5080     0.7300 C.3   1 <1>   0.1400 
 15 C       -2.8790     1.7780    -0.9040 C.3   1 <1>   0.1400 
 16 O        2.5940    -1.8620    -2.8160 O.2   1 <1>  -0.5700 
 17 C        0.8920    -3.1700    -1.8940 C.3   1 <1>  -0.1790 
 18 C       -5.0450     0.0800     0.2420 C.3   1 <1>   0.0000 
 19 C       -3.1450     0.3800    -1.4730 C.3   1 <1>  -0.1600 
 20 C       -6.5320    -0.2540     0.4730 C.3   1 <1>   0.2000 
 21 C       -4.6010    -0.0670    -1.2430 C.3   1 <1>  -0.1600 
 22 C       -4.3660    -0.9850     1.1240 C.3   1 <1>  -0.1600 
 23 O       -7.3550     0.2090    -0.5370 O.3   1 <1>  -0.6800 
 24 C       -6.6210    -1.7760     0.5750 C.3   1 <1>  -0.1600 
 25 C       -5.2200    -2.2500     0.9840 C.3   1 <1>  -0.1600 
 26 H       -0.4930     2.4960     2.3370 H     1 <1>   0.0800 
 27 H       -0.7820     2.9830     0.6700 H     1 <1>   0.0800 
 28 H        1.5250     3.0920     1.0710 H     1 <1>   0.1500 
 29 H        0.7170    -1.1450    -0.4110 H     1 <1>   0.3700 
 30 H        3.8160     0.0500    -2.0430 H     1 <1>   0.1500 
 31 H        3.6280     3.7630     0.0160 H     1 <1>   0.1500 
 32 H        4.7650     2.2360    -1.5410 H     1 <1>   0.1500 
 33 H       -5.0030     1.6080     1.7670 H     1 <1>   0.0800 
 34 H       -5.3260     2.2150     0.1730 H     1 <1>   0.0800 
 35 H       -3.4570     2.5050    -1.4490 H     1 <1>   0.0800 
 36 H       -1.8400     2.0260    -1.0270 H     1 <1>   0.0800 
 37 H        1.0420    -3.6660    -0.9540 H     1 <1>   0.0800 
 38 H        1.1640    -3.8410    -2.6880 H     1 <1>   0.0800 
 39 H       -0.1420    -2.9040    -2.0030 H     1 <1>   0.0800 
 40 H       -2.9370     0.3870    -2.5290 H     1 <1>   0.0800 
 41 H       -2.4620    -0.3160    -1.0210 H     1 <1>   0.0800 
 42 H       -6.8660     0.1840     1.3990 H     1 <1>   0.0800 
 43 H       -4.7220    -1.0820    -1.5770 H     1 <1>   0.0800 
 44 H       -5.2230     0.5560    -1.8620 H     1 <1>   0.0800 
 45 H       -3.3380    -1.1630     0.8680 H     1 <1>   0.0800 
 46 H       -4.3950    -0.6640     2.1520 H     1 <1>   0.0800 
 47 H       -7.1180    -0.2300    -1.3750 H     1 <1>   0.4000 
 48 H       -7.3500    -2.0540     1.3160 H     1 <1>   0.0800 
 49 H       -6.8880    -2.2150    -0.3710 H     1 <1>   0.0800 
 50 H       -5.2440    -2.8010     1.9090 H     1 <1>   0.0800 
 51 H       -4.8130    -2.8840     0.2150 H     1 <1>   0.0800 
@<TRIPOS>BOND
  1   1   2  1   
  2   1   3  1   
  3   2   4  ar  
  4   2   5  ar  
  5   3   6  1   
  6   3  26  1   
  7   3  27  1   
  8   4   7  1   
  9   4   8  ar  
 10   5   9  ar  
 11   5  28  1   
 12   6  10  2   
 13   6  11  am  
 14   7  12  am  
 15   7  29  1   
 16   8  13  ar  
 17   8  30  1   
 18   9  13  ar  
 19   9  31  1   
 20  11  14  1   
 21  11  15  1   
 22  12  16  2   
 23  12  17  1   
 24  13  32  1   
 25  14  18  1   
 26  14  33  1   
 27  14  34  1   
 28  15  19  1   
 29  15  35  1   
 30  15  36  1   
 31  17  37  1   
 32  17  38  1   
 33  17  39  1   
 34  18  20  1   
 35  18  21  1   
 36  18  22  1   
 37  19  21  1   
 38  19  40  1   
 39  19  41  1   
 40  20  23  1   
 41  20  24  1   
 42  20  42  1   
 43  21  43  1   
 44  21  44  1   
 45  22  25  1   
 46  22  45  1   
 47  22  46  1   
 48  23  47  1   
 49  24  25  1   
 50  24  48  1   
 51  24  49  1   
 52  25  50  1   
 53  25  51  1   
@<TRIPOS>SUBSTRUCTURE
  1 ****   1 GROUP 4 **** **** 0

# MOE 2024.06 (io_trps.svl 2023.06)
