@<TRIPOS>MOLECULE
NONAME
48 51 1 0 0 
SMALL
USER_CHARGES


@<TRIPOS>ATOM
  1 F        1.3800     0.6410     0.6240 F     1 <1>  -0.1900 
  2 C        2.0070    -0.4570     0.3010 C.ar  1 <1>   0.1900 
  3 C        1.7210    -1.6130     0.9980 C.ar  1 <1>  -0.1500 
  4 C        2.9280    -0.4240    -0.7250 C.ar  1 <1>  -0.1500 
  5 C        2.3750    -2.7900     0.6610 C.ar  1 <1>  -0.1440 
  6 C        3.5820    -1.5960    -1.0580 C.ar  1 <1>  -0.1500 
  7 C        3.3210    -2.7860    -0.3780 C.ar  1 <1>  -0.0230 
  8 C        2.0330    -4.0480     1.4520 C.3   1 <1>   0.4870 
  9 N        4.0310    -3.9600    -0.7710 N.pl3 1 <1>   0.5930 
 10 N        1.2060    -4.9490     0.6130 N.4   1 <1>  -0.9590 
 11 N        3.4100    -5.1190    -1.1240 N.2   1 <1>  -0.7070 
 12 C        5.3730    -4.1200    -0.8290 C.2   1 <1>  -0.3020 
 13 C       -0.0390    -4.3570     0.0310 C.3   1 <1>   0.3430 
 14 C        0.8380    -6.2380     1.2410 C.3   1 <1>   0.3430 
 15 C        4.3680    -5.9540    -1.3980 C.2   1 <1>   0.1390 
 16 C        5.6230    -5.3840    -1.2280 C.2   1 <1>  -0.1500 
 17 C       -1.1020    -5.4680     0.0780 C.3   1 <1>   0.2000 
 18 C       -0.3310    -6.7510     0.3970 C.3   1 <1>  -0.0800 
 19 O       -1.9940    -5.2100     1.1110 O.3   1 <1>  -0.6800 
 20 C        0.1230    -7.4510    -0.9040 C.3   1 <1>   0.0200 
 21 C        1.1160    -8.5650    -0.6400 C.2   1 <1>  -0.0400 
 22 O        2.3580    -8.2690    -0.3660 O.3   1 <1>  -0.0190 
 23 C        1.0020    -9.9010    -0.6320 C.2   1 <1>  -0.1500 
 24 N        3.0770    -9.3280    -0.1590 N.2   1 <1>  -0.4100 
 25 C        2.2890   -10.3310    -0.3170 C.2   1 <1>   0.1080 
 26 C        2.7110   -11.7770    -0.1800 C.3   1 <1>  -0.0590 
 27 H        0.9940    -1.5670     1.7920 H     1 <1>   0.1500 
 28 H        3.1230     0.4970    -1.2460 H     1 <1>   0.1500 
 29 H        4.3020    -1.5810    -1.8610 H     1 <1>   0.1500 
 30 H        1.4950    -3.7810     2.3470 H     1 <1>   0.0800 
 31 H        2.9430    -4.5510     1.7390 H     1 <1>   0.0800 
 32 H        1.8300    -5.1870    -0.1890 H     1 <1>   0.4500 
 33 H        6.0600    -3.3320    -0.5850 H     1 <1>   0.1500 
 34 H       -0.3760    -3.5030     0.5950 H     1 <1>   0.0800 
 35 H        0.1460    -4.0590    -0.9880 H     1 <1>   0.0800 
 36 H        1.6690    -6.9240     1.2660 H     1 <1>   0.0800 
 37 H        0.5000    -6.0680     2.2490 H     1 <1>   0.0800 
 38 H        4.2120    -6.9740    -1.7180 H     1 <1>   0.1500 
 39 H        6.5680    -5.8750    -1.3890 H     1 <1>   0.1500 
 40 H       -1.6710    -5.5210    -0.8360 H     1 <1>   0.0800 
 41 H       -0.9290    -7.4470     0.9610 H     1 <1>   0.0800 
 42 H       -1.6210    -5.3700     1.9990 H     1 <1>   0.4000 
 43 H        0.5780    -6.7510    -1.5840 H     1 <1>   0.0800 
 44 H       -0.7390    -7.8680    -1.3970 H     1 <1>   0.0800 
 45 H        0.1480   -10.5270    -0.8170 H     1 <1>   0.1500 
 46 H        2.1220   -12.2610     0.5780 H     1 <1>   0.0800 
 47 H        3.7480   -11.8340     0.0980 H     1 <1>   0.0800 
 48 H        2.5740   -12.2880    -1.1150 H     1 <1>   0.0800 
@<TRIPOS>BOND
  1   1   2  1   
  2   2   3  ar  
  3   2   4  ar  
  4   3   5  ar  
  5   3  27  1   
  6   4   6  ar  
  7   4  28  1   
  8   5   7  ar  
  9   5   8  1   
 10   6   7  ar  
 11   6  29  1   
 12   7   9  1   
 13   8  10  1   
 14   8  30  1   
 15   8  31  1   
 16   9  11  1   
 17   9  12  1   
 18  10  13  1   
 19  10  14  1   
 20  10  32  1   
 21  11  15  2   
 22  12  16  2   
 23  12  33  1   
 24  13  17  1   
 25  13  34  1   
 26  13  35  1   
 27  14  18  1   
 28  14  36  1   
 29  14  37  1   
 30  15  16  1   
 31  15  38  1   
 32  16  39  1   
 33  17  18  1   
 34  17  19  1   
 35  17  40  1   
 36  18  20  1   
 37  18  41  1   
 38  19  42  1   
 39  20  21  1   
 40  20  43  1   
 41  20  44  1   
 42  21  22  1   
 43  21  23  2   
 44  22  24  1   
 45  23  25  1   
 46  23  45  1   
 47  24  25  2   
 48  25  26  1   
 49  26  46  1   
 50  26  47  1   
 51  26  48  1   
@<TRIPOS>SUBSTRUCTURE
  1 ****  10 GROUP 4 **** **** 0

# MOE 2024.06 (io_trps.svl 2023.06)
