@<TRIPOS>MOLECULE
NONAME
37 39 1 0 0 
SMALL
USER_CHARGES


@<TRIPOS>ATOM
  1 S       -0.2250    -0.2880    -1.2140 S.3   1 <1>  -0.0800 
  2 C       -1.4760    -1.0030    -0.2100 C.2   1 <1>  -0.1400 
  3 C       -0.8110     1.3300    -0.8800 C.2   1 <1>  -0.1100 
  4 C       -2.2560    -0.0390     0.3220 C.2   1 <1>  -0.1500 
  5 C       -1.4490    -2.5160    -0.1250 C.3   1 <1>   0.5230 
  6 C       -1.8770     1.2870    -0.0620 C.2   1 <1>  -0.1500 
  7 N       -2.7550    -3.0170     0.3710 N.4   1 <1>  -0.9590 
  8 C       -3.9000    -2.7600    -0.5390 C.3   1 <1>   0.3430 
  9 C       -2.7910    -4.4760     0.6630 C.3   1 <1>   0.3430 
 10 C       -4.9940    -3.6700     0.0170 C.3   1 <1>   0.2000 
 11 C       -4.2360    -4.9450     0.4010 C.3   1 <1>  -0.0800 
 12 O       -5.4690    -3.0870     1.1860 O.3   1 <1>  -0.6800 
 13 C       -4.3070    -6.0030    -0.7210 C.3   1 <1>  -0.0160 
 14 C       -3.5970    -7.2960    -0.3420 C.ar  1 <1>   0.1670 
 15 N       -2.2740    -7.2540    -0.3210 N.ar  1 <1>  -0.6200 
 16 C       -4.3360    -8.4420    -0.0470 C.ar  1 <1>   0.1600 
 17 C       -1.7450    -8.4260     0.0020 C.ar  1 <1>   0.1600 
 18 N       -3.8080    -9.6050     0.2880 N.ar  1 <1>  -0.6200 
 19 C       -2.4870    -9.5630     0.2980 C.ar  1 <1>   0.1600 
 20 H       -0.2890     2.1530    -1.3370 H     1 <1>   0.1500 
 21 H       -3.0950    -0.1770     0.9820 H     1 <1>   0.1500 
 22 H       -0.6550    -2.8180     0.5390 H     1 <1>   0.0800 
 23 H       -1.2480    -2.9260    -1.1010 H     1 <1>   0.0800 
 24 H       -2.4210     2.1460     0.2960 H     1 <1>   0.1500 
 25 H       -2.9870    -2.5240     1.2460 H     1 <1>   0.4500 
 26 H       -4.2060    -1.7270    -0.5310 H     1 <1>   0.0800 
 27 H       -3.6510    -3.0580    -1.5440 H     1 <1>   0.0800 
 28 H       -2.1090    -4.9930     0.0090 H     1 <1>   0.0800 
 29 H       -2.5050    -4.6690     1.6850 H     1 <1>   0.0800 
 30 H       -5.8150    -3.8130    -0.6660 H     1 <1>   0.0800 
 31 H       -4.6470    -5.3810     1.2960 H     1 <1>   0.0800 
 32 H       -6.2790    -3.5360     1.5100 H     1 <1>   0.4000 
 33 H       -3.8620    -5.6250    -1.6260 H     1 <1>   0.0800 
 34 H       -5.3380    -6.2220    -0.9390 H     1 <1>   0.0800 
 35 H       -5.4100    -8.4010    -0.0870 H     1 <1>   0.1500 
 36 H       -0.6710    -8.4950     0.0350 H     1 <1>   0.1500 
 37 H       -1.9680   -10.4710     0.5510 H     1 <1>   0.1500 
@<TRIPOS>BOND
  1   1   2  1   
  2   1   3  1   
  3   2   4  2   
  4   2   5  1   
  5   3   6  2   
  6   3  20  1   
  7   4   6  1   
  8   4  21  1   
  9   5   7  1   
 10   5  22  1   
 11   5  23  1   
 12   6  24  1   
 13   7   8  1   
 14   7   9  1   
 15   7  25  1   
 16   8  10  1   
 17   8  26  1   
 18   8  27  1   
 19   9  11  1   
 20   9  28  1   
 21   9  29  1   
 22  10  11  1   
 23  10  12  1   
 24  10  30  1   
 25  11  13  1   
 26  11  31  1   
 27  12  32  1   
 28  13  14  1   
 29  13  33  1   
 30  13  34  1   
 31  14  15  ar  
 32  14  16  ar  
 33  15  17  ar  
 34  16  18  ar  
 35  16  35  1   
 36  17  19  ar  
 37  17  36  1   
 38  18  19  ar  
 39  19  37  1   
@<TRIPOS>SUBSTRUCTURE
  1 ****   9 GROUP 4 **** **** 0

# MOE 2024.06 (io_trps.svl 2023.06)
