@<TRIPOS>MOLECULE
NONAME
52 54 1 0 0 
SMALL
USER_CHARGES


@<TRIPOS>ATOM
  1 O        0.1240     0.8210    -0.4610 O.2   1 <1>  -0.5700 
  2 C       -0.5950     1.6790    -0.0030 C.2   1 <1>   0.5690 
  3 N       -1.9620     1.5970    -0.0980 N.am  1 <1>  -0.6600 
  4 C        0.0500     2.8670     0.6900 C.3   1 <1>  -0.0990 
  5 C       -2.9300     2.6200     0.4110 C.3   1 <1>   0.1400 
  6 C       -2.6300     0.4300    -0.7390 C.3   1 <1>   0.1400 
  7 C        1.5750     2.7930     0.7010 C.3   1 <1>   0.1200 
  8 C       -3.7950     3.1710    -0.7390 C.3   1 <1>   0.1440 
  9 C       -3.5060     0.9050    -1.9040 C.3   1 <1>  -0.1600 
 10 O        2.0490     3.9430     1.3240 O.3   1 <1>  -0.5600 
 11 C       -4.8320     4.1410    -0.2060 C.ar  1 <1>   0.1670 
 12 C       -4.4940     2.0070    -1.4770 C.3   1 <1>  -0.1600 
 13 C       -2.9800     4.0650    -1.7140 C.3   1 <1>  -0.1600 
 14 C        3.4320     4.0030     1.4050 C.3   1 <1>   0.1200 
 15 N       -5.6100     3.9250     0.8250 N.ar  1 <1>  -0.6200 
 16 C       -4.8660     5.2920    -0.9340 C.ar  1 <1>  -0.1430 
 17 C       -3.8680     5.2720    -2.0630 C.3   1 <1>  -0.0170 
 18 C        3.7930     5.3080     2.1040 C.3   1 <1>  -0.2400 
 19 C       -6.4490     4.9200     1.1240 C.ar  1 <1>   0.7200 
 20 C       -5.7610     6.2590    -0.5540 C.ar  1 <1>   0.1600 
 21 N       -6.5570     6.0840     0.4740 N.ar  1 <1>  -0.6200 
 22 N       -7.2840     4.7270     2.2080 N.pl3 1 <1>  -0.8380 
 23 C       -8.0510     5.8460     2.8220 C.3   1 <1>   0.1290 
 24 C       -7.5210     3.3800     2.7960 C.3   1 <1>   0.1290 
 25 H       -0.2980     2.9040     1.7050 H     1 <1>   0.0800 
 26 H       -0.2410     3.7640     0.1790 H     1 <1>   0.0800 
 27 H       -2.4320     3.4330     0.9050 H     1 <1>   0.0800 
 28 H       -3.5720     2.1510     1.1380 H     1 <1>   0.0800 
 29 H       -3.2380    -0.0690    -0.0040 H     1 <1>   0.0800 
 30 H       -1.9020    -0.2770    -1.1000 H     1 <1>   0.0800 
 31 H        1.9600     2.7570    -0.3050 H     1 <1>   0.0800 
 32 H        1.9080     1.9300     1.2520 H     1 <1>   0.0800 
 33 H       -4.0540     0.0650    -2.2940 H     1 <1>   0.0800 
 34 H       -2.8650     1.2590    -2.6910 H     1 <1>   0.0800 
 35 H       -5.0230     2.3800    -2.3370 H     1 <1>   0.0800 
 36 H       -5.2240     1.5740    -0.8140 H     1 <1>   0.0800 
 37 H       -2.6600     3.5420    -2.5960 H     1 <1>   0.0800 
 38 H       -2.1040     4.4340    -1.2100 H     1 <1>   0.0800 
 39 H        3.8420     3.9790     0.4090 H     1 <1>   0.0800 
 40 H        3.7860     3.1580     1.9720 H     1 <1>   0.0800 
 41 H       -4.3800     5.1110    -2.9950 H     1 <1>   0.0800 
 42 H       -3.2970     6.1840    -2.1090 H     1 <1>   0.0800 
 43 H        3.4230     6.1440     1.5370 H     1 <1>   0.0800 
 44 H        4.8610     5.3940     2.1860 H     1 <1>   0.0800 
 45 H        3.3680     5.3270     3.0910 H     1 <1>   0.0800 
 46 H       -5.8250     7.1860    -1.0970 H     1 <1>   0.1500 
 47 H       -7.5210     6.7750     2.7050 H     1 <1>   0.0800 
 48 H       -8.1900     5.6660     3.8730 H     1 <1>   0.0800 
 49 H       -9.0110     5.9280     2.3440 H     1 <1>   0.0800 
 50 H       -7.3830     2.6130     2.0530 H     1 <1>   0.0800 
 51 H       -8.5280     3.3110     3.1690 H     1 <1>   0.0800 
 52 H       -6.8290     3.2140     3.6030 H     1 <1>   0.0800 
@<TRIPOS>BOND
  1   1   2  2   
  2   2   3  am  
  3   2   4  1   
  4   3   5  1   
  5   3   6  1   
  6   4   7  1   
  7   4  25  1   
  8   4  26  1   
  9   5   8  1   
 10   5  27  1   
 11   5  28  1   
 12   6   9  1   
 13   6  29  1   
 14   6  30  1   
 15   7  10  1   
 16   7  31  1   
 17   7  32  1   
 18   8  11  1   
 19   8  12  1   
 20   8  13  1   
 21   9  12  1   
 22   9  33  1   
 23   9  34  1   
 24  10  14  1   
 25  11  15  ar  
 26  11  16  ar  
 27  12  35  1   
 28  12  36  1   
 29  13  17  1   
 30  13  37  1   
 31  13  38  1   
 32  14  18  1   
 33  14  39  1   
 34  14  40  1   
 35  15  19  ar  
 36  16  17  1   
 37  16  20  ar  
 38  17  41  1   
 39  17  42  1   
 40  18  43  1   
 41  18  44  1   
 42  18  45  1   
 43  19  21  ar  
 44  19  22  1   
 45  20  21  ar  
 46  20  46  1   
 47  22  23  1   
 48  22  24  1   
 49  23  47  1   
 50  23  48  1   
 51  23  49  1   
 52  24  50  1   
 53  24  51  1   
 54  24  52  1   
@<TRIPOS>SUBSTRUCTURE
  1 ****   5 GROUP 4 **** **** 0

# MOE 2024.06 (io_trps.svl 2023.06)
