@<TRIPOS>MOLECULE
NONAME
44 46 1 0 0 
SMALL
USER_CHARGES


@<TRIPOS>ATOM
  1 S        2.1020     0.8290    -1.4520 S.3   1 <1>  -0.0800 
  2 C        1.7980     0.1420     0.1330 C.2   1 <1>   0.1980 
  3 C        0.4330     0.5600    -1.8600 C.2   1 <1>  -0.1100 
  4 N        0.5950    -0.2400     0.3150 N.2   1 <1>  -0.5650 
  5 C        2.9740     0.0670     1.0990 C.3   1 <1>   0.3890 
  6 C       -0.1820    -0.0030    -0.8100 C.2   1 <1>   0.0770 
  7 N        3.4080     1.4340     1.5500 N.pl3 1 <1>  -0.8380 
  8 C        4.3570     2.1690     0.9110 C.ar  1 <1>   0.4100 
  9 C        2.4330     2.0580     2.4980 C.3   1 <1>   0.1290 
 10 N        4.1640     3.4720     0.8310 N.ar  1 <1>  -0.6200 
 11 C        5.4980     1.5690     0.3440 C.ar  1 <1>  -0.1500 
 12 C        5.0350     4.2090     0.1600 C.ar  1 <1>   0.7710 
 13 C        6.3890     2.3370    -0.3280 C.ar  1 <1>   0.2180 
 14 N        6.1230     3.6610    -0.4090 N.ar  1 <1>  -0.1790 
 15 N        4.8290     5.5500     0.0460 N.pl3 1 <1>  -0.8380 
 16 C        7.6550     1.7920    -0.9770 C.3   1 <1>  -0.0170 
 17 C        5.6010     6.5330    -0.7940 C.3   1 <1>   0.2090 
 18 C        3.6970     6.2430     0.7700 C.3   1 <1>   0.2090 
 19 C        8.9260     2.3690    -0.3400 C.3   1 <1>  -0.2400 
 20 C        4.6560     7.3710    -1.6770 C.3   1 <1>   0.1200 
 21 C        2.8610     7.1030    -0.1940 C.3   1 <1>   0.1200 
 22 O        3.6810     7.9920    -0.8970 O.3   1 <1>  -0.5600 
 23 H        0.0920     0.8510    -2.8370 H     1 <1>   0.1500 
 24 H        3.7760    -0.4580     0.6180 H     1 <1>   0.0800 
 25 H        2.6790    -0.5120     1.9570 H     1 <1>   0.0800 
 26 H       -1.2210    -0.2840    -0.7680 H     1 <1>   0.1500 
 27 H        2.1740     1.3620     3.2780 H     1 <1>   0.0800 
 28 H        1.5380     2.3390     1.9690 H     1 <1>   0.0800 
 29 H        2.8560     2.9340     2.9580 H     1 <1>   0.0800 
 30 H        5.6510     0.5150     0.4680 H     1 <1>   0.1500 
 31 H        6.7540     4.3020    -0.8680 H     1 <1>   0.4570 
 32 H        7.6460     2.0110    -2.0310 H     1 <1>   0.0800 
 33 H        7.6760     0.7200    -0.8740 H     1 <1>   0.0800 
 34 H        6.3090     6.0410    -1.4330 H     1 <1>   0.0800 
 35 H        6.1440     7.2030    -0.1470 H     1 <1>   0.0800 
 36 H        4.1050     6.8820     1.5340 H     1 <1>   0.0800 
 37 H        3.0380     5.5460     1.2560 H     1 <1>   0.0800 
 38 H        8.9950     3.4320    -0.4820 H     1 <1>   0.0800 
 39 H        9.7950     1.9160    -0.7870 H     1 <1>   0.0800 
 40 H        8.9480     2.1560     0.7160 H     1 <1>   0.0800 
 41 H        4.1680     6.7560    -2.4130 H     1 <1>   0.0800 
 42 H        5.2070     8.1450    -2.1840 H     1 <1>   0.0800 
 43 H        2.1430     7.6840     0.3560 H     1 <1>   0.0800 
 44 H        2.3350     6.4820    -0.8990 H     1 <1>   0.0800 
@<TRIPOS>BOND
  1   1   2  1   
  2   1   3  1   
  3   2   4  2   
  4   2   5  1   
  5   3   6  2   
  6   3  23  1   
  7   4   6  1   
  8   5   7  1   
  9   5  24  1   
 10   5  25  1   
 11   6  26  1   
 12   7   8  1   
 13   7   9  1   
 14   8  10  ar  
 15   8  11  ar  
 16   9  27  1   
 17   9  28  1   
 18   9  29  1   
 19  10  12  ar  
 20  11  13  ar  
 21  11  30  1   
 22  12  14  ar  
 23  12  15  1   
 24  13  14  ar  
 25  13  16  1   
 26  14  31  1   
 27  15  17  1   
 28  15  18  1   
 29  16  19  1   
 30  16  32  1   
 31  16  33  1   
 32  17  20  1   
 33  17  34  1   
 34  17  35  1   
 35  18  21  1   
 36  18  36  1   
 37  18  37  1   
 38  19  38  1   
 39  19  39  1   
 40  19  40  1   
 41  20  22  1   
 42  20  41  1   
 43  20  42  1   
 44  21  22  1   
 45  21  43  1   
 46  21  44  1   
@<TRIPOS>SUBSTRUCTURE
  1 ****  10 GROUP 4 **** **** 0

# MOE 2024.06 (io_trps.svl 2023.06)
