@<TRIPOS>MOLECULE
NONAME
44 45 1 0 0 
SMALL
USER_CHARGES


@<TRIPOS>ATOM
  1 CL      -0.8140    -0.6370    -0.9610 Cl    1 <1>  -0.1230 
  2 C       -1.2270    -2.1240    -0.1240 C.2   1 <1>   0.1230 
  3 C       -1.4740    -2.2500     1.2330 C.2   1 <1>   0.1390 
  4 C       -1.3670    -3.3520    -0.6530 C.2   1 <1>  -0.3020 
  5 N       -1.7560    -3.4820     1.5470 N.2   1 <1>  -0.7070 
  6 N       -1.6860    -4.1630     0.3780 N.pl3 1 <1>   0.3140 
  7 C       -1.9480    -5.6090     0.3100 C.3   1 <1>   0.0960 
  8 C       -3.4340    -5.8730     0.5610 C.3   1 <1>   0.1400 
  9 N       -3.7210    -7.3310     0.5050 N.am  1 <1>  -0.7300 
 10 C       -3.7530    -8.0700    -0.6470 C.2   1 <1>   0.5440 
 11 O       -3.4420    -7.5190    -1.6850 O.2   1 <1>  -0.5700 
 12 C       -4.1520    -9.4650    -0.6300 C.ar  1 <1>   0.0860 
 13 C       -4.7170   -10.0650    -1.7560 C.ar  1 <1>  -0.1500 
 14 C       -3.9940   -10.2710     0.5010 C.ar  1 <1>  -0.1500 
 15 C       -5.1160   -11.3880    -1.7540 C.ar  1 <1>  -0.1500 
 16 C       -4.3930   -11.5940     0.5060 C.ar  1 <1>  -0.1500 
 17 C       -4.9650   -12.1770    -0.6180 C.ar  1 <1>   0.1170 
 18 N       -5.3510   -13.5180    -0.5540 N.am  1 <1>  -0.5470 
 19 C       -6.0440   -14.3420    -1.3950 C.2   1 <1>   0.5690 
 20 O       -6.5060   -14.0080    -2.4590 O.2   1 <1>  -0.5700 
 21 C       -6.2260   -15.7840    -0.9170 C.3   1 <1>   0.1710 
 22 N       -6.0720   -15.9510     0.5630 N.3   1 <1>  -0.8100 
 23 C       -5.8130   -17.3550     0.9020 C.3   1 <1>   0.0300 
 24 C       -7.2710   -15.4770     1.2740 C.3   1 <1>   0.0300 
 25 H       -1.4400    -1.4380     1.9380 H     1 <1>   0.1500 
 26 H       -1.2630    -3.6830    -1.6700 H     1 <1>   0.1500 
 27 H       -1.3550    -6.0960     1.0610 H     1 <1>   0.0800 
 28 H       -1.6640    -5.9670    -0.6620 H     1 <1>   0.0800 
 29 H       -4.0200    -5.3720    -0.1920 H     1 <1>   0.0800 
 30 H       -3.7120    -5.4930     1.5290 H     1 <1>   0.0800 
 31 H       -4.1150    -7.7350     1.3560 H     1 <1>   0.3700 
 32 H       -4.8440    -9.4770    -2.6500 H     1 <1>   0.1500 
 33 H       -3.5450    -9.8610     1.3860 H     1 <1>   0.1500 
 34 H       -5.5450   -11.8050    -2.6460 H     1 <1>   0.1500 
 35 H       -4.2580   -12.1870     1.3930 H     1 <1>   0.1500 
 36 H       -5.1270   -14.0190     0.3140 H     1 <1>   0.3700 
 37 H       -5.4810   -16.3740    -1.4200 H     1 <1>   0.0800 
 38 H       -7.1920   -16.1390    -1.2320 H     1 <1>   0.0800 
 39 H       -4.9090   -17.6880     0.4210 H     1 <1>   0.0800 
 40 H       -6.6310   -17.9790     0.5840 H     1 <1>   0.0800 
 41 H       -5.6860   -17.4580     1.9660 H     1 <1>   0.0800 
 42 H       -7.4560   -14.4400     1.0490 H     1 <1>   0.0800 
 43 H       -7.1270   -15.5710     2.3370 H     1 <1>   0.0800 
 44 H       -8.1340   -16.0540     0.9870 H     1 <1>   0.0800 
@<TRIPOS>BOND
  1   1   2  1   
  2   2   3  1   
  3   2   4  2   
  4   3   5  2   
  5   3  25  1   
  6   4   6  1   
  7   4  26  1   
  8   5   6  1   
  9   6   7  1   
 10   7   8  1   
 11   7  27  1   
 12   7  28  1   
 13   8   9  1   
 14   8  29  1   
 15   8  30  1   
 16   9  10  am  
 17   9  31  1   
 18  10  11  2   
 19  10  12  1   
 20  12  13  ar  
 21  12  14  ar  
 22  13  15  ar  
 23  13  32  1   
 24  14  16  ar  
 25  14  33  1   
 26  15  17  ar  
 27  15  34  1   
 28  16  17  ar  
 29  16  35  1   
 30  17  18  1   
 31  18  19  am  
 32  18  36  1   
 33  19  20  2   
 34  19  21  1   
 35  21  22  1   
 36  21  37  1   
 37  21  38  1   
 38  22  23  1   
 39  22  24  1   
 40  23  39  1   
 41  23  40  1   
 42  23  41  1   
 43  24  42  1   
 44  24  43  1   
 45  24  44  1   
@<TRIPOS>SUBSTRUCTURE
  1 ****  12 GROUP 4 **** **** 0

# MOE 2024.06 (io_trps.svl 2023.06)
