@<TRIPOS>MOLECULE
NONAME
64 68 1 0 0 
SMALL
USER_CHARGES


@<TRIPOS>ATOM
  1 O       -2.5770     5.1990     1.1850 O.2   1 <1>  -0.5700 
  2 C       -2.1710     4.0940     1.4790 C.2   1 <1>   0.5690 
  3 N       -3.0870     3.0780     1.6420 N.am  1 <1>  -0.6600 
  4 C       -0.6370     3.8740     1.5760 C.3   1 <1>   0.2040 
  5 C       -2.8350     1.6140     1.7720 C.3   1 <1>   0.1400 
  6 C       -4.5540     3.3000     1.5740 C.3   1 <1>   0.1400 
  7 C       -0.1640     3.3040     0.2150 C.ar  1 <1>  -0.1440 
  8 C       -0.2120     3.0540     2.8170 C.3   1 <1>  -0.1600 
  9 C        0.1290     5.1830     1.8790 C.3   1 <1>  -0.1600 
 10 C       -3.9950     0.9800     1.0150 C.3   1 <1>   0.2800 
 11 C       -5.1510     1.9910     1.0330 C.3   1 <1>  -0.0800 
 12 C        0.3680     2.0270     0.0470 C.ar  1 <1>  -0.1500 
 13 C       -0.3000     4.1010    -0.9180 C.ar  1 <1>  -0.1500 
 14 C        1.2550     3.4010     3.0930 C.3   1 <1>  -0.1600 
 15 C        1.4900     4.7580     2.4290 C.3   1 <1>  -0.1600 
 16 O       -3.6860     0.8960    -0.3300 O.3   1 <1>  -0.5600 
 17 C       -4.5100    -0.4320     1.2630 C.3   1 <1>  -0.1600 
 18 C       -5.6720     1.8610    -0.4190 C.3   1 <1>  -0.0800 
 19 C        0.7220     1.5570    -1.2050 C.ar  1 <1>  -0.1500 
 20 C        0.0660     3.6420    -2.1700 C.ar  1 <1>  -0.1500 
 21 C       -4.9140     0.6010    -0.8590 C.3   1 <1>   0.2000 
 22 C       -5.2840    -0.6550    -0.0460 C.3   1 <1>  -0.1600 
 23 C       -5.4160     3.0690    -1.3560 C.3   1 <1>   0.3430 
 24 C        0.5630     2.3630    -2.3270 C.ar  1 <1>   0.0820 
 25 N       -3.9750     3.4500    -1.4860 N.4   1 <1>  -0.9590 
 26 O        0.8620     1.9750    -3.5900 O.3   1 <1>  -0.3620 
 27 C       -3.7800     4.9290    -1.5250 C.3   1 <1>   0.2630 
 28 C       -3.2870     2.8030    -2.6450 C.3   1 <1>   0.2630 
 29 C        1.5440     0.7640    -3.8380 C.3   1 <1>   0.0400 
 30 H       -1.9030     1.3120     1.3330 H     1 <1>   0.0800 
 31 H       -2.8710     1.3360     2.8100 H     1 <1>   0.0800 
 32 H       -4.9110     3.4730     2.5750 H     1 <1>   0.0800 
 33 H       -4.8070     4.1600     0.9820 H     1 <1>   0.0800 
 34 H       -0.7980     3.3880     3.6570 H     1 <1>   0.0800 
 35 H       -0.3490     1.9950     2.7320 H     1 <1>   0.0800 
 36 H        0.2340     5.8360     1.0330 H     1 <1>   0.0800 
 37 H       -0.3960     5.7240     2.6480 H     1 <1>   0.0800 
 38 H       -5.9150     1.6740     1.7220 H     1 <1>   0.0800 
 39 H        0.5180     1.3680     0.8810 H     1 <1>   0.1500 
 40 H       -0.6910     5.0990    -0.8340 H     1 <1>   0.1500 
 41 H        1.4460     3.4440     4.1510 H     1 <1>   0.0800 
 42 H        1.9050     2.6660     2.6500 H     1 <1>   0.0800 
 43 H        2.1900     4.6450     1.6170 H     1 <1>   0.0800 
 44 H        1.8760     5.4830     3.1240 H     1 <1>   0.0800 
 45 H       -3.6840    -1.1170     1.3490 H     1 <1>   0.0800 
 46 H       -5.1310    -0.5010     2.1390 H     1 <1>   0.0800 
 47 H       -6.7290     1.6610    -0.4170 H     1 <1>   0.0800 
 48 H        1.1180     0.5630    -1.2880 H     1 <1>   0.1500 
 49 H       -0.0270     4.2750    -3.0340 H     1 <1>   0.1500 
 50 H       -4.8610     0.4400    -1.9220 H     1 <1>   0.0800 
 51 H       -6.3460    -0.7310     0.1070 H     1 <1>   0.0800 
 52 H       -4.9350    -1.5410    -0.5480 H     1 <1>   0.0800 
 53 H       -5.9640     3.9100    -0.9620 H     1 <1>   0.0800 
 54 H       -5.8180     2.8550    -2.3330 H     1 <1>   0.0800 
 55 H       -3.5020     3.0800    -0.6320 H     1 <1>   0.4500 
 56 H       -4.2580     5.3510    -2.3940 H     1 <1>   0.0800 
 57 H       -2.7290     5.1630    -1.5580 H     1 <1>   0.0800 
 58 H       -4.1940     5.3860    -0.6410 H     1 <1>   0.0800 
 59 H       -3.7540     3.0930    -3.5720 H     1 <1>   0.0800 
 60 H       -3.3230     1.7310    -2.5540 H     1 <1>   0.0800 
 61 H       -2.2520     3.0970    -2.6720 H     1 <1>   0.0800 
 62 H        1.7360     0.6990    -4.8930 H     1 <1>   0.0800 
 63 H        0.9230    -0.0580    -3.5280 H     1 <1>   0.0800 
 64 H        2.4740     0.7700    -3.2970 H     1 <1>   0.0800 
@<TRIPOS>BOND
  1   1   2  2   
  2   2   3  am  
  3   2   4  1   
  4   3   5  1   
  5   3   6  1   
  6   4   7  1   
  7   4   8  1   
  8   4   9  1   
  9   5  10  1   
 10   5  30  1   
 11   5  31  1   
 12   6  11  1   
 13   6  32  1   
 14   6  33  1   
 15   7  12  ar  
 16   7  13  ar  
 17   8  14  1   
 18   8  34  1   
 19   8  35  1   
 20   9  15  1   
 21   9  36  1   
 22   9  37  1   
 23  10  11  1   
 24  10  16  1   
 25  10  17  1   
 26  11  18  1   
 27  11  38  1   
 28  12  19  ar  
 29  12  39  1   
 30  13  20  ar  
 31  13  40  1   
 32  14  15  1   
 33  14  41  1   
 34  14  42  1   
 35  15  43  1   
 36  15  44  1   
 37  16  21  1   
 38  17  22  1   
 39  17  45  1   
 40  17  46  1   
 41  18  21  1   
 42  18  23  1   
 43  18  47  1   
 44  19  24  ar  
 45  19  48  1   
 46  20  24  ar  
 47  20  49  1   
 48  21  22  1   
 49  21  50  1   
 50  22  51  1   
 51  22  52  1   
 52  23  25  1   
 53  23  53  1   
 54  23  54  1   
 55  24  26  1   
 56  25  27  1   
 57  25  28  1   
 58  25  55  1   
 59  26  29  1   
 60  27  56  1   
 61  27  57  1   
 62  27  58  1   
 63  28  59  1   
 64  28  60  1   
 65  28  61  1   
 66  29  62  1   
 67  29  63  1   
 68  29  64  1   
@<TRIPOS>SUBSTRUCTURE
  1 ****   3 GROUP 4 **** **** 0

# MOE 2024.06 (io_trps.svl 2023.06)
