@<TRIPOS>MOLECULE
NONAME
46 49 1 0 0 
SMALL
USER_CHARGES


@<TRIPOS>ATOM
  1 S       -0.1640    -0.4900     0.5460 S.o2  1 <1>   1.4470 
  2 O        0.2580    -1.6790     1.2480 O.2   1 <1>  -0.6500 
  3 O       -1.3390     0.2280     0.9790 O.2   1 <1>  -0.6500 
  4 N       -0.5490    -0.9020    -1.0370 N.am  1 <1>  -0.9140 
  5 C        1.2390     0.6390     0.3380 C.ar  1 <1>  -0.0090 
  6 C       -1.0620    -2.2450    -1.3310 C.3   1 <1>   0.2760 
  7 C        1.0430     2.0110     0.2160 C.ar  1 <1>  -0.1500 
  8 C        2.5420     0.1540     0.2650 C.ar  1 <1>  -0.1500 
  9 C       -2.1890    -2.7520    -0.4200 C.3   1 <1>  -0.0800 
 10 C       -0.0100    -3.3570    -1.2920 C.3   1 <1>   0.1200 
 11 C        2.1100     2.8700     0.0280 C.ar  1 <1>   0.0820 
 12 C        3.6210     1.0050     0.0850 C.ar  1 <1>  -0.1500 
 13 C       -1.6380    -4.0890     0.0850 C.3   1 <1>   0.1200 
 14 C       -3.5060    -2.9230    -1.1970 C.3   1 <1>  -0.0160 
 15 O       -0.7020    -4.4850    -0.8630 O.3   1 <1>  -0.5600 
 16 O        1.8650     4.1980    -0.1060 O.3   1 <1>  -0.3630 
 17 C        3.4100     2.3670    -0.0280 C.ar  1 <1>   0.0820 
 18 C       -4.6290    -3.4140    -0.2960 C.ar  1 <1>  -0.1430 
 19 C        2.9220     4.9990    -0.6020 C.3   1 <1>   0.1200 
 20 O        4.4760     3.1880    -0.1870 O.3   1 <1>  -0.3630 
 21 C       -5.1960    -2.6040     0.6670 C.ar  1 <1>  -0.1500 
 22 C       -5.1400    -4.6930    -0.3940 C.ar  1 <1>  -0.1500 
 23 C        4.2570     4.5710     0.0230 C.3   1 <1>   0.1200 
 24 C       -6.2160    -3.0990     1.4640 C.ar  1 <1>   0.1600 
 25 C       -6.1620    -5.0890     0.4530 C.ar  1 <1>   0.1600 
 26 N       -6.7130    -4.3220     1.3800 N.ar  1 <1>  -0.6200 
 27 H       -1.2900    -0.2400    -1.2590 H     1 <1>   0.4200 
 28 H       -1.4220    -2.2230    -2.3460 H     1 <1>   0.0800 
 29 H        0.0500     2.4230     0.2640 H     1 <1>   0.1500 
 30 H        2.7160    -0.9060     0.3520 H     1 <1>   0.1500 
 31 H       -2.3710    -2.1160     0.4240 H     1 <1>   0.0800 
 32 H        0.7760    -3.1620    -0.5860 H     1 <1>   0.0800 
 33 H        0.4050    -3.5550    -2.2640 H     1 <1>   0.0800 
 34 H        4.6240     0.6210     0.0340 H     1 <1>   0.1500 
 35 H       -2.3850    -4.8560     0.1880 H     1 <1>   0.0800 
 36 H       -1.1220    -3.9610     1.0230 H     1 <1>   0.0800 
 37 H       -3.3630    -3.6160    -2.0090 H     1 <1>   0.0800 
 38 H       -3.7980    -1.9780    -1.6220 H     1 <1>   0.0800 
 39 H        2.9550     4.8830    -1.6710 H     1 <1>   0.0800 
 40 H        2.6990     6.0240    -0.3650 H     1 <1>   0.0800 
 41 H       -4.8560    -1.5940     0.8080 H     1 <1>   0.1500 
 42 H       -4.7530    -5.3870    -1.1180 H     1 <1>   0.1500 
 43 H        4.2480     4.7510     1.0830 H     1 <1>   0.0800 
 44 H        5.0760     5.1070    -0.4200 H     1 <1>   0.0800 
 45 H       -6.6440    -2.4520     2.2110 H     1 <1>   0.1500 
 46 H       -6.5480    -6.0900     0.3620 H     1 <1>   0.1500 
@<TRIPOS>BOND
  1   1   2  2   
  2   1   3  2   
  3   1   4  am  
  4   1   5  1   
  5   4   6  1   
  6   4  27  1   
  7   5   7  ar  
  8   5   8  ar  
  9   6   9  1   
 10   6  10  1   
 11   6  28  1   
 12   7  11  ar  
 13   7  29  1   
 14   8  12  ar  
 15   8  30  1   
 16   9  13  1   
 17   9  14  1   
 18   9  31  1   
 19  10  15  1   
 20  10  32  1   
 21  10  33  1   
 22  11  16  1   
 23  11  17  ar  
 24  12  17  ar  
 25  12  34  1   
 26  13  15  1   
 27  13  35  1   
 28  13  36  1   
 29  14  18  1   
 30  14  37  1   
 31  14  38  1   
 32  16  19  1   
 33  17  20  1   
 34  18  21  ar  
 35  18  22  ar  
 36  19  23  1   
 37  19  39  1   
 38  19  40  1   
 39  20  23  1   
 40  21  24  ar  
 41  21  41  1   
 42  22  25  ar  
 43  22  42  1   
 44  23  43  1   
 45  23  44  1   
 46  24  26  ar  
 47  24  45  1   
 48  25  26  ar  
 49  25  46  1   
@<TRIPOS>SUBSTRUCTURE
  1 ****   1 GROUP 4 **** **** 0

# MOE 2024.06 (io_trps.svl 2023.06)
