@<TRIPOS>MOLECULE
NONAME
54 57 1 0 0 
SMALL
USER_CHARGES


@<TRIPOS>ATOM
  1 O       -1.1160    -0.1870    -0.0410 O.3   1 <1>  -0.3630 
  2 C       -2.0190     0.8290    -0.1110 C.ar  1 <1>   0.0820 
  3 C        0.2460     0.0560    -0.3500 C.3   1 <1>   0.1200 
  4 C       -3.2410     0.6590     0.5350 C.ar  1 <1>  -0.1440 
  5 C       -1.7680     2.0150    -0.7970 C.ar  1 <1>  -0.1500 
  6 C        1.0730    -1.1730     0.0230 C.3   1 <1>   0.0960 
  7 C       -4.1890     1.6700     0.5010 C.ar  1 <1>  -0.1500 
  8 C       -3.5430    -0.6260     1.2790 C.3   1 <1>   0.4870 
  9 C       -2.7210     3.0170    -0.8290 C.ar  1 <1>  -0.1500 
 10 N        2.4980    -0.8910    -0.2160 N.pl3 1 <1>   0.0480 
 11 C       -3.9300     2.8460    -0.1800 C.ar  1 <1>  -0.1500 
 12 N       -3.6670    -1.7270     0.2920 N.4   1 <1>  -0.9590 
 13 C        3.2190    -1.1250    -1.3360 C.2   1 <1>   0.0360 
 14 C        3.3650    -0.3050     0.6300 C.2   1 <1>  -0.3020 
 15 C       -4.8530    -1.5250    -0.5990 C.3   1 <1>   0.3430 
 16 C       -3.8390    -3.0450     0.9730 C.3   1 <1>   0.3430 
 17 N        4.4500    -0.7350    -1.2610 N.2   1 <1>  -0.5650 
 18 C        4.5450    -0.2200    -0.0210 C.2   1 <1>   0.0770 
 19 C       -5.8990    -2.5420    -0.1310 C.3   1 <1>   0.2000 
 20 C       -5.0520    -3.7280     0.3230 C.3   1 <1>  -0.0800 
 21 O       -6.5460    -2.0210     0.9850 O.3   1 <1>  -0.6800 
 22 C       -4.6620    -4.6350    -0.8650 C.3   1 <1>  -0.0170 
 23 C       -3.8330    -5.8340    -0.4270 C.ar  1 <1>   0.1670 
 24 N       -2.5550    -5.6000    -0.1700 N.ar  1 <1>  -0.6200 
 25 C       -4.4230    -7.0930    -0.3210 C.ar  1 <1>   0.1600 
 26 C       -1.9120    -6.7030     0.1860 C.ar  1 <1>   0.1600 
 27 N       -3.7840    -8.1890     0.0480 N.ar  1 <1>  -0.6200 
 28 C       -2.5070    -7.9550     0.2930 C.ar  1 <1>   0.1600 
 29 H        0.3260     0.2540    -1.4050 H     1 <1>   0.0800 
 30 H        0.5730     0.9100     0.2180 H     1 <1>   0.0800 
 31 H       -0.8430     2.1850    -1.3160 H     1 <1>   0.1500 
 32 H        0.7810    -2.0160    -0.5750 H     1 <1>   0.0800 
 33 H        0.9420    -1.4060     1.0640 H     1 <1>   0.0800 
 34 H       -5.1370     1.5590     1.0030 H     1 <1>   0.1500 
 35 H       -4.4600    -0.5250     1.8380 H     1 <1>   0.0800 
 36 H       -2.7390    -0.8330     1.9650 H     1 <1>   0.0800 
 37 H       -2.5220     3.9340    -1.3580 H     1 <1>   0.1500 
 38 H       -4.6670     3.6320    -0.2050 H     1 <1>   0.1500 
 39 H       -2.7990    -1.7000    -0.2640 H     1 <1>   0.4500 
 40 H        2.7920    -1.5920    -2.2070 H     1 <1>   0.1500 
 41 H        3.1110     0.0140     1.6240 H     1 <1>   0.1500 
 42 H       -5.2410    -0.5210    -0.5500 H     1 <1>   0.0800 
 43 H       -4.5760    -1.7440    -1.6160 H     1 <1>   0.0800 
 44 H       -2.9450    -3.6400     0.9030 H     1 <1>   0.0800 
 45 H       -4.0600    -2.8840     2.0150 H     1 <1>   0.0800 
 46 H        5.4730     0.1910     0.3410 H     1 <1>   0.1500 
 47 H       -6.6310    -2.7710    -0.8880 H     1 <1>   0.0800 
 48 H       -5.5770    -4.3260     1.0480 H     1 <1>   0.0800 
 49 H       -7.3440    -2.5440     1.2120 H     1 <1>   0.4000 
 50 H       -4.0980    -4.0860    -1.5990 H     1 <1>   0.0800 
 51 H       -5.5560    -4.9890    -1.3500 H     1 <1>   0.0800 
 52 H       -5.4690    -7.2050    -0.5490 H     1 <1>   0.1500 
 53 H       -0.8620    -6.6170     0.4060 H     1 <1>   0.1500 
 54 H       -1.9030    -8.7930     0.5920 H     1 <1>   0.1500 
@<TRIPOS>BOND
  1   1   2  1   
  2   1   3  1   
  3   2   4  ar  
  4   2   5  ar  
  5   3   6  1   
  6   3  29  1   
  7   3  30  1   
  8   4   7  ar  
  9   4   8  1   
 10   5   9  ar  
 11   5  31  1   
 12   6  10  1   
 13   6  32  1   
 14   6  33  1   
 15   7  11  ar  
 16   7  34  1   
 17   8  12  1   
 18   8  35  1   
 19   8  36  1   
 20   9  11  ar  
 21   9  37  1   
 22  10  13  1   
 23  10  14  1   
 24  11  38  1   
 25  12  15  1   
 26  12  16  1   
 27  12  39  1   
 28  13  17  2   
 29  13  40  1   
 30  14  18  2   
 31  14  41  1   
 32  15  19  1   
 33  15  42  1   
 34  15  43  1   
 35  16  20  1   
 36  16  44  1   
 37  16  45  1   
 38  17  18  1   
 39  18  46  1   
 40  19  20  1   
 41  19  21  1   
 42  19  47  1   
 43  20  22  1   
 44  20  48  1   
 45  21  49  1   
 46  22  23  1   
 47  22  50  1   
 48  22  51  1   
 49  23  24  ar  
 50  23  25  ar  
 51  24  26  ar  
 52  25  27  ar  
 53  25  52  1   
 54  26  28  ar  
 55  26  53  1   
 56  27  28  ar  
 57  28  54  1   
@<TRIPOS>SUBSTRUCTURE
  1 ****  12 GROUP 4 **** **** 0

# MOE 2024.06 (io_trps.svl 2023.06)
