@<TRIPOS>MOLECULE
NONAME
63 66 1 0 0 
SMALL
USER_CHARGES


@<TRIPOS>ATOM
  1 O       -1.5860    -0.2820     1.1770 O.2   1 <1>  -0.5700 
  2 C       -0.9290     0.4490     0.4610 C.2   1 <1>   0.5440 
  3 N       -1.0750     1.8170     0.4010 N.am  1 <1>  -0.6600 
  4 C        0.0180    -0.0120    -0.5110 C.ar  1 <1>   0.0860 
  5 C       -1.9270     2.7860     1.2050 C.3   1 <1>   0.3000 
  6 C       -0.1760     2.3320    -0.6930 C.3   1 <1>   0.2840 
  7 C        0.4740     1.0720    -1.2280 C.ar  1 <1>  -0.1440 
  8 C        0.4830    -1.2850    -0.8160 C.ar  1 <1>  -0.1500 
  9 C       -2.5540     2.1170     2.4660 C.3   1 <1>  -0.1600 
 10 C       -3.1020     3.2380     0.3120 C.3   1 <1>  -0.1600 
 11 C       -1.0420     3.9770     1.6900 C.3   1 <1>  -0.0990 
 12 C        1.3880     0.9250    -2.2550 C.ar  1 <1>  -0.1500 
 13 C        1.4000    -1.4480    -1.8420 C.ar  1 <1>  -0.1500 
 14 C       -3.8910     1.3900     2.2510 C.3   1 <1>   0.3430 
 15 C       -3.9940     2.0790    -0.1460 C.3   1 <1>   0.3430 
 16 C       -1.0420     5.2160     0.8110 C.2   1 <1>   0.5690 
 17 C        1.8490    -0.3470    -2.5590 C.ar  1 <1>  -0.1500 
 18 N       -4.0130     0.9650     0.8450 N.4   1 <1>  -0.9590 
 19 O       -0.6080     5.1520    -0.3110 O.2   1 <1>  -0.5700 
 20 N       -1.5420     6.3730     1.3160 N.am  1 <1>  -0.7300 
 21 C       -5.0800    -0.0350     0.5970 C.3   1 <1>   0.4860 
 22 C       -1.5710     7.6660     0.5970 C.3   1 <1>   0.1400 
 23 C       -4.9210    -0.5600    -0.8170 C.ar  1 <1>  -0.1430 
 24 C       -3.0180     8.1310     0.4610 C.3   1 <1>  -0.1600 
 25 C       -5.8270    -0.2010    -1.8060 C.ar  1 <1>  -0.1500 
 26 C       -3.8560    -1.3900    -1.1370 C.ar  1 <1>  -0.1500 
 27 C       -3.0840     9.4670    -0.2780 C.3   1 <1>   0.1200 
 28 C       -5.6610    -0.6570    -3.1010 C.ar  1 <1>  -0.1500 
 29 C       -3.6900    -1.8430    -2.4340 C.ar  1 <1>  -0.1500 
 30 O       -4.4030     9.8680    -0.3290 O.3   1 <1>  -0.6800 
 31 C       -4.5910    -1.4760    -3.4160 C.ar  1 <1>  -0.1500 
 32 H        0.5830     2.9860    -0.3020 H     1 <1>   0.0800 
 33 H       -0.7420     2.8280    -1.4630 H     1 <1>   0.0800 
 34 H        0.1290    -2.1310    -0.2520 H     1 <1>   0.1500 
 35 H       -2.7770     2.8590     3.2100 H     1 <1>   0.0800 
 36 H       -1.8400     1.4600     2.9290 H     1 <1>   0.0800 
 37 H       -2.7530     3.7470    -0.5670 H     1 <1>   0.0800 
 38 H       -3.7090     3.9420     0.8530 H     1 <1>   0.0800 
 39 H       -0.0290     3.6450     1.8220 H     1 <1>   0.0800 
 40 H       -1.3600     4.3090     2.6590 H     1 <1>   0.0800 
 41 H        1.7390     1.7780    -2.8090 H     1 <1>   0.1500 
 42 H        1.7670    -2.4300    -2.0850 H     1 <1>   0.1500 
 43 H       -4.7070     2.0500     2.4950 H     1 <1>   0.0800 
 44 H       -3.9360     0.5330     2.9050 H     1 <1>   0.0800 
 45 H       -3.6180     1.6970    -1.0830 H     1 <1>   0.0800 
 46 H       -4.9930     2.4450    -0.3160 H     1 <1>   0.0800 
 47 H        2.5620    -0.4820    -3.3560 H     1 <1>   0.1500 
 48 H       -3.1280     0.4410     0.6850 H     1 <1>   0.4500 
 49 H       -1.8430     6.4240     2.2910 H     1 <1>   0.3700 
 50 H       -6.0510     0.4160     0.7180 H     1 <1>   0.0800 
 51 H       -4.9890    -0.8530     1.2920 H     1 <1>   0.0800 
 52 H       -1.1260     7.5580    -0.3800 H     1 <1>   0.0800 
 53 H       -0.9960     8.3910     1.1490 H     1 <1>   0.0800 
 54 H       -3.4460     8.2540     1.4400 H     1 <1>   0.0800 
 55 H       -3.5740     7.3930    -0.0890 H     1 <1>   0.0800 
 56 H       -6.6690     0.4330    -1.5830 H     1 <1>   0.1500 
 57 H       -3.1450    -1.6950    -0.3870 H     1 <1>   0.1500 
 58 H       -2.7120     9.3830    -1.2860 H     1 <1>   0.0800 
 59 H       -2.5300    10.2270     0.2470 H     1 <1>   0.0800 
 60 H       -6.3640    -0.3790    -3.8690 H     1 <1>   0.1500 
 61 H       -2.8600    -2.4840    -2.6800 H     1 <1>   0.1500 
 62 H       -4.9360     9.2460    -0.8620 H     1 <1>   0.4000 
 63 H       -4.4610    -1.8300    -4.4250 H     1 <1>   0.1500 
@<TRIPOS>BOND
  1   1   2  2   
  2   2   3  am  
  3   2   4  1   
  4   3   5  1   
  5   3   6  1   
  6   4   7  ar  
  7   4   8  ar  
  8   5   9  1   
  9   5  10  1   
 10   5  11  1   
 11   6   7  1   
 12   6  32  1   
 13   6  33  1   
 14   7  12  ar  
 15   8  13  ar  
 16   8  34  1   
 17   9  14  1   
 18   9  35  1   
 19   9  36  1   
 20  10  15  1   
 21  10  37  1   
 22  10  38  1   
 23  11  16  1   
 24  11  39  1   
 25  11  40  1   
 26  12  17  ar  
 27  12  41  1   
 28  13  17  ar  
 29  13  42  1   
 30  14  18  1   
 31  14  43  1   
 32  14  44  1   
 33  15  18  1   
 34  15  45  1   
 35  15  46  1   
 36  16  19  2   
 37  16  20  am  
 38  17  47  1   
 39  18  21  1   
 40  18  48  1   
 41  20  22  1   
 42  20  49  1   
 43  21  23  1   
 44  21  50  1   
 45  21  51  1   
 46  22  24  1   
 47  22  52  1   
 48  22  53  1   
 49  23  25  ar  
 50  23  26  ar  
 51  24  27  1   
 52  24  54  1   
 53  24  55  1   
 54  25  28  ar  
 55  25  56  1   
 56  26  29  ar  
 57  26  57  1   
 58  27  30  1   
 59  27  58  1   
 60  27  59  1   
 61  28  31  ar  
 62  28  60  1   
 63  29  31  ar  
 64  29  61  1   
 65  30  62  1   
 66  31  63  1   
@<TRIPOS>SUBSTRUCTURE
  1 ****   3 GROUP 4 **** **** 0

# MOE 2024.06 (io_trps.svl 2023.06)
