@<TRIPOS>MOLECULE
NONAME
47 49 1 0 0 
SMALL
USER_CHARGES


@<TRIPOS>ATOM
  1 S       -0.8460    -0.4250     1.2000 S.3   1 <1>   0.1810 
  2 N        0.1810     0.7380     0.5230 N.2   1 <1>  -0.2210 
  3 C       -0.0830    -1.7350     0.3700 C.2   1 <1>  -0.0450 
  4 N        1.0280     0.1940    -0.2350 N.2   1 <1>  -0.2270 
  5 C        0.9160    -1.1710    -0.3310 C.2   1 <1>   0.0460 
  6 C       -0.5520    -3.0750     0.5650 C.2   1 <1>   0.7150 
  7 C        1.9220    -1.8950    -1.2030 C.3   1 <1>  -0.0590 
  8 O        0.2230    -3.9010     1.0100 O.2   1 <1>  -0.5700 
  9 N       -1.8360    -3.4720     0.2420 N.am  1 <1>  -0.6600 
 10 C       -2.2910    -4.8870     0.4600 C.3   1 <1>   0.1400 
 11 C       -2.7660    -2.6630    -0.6020 C.3   1 <1>   0.1400 
 12 C       -3.3840    -4.9960     1.5330 C.3   1 <1>   0.1400 
 13 C       -3.8700    -1.9660     0.2100 C.3   1 <1>  -0.1600 
 14 N       -4.5630    -4.1310     1.2180 N.am  1 <1>  -0.6600 
 15 C       -4.3290    -2.6860     1.4820 C.3   1 <1>   0.1400 
 16 C       -5.7850    -4.5700     0.7750 C.2   1 <1>   0.5690 
 17 O       -6.7020    -3.8020     0.6040 O.2   1 <1>  -0.5700 
 18 C       -6.0080    -6.0450     0.4880 C.3   1 <1>  -0.0990 
 19 C       -7.3060    -6.3540    -0.2790 C.3   1 <1>   0.1760 
 20 N       -7.5400    -7.8240    -0.2420 N.pl3 1 <1>   0.3140 
 21 C       -7.2860    -5.8260    -1.7270 C.3   1 <1>  -0.2400 
 22 N       -8.1770    -8.4010     0.7970 N.2   1 <1>  -0.7070 
 23 C       -7.1430    -8.7580    -1.1360 C.2   1 <1>  -0.3020 
 24 C       -8.1810    -9.6710     0.5320 C.2   1 <1>   0.1390 
 25 C       -7.5450    -9.9580    -0.6680 C.2   1 <1>  -0.1500 
 26 H        1.7410    -2.9550    -1.1980 H     1 <1>   0.0800 
 27 H        2.9160    -1.7140    -0.8350 H     1 <1>   0.0800 
 28 H        1.8560    -1.5340    -2.2140 H     1 <1>   0.0800 
 29 H       -1.4640    -5.5090     0.7590 H     1 <1>   0.0800 
 30 H       -2.6630    -5.2900    -0.4650 H     1 <1>   0.0800 
 31 H       -3.2350    -3.3170    -1.3170 H     1 <1>   0.0800 
 32 H       -2.2180    -1.9280    -1.1670 H     1 <1>   0.0800 
 33 H       -2.9700    -4.7050     2.4820 H     1 <1>   0.0800 
 34 H       -3.6830    -6.0240     1.6270 H     1 <1>   0.0800 
 35 H       -4.7250    -1.8330    -0.4290 H     1 <1>   0.0800 
 36 H       -3.5470    -0.9790     0.4800 H     1 <1>   0.0800 
 37 H       -5.2350    -2.2300     1.8470 H     1 <1>   0.0800 
 38 H       -3.5820    -2.5750     2.2500 H     1 <1>   0.0800 
 39 H       -6.0450    -6.5480     1.4370 H     1 <1>   0.0800 
 40 H       -5.1770    -6.4250    -0.0750 H     1 <1>   0.0800 
 41 H       -8.1320    -5.8980     0.2410 H     1 <1>   0.0800 
 42 H       -6.4300    -6.1940    -2.2630 H     1 <1>   0.0800 
 43 H       -7.2490    -4.7510    -1.7310 H     1 <1>   0.0800 
 44 H       -8.1850    -6.1240    -2.2380 H     1 <1>   0.0800 
 45 H       -6.6080    -8.5290    -2.0380 H     1 <1>   0.1500 
 46 H       -8.6280   -10.4090     1.1770 H     1 <1>   0.1500 
 47 H       -7.4180   -10.9340    -1.1010 H     1 <1>   0.1500 
@<TRIPOS>BOND
  1   1   2  1   
  2   1   3  1   
  3   2   4  2   
  4   3   5  2   
  5   3   6  1   
  6   4   5  1   
  7   5   7  1   
  8   6   8  2   
  9   6   9  am  
 10   7  26  1   
 11   7  27  1   
 12   7  28  1   
 13   9  10  1   
 14   9  11  1   
 15  10  12  1   
 16  10  29  1   
 17  10  30  1   
 18  11  13  1   
 19  11  31  1   
 20  11  32  1   
 21  12  14  1   
 22  12  33  1   
 23  12  34  1   
 24  13  15  1   
 25  13  35  1   
 26  13  36  1   
 27  14  15  1   
 28  14  16  am  
 29  15  37  1   
 30  15  38  1   
 31  16  17  2   
 32  16  18  1   
 33  18  19  1   
 34  18  39  1   
 35  18  40  1   
 36  19  20  1   
 37  19  21  1   
 38  19  41  1   
 39  20  22  1   
 40  20  23  1   
 41  21  42  1   
 42  21  43  1   
 43  21  44  1   
 44  22  24  2   
 45  23  25  2   
 46  23  45  1   
 47  24  25  1   
 48  24  46  1   
 49  25  47  1   
@<TRIPOS>SUBSTRUCTURE
  1 ****  14 GROUP 4 **** **** 0

# MOE 2024.06 (io_trps.svl 2023.06)
