@<TRIPOS>MOLECULE
NONAME
38 39 1 0 0 
SMALL
USER_CHARGES


@<TRIPOS>ATOM
  1 S       -0.9890    -0.9700    -0.3030 S.3   1 <1>  -0.0800 
  2 C       -1.8970    -1.3550     1.1200 C.2   1 <1>   0.4420 
  3 C       -0.5160     0.5000     0.4840 C.2   1 <1>   0.1980 
  4 N       -1.7990    -0.4450     2.0200 N.2   1 <1>  -0.3380 
  5 N       -2.5820    -2.5480     1.1030 N.am  1 <1>  -0.4940 
  6 N       -1.0110     0.6100     1.6510 N.2   1 <1>  -0.3380 
  7 C        0.3940     1.4780    -0.2560 C.3   1 <1>   0.3800 
  8 C       -3.3870    -3.1260     2.0380 C.2   1 <1>   0.5690 
  9 O       -0.1450     1.8260    -1.4990 O.3   1 <1>  -0.5600 
 10 C        1.7800     0.8910    -0.5220 C.3   1 <1>  -0.2400 
 11 O       -3.6360    -2.6300     3.1080 O.2   1 <1>  -0.5700 
 12 C       -3.9820    -4.4830     1.7050 C.3   1 <1>   0.0440 
 13 C       -1.2910     2.6210    -1.4400 C.3   1 <1>   0.0400 
 14 C       -4.6430    -4.5120     0.3250 C.ar  1 <1>  -0.1430 
 15 C       -3.8930    -4.6680    -0.8400 C.ar  1 <1>   0.0830 
 16 C       -6.0200    -4.3810     0.2380 C.ar  1 <1>  -0.1500 
 17 O       -2.5420    -4.7690    -0.7170 O.3   1 <1>  -0.3630 
 18 C       -4.5370    -4.7010    -2.0750 C.ar  1 <1>  -0.1500 
 19 C       -6.6540    -4.4120    -0.9920 C.ar  1 <1>  -0.1500 
 20 C       -1.7200    -5.0890    -1.8200 C.3   1 <1>   0.0400 
 21 C       -5.9120    -4.5740    -2.1480 C.ar  1 <1>  -0.1500 
 22 H       -2.4940    -3.0960     0.2430 H     1 <1>   0.3700 
 23 H        0.5000     2.3750     0.3290 H     1 <1>   0.0800 
 24 H        1.7070     0.0260    -1.1550 H     1 <1>   0.0800 
 25 H        2.2360     0.6040     0.4080 H     1 <1>   0.0800 
 26 H        2.4020     1.6280    -0.9970 H     1 <1>   0.0800 
 27 H       -4.7050    -4.7330     2.4600 H     1 <1>   0.0800 
 28 H       -3.2040    -5.2210     1.7560 H     1 <1>   0.0800 
 29 H       -1.5910     2.8480    -2.4480 H     1 <1>   0.0800 
 30 H       -1.0680     3.5340    -0.9160 H     1 <1>   0.0800 
 31 H       -2.0810     2.0840    -0.9440 H     1 <1>   0.0800 
 32 H       -6.6120    -4.2520     1.1280 H     1 <1>   0.1500 
 33 H       -3.9900    -4.8200    -2.9910 H     1 <1>   0.1500 
 34 H       -7.7240    -4.3110    -1.0480 H     1 <1>   0.1500 
 35 H       -0.7080    -5.1840    -1.4680 H     1 <1>   0.0800 
 36 H       -1.7810    -4.2980    -2.5460 H     1 <1>   0.0800 
 37 H       -2.0490    -6.0240    -2.2400 H     1 <1>   0.0800 
 38 H       -6.4080    -4.6000    -3.1030 H     1 <1>   0.1500 
@<TRIPOS>BOND
  1   1   2  1   
  2   1   3  1   
  3   2   4  2   
  4   2   5  1   
  5   3   6  2   
  6   3   7  1   
  7   4   6  1   
  8   5   8  am  
  9   5  22  1   
 10   7   9  1   
 11   7  10  1   
 12   7  23  1   
 13   8  11  2   
 14   8  12  1   
 15   9  13  1   
 16  10  24  1   
 17  10  25  1   
 18  10  26  1   
 19  12  14  1   
 20  12  27  1   
 21  12  28  1   
 22  13  29  1   
 23  13  30  1   
 24  13  31  1   
 25  14  15  ar  
 26  14  16  ar  
 27  15  17  1   
 28  15  18  ar  
 29  16  19  ar  
 30  16  32  1   
 31  17  20  1   
 32  18  21  ar  
 33  18  33  1   
 34  19  21  ar  
 35  19  34  1   
 36  20  35  1   
 37  20  36  1   
 38  20  37  1   
 39  21  38  1   
@<TRIPOS>SUBSTRUCTURE
  1 ****   5 GROUP 4 **** **** 0

# MOE 2024.06 (io_trps.svl 2023.06)
