@<TRIPOS>MOLECULE
NONAME
57 59 1 0 0 
SMALL
USER_CHARGES


@<TRIPOS>ATOM
  1 O        0.5190     1.1630    -2.1330 O.2   1 <1>  -0.5700 
  2 C        0.7790     1.4680    -0.9850 C.2   1 <1>   0.5440 
  3 N       -0.1200     1.9950    -0.0930 N.am  1 <1>  -0.6600 
  4 C        2.0680     1.3300    -0.3720 C.ar  1 <1>   0.0860 
  5 C       -1.5470     2.3920    -0.3830 C.3   1 <1>   0.3000 
  6 C        0.5810     2.2710     1.2020 C.3   1 <1>   0.2840 
  7 C        1.9940     1.7930     0.9250 C.ar  1 <1>  -0.1440 
  8 C        3.2720     0.8380    -0.8600 C.ar  1 <1>  -0.1500 
  9 C       -2.2520     2.9710     0.8810 C.3   1 <1>  -0.1600 
 10 C       -1.5300     3.5160    -1.4360 C.3   1 <1>  -0.1600 
 11 C       -2.2570     1.1270    -0.9250 C.3   1 <1>  -0.0990 
 12 C        3.0970     1.7800     1.7580 C.ar  1 <1>  -0.1500 
 13 C        4.3860     0.8200    -0.0350 C.ar  1 <1>  -0.1500 
 14 C       -2.1030     4.4950     1.0410 C.3   1 <1>   0.1200 
 15 C       -0.8220     4.7830    -0.9250 C.3   1 <1>   0.1200 
 16 C       -3.7720     1.1560    -0.9520 C.2   1 <1>   0.5690 
 17 C        4.2980     1.2890     1.2690 C.ar  1 <1>  -0.1500 
 18 O       -0.9130     4.9230     0.4670 O.3   1 <1>  -0.5600 
 19 O       -4.3130     1.9340    -1.6940 O.2   1 <1>  -0.5700 
 20 N       -4.5630     0.3490    -0.2000 N.am  1 <1>  -0.7300 
 21 C       -4.3550    -0.6500     0.8860 C.3   1 <1>   0.2200 
 22 C       -3.3540    -0.1850     1.9660 C.3   1 <1>   0.1200 
 23 C       -4.1850    -2.0750     0.3110 C.3   1 <1>  -0.1600 
 24 O       -3.3420    -1.0650     3.0430 O.3   1 <1>  -0.6800 
 25 C       -3.0040    -2.3740    -0.6410 C.3   1 <1>  -0.0800 
 26 C       -3.3130    -3.6390    -1.4520 C.3   1 <1>  -0.2400 
 27 C       -1.6810    -2.5970     0.1080 C.3   1 <1>  -0.2400 
 28 H        0.5820     3.3210     1.4340 H     1 <1>   0.0800 
 29 H        0.1430     1.7030     2.0020 H     1 <1>   0.0800 
 30 H        3.3210     0.4790    -1.8730 H     1 <1>   0.1500 
 31 H       -1.9370     2.4690     1.7740 H     1 <1>   0.0800 
 32 H       -3.3110     2.8150     0.8300 H     1 <1>   0.0800 
 33 H       -2.5390     3.7810    -1.6920 H     1 <1>   0.0800 
 34 H       -1.0660     3.1870    -2.3480 H     1 <1>   0.0800 
 35 H       -1.9240     0.2780    -0.3750 H     1 <1>   0.0800 
 36 H       -1.9500     0.9650    -1.9400 H     1 <1>   0.0800 
 37 H        3.0280     2.1450     2.7680 H     1 <1>   0.1500 
 38 H        5.3220     0.4410    -0.4070 H     1 <1>   0.1500 
 39 H       -2.0920     4.7730     2.0800 H     1 <1>   0.0800 
 40 H       -2.9100     5.0150     0.5520 H     1 <1>   0.0800 
 41 H       -1.2430     5.6620    -1.3830 H     1 <1>   0.0800 
 42 H        0.2260     4.7380    -1.1660 H     1 <1>   0.0800 
 43 H        5.1680     1.2710     1.9030 H     1 <1>   0.1500 
 44 H       -5.5480     0.4500    -0.4540 H     1 <1>   0.3700 
 45 H       -5.2970    -0.6770     1.4080 H     1 <1>   0.0800 
 46 H       -3.6440     0.7800     2.3410 H     1 <1>   0.0800 
 47 H       -2.3510    -0.1280     1.6000 H     1 <1>   0.0800 
 48 H       -4.1450    -2.7710     1.1300 H     1 <1>   0.0800 
 49 H       -5.0980    -2.2900    -0.2150 H     1 <1>   0.0800 
 50 H       -4.2040    -1.0800     3.5020 H     1 <1>   0.4000 
 51 H       -2.8910    -1.5690    -1.3450 H     1 <1>   0.0800 
 52 H       -3.4520    -4.4840    -0.8010 H     1 <1>   0.0800 
 53 H       -2.5040    -3.8560    -2.1270 H     1 <1>   0.0800 
 54 H       -4.2050    -3.5030    -2.0370 H     1 <1>   0.0800 
 55 H       -1.7780    -3.4010     0.8150 H     1 <1>   0.0800 
 56 H       -1.3670    -1.7210     0.6370 H     1 <1>   0.0800 
 57 H       -0.9010    -2.8490    -0.5890 H     1 <1>   0.0800 
@<TRIPOS>BOND
  1   1   2  2   
  2   2   3  am  
  3   2   4  1   
  4   3   5  1   
  5   3   6  1   
  6   4   7  ar  
  7   4   8  ar  
  8   5   9  1   
  9   5  10  1   
 10   5  11  1   
 11   6   7  1   
 12   6  28  1   
 13   6  29  1   
 14   7  12  ar  
 15   8  13  ar  
 16   8  30  1   
 17   9  14  1   
 18   9  31  1   
 19   9  32  1   
 20  10  15  1   
 21  10  33  1   
 22  10  34  1   
 23  11  16  1   
 24  11  35  1   
 25  11  36  1   
 26  12  17  ar  
 27  12  37  1   
 28  13  17  ar  
 29  13  38  1   
 30  14  18  1   
 31  14  39  1   
 32  14  40  1   
 33  15  18  1   
 34  15  41  1   
 35  15  42  1   
 36  16  19  2   
 37  16  20  am  
 38  17  43  1   
 39  20  21  1   
 40  20  44  1   
 41  21  22  1   
 42  21  23  1   
 43  21  45  1   
 44  22  24  1   
 45  22  46  1   
 46  22  47  1   
 47  23  25  1   
 48  23  48  1   
 49  23  49  1   
 50  24  50  1   
 51  25  26  1   
 52  25  27  1   
 53  25  51  1   
 54  26  52  1   
 55  26  53  1   
 56  26  54  1   
 57  27  55  1   
 58  27  56  1   
 59  27  57  1   
@<TRIPOS>SUBSTRUCTURE
  1 ****   3 GROUP 4 **** **** 0

# MOE 2024.06 (io_trps.svl 2023.06)
