@<TRIPOS>MOLECULE
NONAME
40 42 1 0 0 
SMALL
USER_CHARGES


@<TRIPOS>ATOM
  1 O        0.8270     2.3280     1.9710 O.co2 1 <1>  -0.9000 
  2 C        0.9170     2.2140     0.7390 C.2   1 <1>   0.9470 
  3 O       -0.0020     2.5920    -0.0010 O.co2 1 <1>  -0.9000 
  4 C        2.2610     1.7930     0.1340 C.3   1 <1>  -0.2420 
  5 C        2.7840     0.4480    -0.3060 C.3   1 <1>  -0.2420 
  6 C        3.4050     2.5350     0.8020 C.3   1 <1>   0.2350 
  7 C        2.3260     1.4510    -1.3330 C.3   1 <1>  -0.2000 
  8 C        2.1400    -0.9400    -0.2790 C.2   1 <1>   0.9470 
  9 C        4.2490     0.3660     0.0890 C.3   1 <1>   0.2350 
 10 N        4.6360     1.7520     0.4830 N.am  1 <1>  -0.6600 
 11 O        1.6870    -1.4230    -1.3270 O.co2 1 <1>  -0.9000 
 12 O        2.2270    -1.6230     0.7510 O.co2 1 <1>  -0.9000 
 13 C        5.9360     2.1890     0.4560 C.2   1 <1>   0.5690 
 14 O        6.8180     1.4270     0.1120 O.2   1 <1>  -0.5700 
 15 C        6.3410     3.6410     0.8710 C.3   1 <1>   0.2050 
 16 C        5.6990     4.7150    -0.0380 C.ar  1 <1>  -0.1440 
 17 C        7.8670     3.8510     0.7430 C.3   1 <1>  -0.2400 
 18 C        5.9940     3.8500     2.3640 C.3   1 <1>  -0.2400 
 19 C        5.3730     4.4130    -1.3570 C.ar  1 <1>  -0.1500 
 20 C        5.4470     6.0080     0.4150 C.ar  1 <1>  -0.1500 
 21 C        4.8010     5.3590    -2.1880 C.ar  1 <1>  -0.1500 
 22 C        4.8770     6.9570    -0.4150 C.ar  1 <1>  -0.1500 
 23 C        4.5510     6.6340    -1.7180 C.ar  1 <1>  -0.1500 
 24 H        3.2580     2.5400     1.8690 H     1 <1>   0.0800 
 25 H        3.4530     3.5430     0.4360 H     1 <1>   0.0800 
 26 H        3.0490     1.9400    -1.9580 H     1 <1>   0.1000 
 27 H        1.4000     1.2520    -1.8470 H     1 <1>   0.1000 
 28 H        4.8450     0.0110    -0.7330 H     1 <1>   0.0800 
 29 H        4.3700    -0.2900     0.9340 H     1 <1>   0.0800 
 30 H        8.1410     4.8510     1.0270 H     1 <1>   0.0800 
 31 H        8.1740     3.6930    -0.2760 H     1 <1>   0.0800 
 32 H        8.3970     3.1540     1.3680 H     1 <1>   0.0800 
 33 H        6.4860     4.7150     2.7670 H     1 <1>   0.0800 
 34 H        6.3080     2.9930     2.9330 H     1 <1>   0.0800 
 35 H        4.9350     3.9710     2.4970 H     1 <1>   0.0800 
 36 H        5.5550     3.4290    -1.7570 H     1 <1>   0.1500 
 37 H        5.6890     6.2990     1.4190 H     1 <1>   0.1500 
 38 H        4.5450     5.0960    -3.1990 H     1 <1>   0.1500 
 39 H        4.6840     7.9490    -0.0440 H     1 <1>   0.1500 
 40 H        4.1020     7.3700    -2.3630 H     1 <1>   0.1500 
@<TRIPOS>BOND
  1   1   2  ar  
  2   2   3  ar  
  3   2   4  1   
  4   4   5  1   
  5   4   6  1   
  6   4   7  1   
  7   5   7  1   
  8   5   8  1   
  9   5   9  1   
 10   6  10  1   
 11   6  24  1   
 12   6  25  1   
 13   7  26  1   
 14   7  27  1   
 15   8  11  ar  
 16   8  12  ar  
 17   9  10  1   
 18   9  28  1   
 19   9  29  1   
 20  10  13  am  
 21  13  14  2   
 22  13  15  1   
 23  15  16  1   
 24  15  17  1   
 25  15  18  1   
 26  16  19  ar  
 27  16  20  ar  
 28  17  30  1   
 29  17  31  1   
 30  17  32  1   
 31  18  33  1   
 32  18  34  1   
 33  18  35  1   
 34  19  21  ar  
 35  19  36  1   
 36  20  22  ar  
 37  20  37  1   
 38  21  23  ar  
 39  21  38  1   
 40  22  23  ar  
 41  22  39  1   
 42  23  40  1   
@<TRIPOS>SUBSTRUCTURE
  1 ****   6 GROUP 4 **** **** 0

# MOE 2024.06 (io_trps.svl 2023.06)
