@<TRIPOS>MOLECULE
NONAME
46 48 1 0 0 
SMALL
USER_CHARGES


@<TRIPOS>ATOM
  1 CL      -4.0220     1.0440    -1.7320 Cl    1 <1>  -0.1770 
  2 C       -3.7360    -0.2720    -0.6180 C.ar  1 <1>   0.1770 
  3 C       -3.6870    -0.0320     0.7480 C.ar  1 <1>  -0.1440 
  4 C       -3.5670    -1.5390    -1.1370 C.ar  1 <1>  -0.1500 
  5 C       -3.4520    -1.1050     1.5930 C.ar  1 <1>  -0.1500 
  6 C       -3.8770     1.3680     1.3110 C.3   1 <1>  -0.0960 
  7 C       -3.3640    -2.6280    -0.2950 C.ar  1 <1>   0.0860 
  8 C       -3.2880    -2.3790     1.0750 C.ar  1 <1>  -0.1500 
  9 C       -3.2180    -3.9720    -0.8190 C.2   1 <1>   0.5440 
 10 O       -2.2100    -4.2410    -1.4440 O.2   1 <1>  -0.5700 
 11 N       -4.1610    -4.9670    -0.6210 N.am  1 <1>  -0.6600 
 12 C       -5.6440    -4.7930    -0.6950 C.3   1 <1>   0.2200 
 13 C       -3.7330    -6.3930    -0.7040 C.3   1 <1>   0.0600 
 14 C       -6.2600    -4.1170     0.5250 C.3   1 <1>  -0.1600 
 15 C       -6.1120    -3.9740    -1.8950 C.3   1 <1>  -0.1600 
 16 C       -7.6060    -3.5660     0.0380 C.3   1 <1>  -0.0800 
 17 C       -7.4950    -3.4400    -1.5000 C.3   1 <1>  -0.0800 
 18 C       -8.0080    -2.2690     0.7690 C.3   1 <1>   0.1400 
 19 C       -7.7610    -2.0150    -2.0210 C.3   1 <1>  -0.0990 
 20 N       -9.0760    -1.5670     0.0150 N.am  1 <1>  -0.6600 
 21 C       -8.9790    -1.4210    -1.3410 C.2   1 <1>   0.5690 
 22 C      -10.2000    -0.9990     0.8060 C.3   1 <1>   0.0600 
 23 O       -9.8060    -0.8490    -2.0100 O.2   1 <1>  -0.5700 
 24 H       -3.5900    -1.6850    -2.2020 H     1 <1>   0.1500 
 25 H       -3.3930    -0.9540     2.6580 H     1 <1>   0.1500 
 26 H       -3.8130     1.3670     2.3840 H     1 <1>   0.0800 
 27 H       -4.8410     1.7520     1.0270 H     1 <1>   0.0800 
 28 H       -3.1170     2.0250     0.9260 H     1 <1>   0.0800 
 29 H       -3.1010    -3.2050     1.7390 H     1 <1>   0.1500 
 30 H       -6.1050    -5.7640    -0.7830 H     1 <1>   0.0800 
 31 H       -4.2510    -6.9770     0.0360 H     1 <1>   0.0800 
 32 H       -2.6750    -6.4790    -0.5260 H     1 <1>   0.0800 
 33 H       -3.9500    -6.7800    -1.6840 H     1 <1>   0.0800 
 34 H       -6.3870    -4.8140     1.3340 H     1 <1>   0.0800 
 35 H       -5.6490    -3.3050     0.8530 H     1 <1>   0.0800 
 36 H       -5.4490    -3.1560    -2.0810 H     1 <1>   0.0800 
 37 H       -6.1670    -4.5830    -2.7790 H     1 <1>   0.0800 
 38 H       -8.3630    -4.3030     0.2490 H     1 <1>   0.0800 
 39 H       -8.2440    -4.0870    -1.9270 H     1 <1>   0.0800 
 40 H       -7.1620    -1.6070     0.8460 H     1 <1>   0.0800 
 41 H       -8.3460    -2.5030     1.7640 H     1 <1>   0.0800 
 42 H       -7.9160    -2.0330    -3.0850 H     1 <1>   0.0800 
 43 H       -6.9270    -1.3720    -1.8120 H     1 <1>   0.0800 
 44 H       -9.8200    -0.2960     1.5260 H     1 <1>   0.0800 
 45 H      -10.7200    -1.7900     1.3180 H     1 <1>   0.0800 
 46 H      -10.8960    -0.4900     0.1610 H     1 <1>   0.0800 
@<TRIPOS>BOND
  1   1   2  1   
  2   2   3  ar  
  3   2   4  ar  
  4   3   5  ar  
  5   3   6  1   
  6   4   7  ar  
  7   4  24  1   
  8   5   8  ar  
  9   5  25  1   
 10   6  26  1   
 11   6  27  1   
 12   6  28  1   
 13   7   8  ar  
 14   7   9  1   
 15   8  29  1   
 16   9  10  2   
 17   9  11  am  
 18  11  12  1   
 19  11  13  1   
 20  12  14  1   
 21  12  15  1   
 22  12  30  1   
 23  13  31  1   
 24  13  32  1   
 25  13  33  1   
 26  14  16  1   
 27  14  34  1   
 28  14  35  1   
 29  15  17  1   
 30  15  36  1   
 31  15  37  1   
 32  16  17  1   
 33  16  18  1   
 34  16  38  1   
 35  17  19  1   
 36  17  39  1   
 37  18  20  1   
 38  18  40  1   
 39  18  41  1   
 40  19  21  1   
 41  19  42  1   
 42  19  43  1   
 43  20  21  am  
 44  20  22  1   
 45  21  23  2   
 46  22  44  1   
 47  22  45  1   
 48  22  46  1   
@<TRIPOS>SUBSTRUCTURE
  1 ****  14 GROUP 4 **** **** 0

# MOE 2024.06 (io_trps.svl 2023.06)
