@<TRIPOS>MOLECULE
NONAME
47 49 1 0 0 
SMALL
USER_CHARGES


@<TRIPOS>ATOM
  1 F       -0.7570    -0.1510     0.3190 F     1 <1>  -0.1900 
  2 C       -1.9900     0.2880     0.3020 C.ar  1 <1>   0.1900 
  3 C       -2.2920     1.6540     0.3130 C.ar  1 <1>   0.0830 
  4 C       -2.9830    -0.6710     0.2760 C.ar  1 <1>  -0.1500 
  5 O       -1.4070     2.6910     0.3390 O.3   1 <1>  -0.3630 
  6 C       -3.6300     2.0150     0.2950 C.ar  1 <1>  -0.1500 
  7 C       -4.3070    -0.2760     0.2600 C.ar  1 <1>  -0.1500 
  8 C       -0.0080     2.5100     0.3220 C.3   1 <1>   0.0400 
  9 C       -4.6640     1.0760     0.2660 C.ar  1 <1>   0.0530 
 10 C       -6.0430     1.5020     0.2490 C.2   1 <1>   0.0870 
 11 O       -6.3780     2.6860     0.6970 O.3   1 <1>  -0.0190 
 12 C       -7.1940     0.9020    -0.1550 C.2   1 <1>  -0.0860 
 13 N       -7.6620     2.9190     0.6230 N.2   1 <1>  -0.4100 
 14 C       -8.1780     1.8590     0.1030 C.2   1 <1>   0.3720 
 15 C       -7.4090    -0.3930    -0.7120 C.2   1 <1>   0.7160 
 16 N       -9.5480     1.7030    -0.1610 N.pl3 1 <1>  -0.8210 
 17 O       -7.1000    -0.6100    -1.8710 O.2   1 <1>  -0.5700 
 18 N       -7.9050    -1.4210     0.0530 N.am  1 <1>  -0.6600 
 19 C      -10.4580     2.6040     0.6000 C.3   1 <1>   0.1290 
 20 C       -9.8900     1.6620    -1.6100 C.3   1 <1>   0.1290 
 21 C       -8.1910    -2.7640    -0.4840 C.3   1 <1>   0.2200 
 22 C       -8.5310    -1.2240     1.3800 C.3   1 <1>   0.1400 
 23 C       -9.2860    -3.3090     0.4310 C.3   1 <1>  -0.1600 
 24 C       -6.9150    -3.6030    -0.4140 C.3   1 <1>  -0.2400 
 25 C       -9.0800    -2.5930     1.7640 C.3   1 <1>  -0.1600 
 26 H       -2.7190    -1.7140     0.2680 H     1 <1>   0.1500 
 27 H       -3.8700     3.0640     0.3000 H     1 <1>   0.1500 
 28 H       -5.0680    -1.0340     0.2460 H     1 <1>   0.1500 
 29 H        0.4540     3.4810     0.3290 H     1 <1>   0.0800 
 30 H        0.2660     1.9820    -0.5730 H     1 <1>   0.0800 
 31 H        0.2850     1.9620     1.2000 H     1 <1>   0.0800 
 32 H      -10.1950     2.5890     1.6440 H     1 <1>   0.0800 
 33 H      -11.4760     2.2720     0.4960 H     1 <1>   0.0800 
 34 H      -10.3710     3.6130     0.2350 H     1 <1>   0.0800 
 35 H       -9.2090     1.0240    -2.1450 H     1 <1>   0.0800 
 36 H       -9.8330     2.6520    -2.0290 H     1 <1>   0.0800 
 37 H      -10.8870     1.2790    -1.7380 H     1 <1>   0.0800 
 38 H       -8.5400    -2.7000    -1.5030 H     1 <1>   0.0800 
 39 H       -9.3370    -0.5150     1.2920 H     1 <1>   0.0800 
 40 H       -7.8110    -0.8690     2.0980 H     1 <1>   0.0800 
 41 H       -9.2490    -4.3790     0.5280 H     1 <1>   0.0800 
 42 H      -10.2420    -3.0350     0.0190 H     1 <1>   0.0800 
 43 H       -6.5420    -3.6510     0.5930 H     1 <1>   0.0800 
 44 H       -6.1630    -3.1740    -1.0520 H     1 <1>   0.0800 
 45 H       -7.1140    -4.6010    -0.7570 H     1 <1>   0.0800 
 46 H       -9.9910    -2.5130     2.3310 H     1 <1>   0.0800 
 47 H       -8.3460    -3.1140     2.3520 H     1 <1>   0.0800 
@<TRIPOS>BOND
  1   1   2  1   
  2   2   3  ar  
  3   2   4  ar  
  4   3   5  1   
  5   3   6  ar  
  6   4   7  ar  
  7   4  26  1   
  8   5   8  1   
  9   6   9  ar  
 10   6  27  1   
 11   7   9  ar  
 12   7  28  1   
 13   8  29  1   
 14   8  30  1   
 15   8  31  1   
 16   9  10  1   
 17  10  11  1   
 18  10  12  2   
 19  11  13  1   
 20  12  14  1   
 21  12  15  1   
 22  13  14  2   
 23  14  16  1   
 24  15  17  2   
 25  15  18  am  
 26  16  19  1   
 27  16  20  1   
 28  18  21  1   
 29  18  22  1   
 30  19  32  1   
 31  19  33  1   
 32  19  34  1   
 33  20  35  1   
 34  20  36  1   
 35  20  37  1   
 36  21  23  1   
 37  21  24  1   
 38  21  38  1   
 39  22  25  1   
 40  22  39  1   
 41  22  40  1   
 42  23  25  1   
 43  23  41  1   
 44  23  42  1   
 45  24  43  1   
 46  24  44  1   
 47  24  45  1   
 48  25  46  1   
 49  25  47  1   
@<TRIPOS>SUBSTRUCTURE
  1 ****  10 GROUP 4 **** **** 0

# MOE 2024.06 (io_trps.svl 2023.06)
