@<TRIPOS>MOLECULE
NONAME
54 57 1 0 0 
SMALL
USER_CHARGES


@<TRIPOS>ATOM
  1 O        0.6910    -0.3190    -1.7020 O.3   1 <1>  -0.0190 
  2 N        0.9840     0.9000    -1.3820 N.2   1 <1>  -0.4100 
  3 C        1.4610    -1.1800    -1.1040 C.2   1 <1>  -0.0400 
  4 C        1.9920     0.8480    -0.5640 C.2   1 <1>   0.2350 
  5 C        2.3320    -0.4960    -0.3500 C.2   1 <1>  -0.1500 
  6 C        1.2370    -2.6590    -1.3400 C.3   1 <1>   0.5230 
  7 C        2.6390     2.0020     0.0280 C.ar  1 <1>   0.0540 
  8 N       -0.1970    -3.0130    -1.0890 N.4   1 <1>  -0.9590 
  9 C        2.0900     3.2750    -0.0510 C.ar  1 <1>  -0.1500 
 10 C        3.8460     1.9380     0.7140 C.ar  1 <1>  -0.1500 
 11 C       -0.4110    -4.4640    -1.4370 C.3   1 <1>   0.3430 
 12 C       -0.6170    -2.6110     0.2890 C.3   1 <1>   0.3430 
 13 C        2.7270     4.3550     0.5290 C.ar  1 <1>   0.1600 
 14 C        4.4030     3.0790     1.2610 C.ar  1 <1>   0.1600 
 15 C       -1.0530    -5.3280    -0.3300 C.3   1 <1>   0.0000 
 16 C       -2.0200    -3.1130     0.6300 C.3   1 <1>  -0.1600 
 17 N        3.8710     4.2860     1.1870 N.ar  1 <1>  -0.6200 
 18 C       -2.2980    -4.5430     0.1450 C.3   1 <1>   0.2000 
 19 C       -1.5610    -6.6240    -1.0040 C.3   1 <1>   0.1200 
 20 C       -0.0750    -5.7070     0.8400 C.3   1 <1>  -0.0170 
 21 O       -2.9760    -5.2400     1.1280 O.3   1 <1>  -0.6800 
 22 O       -0.5420    -7.1900    -1.7560 O.3   1 <1>  -0.6800 
 23 C        1.3820    -5.2630     0.7030 C.ar  1 <1>  -0.1440 
 24 C        2.1950    -5.7920    -0.2890 C.ar  1 <1>  -0.1500 
 25 C        1.9260    -4.3450     1.5930 C.ar  1 <1>  -0.1500 
 26 C        3.5070    -5.3720    -0.4260 C.ar  1 <1>  -0.1500 
 27 C        3.2380    -3.9250     1.4610 C.ar  1 <1>  -0.1500 
 28 C        4.0270    -4.4330     0.4450 C.ar  1 <1>  -0.1500 
 29 H        3.1180    -0.8570     0.2870 H     1 <1>   0.1500 
 30 H        1.8820    -3.2260    -0.6910 H     1 <1>   0.0800 
 31 H        1.4970    -2.8940    -2.3590 H     1 <1>   0.0800 
 32 H       -0.7420    -2.4370    -1.7460 H     1 <1>   0.4500 
 33 H        1.1600     3.4270    -0.5690 H     1 <1>   0.1500 
 34 H        4.3660     1.0070     0.8270 H     1 <1>   0.1500 
 35 H       -1.0570    -4.5100    -2.2990 H     1 <1>   0.0800 
 36 H        0.5180    -4.9190    -1.7360 H     1 <1>   0.0800 
 37 H        0.0730    -3.0210     1.0020 H     1 <1>   0.0800 
 38 H       -0.5870    -1.5370     0.3890 H     1 <1>   0.0800 
 39 H        2.2720     5.3280     0.4490 H     1 <1>   0.1500 
 40 H        5.3400     2.9980     1.7870 H     1 <1>   0.1500 
 41 H       -2.7390    -2.4510     0.1800 H     1 <1>   0.0800 
 42 H       -2.1490    -3.0400     1.6960 H     1 <1>   0.0800 
 43 H       -2.9830    -4.4710    -0.6860 H     1 <1>   0.0800 
 44 H       -2.3830    -6.4230    -1.6710 H     1 <1>   0.0800 
 45 H       -1.8880    -7.3420    -0.2690 H     1 <1>   0.0800 
 46 H       -0.4520    -5.3210     1.7700 H     1 <1>   0.0800 
 47 H       -0.0620    -6.7760     0.9680 H     1 <1>   0.0800 
 48 H       -2.5120    -5.2250     1.9870 H     1 <1>   0.4000 
 49 H       -0.8050    -8.0780    -2.0840 H     1 <1>   0.4000 
 50 H        1.8170    -6.5460    -0.9600 H     1 <1>   0.1500 
 51 H        1.3400    -3.9570     2.4090 H     1 <1>   0.1500 
 52 H        4.1280    -5.7900    -1.2000 H     1 <1>   0.1500 
 53 H        3.6530    -3.2170     2.1590 H     1 <1>   0.1500 
 54 H        5.0520    -4.1150     0.3440 H     1 <1>   0.1500 
@<TRIPOS>BOND
  1   1   2  1   
  2   1   3  1   
  3   2   4  2   
  4   3   5  2   
  5   3   6  1   
  6   4   5  1   
  7   4   7  1   
  8   5  29  1   
  9   6   8  1   
 10   6  30  1   
 11   6  31  1   
 12   7   9  ar  
 13   7  10  ar  
 14   8  11  1   
 15   8  12  1   
 16   8  32  1   
 17   9  13  ar  
 18   9  33  1   
 19  10  14  ar  
 20  10  34  1   
 21  11  15  1   
 22  11  35  1   
 23  11  36  1   
 24  12  16  1   
 25  12  37  1   
 26  12  38  1   
 27  13  17  ar  
 28  13  39  1   
 29  14  17  ar  
 30  14  40  1   
 31  15  18  1   
 32  15  19  1   
 33  15  20  1   
 34  16  18  1   
 35  16  41  1   
 36  16  42  1   
 37  18  21  1   
 38  18  43  1   
 39  19  22  1   
 40  19  44  1   
 41  19  45  1   
 42  20  23  1   
 43  20  46  1   
 44  20  47  1   
 45  21  48  1   
 46  22  49  1   
 47  23  24  ar  
 48  23  25  ar  
 49  24  26  ar  
 50  24  50  1   
 51  25  27  ar  
 52  25  51  1   
 53  26  28  ar  
 54  26  52  1   
 55  27  28  ar  
 56  27  53  1   
 57  28  54  1   
@<TRIPOS>SUBSTRUCTURE
  1 ****   6 GROUP 4 **** **** 0

# MOE 2024.06 (io_trps.svl 2023.06)
