@<TRIPOS>MOLECULE
NONAME
50 52 1 0 0 
SMALL
USER_CHARGES


@<TRIPOS>ATOM
  1 O        1.3310    -0.7220     1.6250 O.co2 1 <1>  -0.9000 
  2 C        1.2850     0.3040     0.9280 C.2   1 <1>   0.9060 
  3 O        0.5370     1.2400     1.2060 O.co2 1 <1>  -0.9000 
  4 C        2.2140     0.3970    -0.2980 C.3   1 <1>  -0.1060 
  5 C        3.5960    -0.1680     0.1120 C.3   1 <1>   0.4230 
  6 C        2.4200     1.8790    -0.7340 C.3   1 <1>  -0.1600 
  7 C        1.6030    -0.4190    -1.4750 C.3   1 <1>  -0.1600 
  8 N        3.4770    -1.6350     0.4100 N.4   1 <1>  -0.9590 
  9 C        4.2060     0.6850     1.2450 C.3   1 <1>   0.1400 
 10 C        3.1050     2.7280     0.3520 C.3   1 <1>   0.1400 
 11 C        2.4980    -1.5890    -1.9160 C.3   1 <1>  -0.1600 
 12 C        2.9660    -2.4490    -0.7320 C.3   1 <1>   0.3430 
 13 C        4.6460    -2.2580     1.0860 C.3   1 <1>   0.2630 
 14 N        4.3910     2.0750     0.7330 N.am  1 <1>  -0.6600 
 15 C        5.6420     2.5590     0.4510 C.2   1 <1>   0.5690 
 16 O        6.6110     1.8370     0.5030 O.2   1 <1>  -0.5700 
 17 C        5.8260     4.0150     0.0380 C.3   1 <1>  -0.0990 
 18 C        7.2920     4.4890     0.0340 C.3   1 <1>  -0.1600 
 19 C        7.4180     5.9660    -0.3600 C.3   1 <1>   0.0210 
 20 C        8.8630     6.4380    -0.3710 C.2   1 <1>  -0.1810 
 21 C        9.2880     7.7280    -0.6770 C.2   1 <1>   0.1390 
 22 C       10.0020     5.7620    -0.1040 C.2   1 <1>  -0.3020 
 23 N       10.5790     7.8540    -0.6090 N.2   1 <1>  -0.7070 
 24 N       11.0190     6.6330    -0.2540 N.pl3 1 <1>   0.3000 
 25 H        4.2600    -0.0610    -0.7290 H     1 <1>   0.0800 
 26 H        1.4630     2.3210    -0.9560 H     1 <1>   0.0800 
 27 H        3.0120     1.9240    -1.6300 H     1 <1>   0.0800 
 28 H        0.6480    -0.8160    -1.1680 H     1 <1>   0.0800 
 29 H        1.4090     0.2160    -2.3220 H     1 <1>   0.0800 
 30 H        2.6710    -1.6110     1.0940 H     1 <1>   0.4500 
 31 H        5.1550     0.2830     1.5480 H     1 <1>   0.0800 
 32 H        3.5590     0.7060     2.1050 H     1 <1>   0.0800 
 33 H        2.4730     2.8030     1.2230 H     1 <1>   0.0800 
 34 H        3.2620     3.7240    -0.0200 H     1 <1>   0.0800 
 35 H        3.3590    -1.2120    -2.4400 H     1 <1>   0.0800 
 36 H        1.9560    -2.2120    -2.6070 H     1 <1>   0.0800 
 37 H        3.7330    -3.1230    -1.0740 H     1 <1>   0.0800 
 38 H        2.1340    -3.0400    -0.3830 H     1 <1>   0.0800 
 39 H        5.5170    -2.1960     0.4550 H     1 <1>   0.0800 
 40 H        4.4400    -3.2930     1.3020 H     1 <1>   0.0800 
 41 H        4.8510    -1.7530     2.0160 H     1 <1>   0.0800 
 42 H        5.4130     4.1380    -0.9460 H     1 <1>   0.0800 
 43 H        5.2680     4.6290     0.7220 H     1 <1>   0.0800 
 44 H        7.7130     4.3450     1.0150 H     1 <1>   0.0800 
 45 H        7.8560     3.8890    -0.6600 H     1 <1>   0.0800 
 46 H        6.8640     6.5730     0.3340 H     1 <1>   0.0800 
 47 H        7.0020     6.1140    -1.3420 H     1 <1>   0.0800 
 48 H        8.6310     8.5390    -0.9410 H     1 <1>   0.1500 
 49 H       10.1480     4.7350     0.1770 H     1 <1>   0.1500 
 50 H       12.0170     6.4270    -0.1220 H     1 <1>   0.2700 
@<TRIPOS>BOND
  1   1   2  ar  
  2   2   3  ar  
  3   2   4  1   
  4   4   5  1   
  5   4   6  1   
  6   4   7  1   
  7   5   8  1   
  8   5   9  1   
  9   5  25  1   
 10   6  10  1   
 11   6  26  1   
 12   6  27  1   
 13   7  11  1   
 14   7  28  1   
 15   7  29  1   
 16   8  12  1   
 17   8  13  1   
 18   8  30  1   
 19   9  14  1   
 20   9  31  1   
 21   9  32  1   
 22  10  14  1   
 23  10  33  1   
 24  10  34  1   
 25  11  12  1   
 26  11  35  1   
 27  11  36  1   
 28  12  37  1   
 29  12  38  1   
 30  13  39  1   
 31  13  40  1   
 32  13  41  1   
 33  14  15  am  
 34  15  16  2   
 35  15  17  1   
 36  17  18  1   
 37  17  42  1   
 38  17  43  1   
 39  18  19  1   
 40  18  44  1   
 41  18  45  1   
 42  19  20  1   
 43  19  46  1   
 44  19  47  1   
 45  20  21  1   
 46  20  22  2   
 47  21  23  2   
 48  21  48  1   
 49  22  24  1   
 50  22  49  1   
 51  23  24  1   
 52  24  50  1   
@<TRIPOS>SUBSTRUCTURE
  1 ****  15 GROUP 4 **** **** 0

# MOE 2024.06 (io_trps.svl 2023.06)
