@<TRIPOS>MOLECULE
NONAME
47 49 1 0 0 
SMALL
USER_CHARGES


@<TRIPOS>ATOM
  1 O        3.7460    -1.2000    -0.2660 O.2   1 <1>  -0.5700 
  2 C        2.5770    -1.4630    -0.4790 C.2   1 <1>   0.5440 
  3 N        1.7510    -0.4360    -0.8310 N.am  1 <1>  -0.7300 
  4 C        2.0880    -2.8310    -0.3710 C.ar  1 <1>   0.0860 
  5 C        2.0970     1.0020    -0.8470 C.3   1 <1>   0.1400 
  6 C        0.7400    -3.1730    -0.1420 C.ar  1 <1>   0.0820 
  7 C        3.0000    -3.8820    -0.5010 C.ar  1 <1>  -0.1500 
  8 C        2.0800     1.5830     0.5770 C.3   1 <1>  -0.0800 
  9 O       -0.1760    -2.1780     0.0080 O.3   1 <1>  -0.3630 
 10 C        0.3590    -4.5130    -0.0650 C.ar  1 <1>  -0.1500 
 11 C        2.6160    -5.2060    -0.4220 C.ar  1 <1>  -0.1500 
 12 C        0.7240     1.4250     1.2510 C.3   1 <1>   0.1200 
 13 C        2.2130     3.0980     0.5500 C.3   1 <1>  -0.1600 
 14 C       -1.5520    -2.4180     0.2170 C.3   1 <1>   0.1200 
 15 C        1.2900    -5.5230    -0.2050 C.ar  1 <1>  -0.1500 
 16 O       -0.0400     2.4800     0.7650 O.3   1 <1>  -0.5600 
 17 C        0.7660     3.5960     0.5440 C.3   1 <1>   0.1200 
 18 C       -2.2750    -1.0760     0.3230 C.3   1 <1>  -0.0160 
 19 C       -3.7660    -1.3120     0.4970 C.ar  1 <1>  -0.1430 
 20 C       -4.5900    -1.4250    -0.6120 C.ar  1 <1>  -0.1500 
 21 C       -4.3130    -1.4250     1.7650 C.ar  1 <1>  -0.1500 
 22 C       -5.9470    -1.6490    -0.4550 C.ar  1 <1>  -0.1500 
 23 C       -5.6700    -1.6490     1.9240 C.ar  1 <1>  -0.1500 
 24 C       -6.4880    -1.7620     0.8140 C.ar  1 <1>  -0.1500 
 25 H        0.7500    -0.6530    -0.8590 H     1 <1>   0.3700 
 26 H        1.3890     1.5230    -1.4690 H     1 <1>   0.0800 
 27 H        3.0780     1.1240    -1.2740 H     1 <1>   0.0800 
 28 H        4.0390    -3.6500    -0.6700 H     1 <1>   0.1500 
 29 H        2.8630     1.1260     1.1560 H     1 <1>   0.0800 
 30 H       -0.6620    -4.7980     0.1050 H     1 <1>   0.1500 
 31 H        3.3490    -5.9880    -0.5280 H     1 <1>   0.1500 
 32 H        0.8110     1.5440     2.3170 H     1 <1>   0.0800 
 33 H        0.2360     0.4940     1.0290 H     1 <1>   0.0800 
 34 H        2.7660     3.4600    -0.2990 H     1 <1>   0.0800 
 35 H        2.6970     3.4430     1.4470 H     1 <1>   0.0800 
 36 H       -1.6700    -2.9780     1.1270 H     1 <1>   0.0800 
 37 H       -1.9320    -2.9810    -0.6180 H     1 <1>   0.0800 
 38 H        0.9860    -6.5540    -0.1430 H     1 <1>   0.1500 
 39 H        0.4930     4.0190    -0.4070 H     1 <1>   0.0800 
 40 H        0.5870     4.3090     1.3300 H     1 <1>   0.0800 
 41 H       -2.1030    -0.4970    -0.5670 H     1 <1>   0.0800 
 42 H       -1.8980    -0.5260     1.1660 H     1 <1>   0.0800 
 43 H       -4.1810    -1.3370    -1.6040 H     1 <1>   0.1500 
 44 H       -3.6880    -1.3370     2.6360 H     1 <1>   0.1500 
 45 H       -6.5820    -1.7350    -1.3200 H     1 <1>   0.1500 
 46 H       -6.0890    -1.7350     2.9110 H     1 <1>   0.1500 
 47 H       -7.5420    -1.9360     0.9360 H     1 <1>   0.1500 
@<TRIPOS>BOND
  1   1   2  2   
  2   2   3  am  
  3   2   4  1   
  4   3   5  1   
  5   3  25  1   
  6   4   6  ar  
  7   4   7  ar  
  8   5   8  1   
  9   5  26  1   
 10   5  27  1   
 11   6   9  1   
 12   6  10  ar  
 13   7  11  ar  
 14   7  28  1   
 15   8  12  1   
 16   8  13  1   
 17   8  29  1   
 18   9  14  1   
 19  10  15  ar  
 20  10  30  1   
 21  11  15  ar  
 22  11  31  1   
 23  12  16  1   
 24  12  32  1   
 25  12  33  1   
 26  13  17  1   
 27  13  34  1   
 28  13  35  1   
 29  14  18  1   
 30  14  36  1   
 31  14  37  1   
 32  15  38  1   
 33  16  17  1   
 34  17  39  1   
 35  17  40  1   
 36  18  19  1   
 37  18  41  1   
 38  18  42  1   
 39  19  20  ar  
 40  19  21  ar  
 41  20  22  ar  
 42  20  43  1   
 43  21  23  ar  
 44  21  44  1   
 45  22  24  ar  
 46  22  45  1   
 47  23  24  ar  
 48  23  46  1   
 49  24  47  1   
@<TRIPOS>SUBSTRUCTURE
  1 ****   9 GROUP 4 **** **** 0

# MOE 2024.06 (io_trps.svl 2023.06)
