@<TRIPOS>MOLECULE
NONAME
42 44 1 0 0 
SMALL
USER_CHARGES


@<TRIPOS>ATOM
  1 O       -1.8550     0.7280    -1.5590 O.2   1 <1>  -0.5700 
  2 C       -1.8630     0.9110    -0.3570 C.2   1 <1>   0.7150 
  3 N       -2.1060    -0.1500     0.4560 N.am  1 <1>  -0.7300 
  4 C       -1.6370     2.2000     0.2300 C.2   1 <1>  -0.2370 
  5 C       -2.3590    -1.5390     0.0170 C.3   1 <1>   0.2200 
  6 N       -1.3730     3.3440    -0.4590 N.pl3 1 <1>   0.3140 
  7 C       -1.6320     2.5710     1.5420 C.2   1 <1>  -0.1500 
  8 C       -3.8470    -1.8280     0.1190 C.3   1 <1>  -0.0800 
  9 C       -1.7850    -2.5070     1.0440 C.3   1 <1>   0.1200 
 10 N       -1.2080     4.3980     0.3540 N.2   1 <1>  -0.7070 
 11 C       -1.2550     3.5230    -1.9160 C.3   1 <1>   0.0160 
 12 C       -1.3640     3.9260     1.5490 C.2   1 <1>   0.1080 
 13 C       -4.0040    -2.2220     1.5930 C.3   1 <1>   0.1200 
 14 C       -4.2680    -2.9600    -0.8370 C.3   1 <1>  -0.0160 
 15 O       -2.7390    -2.5970     2.0590 O.3   1 <1>  -0.5600 
 16 C       -1.2550     4.8000     2.7760 C.3   1 <1>  -0.0590 
 17 C       -5.7620    -3.2360    -0.7500 C.ar  1 <1>  -0.1430 
 18 C       -6.6910    -2.3800    -1.3050 C.ar  1 <1>  -0.1500 
 19 C       -6.2660    -4.3540    -0.1160 C.ar  1 <1>  -0.1500 
 20 C       -8.0410    -2.6710    -1.1980 C.ar  1 <1>   0.1600 
 21 C       -7.6360    -4.5520    -0.0650 C.ar  1 <1>   0.1600 
 22 N       -8.5360    -3.7360    -0.5890 N.ar  1 <1>  -0.6200 
 23 H       -2.1530    -0.0010     1.4630 H     1 <1>   0.3700 
 24 H       -1.9570    -1.7020    -0.9690 H     1 <1>   0.0800 
 25 H       -1.7970     1.9640     2.4130 H     1 <1>   0.1500 
 26 H       -4.4300    -0.9520    -0.1080 H     1 <1>   0.0800 
 27 H       -0.8480    -2.1730     1.4530 H     1 <1>   0.0800 
 28 H       -1.6670    -3.4880     0.6190 H     1 <1>   0.0800 
 29 H       -0.4670     2.8950    -2.2870 H     1 <1>   0.0800 
 30 H       -1.0290     4.5510    -2.1300 H     1 <1>   0.0800 
 31 H       -2.1850     3.2540    -2.3820 H     1 <1>   0.0800 
 32 H       -4.6860    -3.0400     1.7430 H     1 <1>   0.0800 
 33 H       -4.3280    -1.3790     2.1790 H     1 <1>   0.0800 
 34 H       -3.7220    -3.8600    -0.6150 H     1 <1>   0.0800 
 35 H       -4.0310    -2.6780    -1.8490 H     1 <1>   0.0800 
 36 H       -1.4150     4.2230     3.6670 H     1 <1>   0.0800 
 37 H       -1.9900     5.5820     2.7230 H     1 <1>   0.0800 
 38 H       -0.2770     5.2440     2.8120 H     1 <1>   0.0800 
 39 H       -6.3780    -1.4890    -1.8200 H     1 <1>   0.1500 
 40 H       -5.6100    -5.0730     0.3390 H     1 <1>   0.1500 
 41 H       -8.7510    -1.9910    -1.6370 H     1 <1>   0.1500 
 42 H       -8.0120    -5.4290     0.4350 H     1 <1>   0.1500 
@<TRIPOS>BOND
  1   1   2  2   
  2   2   3  am  
  3   2   4  1   
  4   3   5  1   
  5   3  23  1   
  6   4   6  1   
  7   4   7  2   
  8   5   8  1   
  9   5   9  1   
 10   5  24  1   
 11   6  10  1   
 12   6  11  1   
 13   7  12  1   
 14   7  25  1   
 15   8  13  1   
 16   8  14  1   
 17   8  26  1   
 18   9  15  1   
 19   9  27  1   
 20   9  28  1   
 21  10  12  2   
 22  11  29  1   
 23  11  30  1   
 24  11  31  1   
 25  12  16  1   
 26  13  15  1   
 27  13  32  1   
 28  13  33  1   
 29  14  17  1   
 30  14  34  1   
 31  14  35  1   
 32  16  36  1   
 33  16  37  1   
 34  16  38  1   
 35  17  18  ar  
 36  17  19  ar  
 37  18  20  ar  
 38  18  39  1   
 39  19  21  ar  
 40  19  40  1   
 41  20  22  ar  
 42  20  41  1   
 43  21  22  ar  
 44  21  42  1   
@<TRIPOS>SUBSTRUCTURE
  1 ****   3 GROUP 4 **** **** 0

# MOE 2024.06 (io_trps.svl 2023.06)
