@<TRIPOS>MOLECULE
NONAME
52 55 1 0 0 
SMALL
USER_CHARGES


@<TRIPOS>ATOM
  1 O       -0.8940    -0.3910     2.8960 O.2   1 <1>  -0.5700 
  2 C       -1.3810     0.3220     2.0500 C.2   1 <1>   0.5690 
  3 N       -1.9360    -0.2070     0.9150 N.am  1 <1>  -0.6600 
  4 C       -1.3700     1.8260     2.2910 C.3   1 <1>   0.0440 
  5 C       -2.4440     0.5510    -0.2570 C.3   1 <1>   0.1400 
  6 C       -1.9730    -1.6630     0.6580 C.3   1 <1>   0.1400 
  7 C       -0.4640     2.5830     1.3240 C.ar  1 <1>  -0.1440 
  8 C       -2.7690    -0.5100    -1.3100 C.3   1 <1>   0.2000 
  9 C       -2.8900    -1.8320    -0.5540 C.3   1 <1>  -0.0800 
 10 C        0.8450     2.1730     1.1310 C.ar  1 <1>  -0.1500 
 11 C       -0.9370     3.6870     0.6310 C.ar  1 <1>  -0.1500 
 12 O       -3.9610    -0.2320    -1.9610 O.3   1 <1>  -0.6800 
 13 C       -2.5370    -3.0510    -1.4230 C.3   1 <1>  -0.0170 
 14 C        1.6700     2.8510     0.2500 C.ar  1 <1>  -0.1500 
 15 C       -0.1120     4.3650    -0.2500 C.ar  1 <1>  -0.1500 
 16 C       -2.7000    -4.3500    -0.6410 C.ar  1 <1>  -0.1440 
 17 C        1.1960     3.9500    -0.4480 C.ar  1 <1>  -0.1440 
 18 C       -3.9660    -4.9390    -0.4080 C.ar  1 <1>   0.0000 
 19 C       -1.6060    -4.9840    -0.1300 C.ar  1 <1>  -0.1500 
 20 C        2.0970     4.7000    -1.4120 C.3   1 <1>   0.2630 
 21 C       -4.0040    -6.1340     0.3520 C.ar  1 <1>   0.3100 
 22 C       -5.1910    -4.4170    -0.8830 C.ar  1 <1>  -0.1500 
 23 C       -1.7540    -6.1670     0.6030 C.ar  1 <1>   0.1600 
 24 O        2.4080     5.9140    -0.8350 O.3   1 <1>  -0.6800 
 25 N       -2.8930    -6.7340     0.8470 N.ar  1 <1>  -0.6200 
 26 C       -5.2470    -6.7350     0.6100 C.ar  1 <1>  -0.1500 
 27 C       -6.3860    -5.0290    -0.6150 C.ar  1 <1>  -0.1500 
 28 C       -6.4170    -6.2020     0.1420 C.ar  1 <1>  -0.1500 
 29 H       -2.3790     2.1860     2.2230 H     1 <1>   0.0800 
 30 H       -1.0300     2.0090     3.2930 H     1 <1>   0.0800 
 31 H       -3.3230     1.1020     0.0250 H     1 <1>   0.0800 
 32 H       -1.6870     1.2190    -0.6290 H     1 <1>   0.0800 
 33 H       -0.9740    -2.0000     0.4400 H     1 <1>   0.0800 
 34 H       -2.3480    -2.1960     1.5160 H     1 <1>   0.0800 
 35 H       -1.9810    -0.5450    -2.0440 H     1 <1>   0.0800 
 36 H       -3.8900    -1.9350    -0.1730 H     1 <1>   0.0800 
 37 H        1.2290     1.3210     1.6670 H     1 <1>   0.1500 
 38 H       -1.9470     4.0300     0.7720 H     1 <1>   0.1500 
 39 H       -4.7010    -0.2210    -1.3240 H     1 <1>   0.4000 
 40 H       -1.5200    -2.9610    -1.7650 H     1 <1>   0.0800 
 41 H       -3.1570    -3.0700    -2.3010 H     1 <1>   0.0800 
 42 H        2.6830     2.5150     0.1150 H     1 <1>   0.1500 
 43 H       -0.4870     5.2230    -0.7800 H     1 <1>   0.1500 
 44 H       -0.6120    -4.5980    -0.2690 H     1 <1>   0.1500 
 45 H        1.6040     4.8860    -2.3500 H     1 <1>   0.0800 
 46 H        3.0150     4.1650    -1.5870 H     1 <1>   0.0800 
 47 H       -5.1910    -3.5190    -1.4720 H     1 <1>   0.1500 
 48 H       -0.8640    -6.6340     0.9900 H     1 <1>   0.1500 
 49 H        2.4400     5.7940     0.1350 H     1 <1>   0.4000 
 50 H       -5.2450    -7.6370     1.1940 H     1 <1>   0.1500 
 51 H       -7.3110    -4.6200    -0.9830 H     1 <1>   0.1500 
 52 H       -7.3620    -6.6740     0.3480 H     1 <1>   0.1500 
@<TRIPOS>BOND
  1   1   2  2   
  2   2   3  am  
  3   2   4  1   
  4   3   5  1   
  5   3   6  1   
  6   4   7  1   
  7   4  29  1   
  8   4  30  1   
  9   5   8  1   
 10   5  31  1   
 11   5  32  1   
 12   6   9  1   
 13   6  33  1   
 14   6  34  1   
 15   7  10  ar  
 16   7  11  ar  
 17   8   9  1   
 18   8  12  1   
 19   8  35  1   
 20   9  13  1   
 21   9  36  1   
 22  10  14  ar  
 23  10  37  1   
 24  11  15  ar  
 25  11  38  1   
 26  12  39  1   
 27  13  16  1   
 28  13  40  1   
 29  13  41  1   
 30  14  17  ar  
 31  14  42  1   
 32  15  17  ar  
 33  15  43  1   
 34  16  18  ar  
 35  16  19  ar  
 36  17  20  1   
 37  18  21  ar  
 38  18  22  ar  
 39  19  23  ar  
 40  19  44  1   
 41  20  24  1   
 42  20  45  1   
 43  20  46  1   
 44  21  25  ar  
 45  21  26  ar  
 46  22  27  ar  
 47  22  47  1   
 48  23  25  ar  
 49  23  48  1   
 50  24  49  1   
 51  26  28  ar  
 52  26  50  1   
 53  27  28  ar  
 54  27  51  1   
 55  28  52  1   
@<TRIPOS>SUBSTRUCTURE
  1 ****   6 GROUP 4 **** **** 0

# MOE 2024.06 (io_trps.svl 2023.06)
