@<TRIPOS>MOLECULE
NONAME
46 48 1 0 0 
SMALL
USER_CHARGES


@<TRIPOS>ATOM
  1 CL       2.8370     1.7970     2.0700 Cl    1 <1>  -0.1770 
  2 C        3.5970     0.3530     1.4340 C.ar  1 <1>   0.1770 
  3 C        4.1000     0.3050     0.1300 C.ar  1 <1>   0.0860 
  4 C        3.6620    -0.7350     2.2860 C.ar  1 <1>  -0.1500 
  5 C        4.0680     1.4220    -0.7950 C.2   1 <1>   0.5440 
  6 C        4.6590    -0.9060    -0.2790 C.ar  1 <1>  -0.1500 
  7 C        4.2330    -1.9140     1.8470 C.ar  1 <1>  -0.1500 
  8 O        3.8770     1.2310    -1.9800 O.2   1 <1>  -0.5700 
  9 N        4.2880     2.7030    -0.3880 N.am  1 <1>  -0.7300 
 10 C        4.7360    -2.0090     0.5590 C.ar  1 <1>   0.1000 
 11 C        4.3360     3.8870    -1.2860 C.3   1 <1>   0.3200 
 12 N        5.3000    -3.2040     0.1370 N.pl3 1 <1>  -0.8380 
 13 C        5.4320     4.8540    -0.8650 C.2   1 <1>   0.2980 
 14 C        4.4440    -4.0640    -0.7200 C.3   1 <1>   0.2090 
 15 C        6.7220    -3.1680    -0.2930 C.3   1 <1>   0.2090 
 16 O        6.6800     4.5060    -1.0530 O.3   1 <1>  -0.0190 
 17 N        5.2560     5.9960    -0.3290 N.2   1 <1>  -0.5650 
 18 C        4.9860    -5.4970    -0.7050 C.3   1 <1>  -0.1600 
 19 C        7.2960    -4.5880    -0.2680 C.3   1 <1>  -0.1600 
 20 N        7.3600     5.5110    -0.5920 N.2   1 <1>  -0.4100 
 21 C        6.5210     6.3700    -0.1610 C.2   1 <1>   0.3350 
 22 C        6.4620    -5.5510    -1.1270 C.3   1 <1>  -0.1600 
 23 C        6.8940     7.7110     0.4650 C.3   1 <1>   0.3010 
 24 O        6.7480     7.6780     1.8590 O.3   1 <1>  -0.5600 
 25 C        7.0590     8.8750     2.4950 C.3   1 <1>   0.0400 
 26 H        3.2670    -0.6600     3.2830 H     1 <1>   0.1500 
 27 H        5.0410    -0.9910    -1.2800 H     1 <1>   0.1500 
 28 H        4.2970    -2.7730     2.4910 H     1 <1>   0.1500 
 29 H        4.3650     2.9140     0.6110 H     1 <1>   0.3700 
 30 H        3.3880     4.3930    -1.2450 H     1 <1>   0.0800 
 31 H        4.5110     3.5790    -2.3020 H     1 <1>   0.0800 
 32 H        4.4440    -3.6800    -1.7260 H     1 <1>   0.0800 
 33 H        3.4340    -4.0510    -0.3490 H     1 <1>   0.0800 
 34 H        7.2830    -2.5350     0.3740 H     1 <1>   0.0800 
 35 H        6.7880    -2.7620    -1.2880 H     1 <1>   0.0800 
 36 H        4.3960    -6.1060    -1.3660 H     1 <1>   0.0800 
 37 H        4.8790    -5.8910     0.2900 H     1 <1>   0.0800 
 38 H        7.3120    -4.9320     0.7510 H     1 <1>   0.0800 
 39 H        8.3100    -4.5680    -0.6250 H     1 <1>   0.0800 
 40 H        6.5470    -5.2700    -2.1630 H     1 <1>   0.0800 
 41 H        6.8370    -6.5540    -1.0200 H     1 <1>   0.0800 
 42 H        6.2540     8.4790     0.0690 H     1 <1>   0.0800 
 43 H        7.9200     7.9390     0.2360 H     1 <1>   0.0800 
 44 H        6.9150     8.7380     3.5520 H     1 <1>   0.0800 
 45 H        6.4030     9.6500     2.1380 H     1 <1>   0.0800 
 46 H        8.0880     9.1250     2.3000 H     1 <1>   0.0800 
@<TRIPOS>BOND
  1   1   2  1   
  2   2   3  ar  
  3   2   4  ar  
  4   3   5  1   
  5   3   6  ar  
  6   4   7  ar  
  7   4  26  1   
  8   5   8  2   
  9   5   9  am  
 10   6  10  ar  
 11   6  27  1   
 12   7  10  ar  
 13   7  28  1   
 14   9  11  1   
 15   9  29  1   
 16  10  12  1   
 17  11  13  1   
 18  11  30  1   
 19  11  31  1   
 20  12  14  1   
 21  12  15  1   
 22  13  16  1   
 23  13  17  2   
 24  14  18  1   
 25  14  32  1   
 26  14  33  1   
 27  15  19  1   
 28  15  34  1   
 29  15  35  1   
 30  16  20  1   
 31  17  21  1   
 32  18  22  1   
 33  18  36  1   
 34  18  37  1   
 35  19  22  1   
 36  19  38  1   
 37  19  39  1   
 38  20  21  2   
 39  21  23  1   
 40  22  40  1   
 41  22  41  1   
 42  23  24  1   
 43  23  42  1   
 44  23  43  1   
 45  24  25  1   
 46  25  44  1   
 47  25  45  1   
 48  25  46  1   
@<TRIPOS>SUBSTRUCTURE
  1 ****   5 GROUP 4 **** **** 0

# MOE 2024.06 (io_trps.svl 2023.06)
