@<TRIPOS>MOLECULE
NONAME
38 39 1 0 0 
SMALL
USER_CHARGES


@<TRIPOS>ATOM
  1 S        0.0120     0.0010    -1.1340 S.o2  1 <1>   1.3330 
  2 O       -0.7750    -1.2080    -1.0560 O.2   1 <1>  -0.6500 
  3 O        0.6360     0.3730    -2.3840 O.2   1 <1>  -0.6500 
  4 N        1.2360    -0.1190     0.0390 N.am  1 <1>  -0.8490 
  5 C       -0.9830     1.3890    -0.5840 C.3   1 <1>  -0.0550 
  6 C        2.4390    -0.7680    -0.4920 C.3   1 <1>   0.1160 
  7 C        0.8020    -0.8150     1.2570 C.3   1 <1>   0.1160 
  8 C       -0.2910     2.7610    -0.7400 C.3   1 <1>  -0.0800 
  9 C       -1.1640     3.9540    -0.3570 C.3   1 <1>   0.2000 
 10 C        0.9750     2.9380     0.1080 C.3   1 <1>   0.2090 
 11 O       -1.7700     3.6930     0.8630 O.3   1 <1>  -0.6800 
 12 C       -0.1430     5.0690    -0.1460 C.3   1 <1>   0.2090 
 13 N        1.0280     4.3830     0.4750 N.pl3 1 <1>  -0.8380 
 14 C        2.2640     5.0180     0.6960 C.ar  1 <1>   0.1000 
 15 C        2.6010     6.3440     0.4000 C.ar  1 <1>   0.1900 
 16 C        3.3050     4.3120     1.2860 C.ar  1 <1>  -0.1500 
 17 F        1.7300     7.1610    -0.1460 F     1 <1>  -0.1900 
 18 C        3.8590     6.8510     0.6640 C.ar  1 <1>   0.1600 
 19 C        4.5360     4.9030     1.5140 C.ar  1 <1>   0.1600 
 20 N        4.8470     6.1560     1.2150 N.ar  1 <1>  -0.6200 
 21 H       -1.8850     1.4080    -1.1640 H     1 <1>   0.0800 
 22 H       -1.2690     1.2380     0.4380 H     1 <1>   0.0800 
 23 H        3.2000    -0.8260     0.2670 H     1 <1>   0.0800 
 24 H        2.8320    -0.1990    -1.3190 H     1 <1>   0.0800 
 25 H        2.2060    -1.7620    -0.8380 H     1 <1>   0.0800 
 26 H        1.5850    -0.7920     1.9960 H     1 <1>   0.0800 
 27 H        0.5570    -1.8420     1.0390 H     1 <1>   0.0800 
 28 H       -0.0680    -0.3350     1.6710 H     1 <1>   0.0800 
 29 H       -0.0050     2.8830    -1.7710 H     1 <1>   0.0800 
 30 H       -1.9210     4.1930    -1.0830 H     1 <1>   0.0800 
 31 H        1.8510     2.6430    -0.4450 H     1 <1>   0.0800 
 32 H        0.9100     2.3570     1.0120 H     1 <1>   0.0800 
 33 H       -1.0810     3.7920     1.5560 H     1 <1>   0.4000 
 34 H       -0.5280     5.8510     0.4850 H     1 <1>   0.0800 
 35 H        0.1450     5.4780    -1.0990 H     1 <1>   0.0800 
 36 H        3.1590     3.2910     1.5790 H     1 <1>   0.1500 
 37 H        4.0610     7.8760     0.4100 H     1 <1>   0.1500 
 38 H        5.3110     4.3130     1.9710 H     1 <1>   0.1500 
@<TRIPOS>BOND
  1   1   2  2   
  2   1   3  2   
  3   1   4  am  
  4   1   5  1   
  5   4   6  1   
  6   4   7  1   
  7   5   8  1   
  8   5  21  1   
  9   5  22  1   
 10   6  23  1   
 11   6  24  1   
 12   6  25  1   
 13   7  26  1   
 14   7  27  1   
 15   7  28  1   
 16   8   9  1   
 17   8  10  1   
 18   8  29  1   
 19   9  11  1   
 20   9  12  1   
 21   9  30  1   
 22  10  13  1   
 23  10  31  1   
 24  10  32  1   
 25  11  33  1   
 26  12  13  1   
 27  12  34  1   
 28  12  35  1   
 29  13  14  1   
 30  14  15  ar  
 31  14  16  ar  
 32  15  17  1   
 33  15  18  ar  
 34  16  19  ar  
 35  16  36  1   
 36  18  20  ar  
 37  18  37  1   
 38  19  20  ar  
 39  19  38  1   
@<TRIPOS>SUBSTRUCTURE
  1 ****  10 GROUP 4 **** **** 0

# MOE 2024.06 (io_trps.svl 2023.06)
