@<TRIPOS>MOLECULE
NONAME
46 48 1 0 0 
SMALL
USER_CHARGES


@<TRIPOS>ATOM
  1 O       -2.1700     0.8320    -1.6860 O.2   1 <1>  -0.5700 
  2 C       -2.7750     0.8660    -0.6300 C.2   1 <1>   0.5440 
  3 N       -2.8830     2.0730     0.0360 N.am  1 <1>  -0.6600 
  4 C       -3.3660    -0.3510    -0.1250 C.ar  1 <1>   0.0860 
  5 C       -3.9600     2.3830     1.0160 C.3   1 <1>   0.0600 
  6 C       -2.0470     3.2440    -0.3500 C.3   1 <1>   0.0600 
  7 C       -4.0420    -1.2120    -0.9860 C.ar  1 <1>   0.1600 
  8 C       -3.2890    -0.7350     1.2110 C.ar  1 <1>  -0.1500 
  9 N       -4.6390    -2.3420    -0.6470 N.ar  1 <1>  -0.6200 
 10 C       -3.8970    -1.9100     1.5810 C.ar  1 <1>  -0.1500 
 11 C       -4.5610    -2.6820     0.6330 C.ar  1 <1>   0.4100 
 12 N       -5.1740    -3.8430     1.0140 N.pl3 1 <1>  -0.8690 
 13 C       -5.6950    -4.8770     0.0840 C.3   1 <1>   0.2890 
 14 C       -7.2160    -4.9080     0.0970 C.3   1 <1>  -0.0800 
 15 C       -5.3840    -6.2560     0.6510 C.3   1 <1>   0.1200 
 16 C       -7.5290    -5.7820     1.3160 C.3   1 <1>   0.1200 
 17 C       -7.9110    -3.5340     0.1060 C.3   1 <1>  -0.0170 
 18 O       -6.3640    -6.4960     1.6170 O.3   1 <1>  -0.5600 
 19 C       -9.4220    -3.6880     0.0250 C.ar  1 <1>  -0.1430 
 20 C      -10.0660    -3.8870    -1.1790 C.ar  1 <1>  -0.1500 
 21 C      -10.2260    -3.6390     1.1460 C.ar  1 <1>  -0.1500 
 22 C      -11.4440    -4.0290    -1.2030 C.ar  1 <1>   0.1600 
 23 C      -11.5960    -3.7930     1.0120 C.ar  1 <1>   0.1600 
 24 N      -12.2250    -3.9890    -0.1350 N.ar  1 <1>  -0.6200 
 25 H       -4.4280     3.3170     0.7590 H     1 <1>   0.0800 
 26 H       -3.5390     2.4620     2.0040 H     1 <1>   0.0800 
 27 H       -4.7160     1.6170     1.0130 H     1 <1>   0.0800 
 28 H       -1.7180     3.7680     0.5300 H     1 <1>   0.0800 
 29 H       -2.6220     3.9110    -0.9690 H     1 <1>   0.0800 
 30 H       -1.1790     2.9240    -0.9010 H     1 <1>   0.0800 
 31 H       -4.0870    -0.9330    -2.0250 H     1 <1>   0.1500 
 32 H       -2.7610    -0.1250     1.9220 H     1 <1>   0.1500 
 33 H       -3.8660    -2.2460     2.6000 H     1 <1>   0.1500 
 34 H       -5.1350    -4.1500     1.9890 H     1 <1>   0.4000 
 35 H       -5.2900    -4.7520    -0.9060 H     1 <1>   0.0800 
 36 H       -7.5400    -5.4440    -0.7770 H     1 <1>   0.0800 
 37 H       -4.4080    -6.3090     1.0980 H     1 <1>   0.0800 
 38 H       -5.4820    -7.0100    -0.1110 H     1 <1>   0.0800 
 39 H       -8.3270    -6.4770     1.1160 H     1 <1>   0.0800 
 40 H       -7.7730    -5.1850     2.1770 H     1 <1>   0.0800 
 41 H       -7.5640    -2.9550    -0.7330 H     1 <1>   0.0800 
 42 H       -7.6540    -2.9890     0.9970 H     1 <1>   0.0800 
 43 H       -9.5100    -3.9330    -2.0970 H     1 <1>   0.1500 
 44 H       -9.8020    -3.4830     2.1210 H     1 <1>   0.1500 
 45 H      -11.9290    -4.1840    -2.1510 H     1 <1>   0.1500 
 46 H      -12.2070    -3.7520     1.8980 H     1 <1>   0.1500 
@<TRIPOS>BOND
  1   1   2  2   
  2   2   3  am  
  3   2   4  1   
  4   3   5  1   
  5   3   6  1   
  6   4   7  ar  
  7   4   8  ar  
  8   5  25  1   
  9   5  26  1   
 10   5  27  1   
 11   6  28  1   
 12   6  29  1   
 13   6  30  1   
 14   7   9  ar  
 15   7  31  1   
 16   8  10  ar  
 17   8  32  1   
 18   9  11  ar  
 19  10  11  ar  
 20  10  33  1   
 21  11  12  1   
 22  12  13  1   
 23  12  34  1   
 24  13  14  1   
 25  13  15  1   
 26  13  35  1   
 27  14  16  1   
 28  14  17  1   
 29  14  36  1   
 30  15  18  1   
 31  15  37  1   
 32  15  38  1   
 33  16  18  1   
 34  16  39  1   
 35  16  40  1   
 36  17  19  1   
 37  17  41  1   
 38  17  42  1   
 39  19  20  ar  
 40  19  21  ar  
 41  20  22  ar  
 42  20  43  1   
 43  21  23  ar  
 44  21  44  1   
 45  22  24  ar  
 46  22  45  1   
 47  23  24  ar  
 48  23  46  1   
@<TRIPOS>SUBSTRUCTURE
  1 ****  11 GROUP 4 **** **** 0

# MOE 2024.06 (io_trps.svl 2023.06)
