@<TRIPOS>MOLECULE
NONAME
69 72 1 0 0 
SMALL
USER_CHARGES


@<TRIPOS>ATOM
  1 O        1.2490     2.2700    -1.3500 O.3   1 <1>  -0.0190 
  2 N        1.9230     1.3740    -2.0020 N.2   1 <1>  -0.4100 
  3 C        1.2270     2.0280    -0.0660 C.2   1 <1>  -0.0400 
  4 C        2.3260     0.5230    -1.1280 C.2   1 <1>   0.1080 
  5 C        1.9080     0.8930     0.1480 C.2   1 <1>  -0.1500 
  6 C        0.5100     2.9810     0.8700 C.3   1 <1>   0.0200 
  7 C        3.1440    -0.7080    -1.4510 C.3   1 <1>  -0.0590 
  8 C        1.2040     4.3550     0.8910 C.3   1 <1>  -0.0800 
  9 C        0.4900     5.3730     1.7690 C.3   1 <1>   0.2000 
 10 C        1.2730     5.0330    -0.4810 C.3   1 <1>   0.3430 
 11 O        0.8590     5.2180     3.0950 O.3   1 <1>  -0.6800 
 12 C        0.9180     6.7310     1.2130 C.3   1 <1>   0.3430 
 13 N        1.1720     6.5060    -0.2470 N.4   1 <1>  -0.9590 
 14 C        2.3450     7.2650    -0.7690 C.3   1 <1>   0.4860 
 15 C        2.0890     8.7580    -0.5930 C.ar  1 <1>  -0.1430 
 16 C        2.8690     9.5690     0.2340 C.ar  1 <1>  -0.1430 
 17 C        1.0280     9.3070    -1.2990 C.ar  1 <1>  -0.1500 
 18 C        2.5510    10.9250     0.3530 C.ar  1 <1>  -0.1430 
 19 C        4.0530     8.9540     0.9860 C.3   1 <1>  -0.0970 
 20 C        0.7060    10.6430    -1.1710 C.ar  1 <1>  -0.1430 
 21 C        1.4640    11.4400    -0.3380 C.ar  1 <1>  -0.1500 
 22 C        3.3400    11.9080     1.2080 C.3   1 <1>   0.4860 
 23 C       -0.4700    11.2290    -1.9340 C.3   1 <1>  -0.0970 
 24 N        4.5660    12.3280     0.4740 N.4   1 <1>  -0.9590 
 25 C        5.4990    13.0820     1.3580 C.3   1 <1>   0.3430 
 26 C        4.2380    13.0940    -0.7660 C.3   1 <1>   0.3430 
 27 C        6.8040    13.3600     0.6120 C.3   1 <1>  -0.1600 
 28 C        5.5190    13.3750    -1.5510 C.3   1 <1>  -0.1600 
 29 C        6.5560    14.1200    -0.6990 C.3   1 <1>  -0.0800 
 30 C        7.8650    14.2990    -1.4750 C.3   1 <1>  -0.2400 
 31 H        2.1080     0.3630     1.0620 H     1 <1>   0.1500 
 32 H       -0.5140     3.0770     0.5530 H     1 <1>   0.0800 
 33 H        0.5090     2.5640     1.8630 H     1 <1>   0.0800 
 34 H        2.6170    -1.5890    -1.1350 H     1 <1>   0.0800 
 35 H        4.0920    -0.6620    -0.9470 H     1 <1>   0.0800 
 36 H        3.3160    -0.7680    -2.5110 H     1 <1>   0.0800 
 37 H        2.2180     4.2280     1.2320 H     1 <1>   0.0800 
 38 H       -0.5820     5.2780     1.7060 H     1 <1>   0.0800 
 39 H        0.4410     4.7060    -1.0850 H     1 <1>   0.0800 
 40 H        2.1870     4.7660    -0.9890 H     1 <1>   0.0800 
 41 H        1.8030     4.9880     3.2090 H     1 <1>   0.4000 
 42 H        1.8260     7.0410     1.7010 H     1 <1>   0.0800 
 43 H        0.1530     7.4750     1.3670 H     1 <1>   0.0800 
 44 H        0.3500     6.8580    -0.7570 H     1 <1>   0.4500 
 45 H        3.2380     6.9660    -0.2480 H     1 <1>   0.0800 
 46 H        2.4810     7.0530    -1.8170 H     1 <1>   0.0800 
 47 H        0.4340     8.7020    -1.9620 H     1 <1>   0.1500 
 48 H        4.5620     9.6530     1.6210 H     1 <1>   0.0800 
 49 H        4.7740     8.5690     0.2850 H     1 <1>   0.0800 
 50 H        3.7190     8.1480     1.6140 H     1 <1>   0.0800 
 51 H        1.1950    12.4790    -0.2390 H     1 <1>   0.1500 
 52 H        3.6050    11.4390     2.1410 H     1 <1>   0.0800 
 53 H        2.7310    12.7700     1.4310 H     1 <1>   0.0800 
 54 H       -0.3010    12.2680    -2.1550 H     1 <1>   0.0800 
 55 H       -1.3680    11.1450    -1.3470 H     1 <1>   0.0800 
 56 H       -0.6170    10.7100    -2.8650 H     1 <1>   0.0800 
 57 H        5.0380    11.4720     0.1640 H     1 <1>   0.4500 
 58 H        5.0490    14.0180     1.6520 H     1 <1>   0.0800 
 59 H        5.7120    12.5130     2.2490 H     1 <1>   0.0800 
 60 H        3.5620    12.5270    -1.3870 H     1 <1>   0.0800 
 61 H        3.7620    14.0260    -0.5080 H     1 <1>   0.0800 
 62 H        7.4480    13.9440     1.2460 H     1 <1>   0.0800 
 63 H        7.3070    12.4290     0.4150 H     1 <1>   0.0800 
 64 H        5.9270    12.4460    -1.9100 H     1 <1>   0.0800 
 65 H        5.2730    13.9700    -2.4140 H     1 <1>   0.0800 
 66 H        6.1710    15.0990    -0.4630 H     1 <1>   0.0800 
 67 H        8.2950    13.3470    -1.7350 H     1 <1>   0.0800 
 68 H        8.5810    14.8450    -0.8850 H     1 <1>   0.0800 
 69 H        7.6910    14.8520    -2.3820 H     1 <1>   0.0800 
@<TRIPOS>BOND
  1   1   2  1   
  2   1   3  1   
  3   2   4  2   
  4   3   5  2   
  5   3   6  1   
  6   4   5  1   
  7   4   7  1   
  8   5  31  1   
  9   6   8  1   
 10   6  32  1   
 11   6  33  1   
 12   7  34  1   
 13   7  35  1   
 14   7  36  1   
 15   8   9  1   
 16   8  10  1   
 17   8  37  1   
 18   9  11  1   
 19   9  12  1   
 20   9  38  1   
 21  10  13  1   
 22  10  39  1   
 23  10  40  1   
 24  11  41  1   
 25  12  13  1   
 26  12  42  1   
 27  12  43  1   
 28  13  14  1   
 29  13  44  1   
 30  14  15  1   
 31  14  45  1   
 32  14  46  1   
 33  15  16  ar  
 34  15  17  ar  
 35  16  18  ar  
 36  16  19  1   
 37  17  20  ar  
 38  17  47  1   
 39  18  21  ar  
 40  18  22  1   
 41  19  48  1   
 42  19  49  1   
 43  19  50  1   
 44  20  21  ar  
 45  20  23  1   
 46  21  51  1   
 47  22  24  1   
 48  22  52  1   
 49  22  53  1   
 50  23  54  1   
 51  23  55  1   
 52  23  56  1   
 53  24  25  1   
 54  24  26  1   
 55  24  57  1   
 56  25  27  1   
 57  25  58  1   
 58  25  59  1   
 59  26  28  1   
 60  26  60  1   
 61  26  61  1   
 62  27  29  1   
 63  27  62  1   
 64  27  63  1   
 65  28  29  1   
 66  28  64  1   
 67  28  65  1   
 68  29  30  1   
 69  29  66  1   
 70  30  67  1   
 71  30  68  1   
 72  30  69  1   
@<TRIPOS>SUBSTRUCTURE
  1 ****  14 GROUP 4 **** **** 0

# MOE 2024.06 (io_trps.svl 2023.06)
