@<TRIPOS>MOLECULE
NONAME
49 52 1 0 0 
SMALL
USER_CHARGES


@<TRIPOS>ATOM
  1 S       -0.0800    -0.1010    -0.7940 S.o2  1 <1>   1.4470 
  2 O       -0.2680     0.7490    -1.9510 O.2   1 <1>  -0.6500 
  3 O        0.2450    -1.4970    -0.9940 O.2   1 <1>  -0.6500 
  4 N       -1.4930     0.0140     0.1440 N.am  1 <1>  -0.8490 
  5 C        1.1660     0.6660     0.2800 C.ar  1 <1>  -0.0090 
  6 C       -2.7540    -0.0070    -0.6040 C.3   1 <1>   0.1960 
  7 C       -1.5460    -0.8020     1.3650 C.3   1 <1>   0.1960 
  8 C        1.0610     2.0020     0.6510 C.ar  1 <1>  -0.1500 
  9 C        2.2450    -0.0610     0.7710 C.ar  1 <1>  -0.1500 
 10 C       -3.1770    -1.4350    -0.9570 C.3   1 <1>  -0.1600 
 11 C       -1.9910    -2.2460     1.1030 C.3   1 <1>  -0.1600 
 12 C        1.9970     2.5950     1.4800 C.ar  1 <1>  -0.1500 
 13 C        3.1870     0.5240     1.6020 C.ar  1 <1>  -0.1500 
 14 C       -3.3000    -2.3120     0.3020 C.3   1 <1>   0.4240 
 15 C        3.0630     1.8540     1.9570 C.ar  1 <1>  -0.1500 
 16 O       -4.2400    -1.6830     1.1480 O.3   1 <1>  -0.5600 
 17 C       -3.7110    -3.7810    -0.0140 C.ar  1 <1>  -0.1430 
 18 C       -5.5870    -1.9530     0.9370 C.3   1 <1>   0.1200 
 19 C       -2.9090    -4.6270    -0.7890 C.ar  1 <1>   0.0830 
 20 C       -4.9120    -4.2910     0.4810 C.ar  1 <1>  -0.1430 
 21 C       -5.8370    -3.4100     1.2950 C.3   1 <1>  -0.0170 
 22 O       -1.7530    -4.1370    -1.3030 O.3   1 <1>  -0.3630 
 23 C       -3.2990    -5.9430    -1.0310 C.ar  1 <1>  -0.1500 
 24 C       -5.2900    -5.6010     0.2360 C.ar  1 <1>  -0.1500 
 25 C       -0.8060    -4.9270    -1.9830 C.3   1 <1>   0.0400 
 26 C       -4.4830    -6.4280    -0.5170 C.ar  1 <1>  -0.1500 
 27 H       -2.6660     0.5820    -1.5010 H     1 <1>   0.0800 
 28 H       -3.5190     0.4490     0.0010 H     1 <1>   0.0800 
 29 H       -2.2480    -0.3460     2.0440 H     1 <1>   0.0800 
 30 H       -0.5850    -0.8010     1.8520 H     1 <1>   0.0800 
 31 H        0.2310     2.5820     0.2820 H     1 <1>   0.1500 
 32 H        2.3510    -1.0980     0.5000 H     1 <1>   0.1500 
 33 H       -2.4500    -1.8400    -1.6330 H     1 <1>   0.0800 
 34 H       -4.1110    -1.4210    -1.4850 H     1 <1>   0.0800 
 35 H       -2.1350    -2.7540     2.0380 H     1 <1>   0.0800 
 36 H       -1.2030    -2.7620     0.5960 H     1 <1>   0.0800 
 37 H        1.8950     3.6310     1.7530 H     1 <1>   0.1500 
 38 H        4.0160    -0.0570     1.9690 H     1 <1>   0.1500 
 39 H        3.7940     2.3120     2.6010 H     1 <1>   0.1500 
 40 H       -5.8360    -1.7540    -0.0900 H     1 <1>   0.0800 
 41 H       -6.1590    -1.3030     1.5750 H     1 <1>   0.0800 
 42 H       -6.8630    -3.6530     1.0870 H     1 <1>   0.0800 
 43 H       -5.6550    -3.5600     2.3440 H     1 <1>   0.0800 
 44 H       -2.6940    -6.6040    -1.6210 H     1 <1>   0.1500 
 45 H       -6.2150    -5.9830     0.6320 H     1 <1>   0.1500 
 46 H        0.0340    -4.2980    -2.2210 H     1 <1>   0.0800 
 47 H       -1.2490    -5.3030    -2.8870 H     1 <1>   0.0800 
 48 H       -0.4930    -5.7290    -1.3390 H     1 <1>   0.0800 
 49 H       -4.7790    -7.4460    -0.7050 H     1 <1>   0.1500 
@<TRIPOS>BOND
  1   1   2  2   
  2   1   3  2   
  3   1   4  am  
  4   1   5  1   
  5   4   6  1   
  6   4   7  1   
  7   5   8  ar  
  8   5   9  ar  
  9   6  10  1   
 10   6  27  1   
 11   6  28  1   
 12   7  11  1   
 13   7  29  1   
 14   7  30  1   
 15   8  12  ar  
 16   8  31  1   
 17   9  13  ar  
 18   9  32  1   
 19  10  14  1   
 20  10  33  1   
 21  10  34  1   
 22  11  14  1   
 23  11  35  1   
 24  11  36  1   
 25  12  15  ar  
 26  12  37  1   
 27  13  15  ar  
 28  13  38  1   
 29  14  16  1   
 30  14  17  1   
 31  15  39  1   
 32  16  18  1   
 33  17  19  ar  
 34  17  20  ar  
 35  18  21  1   
 36  18  40  1   
 37  18  41  1   
 38  19  22  1   
 39  19  23  ar  
 40  20  21  1   
 41  20  24  ar  
 42  21  42  1   
 43  21  43  1   
 44  22  25  1   
 45  23  26  ar  
 46  23  44  1   
 47  24  26  ar  
 48  24  45  1   
 49  25  46  1   
 50  25  47  1   
 51  25  48  1   
 52  26  49  1   
@<TRIPOS>SUBSTRUCTURE
  1 ****  11 GROUP 4 **** **** 0

# MOE 2024.06 (io_trps.svl 2023.06)
