@<TRIPOS>MOLECULE
NONAME
48 50 1 0 0 
SMALL
USER_CHARGES


@<TRIPOS>ATOM
  1 O       -0.8180    -1.7800     0.3100 O.co2 1 <1>  -0.9000 
  2 C       -0.2660    -2.6360     1.0160 C.2   1 <1>   1.0330 
  3 O       -1.0090    -3.3240     1.7470 O.co2 1 <1>  -0.9000 
  4 C        1.0920    -3.0180     0.7910 C.2   1 <1>  -0.2330 
  5 C        1.4850    -4.3520     0.7720 C.2   1 <1>   0.3720 
  6 C        2.2430    -2.3510     0.5050 C.2   1 <1>   0.0870 
  7 N        2.7190    -4.4870     0.4610 N.2   1 <1>  -0.4100 
  8 N        0.6330    -5.4020     1.0690 N.pl3 1 <1>  -0.8520 
  9 O        3.1670    -3.2670     0.3110 O.3   1 <1>  -0.0190 
 10 C        2.6090    -0.9590     0.4000 C.ar  1 <1>   0.0530 
 11 C       -0.1870    -5.8550    -0.0820 C.3   1 <1>   0.2890 
 12 C        3.8570    -0.5290     0.8520 C.ar  1 <1>  -0.1500 
 13 C        1.7660     0.0080    -0.1490 C.ar  1 <1>  -0.1500 
 14 C       -1.6970    -5.8940     0.3120 C.3   1 <1>   0.4230 
 15 C        0.1990    -7.2970    -0.3930 C.3   1 <1>  -0.1600 
 16 C        4.2420     0.7960     0.7680 C.ar  1 <1>  -0.1500 
 17 C        2.1400     1.3360    -0.2350 C.ar  1 <1>  -0.1500 
 18 N       -2.6570    -5.2980    -0.6920 N.4   1 <1>  -0.9590 
 19 C       -2.0260    -7.3840     0.5310 C.3   1 <1>  -0.1600 
 20 C       -0.6960    -8.1390     0.5100 C.3   1 <1>  -0.1600 
 21 C        3.3880     1.7420     0.2260 C.ar  1 <1>   0.0830 
 22 C       -2.3520    -3.8490    -0.9350 C.3   1 <1>   0.2630 
 23 C       -4.0590    -5.3640    -0.1830 C.3   1 <1>   0.2630 
 24 O        3.8330     3.0210     0.1800 O.3   1 <1>  -0.3630 
 25 C        3.0230     4.0600    -0.3210 C.3   1 <1>   0.0400 
 26 H       -0.0240    -4.9820     1.7560 H     1 <1>   0.4000 
 27 H       -0.0040    -5.2240    -0.9340 H     1 <1>   0.0800 
 28 H        4.5330    -1.2490     1.2800 H     1 <1>   0.1500 
 29 H        0.8020    -0.2830    -0.5210 H     1 <1>   0.1500 
 30 H       -1.8050    -5.3680     1.2470 H     1 <1>   0.0800 
 31 H       -0.0260    -7.5110    -1.4230 H     1 <1>   0.0800 
 32 H        1.2470    -7.4780    -0.2210 H     1 <1>   0.0800 
 33 H        5.2070     1.1070     1.1230 H     1 <1>   0.1500 
 34 H        1.4470     2.0340    -0.6630 H     1 <1>   0.1500 
 35 H       -2.5660    -5.8150    -1.5740 H     1 <1>   0.4500 
 36 H       -2.5260    -7.5320     1.4720 H     1 <1>   0.0800 
 37 H       -2.6390    -7.7670    -0.2660 H     1 <1>   0.0800 
 38 H       -0.2730    -8.1580     1.5020 H     1 <1>   0.0800 
 39 H       -0.7990    -9.1500     0.1530 H     1 <1>   0.0800 
 40 H       -2.5160    -3.2800    -0.0330 H     1 <1>   0.0800 
 41 H       -2.9890    -3.4480    -1.7050 H     1 <1>   0.0800 
 42 H       -1.3270    -3.7070    -1.2330 H     1 <1>   0.0800 
 43 H       -4.1340    -4.8270     0.7500 H     1 <1>   0.0800 
 44 H       -4.3580    -6.3860    -0.0180 H     1 <1>   0.0800 
 45 H       -4.7360    -4.9160    -0.8920 H     1 <1>   0.0800 
 46 H        3.5740     4.9790    -0.2480 H     1 <1>   0.0800 
 47 H        2.1280     4.1200     0.2720 H     1 <1>   0.0800 
 48 H        2.7890     3.8540    -1.3510 H     1 <1>   0.0800 
@<TRIPOS>BOND
  1   1   2  ar  
  2   2   3  ar  
  3   2   4  1   
  4   4   5  1   
  5   4   6  2   
  6   5   7  2   
  7   5   8  1   
  8   6   9  1   
  9   6  10  1   
 10   7   9  1   
 11   8  11  1   
 12   8  26  1   
 13  10  12  ar  
 14  10  13  ar  
 15  11  14  1   
 16  11  15  1   
 17  11  27  1   
 18  12  16  ar  
 19  12  28  1   
 20  13  17  ar  
 21  13  29  1   
 22  14  18  1   
 23  14  19  1   
 24  14  30  1   
 25  15  20  1   
 26  15  31  1   
 27  15  32  1   
 28  16  21  ar  
 29  16  33  1   
 30  17  21  ar  
 31  17  34  1   
 32  18  22  1   
 33  18  23  1   
 34  18  35  1   
 35  19  20  1   
 36  19  36  1   
 37  19  37  1   
 38  20  38  1   
 39  20  39  1   
 40  21  24  1   
 41  22  40  1   
 42  22  41  1   
 43  22  42  1   
 44  23  43  1   
 45  23  44  1   
 46  23  45  1   
 47  24  25  1   
 48  25  46  1   
 49  25  47  1   
 50  25  48  1   
@<TRIPOS>SUBSTRUCTURE
  1 ****   4 GROUP 4 **** **** 0

# MOE 2024.06 (io_trps.svl 2023.06)
