@<TRIPOS>MOLECULE
NONAME
51 54 1 0 0 
SMALL
USER_CHARGES


@<TRIPOS>ATOM
  1 O       -0.5320    -0.0400     0.8650 O.2   1 <1>  -0.5700 
  2 C       -1.5920     0.5160     0.6440 C.2   1 <1>   0.7150 
  3 N       -2.6620    -0.2530     0.2500 N.am  1 <1>  -0.6600 
  4 C       -1.7090     1.9410     0.7780 C.2   1 <1>  -0.2370 
  5 C       -3.8290     0.2630    -0.5060 C.3   1 <1>   0.1400 
  6 C       -2.5680    -1.7280     0.1260 C.3   1 <1>   0.1400 
  7 N       -0.7180     2.8270     0.4850 N.pl3 1 <1>   0.3140 
  8 C       -2.7540     2.7010     1.2120 C.2   1 <1>  -0.1500 
  9 C       -4.3330    -0.9320    -1.3140 C.3   1 <1>   0.2000 
 10 C       -3.8700    -2.1680    -0.5450 C.3   1 <1>  -0.0800 
 11 N       -1.1070     4.0980     0.7060 N.2   1 <1>  -0.7070 
 12 C        0.6500     2.4920    -0.0050 C.3   1 <1>   0.0960 
 13 C       -2.3220     4.0100     1.1410 C.2   1 <1>   0.1080 
 14 O       -5.7140    -0.9310    -1.4220 O.3   1 <1>  -0.6800 
 15 C       -3.7080    -3.4050    -1.4440 C.3   1 <1>  -0.0170 
 16 C        1.3540     3.6600    -0.7150 C.3   1 <1>  -0.2400 
 17 C       -3.1290     5.2300     1.5180 C.3   1 <1>  -0.0590 
 18 C       -3.2770    -4.6200    -0.6300 C.ar  1 <1>  -0.1440 
 19 C       -4.1870    -5.3660     0.1570 C.ar  1 <1>   0.0000 
 20 C       -1.9730    -5.0210    -0.6350 C.ar  1 <1>  -0.1500 
 21 C       -3.6730    -6.4610     0.8950 C.ar  1 <1>   0.3100 
 22 C       -5.5720    -5.0940     0.2540 C.ar  1 <1>  -0.1500 
 23 C       -1.5700    -6.1250     0.1260 C.ar  1 <1>   0.1600 
 24 N       -2.3670    -6.8260     0.8680 N.ar  1 <1>  -0.6200 
 25 C       -4.5480    -7.2110     1.6960 C.ar  1 <1>  -0.1500 
 26 C       -6.3980    -5.8480     1.0420 C.ar  1 <1>  -0.1500 
 27 C       -5.8830    -6.9180     1.7760 C.ar  1 <1>  -0.1500 
 28 H       -4.5800     0.5950     0.1890 H     1 <1>   0.0800 
 29 H       -3.5390     1.0700    -1.1560 H     1 <1>   0.0800 
 30 H       -1.7160    -1.9730    -0.4860 H     1 <1>   0.0800 
 31 H       -2.4500    -2.1840     1.0950 H     1 <1>   0.0800 
 32 H       -3.7180     2.3730     1.5540 H     1 <1>   0.1500 
 33 H       -3.9130    -0.9050    -2.3060 H     1 <1>   0.0800 
 34 H       -4.5710    -2.3790     0.2420 H     1 <1>   0.0800 
 35 H        1.2330     2.1740     0.8390 H     1 <1>   0.0800 
 36 H        0.5710     1.6680    -0.6900 H     1 <1>   0.0800 
 37 H       -6.1270    -0.9700    -0.5380 H     1 <1>   0.4000 
 38 H       -2.9740    -3.2000    -2.2040 H     1 <1>   0.0800 
 39 H       -4.6310    -3.6150    -1.9560 H     1 <1>   0.0800 
 40 H        1.4990     4.4770    -0.0300 H     1 <1>   0.0800 
 41 H        0.7650     3.9980    -1.5490 H     1 <1>   0.0800 
 42 H        2.3160     3.3430    -1.0760 H     1 <1>   0.0800 
 43 H       -4.1080     4.9460     1.8540 H     1 <1>   0.0800 
 44 H       -3.2200     5.8760     0.6640 H     1 <1>   0.0800 
 45 H       -2.6250     5.7610     2.3040 H     1 <1>   0.0800 
 46 H       -1.2250    -4.5070    -1.2120 H     1 <1>   0.1500 
 47 H       -5.9910    -4.2800    -0.3050 H     1 <1>   0.1500 
 48 H       -0.5310    -6.4060     0.0930 H     1 <1>   0.1500 
 49 H       -4.1300    -8.0310     2.2490 H     1 <1>   0.1500 
 50 H       -7.4510    -5.6300     1.1070 H     1 <1>   0.1500 
 51 H       -6.5420    -7.5030     2.3940 H     1 <1>   0.1500 
@<TRIPOS>BOND
  1   1   2  2   
  2   2   3  am  
  3   2   4  1   
  4   3   5  1   
  5   3   6  1   
  6   4   7  1   
  7   4   8  2   
  8   5   9  1   
  9   5  28  1   
 10   5  29  1   
 11   6  10  1   
 12   6  30  1   
 13   6  31  1   
 14   7  11  1   
 15   7  12  1   
 16   8  13  1   
 17   8  32  1   
 18   9  10  1   
 19   9  14  1   
 20   9  33  1   
 21  10  15  1   
 22  10  34  1   
 23  11  13  2   
 24  12  16  1   
 25  12  35  1   
 26  12  36  1   
 27  13  17  1   
 28  14  37  1   
 29  15  18  1   
 30  15  38  1   
 31  15  39  1   
 32  16  40  1   
 33  16  41  1   
 34  16  42  1   
 35  17  43  1   
 36  17  44  1   
 37  17  45  1   
 38  18  19  ar  
 39  18  20  ar  
 40  19  21  ar  
 41  19  22  ar  
 42  20  23  ar  
 43  20  46  1   
 44  21  24  ar  
 45  21  25  ar  
 46  22  26  ar  
 47  22  47  1   
 48  23  24  ar  
 49  23  48  1   
 50  25  27  ar  
 51  25  49  1   
 52  26  27  ar  
 53  26  50  1   
 54  27  51  1   
@<TRIPOS>SUBSTRUCTURE
  1 ****   6 GROUP 4 **** **** 0

# MOE 2024.06 (io_trps.svl 2023.06)
