@<TRIPOS>MOLECULE
NONAME
48 50 1 0 0 
SMALL
USER_CHARGES


@<TRIPOS>ATOM
  1 O       -0.2910     0.0010     1.0300 O.2   1 <1>  -0.5700 
  2 C       -1.1760     0.6530     0.5270 C.2   1 <1>   0.5690 
  3 N       -2.2220     0.0200    -0.1010 N.am  1 <1>  -0.6600 
  4 C       -1.0600     2.1810     0.6520 C.3   1 <1>  -0.0190 
  5 C       -3.3520     0.6170    -0.8580 C.3   1 <1>   0.1400 
  6 C       -2.3560    -1.4550    -0.0690 C.3   1 <1>   0.1400 
  7 C       -2.0640     2.7270     1.6890 C.3   1 <1>  -0.1600 
  8 C       -1.0670     2.9120    -0.7120 C.3   1 <1>  -0.1600 
  9 C       -4.2630    -0.5550    -1.2320 C.3   1 <1>   0.2000 
 10 C       -3.8320    -1.7270    -0.3520 C.3   1 <1>  -0.0800 
 11 C       -1.9640     4.2350     1.9700 C.3   1 <1>  -0.1600 
 12 C       -0.4510     4.3180    -0.6410 C.3   1 <1>  -0.1600 
 13 O       -5.5950    -0.2550    -0.9950 O.3   1 <1>  -0.6800 
 14 C       -4.0970    -3.0920    -1.0030 C.3   1 <1>  -0.0170 
 15 C       -2.4890     5.0870     0.8060 C.3   1 <1>  -0.1600 
 16 C       -1.4390     5.4320    -0.2620 C.3   1 <1>  -0.1600 
 17 C       -3.6610    -4.2290    -0.0910 C.ar  1 <1>  -0.1440 
 18 C       -4.4800    -4.7040     0.9130 C.ar  1 <1>  -0.1500 
 19 C       -2.4310    -4.8420    -0.2150 C.ar  1 <1>  -0.1500 
 20 C       -4.0410    -5.7380     1.7230 C.ar  1 <1>   0.1600 
 21 C       -2.0880    -5.8680     0.6490 C.ar  1 <1>   0.1600 
 22 N       -2.8640    -6.3310     1.6160 N.ar  1 <1>  -0.6200 
 23 H       -0.0830     2.3460     1.0730 H     1 <1>   0.0800 
 24 H       -3.8750     1.3320    -0.2500 H     1 <1>   0.0800 
 25 H       -2.9860     1.0840    -1.7550 H     1 <1>   0.0800 
 26 H       -1.7300    -1.8750    -0.8380 H     1 <1>   0.0800 
 27 H       -2.0590    -1.8530     0.8870 H     1 <1>   0.0800 
 28 H       -3.0680     2.4920     1.3930 H     1 <1>   0.0800 
 29 H       -1.8850     2.2060     2.6150 H     1 <1>   0.0800 
 30 H       -0.4740     2.3290    -1.3960 H     1 <1>   0.0800 
 31 H       -2.0590     2.9790    -1.1160 H     1 <1>   0.0800 
 32 H       -4.1500    -0.7840    -2.2780 H     1 <1>   0.0800 
 33 H       -4.3460    -1.6760     0.5920 H     1 <1>   0.0800 
 34 H       -2.5740     4.4440     2.8320 H     1 <1>   0.0800 
 35 H       -0.9550     4.5120     2.2220 H     1 <1>   0.0800 
 36 H        0.3730     4.3190     0.0520 H     1 <1>   0.0800 
 37 H       -0.0390     4.5610    -1.6050 H     1 <1>   0.0800 
 38 H       -5.7400    -0.0830    -0.0440 H     1 <1>   0.4000 
 39 H       -3.5750    -3.1610    -1.9420 H     1 <1>   0.0800 
 40 H       -5.1490    -3.1880    -1.2110 H     1 <1>   0.0800 
 41 H       -3.3230     4.5890     0.3430 H     1 <1>   0.0800 
 42 H       -2.8670     6.0140     1.2020 H     1 <1>   0.0800 
 43 H       -0.8660     6.2780     0.0780 H     1 <1>   0.0800 
 44 H       -1.9620     5.7470    -1.1480 H     1 <1>   0.0800 
 45 H       -5.4550    -4.2810     1.0730 H     1 <1>   0.1500 
 46 H       -1.7330    -4.5330    -0.9720 H     1 <1>   0.1500 
 47 H       -4.6940    -6.0960     2.5010 H     1 <1>   0.1500 
 48 H       -1.1230    -6.3330     0.5400 H     1 <1>   0.1500 
@<TRIPOS>BOND
  1   1   2  2   
  2   2   3  am  
  3   2   4  1   
  4   3   5  1   
  5   3   6  1   
  6   4   7  1   
  7   4   8  1   
  8   4  23  1   
  9   5   9  1   
 10   5  24  1   
 11   5  25  1   
 12   6  10  1   
 13   6  26  1   
 14   6  27  1   
 15   7  11  1   
 16   7  28  1   
 17   7  29  1   
 18   8  12  1   
 19   8  30  1   
 20   8  31  1   
 21   9  10  1   
 22   9  13  1   
 23   9  32  1   
 24  10  14  1   
 25  10  33  1   
 26  11  15  1   
 27  11  34  1   
 28  11  35  1   
 29  12  16  1   
 30  12  36  1   
 31  12  37  1   
 32  13  38  1   
 33  14  17  1   
 34  14  39  1   
 35  14  40  1   
 36  15  16  1   
 37  15  41  1   
 38  15  42  1   
 39  16  43  1   
 40  16  44  1   
 41  17  18  ar  
 42  17  19  ar  
 43  18  20  ar  
 44  18  45  1   
 45  19  21  ar  
 46  19  46  1   
 47  20  22  ar  
 48  20  47  1   
 49  21  22  ar  
 50  21  48  1   
@<TRIPOS>SUBSTRUCTURE
  1 ****   3 GROUP 4 **** **** 0

# MOE 2024.06 (io_trps.svl 2023.06)
