@<TRIPOS>MOLECULE
NONAME
49 53 1 0 0 
SMALL
USER_CHARGES


@<TRIPOS>ATOM
  1 S        1.4830     2.1170     3.0710 S.3   1 <1>  -0.0800 
  2 C        1.0100     2.8970     1.5760 C.2   1 <1>  -0.1400 
  3 C        3.0380     2.9370     3.0270 C.2   1 <1>  -0.1100 
  4 C        1.9790     3.6860     1.0950 C.2   1 <1>  -0.1810 
  5 C       -0.3390     2.6960     0.9440 C.3   1 <1>   0.0200 
  6 C        3.1420     3.7200     1.9360 C.2   1 <1>  -0.1500 
  7 C        1.7940     4.4510    -0.2170 C.3   1 <1>   0.4610 
  8 C       -0.5600     3.8750    -0.0170 C.3   1 <1>   0.1200 
  9 O        0.5700     4.0870    -0.8310 O.3   1 <1>  -0.5600 
 10 C        2.8880     4.0590    -1.2190 C.3   1 <1>  -0.1600 
 11 C        1.7960     5.9670     0.0260 C.3   1 <1>  -0.1600 
 12 C        2.7920     4.8720    -2.5130 C.3   1 <1>   0.1400 
 13 C        1.7380     6.7470    -1.2880 C.3   1 <1>   0.1400 
 14 N        2.8650     6.3190    -2.1670 N.am  1 <1>  -0.6600 
 15 C        3.9090     7.0930    -2.6130 C.2   1 <1>   0.5690 
 16 O        4.6380     6.7270    -3.5030 O.2   1 <1>  -0.5700 
 17 C        4.2760     8.4090    -1.9620 C.3   1 <1>  -0.0990 
 18 C        5.5070     8.1960    -1.0870 C.3   1 <1>   0.3640 
 19 N        5.2590     7.1350    -0.0920 N.am  1 <1>  -0.7300 
 20 C        5.7720     9.3870    -0.1710 C.ar  1 <1>  -0.1440 
 21 C        5.2760     7.6030     1.1710 C.2   1 <1>   0.5440 
 22 C        5.6200     8.9950     1.1490 C.ar  1 <1>   0.0860 
 23 C        6.1110    10.6880    -0.4960 C.ar  1 <1>  -0.1500 
 24 O        4.9900     6.9090     2.1220 O.2   1 <1>  -0.5700 
 25 C        5.8030     9.9190     2.1700 C.ar  1 <1>  -0.1500 
 26 C        6.2940    11.6070     0.5260 C.ar  1 <1>  -0.1500 
 27 C        6.1400    11.2250     1.8520 C.ar  1 <1>  -0.1500 
 28 H        3.7200     2.7480     3.8370 H     1 <1>   0.1500 
 29 H       -1.1090     2.6870     1.6940 H     1 <1>   0.0800 
 30 H       -0.3620     1.7640     0.4080 H     1 <1>   0.0800 
 31 H        3.9960     4.3310     1.6950 H     1 <1>   0.1500 
 32 H       -0.7540     4.7770     0.5370 H     1 <1>   0.0800 
 33 H       -1.3980     3.6780    -0.6610 H     1 <1>   0.0800 
 34 H        2.8010     3.0110    -1.4390 H     1 <1>   0.0800 
 35 H        3.8560     4.2180    -0.7830 H     1 <1>   0.0800 
 36 H        2.6890     6.2410     0.5540 H     1 <1>   0.0800 
 37 H        0.9690     6.2380     0.6540 H     1 <1>   0.0800 
 38 H        1.8590     4.6710    -3.0130 H     1 <1>   0.0800 
 39 H        3.5920     4.5930    -3.1770 H     1 <1>   0.0800 
 40 H        1.7540     7.8010    -1.0920 H     1 <1>   0.0800 
 41 H        0.8100     6.5300    -1.7910 H     1 <1>   0.0800 
 42 H        3.4850     8.8240    -1.3760 H     1 <1>   0.0800 
 43 H        4.5130     9.1170    -2.7330 H     1 <1>   0.0800 
 44 H        6.3750     7.9520    -1.6790 H     1 <1>   0.0800 
 45 H        4.9270     6.2060    -0.3560 H     1 <1>   0.3700 
 46 H        6.2330    10.9880    -1.5230 H     1 <1>   0.1500 
 47 H        5.6810     9.6070     3.1920 H     1 <1>   0.1500 
 48 H        6.5590    12.6240     0.2910 H     1 <1>   0.1500 
 49 H        6.2840    11.9470     2.6380 H     1 <1>   0.1500 
@<TRIPOS>BOND
  1   1   2  1   
  2   1   3  1   
  3   2   4  2   
  4   2   5  1   
  5   3   6  2   
  6   3  28  1   
  7   4   6  1   
  8   4   7  1   
  9   5   8  1   
 10   5  29  1   
 11   5  30  1   
 12   6  31  1   
 13   7   9  1   
 14   7  10  1   
 15   7  11  1   
 16   8   9  1   
 17   8  32  1   
 18   8  33  1   
 19  10  12  1   
 20  10  34  1   
 21  10  35  1   
 22  11  13  1   
 23  11  36  1   
 24  11  37  1   
 25  12  14  1   
 26  12  38  1   
 27  12  39  1   
 28  13  14  1   
 29  13  40  1   
 30  13  41  1   
 31  14  15  am  
 32  15  16  2   
 33  15  17  1   
 34  17  18  1   
 35  17  42  1   
 36  17  43  1   
 37  18  19  1   
 38  18  20  1   
 39  18  44  1   
 40  19  21  am  
 41  19  45  1   
 42  20  22  ar  
 43  20  23  ar  
 44  21  22  1   
 45  21  24  2   
 46  22  25  ar  
 47  23  26  ar  
 48  23  46  1   
 49  25  27  ar  
 50  25  47  1   
 51  26  27  ar  
 52  26  48  1   
 53  27  49  1   
@<TRIPOS>SUBSTRUCTURE
  1 ****  11 GROUP 4 **** **** 0

# MOE 2024.06 (io_trps.svl 2023.06)
