@<TRIPOS>MOLECULE
NONAME
53 57 1 0 0 
SMALL
USER_CHARGES


@<TRIPOS>ATOM
  1 O       -5.0950    -0.0800    -4.2840 O.2   1 <1>  -0.5200 
  2 N       -5.9840    -0.7160    -3.6880 N.pl3 1 <1>   0.8360 
  3 O       -7.1670    -0.6240    -4.0640 O.2   1 <1>  -0.5200 
  4 C       -5.6260    -1.6390    -2.6980 C.2   1 <1>   0.2190 
  5 C       -6.0530    -1.3570    -1.3700 C.2   1 <1>   0.6160 
  6 C       -4.9000    -2.7680    -2.9630 C.2   1 <1>  -0.1500 
  7 O       -6.7060    -0.3570    -1.0880 O.2   1 <1>  -0.5700 
  8 N       -5.7160    -2.2450    -0.3540 N.am  1 <1>  -0.4690 
  9 C       -4.6150    -3.6720    -1.9210 C.2   1 <1>  -0.1500 
 10 C       -5.0330    -3.4200    -0.6480 C.2   1 <1>  -0.0290 
 11 C       -6.0370    -1.8440     1.0570 C.3   1 <1>   0.1400 
 12 C       -4.8040    -4.4630     0.4530 C.3   1 <1>   0.0580 
 13 C       -5.9610    -2.9960     2.0730 C.3   1 <1>  -0.0800 
 14 C       -5.9960    -5.4360     0.4770 C.3   1 <1>   0.1400 
 15 C       -4.6770    -3.7970     1.8270 C.3   1 <1>  -0.1600 
 16 C       -7.2130    -3.9010     2.0170 C.3   1 <1>   0.1400 
 17 N       -7.2670    -4.6890     0.7450 N.am  1 <1>  -0.6600 
 18 C       -8.2210    -4.5850    -0.2450 C.2   1 <1>   0.5690 
 19 O       -8.0530    -5.0970    -1.3270 O.2   1 <1>  -0.5700 
 20 C       -9.5110    -3.7940    -0.0540 C.3   1 <1>  -0.0190 
 21 C       -9.4080    -2.4060    -0.6950 C.3   1 <1>   0.1400 
 22 C      -10.7650    -4.4130    -0.6960 C.3   1 <1>  -0.0990 
 23 N      -10.7890    -2.0770    -1.0980 N.am  1 <1>  -0.4770 
 24 C      -11.5620    -3.2040    -1.1000 C.2   1 <1>   0.5690 
 25 C      -11.1550    -0.7500    -1.4040 C.ar  1 <1>   0.1170 
 26 O      -12.7370    -3.2850    -1.3640 O.2   1 <1>  -0.5700 
 27 C      -12.4250    -0.2650    -1.1030 C.ar  1 <1>  -0.1500 
 28 C      -10.2500     0.1210    -2.0060 C.ar  1 <1>  -0.1500 
 29 C      -12.7790     1.0420    -1.3860 C.ar  1 <1>  -0.1500 
 30 C      -10.5990     1.4290    -2.2910 C.ar  1 <1>  -0.1500 
 31 C      -11.8650     1.8930    -1.9810 C.ar  1 <1>  -0.1500 
 32 H       -4.5540    -2.9920    -3.9580 H     1 <1>   0.1500 
 33 H       -4.0820    -4.5750    -2.1670 H     1 <1>   0.1500 
 34 H       -5.3340    -1.0820     1.3440 H     1 <1>   0.0800 
 35 H       -7.0190    -1.4040     1.0970 H     1 <1>   0.0800 
 36 H       -3.9080    -5.0200     0.2450 H     1 <1>   0.0800 
 37 H       -5.9180    -2.5610     3.0560 H     1 <1>   0.0800 
 38 H       -5.8530    -6.1730     1.2480 H     1 <1>   0.0800 
 39 H       -6.0470    -5.9590    -0.4630 H     1 <1>   0.0800 
 40 H       -4.5480    -4.5440     2.5920 H     1 <1>   0.0800 
 41 H       -3.8190    -3.1470     1.8420 H     1 <1>   0.0800 
 42 H       -8.0840    -3.2890     2.1440 H     1 <1>   0.0800 
 43 H       -7.1830    -4.5940     2.8410 H     1 <1>   0.0800 
 44 H       -9.7310    -3.6720     0.9870 H     1 <1>   0.0800 
 45 H       -8.7880    -2.4400    -1.5750 H     1 <1>   0.0800 
 46 H       -9.0260    -1.6740    -0.0060 H     1 <1>   0.0800 
 47 H      -11.3120    -5.0250    -0.0030 H     1 <1>   0.0800 
 48 H      -10.5380    -4.9770    -1.5820 H     1 <1>   0.0800 
 49 H      -13.1450    -0.9170    -0.6420 H     1 <1>   0.1500 
 50 H       -9.2640    -0.2160    -2.2670 H     1 <1>   0.1500 
 51 H      -13.7670     1.3940    -1.1460 H     1 <1>   0.1500 
 52 H       -9.8820     2.0830    -2.7570 H     1 <1>   0.1500 
 53 H      -12.1370     2.9100    -2.2030 H     1 <1>   0.1500 
@<TRIPOS>BOND
  1   1   2  2   
  2   2   3  2   
  3   2   4  1   
  4   4   5  1   
  5   4   6  2   
  6   5   7  2   
  7   5   8  am  
  8   6   9  1   
  9   6  32  1   
 10   8  10  1   
 11   8  11  1   
 12   9  10  2   
 13   9  33  1   
 14  10  12  1   
 15  11  13  1   
 16  11  34  1   
 17  11  35  1   
 18  12  14  1   
 19  12  15  1   
 20  12  36  1   
 21  13  15  1   
 22  13  16  1   
 23  13  37  1   
 24  14  17  1   
 25  14  38  1   
 26  14  39  1   
 27  15  40  1   
 28  15  41  1   
 29  16  17  1   
 30  16  42  1   
 31  16  43  1   
 32  17  18  am  
 33  18  19  2   
 34  18  20  1   
 35  20  21  1   
 36  20  22  1   
 37  20  44  1   
 38  21  23  1   
 39  21  45  1   
 40  21  46  1   
 41  22  24  1   
 42  22  47  1   
 43  22  48  1   
 44  23  24  am  
 45  23  25  1   
 46  24  26  2   
 47  25  27  ar  
 48  25  28  ar  
 49  27  29  ar  
 50  27  49  1   
 51  28  30  ar  
 52  28  50  1   
 53  29  31  ar  
 54  29  51  1   
 55  30  31  ar  
 56  30  52  1   
 57  31  53  1   
@<TRIPOS>SUBSTRUCTURE
  1 ****  21 GROUP 4 **** **** 0

# MOE 2024.06 (io_trps.svl 2023.06)
