@<TRIPOS>MOLECULE
NONAME
64 67 1 0 0 
SMALL
USER_CHARGES


@<TRIPOS>ATOM
  1 O       -2.0970    -2.3350     1.5290 O.2   1 <1>  -0.5700 
  2 C       -1.2630    -2.6320     0.7070 C.2   1 <1>   0.5690 
  3 N       -1.5560    -2.6490    -0.6240 N.am  1 <1>  -0.7300 
  4 C        0.1480    -2.9930     1.1750 C.3   1 <1>   0.2010 
  5 C       -2.8660    -2.3270    -1.2430 C.3   1 <1>   0.1400 
  6 N        0.5120    -4.4450     0.9880 N.am  1 <1>  -0.6600 
  7 C       -3.9300    -3.3220    -0.7480 C.3   1 <1>  -0.0800 
  8 C        1.5280    -4.8420     0.1520 C.2   1 <1>   0.5690 
  9 C        0.0240    -5.3230     2.1010 C.3   1 <1>   0.1400 
 10 C       -4.7480    -2.9370     0.4880 C.3   1 <1>   0.4230 
 11 C       -5.0080    -3.7120    -1.7610 C.3   1 <1>  -0.1600 
 12 O        2.1030    -5.8940     0.2780 O.2   1 <1>  -0.5700 
 13 C        1.9880    -3.9540    -0.9810 C.3   1 <1>  -0.1790 
 14 C       -0.4500    -6.7230     1.6690 C.3   1 <1>  -0.1600 
 15 N       -6.0150    -3.7220     0.3880 N.4   1 <1>  -0.9590 
 16 C       -5.2020    -1.4810     0.5900 C.3   1 <1>  -0.1600 
 17 C       -6.0460    -4.4450    -0.9050 C.3   1 <1>   0.5660 
 18 C       -1.5410    -6.7360     0.5870 C.3   1 <1>  -0.1600 
 19 C       -7.1780    -2.8240     0.6180 C.3   1 <1>   0.3430 
 20 C       -6.5850    -1.5630     1.2200 C.3   1 <1>  -0.1600 
 21 C       -5.7090    -5.8950    -0.5450 C.ar  1 <1>  -0.1430 
 22 C       -1.9850    -8.1800     0.2970 C.3   1 <1>   0.1200 
 23 C       -4.5190    -6.5150    -0.9160 C.ar  1 <1>  -0.1500 
 24 C       -6.6030    -6.6160     0.2400 C.ar  1 <1>  -0.1500 
 25 O       -2.9390    -8.2100    -0.7480 O.3   1 <1>  -0.3630 
 26 C       -4.1830    -7.7680    -0.4450 C.ar  1 <1>   0.0820 
 27 C       -6.2970    -7.8960     0.6730 C.ar  1 <1>  -0.1500 
 28 C       -5.0900    -8.4850     0.3400 C.ar  1 <1>   0.0820 
 29 O       -4.8600    -9.7360     0.8110 O.3   1 <1>  -0.3630 
 30 C       -4.4410   -10.7250    -0.1060 C.3   1 <1>   0.0400 
 31 H       -0.8390    -2.9900    -1.2700 H     1 <1>   0.3700 
 32 H        0.2240    -2.7500     2.2210 H     1 <1>   0.0800 
 33 H        0.8440    -2.3560     0.6640 H     1 <1>   0.0800 
 34 H       -3.1260    -1.3070    -1.0220 H     1 <1>   0.0800 
 35 H       -2.7610    -2.4160    -2.3120 H     1 <1>   0.0800 
 36 H       -3.3950    -4.2120    -0.4760 H     1 <1>   0.0800 
 37 H        0.8220    -5.4360     2.8160 H     1 <1>   0.0800 
 38 H       -0.7940    -4.8350     2.6030 H     1 <1>   0.0800 
 39 H       -4.2160    -3.2060     1.3880 H     1 <1>   0.0800 
 40 H       -4.6380    -4.3130    -2.5720 H     1 <1>   0.0800 
 41 H       -5.4620    -2.8320    -2.1820 H     1 <1>   0.0800 
 42 H        1.1490    -3.5290    -1.4950 H     1 <1>   0.0800 
 43 H        2.5550    -4.5380    -1.6840 H     1 <1>   0.0800 
 44 H        2.6220    -3.1760    -0.5990 H     1 <1>   0.0800 
 45 H        0.3930    -7.3040     1.3390 H     1 <1>   0.0800 
 46 H       -0.8320    -7.2160     2.5460 H     1 <1>   0.0800 
 47 H       -5.9770    -4.4490     1.1140 H     1 <1>   0.4500 
 48 H       -4.5160    -0.9020     1.1850 H     1 <1>   0.0800 
 49 H       -5.2790    -1.0350    -0.3860 H     1 <1>   0.0800 
 50 H       -7.0230    -4.4030    -1.3600 H     1 <1>   0.0800 
 51 H       -1.1520    -6.2980    -0.3150 H     1 <1>   0.0800 
 52 H       -2.3780    -6.1570     0.9320 H     1 <1>   0.0800 
 53 H       -7.6460    -2.5810    -0.3220 H     1 <1>   0.0800 
 54 H       -7.9050    -3.2740     1.2760 H     1 <1>   0.0800 
 55 H       -7.1860    -0.6960     1.0060 H     1 <1>   0.0800 
 56 H       -6.5040    -1.6770     2.2880 H     1 <1>   0.0800 
 57 H       -2.4170    -8.6390     1.1710 H     1 <1>   0.0800 
 58 H       -1.1440    -8.7690    -0.0250 H     1 <1>   0.0800 
 59 H       -3.7910    -6.0530    -1.5540 H     1 <1>   0.1500 
 60 H       -7.5510    -6.1940     0.5300 H     1 <1>   0.1500 
 61 H       -6.9930    -8.4520     1.2770 H     1 <1>   0.1500 
 62 H       -4.6280   -11.6890     0.3320 H     1 <1>   0.0800 
 63 H       -3.3900   -10.6120    -0.2960 H     1 <1>   0.0800 
 64 H       -5.0030   -10.6210    -1.0180 H     1 <1>   0.0800 
@<TRIPOS>BOND
  1   1   2  2   
  2   2   3  am  
  3   2   4  1   
  4   3   5  1   
  5   3  31  1   
  6   4   6  1   
  7   4  32  1   
  8   4  33  1   
  9   5   7  1   
 10   5  34  1   
 11   5  35  1   
 12   6   8  am  
 13   6   9  1   
 14   7  10  1   
 15   7  11  1   
 16   7  36  1   
 17   8  12  2   
 18   8  13  1   
 19   9  14  1   
 20   9  37  1   
 21   9  38  1   
 22  10  15  1   
 23  10  16  1   
 24  10  39  1   
 25  11  17  1   
 26  11  40  1   
 27  11  41  1   
 28  13  42  1   
 29  13  43  1   
 30  13  44  1   
 31  14  18  1   
 32  14  45  1   
 33  14  46  1   
 34  15  17  1   
 35  15  19  1   
 36  15  47  1   
 37  16  20  1   
 38  16  48  1   
 39  16  49  1   
 40  17  21  1   
 41  17  50  1   
 42  18  22  1   
 43  18  51  1   
 44  18  52  1   
 45  19  20  1   
 46  19  53  1   
 47  19  54  1   
 48  20  55  1   
 49  20  56  1   
 50  21  23  ar  
 51  21  24  ar  
 52  22  25  1   
 53  22  57  1   
 54  22  58  1   
 55  23  26  ar  
 56  23  59  1   
 57  24  27  ar  
 58  24  60  1   
 59  25  26  1   
 60  26  28  ar  
 61  27  28  ar  
 62  27  61  1   
 63  28  29  1   
 64  29  30  1   
 65  30  62  1   
 66  30  63  1   
 67  30  64  1   
@<TRIPOS>SUBSTRUCTURE
  1 ****   7 GROUP 4 **** **** 0

# MOE 2024.06 (io_trps.svl 2023.06)
