@<TRIPOS>MOLECULE
NONAME
39 41 1 0 0 
SMALL
USER_CHARGES


@<TRIPOS>ATOM
  1 O        1.1990     3.7730     1.1810 O.co2 1 <1>  -0.9000 
  2 C        2.3480     3.3140     1.2330 C.2   1 <1>   0.9470 
  3 O        3.1280     3.6620     2.1340 O.co2 1 <1>  -0.9000 
  4 C        2.8980     2.4850     0.0640 C.3   1 <1>  -0.2420 
  5 C        2.8280     1.0190    -0.2940 C.3   1 <1>  -0.2420 
  6 C        4.2840     2.9710    -0.3130 C.3   1 <1>   0.2350 
  7 C        1.9330     2.0080    -0.9930 C.3   1 <1>  -0.2000 
  8 C        2.2020    -0.1620     0.4490 C.2   1 <1>   0.9470 
  9 C        4.1570     0.6180    -0.9150 C.3   1 <1>   0.2350 
 10 N        4.8670     1.9010    -1.1670 N.am  1 <1>  -0.6600 
 11 O        1.1470    -0.6540     0.0240 O.co2 1 <1>  -0.9000 
 12 O        2.8400    -0.7050     1.3600 O.co2 1 <1>  -0.9000 
 13 C        5.8990     2.0570    -2.0450 C.2   1 <1>   0.5690 
 14 O        6.3280     1.1360    -2.7050 O.2   1 <1>  -0.5700 
 15 C        6.5230     3.4340    -2.2650 C.3   1 <1>   0.1810 
 16 O        7.0720     3.9670    -1.0660 O.3   1 <1>  -0.3630 
 17 C        6.9170     5.2930    -0.8520 C.ar  1 <1>   0.0820 
 18 C        6.3260     5.7070     0.3310 C.ar  1 <1>  -0.1500 
 19 C        7.3290     6.2300    -1.7900 C.ar  1 <1>  -0.1500 
 20 C        6.1190     7.0530     0.5710 C.ar  1 <1>  -0.1500 
 21 C        7.1270     7.5780    -1.5460 C.ar  1 <1>  -0.1500 
 22 C        6.5170     7.9980    -0.3730 C.ar  1 <1>   0.0820 
 23 O        6.3420     9.3370    -0.2190 O.3   1 <1>  -0.3630 
 24 C        5.5910     9.8410     0.8640 C.3   1 <1>   0.0400 
 25 H        4.8900     3.0740     0.5700 H     1 <1>   0.0800 
 26 H        4.2230     3.9120    -0.8300 H     1 <1>   0.0800 
 27 H        2.1110     2.2500    -2.0240 H     1 <1>   0.1000 
 28 H        0.8830     1.9850    -0.7490 H     1 <1>   0.1000 
 29 H        4.0080     0.0680    -1.8280 H     1 <1>   0.0800 
 30 H        4.7280     0.0250    -0.2210 H     1 <1>   0.0800 
 31 H        5.7640     4.1000    -2.6320 H     1 <1>   0.0800 
 32 H        7.3150     3.3630    -2.9870 H     1 <1>   0.0800 
 33 H        6.0150     4.9770     1.0600 H     1 <1>   0.1500 
 34 H        7.8070     5.9130    -2.6980 H     1 <1>   0.1500 
 35 H        5.6450     7.3360     1.4920 H     1 <1>   0.1500 
 36 H        7.4380     8.3140    -2.2630 H     1 <1>   0.1500 
 37 H        5.5220    10.9080     0.7550 H     1 <1>   0.0800 
 38 H        6.0960     9.5990     1.7820 H     1 <1>   0.0800 
 39 H        4.6070     9.4060     0.8390 H     1 <1>   0.0800 
@<TRIPOS>BOND
  1   1   2  ar  
  2   2   3  ar  
  3   2   4  1   
  4   4   5  1   
  5   4   6  1   
  6   4   7  1   
  7   5   7  1   
  8   5   8  1   
  9   5   9  1   
 10   6  10  1   
 11   6  25  1   
 12   6  26  1   
 13   7  27  1   
 14   7  28  1   
 15   8  11  ar  
 16   8  12  ar  
 17   9  10  1   
 18   9  29  1   
 19   9  30  1   
 20  10  13  am  
 21  13  14  2   
 22  13  15  1   
 23  15  16  1   
 24  15  31  1   
 25  15  32  1   
 26  16  17  1   
 27  17  18  ar  
 28  17  19  ar  
 29  18  20  ar  
 30  18  33  1   
 31  19  21  ar  
 32  19  34  1   
 33  20  22  ar  
 34  20  35  1   
 35  21  22  ar  
 36  21  36  1   
 37  22  23  1   
 38  23  24  1   
 39  24  37  1   
 40  24  38  1   
 41  24  39  1   
@<TRIPOS>SUBSTRUCTURE
  1 ****   6 GROUP 4 **** **** 0

# MOE 2024.06 (io_trps.svl 2023.06)
