@<TRIPOS>MOLECULE
NONAME
53 56 1 0 0 
SMALL
USER_CHARGES


@<TRIPOS>ATOM
  1 O       -3.0490    -0.9130     0.6530 O.2   1 <1>  -0.5700 
  2 C       -3.0980     0.0810    -0.0650 C.2   1 <1>   0.4690 
  3 C       -3.5190     0.0020    -1.4320 C.2   1 <1>   0.0290 
  4 C       -2.7370     1.3600     0.4880 C.ar  1 <1>   0.0860 
  5 C       -3.8650    -1.2570    -2.0420 C.2   1 <1>   0.6160 
  6 C       -3.5960     1.1660    -2.1460 C.2   1 <1>  -0.0500 
  7 C       -2.8290     2.5150    -0.3080 C.ar  1 <1>   0.4100 
  8 C       -2.2940     1.5110     1.8000 C.ar  1 <1>  -0.1500 
  9 O       -4.5640    -1.2850    -3.0400 O.2   1 <1>  -0.5700 
 10 N       -3.4360    -2.4530    -1.5480 N.am  1 <1>  -0.7300 
 11 N       -3.2710     2.3890    -1.6270 N.pl3 1 <1>  -0.5690 
 12 N       -2.5150     3.7390     0.1330 N.ar  1 <1>  -0.6200 
 13 C       -1.9760     2.7710     2.2400 C.ar  1 <1>  -0.1500 
 14 C       -3.8890    -3.7950    -1.9810 C.3   1 <1>   0.2200 
 15 C       -3.4120     3.5880    -2.5010 C.3   1 <1>   0.2090 
 16 C       -2.1020     3.8480     1.3730 C.ar  1 <1>   0.1670 
 17 C       -4.8430    -4.4010    -0.9610 C.3   1 <1>  -0.0800 
 18 C       -2.7220    -4.7710    -1.8950 C.3   1 <1>   0.1200 
 19 C       -4.8060     4.1870    -2.3250 C.3   1 <1>  -0.2400 
 20 C       -1.7560     5.2450     1.8420 C.3   1 <1>  -0.0970 
 21 C       -3.8900    -5.0020     0.0760 C.3   1 <1>   0.1200 
 22 C       -5.8940    -3.4440    -0.3660 C.3   1 <1>  -0.0170 
 23 O       -2.6580    -5.1800    -0.5600 O.3   1 <1>  -0.5600 
 24 C       -6.8080    -4.1750     0.6040 C.ar  1 <1>  -0.1430 
 25 C       -7.8700    -4.9410     0.1700 C.ar  1 <1>  -0.1500 
 26 C       -6.6200    -4.1100     1.9700 C.ar  1 <1>  -0.1500 
 27 C       -8.6680    -5.5910     1.0960 C.ar  1 <1>   0.1600 
 28 C       -7.4780    -4.8000     2.8120 C.ar  1 <1>   0.1600 
 29 N       -8.4970    -5.5410     2.4070 N.ar  1 <1>  -0.6200 
 30 H       -3.9280     1.1390    -3.1730 H     1 <1>   0.1500 
 31 H       -2.2070     0.6560     2.4490 H     1 <1>   0.1500 
 32 H       -2.9700    -2.4390    -0.6290 H     1 <1>   0.3700 
 33 H       -1.6310     2.9230     3.2470 H     1 <1>   0.1500 
 34 H       -4.3090    -3.7550    -2.9720 H     1 <1>   0.0800 
 35 H       -2.6580     4.3190    -2.2630 H     1 <1>   0.0800 
 36 H       -3.2690     3.3010    -3.5280 H     1 <1>   0.0800 
 37 H       -5.3580    -5.2180    -1.4340 H     1 <1>   0.0800 
 38 H       -1.7860    -4.3260    -2.1830 H     1 <1>   0.0800 
 39 H       -2.9140    -5.6440    -2.4940 H     1 <1>   0.0800 
 40 H       -4.9450     4.5000    -1.3060 H     1 <1>   0.0800 
 41 H       -5.5590     3.4640    -2.5840 H     1 <1>   0.0800 
 42 H       -4.9160     5.0440    -2.9640 H     1 <1>   0.0800 
 43 H       -1.4310     5.2440     2.8660 H     1 <1>   0.0800 
 44 H       -2.6200     5.8780     1.7520 H     1 <1>   0.0800 
 45 H       -0.9700     5.6450     1.2280 H     1 <1>   0.0800 
 46 H       -4.2400    -5.9510     0.4440 H     1 <1>   0.0800 
 47 H       -3.7310    -4.3270     0.9000 H     1 <1>   0.0800 
 48 H       -6.4810    -3.0200    -1.1620 H     1 <1>   0.0800 
 49 H       -5.4150    -2.6310     0.1510 H     1 <1>   0.0800 
 50 H       -8.0840    -5.0370    -0.8790 H     1 <1>   0.1500 
 51 H       -5.8170    -3.5310     2.3880 H     1 <1>   0.1500 
 52 H       -9.4930    -6.1840     0.7380 H     1 <1>   0.1500 
 53 H       -7.3160    -4.7390     3.8740 H     1 <1>   0.1500 
@<TRIPOS>BOND
  1   1   2  2   
  2   2   3  1   
  3   2   4  1   
  4   3   5  1   
  5   3   6  2   
  6   4   7  ar  
  7   4   8  ar  
  8   5   9  2   
  9   5  10  am  
 10   6  11  1   
 11   6  30  1   
 12   7  11  1   
 13   7  12  ar  
 14   8  13  ar  
 15   8  31  1   
 16  10  14  1   
 17  10  32  1   
 18  11  15  1   
 19  12  16  ar  
 20  13  16  ar  
 21  13  33  1   
 22  14  17  1   
 23  14  18  1   
 24  14  34  1   
 25  15  19  1   
 26  15  35  1   
 27  15  36  1   
 28  16  20  1   
 29  17  21  1   
 30  17  22  1   
 31  17  37  1   
 32  18  23  1   
 33  18  38  1   
 34  18  39  1   
 35  19  40  1   
 36  19  41  1   
 37  19  42  1   
 38  20  43  1   
 39  20  44  1   
 40  20  45  1   
 41  21  23  1   
 42  21  46  1   
 43  21  47  1   
 44  22  24  1   
 45  22  48  1   
 46  22  49  1   
 47  24  25  ar  
 48  24  26  ar  
 49  25  27  ar  
 50  25  50  1   
 51  26  28  ar  
 52  26  51  1   
 53  27  29  ar  
 54  27  52  1   
 55  28  29  ar  
 56  28  53  1   
@<TRIPOS>SUBSTRUCTURE
  1 ****   1 GROUP 4 **** **** 0

# MOE 2024.06 (io_trps.svl 2023.06)
