@<TRIPOS>MOLECULE
NONAME
44 47 1 0 0 
SMALL
USER_CHARGES


@<TRIPOS>ATOM
  1 S        0.2320     0.4090     0.6140 S.3   1 <1>  -0.2420 
  2 C        1.6440    -0.2000    -0.2490 C.2   1 <1>   0.6410 
  3 C       -0.3690    -1.2410     0.8860 C.2   1 <1>  -0.0490 
  4 N        2.5510     0.5590    -0.7450 N.2   1 <1>  -0.6610 
  5 N        1.6030    -1.5850    -0.2970 N.pl3 1 <1>  -0.1080 
  6 C        0.4710    -2.1410     0.3430 C.2   1 <1>   0.2090 
  7 C        3.5470    -0.1440    -1.3670 C.2   1 <1>   0.7810 
  8 N        2.5860    -2.3220    -0.9140 N.2   1 <1>  -0.4920 
  9 N        0.3690    -3.5380     0.3320 N.am  1 <1>  -0.5390 
 10 O        4.4570     0.5060    -1.8690 O.2   1 <1>  -0.5700 
 11 C        3.5270    -1.5950    -1.4300 C.2   1 <1>   0.3890 
 12 C       -0.5910    -4.3380     0.8770 C.2   1 <1>   0.5690 
 13 C        4.6640    -2.3170    -2.1370 C.3   1 <1>  -0.1790 
 14 O       -1.5340    -3.8940     1.4840 O.2   1 <1>  -0.5700 
 15 C       -0.4370    -5.8420     0.7090 C.3   1 <1>  -0.0190 
 16 C       -1.8070    -6.5110     0.5450 C.3   1 <1>   0.2090 
 17 C        0.3350    -6.4650     1.8900 C.3   1 <1>  -0.1600 
 18 N       -1.6170    -7.9730     0.3530 N.pl3 1 <1>  -0.8380 
 19 C        0.4260    -7.9920     1.7320 C.3   1 <1>  -0.1600 
 20 C       -2.6730    -8.6430    -0.2320 C.ar  1 <1>   0.4100 
 21 C       -0.9520    -8.6250     1.5120 C.3   1 <1>   0.2090 
 22 N       -3.4970    -9.3050     0.5710 N.ar  1 <1>  -0.6200 
 23 C       -2.8350    -8.5850    -1.6140 C.ar  1 <1>  -0.1500 
 24 C       -4.5070    -9.9210    -0.0200 C.ar  1 <1>   0.1600 
 25 C       -3.8890    -9.2310    -2.2160 C.ar  1 <1>  -0.1500 
 26 C       -4.7480    -9.9180    -1.3820 C.ar  1 <1>  -0.1500 
 27 H       -1.2930    -1.3510     1.4260 H     1 <1>   0.1500 
 28 H        1.1460    -3.9920    -0.1510 H     1 <1>   0.3700 
 29 H        4.7160    -1.9990    -3.1630 H     1 <1>   0.0800 
 30 H        4.5170    -3.3820    -2.1110 H     1 <1>   0.0800 
 31 H        5.5970    -2.0840    -1.6560 H     1 <1>   0.0800 
 32 H        0.1110    -6.0220    -0.1970 H     1 <1>   0.0800 
 33 H       -2.3220    -6.0940    -0.3040 H     1 <1>   0.0800 
 34 H       -2.4140    -6.3440     1.4200 H     1 <1>   0.0800 
 35 H       -0.1790    -6.2350     2.8080 H     1 <1>   0.0800 
 36 H        1.3250    -6.0460     1.9480 H     1 <1>   0.0800 
 37 H        0.8750    -8.4220     2.6090 H     1 <1>   0.0800 
 38 H        1.0500    -8.2360     0.8900 H     1 <1>   0.0800 
 39 H       -0.8480    -9.6790     1.3210 H     1 <1>   0.0800 
 40 H       -1.5640    -8.5000     2.3900 H     1 <1>   0.0800 
 41 H       -2.1200    -8.0330    -2.1920 H     1 <1>   0.1500 
 42 H       -5.1830   -10.4610     0.6210 H     1 <1>   0.1500 
 43 H       -4.0380    -9.2030    -3.2810 H     1 <1>   0.1500 
 44 H       -5.5940   -10.4460    -1.7840 H     1 <1>   0.1500 
@<TRIPOS>BOND
  1   1   2  1   
  2   1   3  1   
  3   2   4  2   
  4   2   5  1   
  5   3   6  2   
  6   3  27  1   
  7   4   7  1   
  8   5   6  1   
  9   5   8  1   
 10   6   9  1   
 11   7  10  2   
 12   7  11  1   
 13   8  11  2   
 14   9  12  am  
 15   9  28  1   
 16  11  13  1   
 17  12  14  2   
 18  12  15  1   
 19  13  29  1   
 20  13  30  1   
 21  13  31  1   
 22  15  16  1   
 23  15  17  1   
 24  15  32  1   
 25  16  18  1   
 26  16  33  1   
 27  16  34  1   
 28  17  19  1   
 29  17  35  1   
 30  17  36  1   
 31  18  20  1   
 32  18  21  1   
 33  19  21  1   
 34  19  37  1   
 35  19  38  1   
 36  20  22  ar  
 37  20  23  ar  
 38  21  39  1   
 39  21  40  1   
 40  22  24  ar  
 41  23  25  ar  
 42  23  41  1   
 43  24  26  ar  
 44  24  42  1   
 45  25  26  ar  
 46  25  43  1   
 47  26  44  1   
@<TRIPOS>SUBSTRUCTURE
  1 ****  12 GROUP 4 **** **** 0

# MOE 2024.06 (io_trps.svl 2023.06)
