@<TRIPOS>MOLECULE
NONAME
43 44 1 0 0 
SMALL
USER_CHARGES


@<TRIPOS>ATOM
  1 O       -0.7030    -0.4820    -0.1550 O.2   1 <1>  -0.5700 
  2 C       -1.5770     0.3370     0.0640 C.2   1 <1>   0.5440 
  3 N       -2.7060    -0.0510     0.7520 N.am  1 <1>  -0.6600 
  4 C       -1.3960     1.7020    -0.3870 C.ar  1 <1>   0.0860 
  5 C       -2.9100    -1.4790     1.1500 C.3   1 <1>   0.3210 
  6 C       -3.8110     0.8880     1.1340 C.3   1 <1>   0.1400 
  7 C       -0.7700     2.6750     0.4030 C.ar  1 <1>  -0.1440 
  8 C       -1.8550     2.0780    -1.6480 C.ar  1 <1>  -0.1500 
  9 C       -4.0200    -2.1170     0.3230 C.2   1 <1>   0.0460 
 10 C       -4.6760     1.3940    -0.0400 C.3   1 <1>   0.1200 
 11 C       -0.6350     3.9740    -0.0590 C.ar  1 <1>  -0.1500 
 12 C       -0.2210     2.3060     1.7760 C.3   1 <1>  -0.0960 
 13 C       -1.7190     3.3730    -2.1070 C.ar  1 <1>  -0.1500 
 14 N       -5.3160    -2.0060     0.6900 N.2   1 <1>  -0.5650 
 15 C       -3.9090    -2.8160    -0.8310 C.2   1 <1>  -0.3320 
 16 O       -4.8730     0.4150    -1.0030 O.3   1 <1>  -0.6800 
 17 C       -1.1110     4.3330    -1.3170 C.ar  1 <1>   0.0820 
 18 C       -5.9570    -2.6410    -0.2360 C.2   1 <1>   0.0360 
 19 N       -5.1580    -3.1580    -1.1910 N.pl3 1 <1>   0.0330 
 20 C       -2.6810    -3.1710    -1.6540 C.3   1 <1>  -0.0600 
 21 O       -1.0170     5.5800    -1.8320 O.3   1 <1>  -0.3630 
 22 C       -0.3680     6.6240    -1.1420 C.3   1 <1>   0.0400 
 23 H       -3.1700    -1.5300     2.1920 H     1 <1>   0.0800 
 24 H       -2.0060    -2.0450     1.0180 H     1 <1>   0.0800 
 25 H       -3.3920     1.7380     1.6420 H     1 <1>   0.0800 
 26 H       -4.4620     0.3970     1.8370 H     1 <1>   0.0800 
 27 H       -2.3320     1.3350    -2.2660 H     1 <1>   0.1500 
 28 H       -4.2200     2.2420    -0.5180 H     1 <1>   0.0800 
 29 H       -5.6410     1.6960     0.3260 H     1 <1>   0.0800 
 30 H       -0.1540     4.7020     0.5650 H     1 <1>   0.1500 
 31 H        0.4990     1.5120     1.6790 H     1 <1>   0.0800 
 32 H       -1.0150     1.9730     2.4180 H     1 <1>   0.0800 
 33 H        0.2640     3.1460     2.2400 H     1 <1>   0.0800 
 34 H       -2.0830     3.6480    -3.0800 H     1 <1>   0.1500 
 35 H       -4.8950    -0.4720    -0.5590 H     1 <1>   0.4000 
 36 H       -7.0270    -2.7560    -0.2630 H     1 <1>   0.1500 
 37 H       -5.4460    -3.6840    -2.0210 H     1 <1>   0.2700 
 38 H       -1.7920    -2.7680    -1.2030 H     1 <1>   0.0800 
 39 H       -2.7680    -2.7570    -2.6430 H     1 <1>   0.0800 
 40 H       -2.5740    -4.2380    -1.7260 H     1 <1>   0.0800 
 41 H       -0.4050     7.5040    -1.7580 H     1 <1>   0.0800 
 42 H        0.6550     6.3430    -0.9670 H     1 <1>   0.0800 
 43 H       -0.8840     6.8040    -0.2150 H     1 <1>   0.0800 
@<TRIPOS>BOND
  1   1   2  2   
  2   2   3  am  
  3   2   4  1   
  4   3   5  1   
  5   3   6  1   
  6   4   7  ar  
  7   4   8  ar  
  8   5   9  1   
  9   5  23  1   
 10   5  24  1   
 11   6  10  1   
 12   6  25  1   
 13   6  26  1   
 14   7  11  ar  
 15   7  12  1   
 16   8  13  ar  
 17   8  27  1   
 18   9  14  1   
 19   9  15  2   
 20  10  16  1   
 21  10  28  1   
 22  10  29  1   
 23  11  17  ar  
 24  11  30  1   
 25  12  31  1   
 26  12  32  1   
 27  12  33  1   
 28  13  17  ar  
 29  13  34  1   
 30  14  18  2   
 31  15  19  1   
 32  15  20  1   
 33  16  35  1   
 34  17  21  1   
 35  18  19  1   
 36  18  36  1   
 37  19  37  1   
 38  20  38  1   
 39  20  39  1   
 40  20  40  1   
 41  21  22  1   
 42  22  41  1   
 43  22  42  1   
 44  22  43  1   
@<TRIPOS>SUBSTRUCTURE
  1 ****   2 GROUP 4 **** **** 0

# MOE 2024.06 (io_trps.svl 2023.06)
