@<TRIPOS>MOLECULE
NONAME
44 45 1 0 0 
SMALL
USER_CHARGES


@<TRIPOS>ATOM
  1 S        0.5910     0.1280     0.7040 S.o2  1 <1>   1.3330 
  2 O        0.5150     0.8410     1.9590 O.2   1 <1>  -0.6500 
  3 O        0.6870    -1.3160     0.7110 O.2   1 <1>  -0.6500 
  4 N       -0.7660     0.5450    -0.2260 N.am  1 <1>  -0.8490 
  5 C        1.9610     0.8010    -0.2340 C.3   1 <1>  -0.0550 
  6 C       -0.9990    -0.3570    -1.3590 C.3   1 <1>   0.1160 
  7 C       -1.9810     0.6540     0.5850 C.3   1 <1>   0.1160 
  8 C        3.3220     0.6300     0.4650 C.3   1 <1>  -0.0800 
  9 C        4.4690     1.1690    -0.3630 C.3   1 <1>   0.2200 
 10 C        3.7460    -0.8200     0.6850 C.3   1 <1>   0.1200 
 11 N        4.6340     2.6240    -0.1630 N.am  1 <1>  -0.7300 
 12 C        5.6590     0.3590     0.1390 C.3   1 <1>   0.1200 
 13 O        5.1410    -0.8330     0.6550 O.3   1 <1>  -0.5600 
 14 C        4.1430     3.6070    -0.9730 C.2   1 <1>   0.6160 
 15 O        3.4690     3.2520    -1.9230 O.2   1 <1>  -0.5700 
 16 C        4.3830     5.0110    -0.7340 C.2   1 <1>   0.0290 
 17 C        5.1990     5.4430     0.3690 C.2   1 <1>   0.6160 
 18 C        3.8460     5.9850    -1.5460 C.2   1 <1>  -0.1500 
 19 O        5.7420     4.7000     1.1780 O.2   1 <1>  -0.5700 
 20 N        5.4030     6.7840     0.5540 N.am  1 <1>  -0.5390 
 21 C        4.0870     7.3540    -1.3080 C.2   1 <1>  -0.1500 
 22 C        4.8640     7.7390    -0.2600 C.2   1 <1>  -0.0290 
 23 C        5.1730     9.1860     0.0660 C.3   1 <1>  -0.1020 
 24 H        1.9960     0.3350    -1.1980 H     1 <1>   0.0800 
 25 H        1.7860     1.8480    -0.3870 H     1 <1>   0.0800 
 26 H       -1.8170     0.0060    -1.9570 H     1 <1>   0.0800 
 27 H       -1.2340    -1.3490    -1.0080 H     1 <1>   0.0800 
 28 H       -0.1220    -0.4080    -1.9800 H     1 <1>   0.0800 
 29 H       -2.8180     0.9370    -0.0300 H     1 <1>   0.0800 
 30 H       -1.8510     1.4080     1.3430 H     1 <1>   0.0800 
 31 H       -2.1950    -0.2870     1.0660 H     1 <1>   0.0800 
 32 H        3.3030     1.1180     1.4250 H     1 <1>   0.0800 
 33 H        4.3190     0.9510    -1.4080 H     1 <1>   0.0800 
 34 H        3.3980    -1.4580    -0.1100 H     1 <1>   0.0800 
 35 H        3.4100    -1.2060     1.6320 H     1 <1>   0.0800 
 36 H        5.1710     2.9230     0.6640 H     1 <1>   0.3700 
 37 H        6.1660     0.8650     0.9410 H     1 <1>   0.0800 
 38 H        6.3470     0.1240    -0.6540 H     1 <1>   0.0800 
 39 H        3.2270     5.7190    -2.3880 H     1 <1>   0.1500 
 40 H        5.9940     7.0210     1.3530 H     1 <1>   0.3700 
 41 H        3.6420     8.0750    -1.9730 H     1 <1>   0.1500 
 42 H        4.8160     9.4260     1.0510 H     1 <1>   0.0800 
 43 H        4.6970     9.8440    -0.6390 H     1 <1>   0.0800 
 44 H        6.2340     9.3540     0.0270 H     1 <1>   0.0800 
@<TRIPOS>BOND
  1   1   2  2   
  2   1   3  2   
  3   1   4  am  
  4   1   5  1   
  5   4   6  1   
  6   4   7  1   
  7   5   8  1   
  8   5  24  1   
  9   5  25  1   
 10   6  26  1   
 11   6  27  1   
 12   6  28  1   
 13   7  29  1   
 14   7  30  1   
 15   7  31  1   
 16   8   9  1   
 17   8  10  1   
 18   8  32  1   
 19   9  11  1   
 20   9  12  1   
 21   9  33  1   
 22  10  13  1   
 23  10  34  1   
 24  10  35  1   
 25  11  14  am  
 26  11  36  1   
 27  12  13  1   
 28  12  37  1   
 29  12  38  1   
 30  14  15  2   
 31  14  16  1   
 32  16  17  1   
 33  16  18  2   
 34  17  19  2   
 35  17  20  am  
 36  18  21  1   
 37  18  39  1   
 38  20  22  1   
 39  20  40  1   
 40  21  22  2   
 41  21  41  1   
 42  22  23  1   
 43  23  42  1   
 44  23  43  1   
 45  23  44  1   
@<TRIPOS>SUBSTRUCTURE
  1 ****  11 GROUP 4 **** **** 0

# MOE 2024.06 (io_trps.svl 2023.06)
