@<TRIPOS>MOLECULE
NONAME
48 51 1 0 0 
SMALL
USER_CHARGES


@<TRIPOS>ATOM
  1 O        0.9410    -0.2860     1.5450 O.2   1 <1>  -0.5700 
  2 C        1.5380    -0.9580     0.7180 C.2   1 <1>   0.5440 
  3 N        2.3240    -0.3410    -0.2290 N.am  1 <1>  -0.4200 
  4 C        1.4500    -2.3910     0.6930 C.ar  1 <1>   0.0860 
  5 C        2.9850    -1.1050    -1.1610 C.2   1 <1>   0.4500 
  6 C        2.4530     1.1390    -0.2390 C.3   1 <1>   0.0600 
  7 C        2.1660    -3.0660    -0.3010 C.ar  1 <1>   0.1790 
  8 C        0.6960    -3.1410     1.5980 C.ar  1 <1>  -0.1500 
  9 N        2.9320    -2.3810    -1.2250 N.2   1 <1>  -0.6290 
 10 C        2.1090    -4.4520    -0.3670 C.ar  1 <1>  -0.1500 
 11 C        0.6510    -4.5160     1.5140 C.ar  1 <1>  -0.1500 
 12 C        1.3510    -5.2060     0.5190 C.ar  1 <1>   0.0860 
 13 C        1.2970    -6.6520     0.4160 C.2   1 <1>   0.5440 
 14 O        2.3280    -7.2870     0.3070 O.2   1 <1>  -0.5700 
 15 N        0.1010    -7.3320     0.4240 N.am  1 <1>  -0.6600 
 16 C       -1.2160    -6.7310     0.0940 C.3   1 <1>   0.1400 
 17 C        0.0370    -8.8120     0.3170 C.3   1 <1>   0.1400 
 18 C       -2.0280    -7.8780    -0.5040 C.3   1 <1>   0.2000 
 19 C       -1.4420    -9.1440     0.1140 C.3   1 <1>  -0.0800 
 20 O       -3.3740    -7.7680    -0.1940 O.3   1 <1>  -0.6800 
 21 C       -1.6790   -10.4000    -0.7360 C.3   1 <1>   0.0210 
 22 C       -1.0050   -11.6080    -0.1160 C.2   1 <1>   0.1080 
 23 N       -1.3440   -12.0840     1.0410 N.2   1 <1>  -0.7070 
 24 C        0.0400   -12.3210    -0.6930 C.2   1 <1>  -0.1500 
 25 N       -0.5160   -13.1290     1.2340 N.pl3 1 <1>   0.3000 
 26 C        0.3330   -13.2910     0.1980 C.2   1 <1>  -0.3320 
 27 C        1.3880   -14.3790     0.1220 C.3   1 <1>  -0.0600 
 28 H        3.5830    -0.5700    -1.8780 H     1 <1>   0.0600 
 29 H        3.1020     1.4610    -1.0340 H     1 <1>   0.0800 
 30 H        2.8550     1.4700     0.7020 H     1 <1>   0.0800 
 31 H        1.4810     1.5820    -0.3750 H     1 <1>   0.0800 
 32 H        0.1490    -2.6260     2.3710 H     1 <1>   0.1500 
 33 H        2.6740    -4.9540    -1.1320 H     1 <1>   0.1500 
 34 H        0.0730    -5.0800     2.2270 H     1 <1>   0.1500 
 35 H       -1.6770    -6.3720     0.9970 H     1 <1>   0.0800 
 36 H       -1.1070    -5.9290    -0.6170 H     1 <1>   0.0800 
 37 H        0.6240    -9.1290    -0.5290 H     1 <1>   0.0800 
 38 H        0.4250    -9.2770     1.2080 H     1 <1>   0.0800 
 39 H       -1.9230    -7.8750    -1.5750 H     1 <1>   0.0800 
 40 H       -1.8650    -9.2980     1.0920 H     1 <1>   0.0800 
 41 H       -3.5230    -7.9810     0.7480 H     1 <1>   0.4000 
 42 H       -1.3010   -10.2520    -1.7310 H     1 <1>   0.0800 
 43 H       -2.7350   -10.5940    -0.8050 H     1 <1>   0.0800 
 44 H        0.4990   -12.1200    -1.6450 H     1 <1>   0.1500 
 45 H       -0.5560   -13.7080     2.0810 H     1 <1>   0.2700 
 46 H        1.9360   -14.2980    -0.8000 H     1 <1>   0.0800 
 47 H        0.9270   -15.3490     0.1620 H     1 <1>   0.0800 
 48 H        2.0800   -14.2840     0.9410 H     1 <1>   0.0800 
@<TRIPOS>BOND
  1   1   2  2   
  2   2   3  am  
  3   2   4  1   
  4   3   5  1   
  5   3   6  1   
  6   4   7  ar  
  7   4   8  ar  
  8   5   9  2   
  9   5  28  1   
 10   6  29  1   
 11   6  30  1   
 12   6  31  1   
 13   7   9  1   
 14   7  10  ar  
 15   8  11  ar  
 16   8  32  1   
 17  10  12  ar  
 18  10  33  1   
 19  11  12  ar  
 20  11  34  1   
 21  12  13  1   
 22  13  14  2   
 23  13  15  am  
 24  15  16  1   
 25  15  17  1   
 26  16  18  1   
 27  16  35  1   
 28  16  36  1   
 29  17  19  1   
 30  17  37  1   
 31  17  38  1   
 32  18  19  1   
 33  18  20  1   
 34  18  39  1   
 35  19  21  1   
 36  19  40  1   
 37  20  41  1   
 38  21  22  1   
 39  21  42  1   
 40  21  43  1   
 41  22  23  2   
 42  22  24  1   
 43  23  25  1   
 44  24  26  2   
 45  24  44  1   
 46  25  26  1   
 47  25  45  1   
 48  26  27  1   
 49  27  46  1   
 50  27  47  1   
 51  27  48  1   
@<TRIPOS>SUBSTRUCTURE
  1 ****  13 GROUP 4 **** **** 0

# MOE 2024.06 (io_trps.svl 2023.06)
