@<TRIPOS>MOLECULE
NONAME
57 60 1 0 0 
SMALL
USER_CHARGES


@<TRIPOS>ATOM
  1 O        0.1300     1.0680    -1.2930 O.2   1 <1>  -0.5700 
  2 C        0.0900     2.2680    -1.0970 C.2   1 <1>   0.5440 
  3 N       -1.1350     2.9050    -1.0950 N.am  1 <1>  -0.6600 
  4 C        1.3340     2.9810    -0.8610 C.ar  1 <1>   0.0860 
  5 C       -1.3950     4.2110    -0.4300 C.3   1 <1>   0.1400 
  6 C       -2.3590     2.2570    -1.6470 C.3   1 <1>   0.1400 
  7 C        2.2720     2.4910     0.0460 C.ar  1 <1>  -0.1500 
  8 C        1.6460     4.1600    -1.5370 C.ar  1 <1>  -0.1500 
  9 C       -2.4040     4.0090     0.7020 C.3   1 <1>  -0.1600 
 10 C       -3.3790     2.0490    -0.5260 C.3   1 <1>  -0.1600 
 11 C        3.4680     3.1480     0.2860 C.ar  1 <1>  -0.1430 
 12 C        2.8320     4.8290    -1.3040 C.ar  1 <1>  -0.1500 
 13 C       -3.7000     3.3580     0.1990 C.3   1 <1>   0.4180 
 14 C        3.7420     4.3250    -0.3920 C.ar  1 <1>  -0.1500 
 15 C        4.4790     2.5800     1.2790 C.3   1 <1>   0.2390 
 16 O       -4.3060     4.2000    -0.7530 O.3   1 <1>  -0.5600 
 17 C       -4.6590     3.0840     1.3550 C.2   1 <1>  -0.2880 
 18 N        5.8200     2.4120     0.6720 N.pl3 1 <1>   0.3140 
 19 C       -5.0740     5.2690    -0.2740 C.3   1 <1>   0.1200 
 20 C       -5.8360     3.6930     1.5140 C.2   1 <1>  -0.2760 
 21 N        6.8840     3.0970     1.1400 N.2   1 <1>  -0.7070 
 22 C        6.1790     1.5890    -0.3430 C.2   1 <1>  -0.3320 
 23 C       -6.2790     4.7550     0.5250 C.3   1 <1>  -0.0220 
 24 C       -6.8140     3.3980     2.6370 C.3   1 <1>  -0.1020 
 25 C        7.8820     2.7020     0.4170 C.2   1 <1>   0.1080 
 26 C        7.5050     1.7570    -0.5290 C.2   1 <1>  -0.1500 
 27 C        5.2340     0.6730    -1.1040 C.3   1 <1>  -0.0600 
 28 C        9.2820     3.2330     0.6120 C.3   1 <1>  -0.0590 
 29 H       -1.7890     4.9030    -1.1550 H     1 <1>   0.0800 
 30 H       -0.4890     4.6240    -0.0230 H     1 <1>   0.0800 
 31 H       -2.1200     1.3100    -2.1010 H     1 <1>   0.0800 
 32 H       -2.7790     2.8920    -2.4080 H     1 <1>   0.0800 
 33 H        2.0430     1.5720     0.5590 H     1 <1>   0.1500 
 34 H        0.9470     4.5480    -2.2570 H     1 <1>   0.1500 
 35 H       -2.6210     4.9470     1.1770 H     1 <1>   0.0800 
 36 H       -1.9590     3.3740     1.4450 H     1 <1>   0.0800 
 37 H       -2.9790     1.3350     0.1710 H     1 <1>   0.0800 
 38 H       -4.2860     1.6370    -0.9300 H     1 <1>   0.0800 
 39 H        3.0550     5.7390    -1.8340 H     1 <1>   0.1500 
 40 H        4.6700     4.8470    -0.2180 H     1 <1>   0.1500 
 41 H        4.1580     1.6230     1.6430 H     1 <1>   0.0800 
 42 H        4.5730     3.2470     2.1160 H     1 <1>   0.0800 
 43 H       -4.2900     2.3340     2.0310 H     1 <1>   0.1500 
 44 H       -5.4050     5.8420    -1.1220 H     1 <1>   0.0800 
 45 H       -4.4510     5.8910     0.3430 H     1 <1>   0.0800 
 46 H       -7.0120     4.3450    -0.1470 H     1 <1>   0.0800 
 47 H       -6.7250     5.5850     1.0420 H     1 <1>   0.0800 
 48 H       -6.9810     4.2810     3.2270 H     1 <1>   0.0800 
 49 H       -6.4290     2.6260     3.2790 H     1 <1>   0.0800 
 50 H       -7.7530     3.0660     2.2310 H     1 <1>   0.0800 
 51 H        8.1520     1.2820    -1.2430 H     1 <1>   0.1500 
 52 H        4.7370     0.0000    -0.4290 H     1 <1>   0.0800 
 53 H        5.7830     0.0920    -1.8240 H     1 <1>   0.0800 
 54 H        4.4960     1.2530    -1.6300 H     1 <1>   0.0800 
 55 H        9.6100     3.0150     1.6110 H     1 <1>   0.0800 
 56 H        9.2830     4.2970     0.4680 H     1 <1>   0.0800 
 57 H        9.9570     2.7800    -0.0890 H     1 <1>   0.0800 
@<TRIPOS>BOND
  1   1   2  2   
  2   2   3  am  
  3   2   4  1   
  4   3   5  1   
  5   3   6  1   
  6   4   7  ar  
  7   4   8  ar  
  8   5   9  1   
  9   5  29  1   
 10   5  30  1   
 11   6  10  1   
 12   6  31  1   
 13   6  32  1   
 14   7  11  ar  
 15   7  33  1   
 16   8  12  ar  
 17   8  34  1   
 18   9  13  1   
 19   9  35  1   
 20   9  36  1   
 21  10  13  1   
 22  10  37  1   
 23  10  38  1   
 24  11  14  ar  
 25  11  15  1   
 26  12  14  ar  
 27  12  39  1   
 28  13  16  1   
 29  13  17  1   
 30  14  40  1   
 31  15  18  1   
 32  15  41  1   
 33  15  42  1   
 34  16  19  1   
 35  17  20  2   
 36  17  43  1   
 37  18  21  1   
 38  18  22  1   
 39  19  23  1   
 40  19  44  1   
 41  19  45  1   
 42  20  23  1   
 43  20  24  1   
 44  21  25  2   
 45  22  26  2   
 46  22  27  1   
 47  23  46  1   
 48  23  47  1   
 49  24  48  1   
 50  24  49  1   
 51  24  50  1   
 52  25  26  1   
 53  25  28  1   
 54  26  51  1   
 55  27  52  1   
 56  27  53  1   
 57  27  54  1   
 58  28  55  1   
 59  28  56  1   
 60  28  57  1   
@<TRIPOS>SUBSTRUCTURE
  1 ****   4 GROUP 4 **** **** 0

# MOE 2024.06 (io_trps.svl 2023.06)
