@<TRIPOS>MOLECULE
NONAME
50 52 1 0 0 
SMALL
USER_CHARGES


@<TRIPOS>ATOM
  1 CL       1.9970     1.0610    -2.6260 Cl    1 <1>  -0.1770 
  2 C        2.4130     1.5530    -1.0010 C.ar  1 <1>   0.1770 
  3 C        2.6420     2.8910    -0.7080 C.ar  1 <1>  -0.1440 
  4 C        2.5030     0.5650    -0.0390 C.ar  1 <1>  -0.1500 
  5 C        2.9750     3.2500     0.6060 C.ar  1 <1>   0.0860 
  6 C        2.5120     3.9290    -1.8230 C.3   1 <1>  -0.0970 
  7 C        2.8290     0.9130     1.2570 C.ar  1 <1>  -0.1500 
  8 C        3.2490     4.6160     1.0120 C.2   1 <1>   0.5440 
  9 C        3.0580     2.2400     1.5670 C.ar  1 <1>  -0.1500 
 10 O        2.3580     5.4430     1.0110 O.2   1 <1>  -0.5700 
 11 N        4.5170     5.0130     1.3710 N.am  1 <1>  -0.6600 
 12 C        5.7630     4.2570     1.0230 C.3   1 <1>   0.1400 
 13 C        4.7730     6.3150     2.0430 C.3   1 <1>   0.1400 
 14 C        6.3970     4.7590    -0.2890 C.3   1 <1>   0.3430 
 15 C        4.8840     7.4550     1.0230 C.3   1 <1>  -0.1600 
 16 N        6.5600     6.2450    -0.3350 N.4   1 <1>  -0.9590 
 17 C        5.3130     7.0380    -0.3830 C.3   1 <1>   0.3430 
 18 C        7.5880     6.6380    -1.3330 C.3   1 <1>   0.4860 
 19 C        8.4020     7.8080    -0.7950 C.ar  1 <1>  -0.1430 
 20 C        9.1240     7.6260     0.3910 C.ar  1 <1>  -0.1790 
 21 C        8.4470     9.0190    -1.4670 C.ar  1 <1>  -0.1500 
 22 C        9.0090     6.3660     1.0920 C.2   1 <1>   0.9790 
 23 C        9.8870     8.6860     0.8730 C.ar  1 <1>  -0.1500 
 24 C        9.2110    10.0610    -0.9700 C.ar  1 <1>  -0.1500 
 25 O        9.4310     5.3170     0.5870 O.co2 1 <1>  -0.9000 
 26 O        8.1330     6.2720     1.9670 O.co2 1 <1>  -0.9000 
 27 C        9.9310     9.8920     0.1990 C.ar  1 <1>  -0.1500 
 28 H        2.3170    -0.4600    -0.3060 H     1 <1>   0.1500 
 29 H        3.0740     3.6220    -2.6870 H     1 <1>   0.0800 
 30 H        2.8640     4.8990    -1.5290 H     1 <1>   0.0800 
 31 H        1.4780     4.0220    -2.1050 H     1 <1>   0.0800 
 32 H        2.8990     0.1550     2.0200 H     1 <1>   0.1500 
 33 H        3.3060     2.5100     2.5800 H     1 <1>   0.1500 
 34 H        5.5540     3.2070     0.9270 H     1 <1>   0.0800 
 35 H        6.4830     4.3580     1.8180 H     1 <1>   0.0800 
 36 H        5.6850     6.2500     2.6150 H     1 <1>   0.0800 
 37 H        3.9760     6.5260     2.7370 H     1 <1>   0.0800 
 38 H        5.8010     4.4290    -1.1220 H     1 <1>   0.0800 
 39 H        7.3710     4.3000    -0.3690 H     1 <1>   0.0800 
 40 H        5.5650     8.1970     1.4030 H     1 <1>   0.0800 
 41 H        3.9200     7.9250     0.9460 H     1 <1>   0.0800 
 42 H        7.0060     6.4440     0.5950 H     1 <1>   0.4500 
 43 H        5.4660     7.9260    -0.9740 H     1 <1>   0.0800 
 44 H        4.5290     6.4550    -0.8370 H     1 <1>   0.0800 
 45 H        7.1280     6.8910    -2.2730 H     1 <1>   0.0800 
 46 H        8.2680     5.8160    -1.4930 H     1 <1>   0.0800 
 47 H        7.8980     9.1640    -2.3800 H     1 <1>   0.1500 
 48 H       10.4410     8.5570     1.7870 H     1 <1>   0.1500 
 49 H        9.2490    11.0020    -1.4910 H     1 <1>   0.1500 
 50 H       10.5270    10.7000     0.5870 H     1 <1>   0.1500 
@<TRIPOS>BOND
  1   1   2  1   
  2   2   3  ar  
  3   2   4  ar  
  4   3   5  ar  
  5   3   6  1   
  6   4   7  ar  
  7   4  28  1   
  8   5   8  1   
  9   5   9  ar  
 10   6  29  1   
 11   6  30  1   
 12   6  31  1   
 13   7   9  ar  
 14   7  32  1   
 15   8  10  2   
 16   8  11  am  
 17   9  33  1   
 18  11  12  1   
 19  11  13  1   
 20  12  14  1   
 21  12  34  1   
 22  12  35  1   
 23  13  15  1   
 24  13  36  1   
 25  13  37  1   
 26  14  16  1   
 27  14  38  1   
 28  14  39  1   
 29  15  17  1   
 30  15  40  1   
 31  15  41  1   
 32  16  17  1   
 33  16  18  1   
 34  16  42  1   
 35  17  43  1   
 36  17  44  1   
 37  18  19  1   
 38  18  45  1   
 39  18  46  1   
 40  19  20  ar  
 41  19  21  ar  
 42  20  22  1   
 43  20  23  ar  
 44  21  24  ar  
 45  21  47  1   
 46  22  25  ar  
 47  22  26  ar  
 48  23  27  ar  
 49  23  48  1   
 50  24  27  ar  
 51  24  49  1   
 52  27  50  1   
@<TRIPOS>SUBSTRUCTURE
  1 ****  14 GROUP 4 **** **** 0

# MOE 2024.06 (io_trps.svl 2023.06)
