@<TRIPOS>MOLECULE
NONAME
52 55 1 0 0 
SMALL
USER_CHARGES


@<TRIPOS>ATOM
  1 N        1.3070     0.5430     1.4600 N.ar  1 <1>  -0.6200 
  2 C        0.5770     1.5520     1.9240 C.ar  1 <1>   0.4760 
  3 C        1.8210     0.7600     0.2720 C.ar  1 <1>   0.1660 
  4 N        0.3370     2.7170     1.3390 N.ar  1 <1>  -0.6200 
  5 C       -0.0540     1.3590     3.2820 C.3   1 <1>  -0.0960 
  6 C        1.6470     1.9160    -0.4250 C.ar  1 <1>  -0.1430 
  7 C        2.6860    -0.2250    -0.4750 C.3   1 <1>   0.1430 
  8 C        0.8780     2.8950     0.1520 C.ar  1 <1>   0.1600 
  9 C        2.3720     1.8820    -1.7470 C.3   1 <1>  -0.0160 
 10 C        3.7390    -0.7800     0.5000 C.3   1 <1>   0.3430 
 11 C        1.8220    -1.3720    -1.0390 C.3   1 <1>  -0.1600 
 12 C        3.2950     0.6550    -1.6010 C.3   1 <1>  -0.1600 
 13 N        4.5790    -1.8680    -0.1230 N.4   1 <1>  -0.9590 
 14 C        2.6830    -2.5290    -1.5770 C.3   1 <1>  -0.1600 
 15 C        3.7080    -3.0080    -0.5460 C.3   1 <1>   0.3430 
 16 C        5.6440    -2.3560     0.8050 C.3   1 <1>   0.3430 
 17 C        6.6920    -1.2790     1.1060 C.3   1 <1>  -0.1600 
 18 C        7.4640    -0.8040    -0.1350 C.3   1 <1>   0.0960 
 19 N        8.3760     0.2930     0.2370 N.pl3 1 <1>   0.0480 
 20 C        9.6910     0.2430     0.5690 C.2   1 <1>   0.0060 
 21 C        8.0450     1.5930     0.3410 C.2   1 <1>  -0.3020 
 22 N       10.1910     1.3950     0.8690 N.2   1 <1>  -0.5650 
 23 C       10.5160    -1.0280     0.5950 C.3   1 <1>  -0.0600 
 24 C        9.1610     2.2470     0.7260 C.2   1 <1>   0.0770 
 25 H        0.0580     0.3440     3.6130 H     1 <1>   0.0800 
 26 H       -1.1010     1.5950     3.2270 H     1 <1>   0.0800 
 27 H        0.4160     2.0160     3.9890 H     1 <1>   0.0800 
 28 H        0.7030     3.8300    -0.3540 H     1 <1>   0.1500 
 29 H        2.9310     2.7860    -1.9200 H     1 <1>   0.0800 
 30 H        1.6610     1.7360    -2.5430 H     1 <1>   0.0800 
 31 H        3.2260    -1.1710     1.3640 H     1 <1>   0.0800 
 32 H        4.3590     0.0360     0.8310 H     1 <1>   0.0800 
 33 H        1.1710    -1.0010    -1.8130 H     1 <1>   0.0800 
 34 H        1.1910    -1.7500    -0.2510 H     1 <1>   0.0800 
 35 H        3.3940     0.1350    -2.5380 H     1 <1>   0.0800 
 36 H        4.2660     1.0090    -1.3000 H     1 <1>   0.0800 
 37 H        5.0110    -1.4890    -0.9740 H     1 <1>   0.4500 
 38 H        3.1900    -2.2350    -2.4800 H     1 <1>   0.0800 
 39 H        2.0380    -3.3530    -1.8330 H     1 <1>   0.0800 
 40 H        3.1900    -3.4080     0.3120 H     1 <1>   0.0800 
 41 H        4.3070    -3.7950    -0.9760 H     1 <1>   0.0800 
 42 H        6.1390    -3.2090     0.3680 H     1 <1>   0.0800 
 43 H        5.1930    -2.6780     1.7310 H     1 <1>   0.0800 
 44 H        7.4000    -1.6990     1.7990 H     1 <1>   0.0800 
 45 H        6.2320    -0.4430     1.6010 H     1 <1>   0.0800 
 46 H        6.7950    -0.4290    -0.8870 H     1 <1>   0.0800 
 47 H        8.0390    -1.6080    -0.5580 H     1 <1>   0.0800 
 48 H        7.0660     1.9870     0.1450 H     1 <1>   0.1500 
 49 H       10.0940    -1.7340     1.2860 H     1 <1>   0.0800 
 50 H       11.5180    -0.8000     0.9110 H     1 <1>   0.0800 
 51 H       10.5610    -1.4610    -0.3870 H     1 <1>   0.0800 
 52 H        9.2830     3.3020     0.9120 H     1 <1>   0.1500 
@<TRIPOS>BOND
  1   1   2  ar  
  2   1   3  ar  
  3   2   4  ar  
  4   2   5  1   
  5   3   6  ar  
  6   3   7  1   
  7   4   8  ar  
  8   5  25  1   
  9   5  26  1   
 10   5  27  1   
 11   6   8  ar  
 12   6   9  1   
 13   7  10  1   
 14   7  11  1   
 15   7  12  1   
 16   8  28  1   
 17   9  12  1   
 18   9  29  1   
 19   9  30  1   
 20  10  13  1   
 21  10  31  1   
 22  10  32  1   
 23  11  14  1   
 24  11  33  1   
 25  11  34  1   
 26  12  35  1   
 27  12  36  1   
 28  13  15  1   
 29  13  16  1   
 30  13  37  1   
 31  14  15  1   
 32  14  38  1   
 33  14  39  1   
 34  15  40  1   
 35  15  41  1   
 36  16  17  1   
 37  16  42  1   
 38  16  43  1   
 39  17  18  1   
 40  17  44  1   
 41  17  45  1   
 42  18  19  1   
 43  18  46  1   
 44  18  47  1   
 45  19  20  1   
 46  19  21  1   
 47  20  22  2   
 48  20  23  1   
 49  21  24  2   
 50  21  48  1   
 51  22  24  1   
 52  23  49  1   
 53  23  50  1   
 54  23  51  1   
 55  24  52  1   
@<TRIPOS>SUBSTRUCTURE
  1 ****  10 GROUP 4 **** **** 0

# MOE 2024.06 (io_trps.svl 2023.06)
