@<TRIPOS>MOLECULE
NONAME
63 66 1 0 0 
SMALL
USER_CHARGES


@<TRIPOS>ATOM
  1 O       -0.3130    -0.9560     0.2730 O.2   1 <1>  -0.5700 
  2 C       -1.0040    -0.0390    -0.1100 C.2   1 <1>   0.5690 
  3 N       -2.2790     0.1500     0.3840 N.am  1 <1>  -0.6600 
  4 C       -0.3860     0.8820    -1.1790 C.3   1 <1>   0.1710 
  5 C       -3.1590     1.2690    -0.0730 C.3   1 <1>   0.2200 
  6 C       -2.7970    -0.7700     1.4460 C.3   1 <1>   0.0600 
  7 N       -0.2360     2.3170    -0.7980 N.3   1 <1>  -0.8100 
  8 C       -3.2750     2.3830     0.9640 C.3   1 <1>  -0.1600 
  9 C       -4.6030     0.8580    -0.3660 C.3   1 <1>  -0.1600 
 10 C        0.6450     2.4450     0.3900 C.3   1 <1>   0.1100 
 11 C        0.3440     3.0890    -1.9200 C.3   1 <1>   0.1100 
 12 C       -4.5590     3.1310     0.5820 C.3   1 <1>  -0.0800 
 13 C       -5.3990     2.1670    -0.2640 C.3   1 <1>  -0.0800 
 14 C        0.8730     3.9090     0.8090 C.3   1 <1>   0.2090 
 15 C        0.5370     4.5760    -1.5700 C.3   1 <1>   0.2090 
 16 C       -5.4530     3.5460     1.7590 C.3   1 <1>  -0.1600 
 17 C       -6.7550     2.0560     0.4510 C.3   1 <1>  -0.1600 
 18 N        1.3710     4.7320    -0.3390 N.pl3 1 <1>  -0.8380 
 19 C       -6.8920     3.3430     1.2710 C.3   1 <1>   0.4230 
 20 C        2.4780     5.5510    -0.2630 C.ar  1 <1>   0.7200 
 21 N       -7.3290     4.4850     0.4030 N.4   1 <1>  -0.9590 
 22 N        2.9040     6.1090    -1.3980 N.ar  1 <1>  -0.6200 
 23 N        3.0310     5.7210     0.9380 N.ar  1 <1>  -0.6200 
 24 C       -7.3500     5.7930     1.1360 C.3   1 <1>   0.2630 
 25 C       -8.6790     4.2650    -0.2090 C.3   1 <1>   0.2630 
 26 C        3.9540     6.8880    -1.3100 C.ar  1 <1>   0.1600 
 27 C        4.0780     6.5050     0.9970 C.ar  1 <1>   0.1600 
 28 C        4.5900     7.1240    -0.1170 C.ar  1 <1>  -0.1500 
 29 H       -0.9980     0.8140    -2.0600 H     1 <1>   0.0800 
 30 H        0.5810     0.4850    -1.4320 H     1 <1>   0.0800 
 31 H       -2.7680     1.7050    -0.9750 H     1 <1>   0.0800 
 32 H       -3.4200    -0.2410     2.1430 H     1 <1>   0.0800 
 33 H       -1.9830    -1.2110     1.9950 H     1 <1>   0.0800 
 34 H       -3.3660    -1.5610     0.9890 H     1 <1>   0.0800 
 35 H       -3.3510     1.9630     1.9490 H     1 <1>   0.0800 
 36 H       -2.4170     3.0300     0.9230 H     1 <1>   0.0800 
 37 H       -4.6870     0.4210    -1.3450 H     1 <1>   0.0800 
 38 H       -4.9560     0.1550     0.3630 H     1 <1>   0.0800 
 39 H        0.2070     1.9200     1.2210 H     1 <1>   0.0800 
 40 H        1.6030     1.9970     0.1840 H     1 <1>   0.0800 
 41 H        1.3010     2.6790    -2.1930 H     1 <1>   0.0800 
 42 H       -0.3060     3.0190    -2.7750 H     1 <1>   0.0800 
 43 H       -4.3050     3.9900    -0.0180 H     1 <1>   0.0800 
 44 H       -5.5270     2.5870    -1.2480 H     1 <1>   0.0800 
 45 H        1.5680     3.9220     1.6290 H     1 <1>   0.0800 
 46 H       -0.0540     4.3250     1.1600 H     1 <1>   0.0800 
 47 H       -0.4250     5.0240    -1.3980 H     1 <1>   0.0800 
 48 H        0.9810     5.0740    -2.4130 H     1 <1>   0.0800 
 49 H       -5.2270     4.5330     2.1150 H     1 <1>   0.0800 
 50 H       -5.2990     2.8680     2.5810 H     1 <1>   0.0800 
 51 H       -6.7260     1.2390     1.1510 H     1 <1>   0.0800 
 52 H       -7.5620     1.8610    -0.2290 H     1 <1>   0.0800 
 53 H       -7.5750     3.2150     2.0970 H     1 <1>   0.0800 
 54 H       -6.6340     4.5470    -0.3540 H     1 <1>   0.4500 
 55 H       -8.0020     5.7320     1.9920 H     1 <1>   0.0800 
 56 H       -7.7070     6.5770     0.4870 H     1 <1>   0.0800 
 57 H       -6.3620     6.0610     1.4710 H     1 <1>   0.0800 
 58 H       -9.4170     4.1000     0.5590 H     1 <1>   0.0800 
 59 H       -8.6670     3.4120    -0.8660 H     1 <1>   0.0800 
 60 H       -8.9710     5.1270    -0.7870 H     1 <1>   0.0800 
 61 H        4.3160     7.3500    -2.2120 H     1 <1>   0.1500 
 62 H        4.5410     6.6580     1.9570 H     1 <1>   0.1500 
 63 H        5.4490     7.7640    -0.0570 H     1 <1>   0.1500 
@<TRIPOS>BOND
  1   1   2  2   
  2   2   3  am  
  3   2   4  1   
  4   3   5  1   
  5   3   6  1   
  6   4   7  1   
  7   4  29  1   
  8   4  30  1   
  9   5   8  1   
 10   5   9  1   
 11   5  31  1   
 12   6  32  1   
 13   6  33  1   
 14   6  34  1   
 15   7  10  1   
 16   7  11  1   
 17   8  12  1   
 18   8  35  1   
 19   8  36  1   
 20   9  13  1   
 21   9  37  1   
 22   9  38  1   
 23  10  14  1   
 24  10  39  1   
 25  10  40  1   
 26  11  15  1   
 27  11  41  1   
 28  11  42  1   
 29  12  13  1   
 30  12  16  1   
 31  12  43  1   
 32  13  17  1   
 33  13  44  1   
 34  14  18  1   
 35  14  45  1   
 36  14  46  1   
 37  15  18  1   
 38  15  47  1   
 39  15  48  1   
 40  16  19  1   
 41  16  49  1   
 42  16  50  1   
 43  17  19  1   
 44  17  51  1   
 45  17  52  1   
 46  18  20  1   
 47  19  21  1   
 48  19  53  1   
 49  20  22  ar  
 50  20  23  ar  
 51  21  24  1   
 52  21  25  1   
 53  21  54  1   
 54  22  26  ar  
 55  23  27  ar  
 56  24  55  1   
 57  24  56  1   
 58  24  57  1   
 59  25  58  1   
 60  25  59  1   
 61  25  60  1   
 62  26  28  ar  
 63  26  61  1   
 64  27  28  ar  
 65  27  62  1   
 66  28  63  1   
@<TRIPOS>SUBSTRUCTURE
  1 ****   7 GROUP 4 **** **** 0

# MOE 2024.06 (io_trps.svl 2023.06)
