@<TRIPOS>MOLECULE
NONAME
51 54 1 0 0 
SMALL
USER_CHARGES


@<TRIPOS>ATOM
  1 S        0.5110     1.0000     1.7430 S.3   1 <1>  -0.0800 
  2 C        0.2140    -0.5280     0.9180 C.2   1 <1>   0.3250 
  3 C       -1.1480     1.0670     2.2430 C.2   1 <1>  -0.1100 
  4 N       -1.0120    -0.9110     1.0330 N.2   1 <1>  -0.5650 
  5 C        1.2990    -1.1900     0.2250 C.ar  1 <1>   0.0530 
  6 C       -1.7760    -0.0220     1.7740 C.2   1 <1>   0.0460 
  7 C        1.1900    -2.5370    -0.1200 C.ar  1 <1>  -0.1500 
  8 C        2.4800    -0.5400    -0.1400 C.ar  1 <1>  -0.1500 
  9 C       -3.2460    -0.3700     1.9570 C.3   1 <1>   0.5240 
 10 C        2.1980    -3.2020    -0.7910 C.ar  1 <1>  -0.1500 
 11 C        3.4920    -1.2010    -0.8110 C.ar  1 <1>  -0.1500 
 12 N       -3.7560    -0.8340     0.6420 N.4   1 <1>  -0.9590 
 13 C        3.3700    -2.5440    -1.1470 C.ar  1 <1>  -0.1430 
 14 C       -4.9370    -1.7400     0.7710 C.3   1 <1>   0.3430 
 15 C       -3.9900     0.2860    -0.3080 C.3   1 <1>   0.3430 
 16 C        4.4910    -3.2790    -1.9000 C.3   1 <1>   1.1630 
 17 C       -5.3260    -2.3560    -0.5920 C.3   1 <1>   0.0000 
 18 C       -4.3440    -0.2740    -1.6870 C.3   1 <1>  -0.1600 
 19 F        4.3430    -3.1920    -3.2150 F     1 <1>  -0.3400 
 20 F        5.6980    -2.7960    -1.6270 F     1 <1>  -0.3400 
 21 F        4.5400    -4.5750    -1.6150 F     1 <1>  -0.3400 
 22 C       -6.5790    -3.2340    -0.4300 C.3   1 <1>   0.2000 
 23 C       -5.5450    -1.2330    -1.6270 C.3   1 <1>  -0.1600 
 24 C       -4.2670    -3.3760    -1.0450 C.3   1 <1>  -0.1600 
 25 O       -7.4320    -2.7120     0.5280 O.3   1 <1>  -0.6800 
 26 C       -6.0930    -4.6200     0.0010 C.3   1 <1>  -0.1600 
 27 C       -4.5810    -4.6490    -0.2570 C.3   1 <1>  -0.1600 
 28 H       -1.4590     1.9140     2.8290 H     1 <1>   0.1500 
 29 H        0.2970    -3.0750     0.1450 H     1 <1>   0.1500 
 30 H        2.6200     0.5000     0.0940 H     1 <1>   0.1500 
 31 H       -3.8050     0.4780     2.3140 H     1 <1>   0.0800 
 32 H       -3.3190    -1.1680     2.6760 H     1 <1>   0.0800 
 33 H        2.0640    -4.2440    -1.0360 H     1 <1>   0.1500 
 34 H        4.3850    -0.6560    -1.0740 H     1 <1>   0.1500 
 35 H       -2.9610    -1.3790     0.2670 H     1 <1>   0.4500 
 36 H       -4.7240    -2.5350     1.4660 H     1 <1>   0.0800 
 37 H       -5.7760    -1.1810     1.1520 H     1 <1>   0.0800 
 38 H       -4.8000     0.9020     0.0470 H     1 <1>   0.0800 
 39 H       -3.1030     0.8960    -0.3860 H     1 <1>   0.0800 
 40 H       -4.5780     0.5450    -2.3450 H     1 <1>   0.0800 
 41 H       -3.4870    -0.7770    -2.0980 H     1 <1>   0.0800 
 42 H       -7.1130    -3.3050    -1.3640 H     1 <1>   0.0800 
 43 H       -5.7230    -1.6520    -2.6030 H     1 <1>   0.0800 
 44 H       -6.4250    -0.6730    -1.3540 H     1 <1>   0.0800 
 45 H       -4.3960    -3.5860    -2.0940 H     1 <1>   0.0800 
 46 H       -3.2530    -3.0520    -0.8900 H     1 <1>   0.0800 
 47 H       -8.2460    -3.2550     0.5830 H     1 <1>   0.4000 
 48 H       -6.2920    -4.8110     1.0430 H     1 <1>   0.0800 
 49 H       -6.5810    -5.3730    -0.5930 H     1 <1>   0.0800 
 50 H       -4.0530    -4.6410     0.6820 H     1 <1>   0.0800 
 51 H       -4.2890    -5.5310    -0.8040 H     1 <1>   0.0800 
@<TRIPOS>BOND
  1   1   2  1   
  2   1   3  1   
  3   2   4  2   
  4   2   5  1   
  5   3   6  2   
  6   3  28  1   
  7   4   6  1   
  8   5   7  ar  
  9   5   8  ar  
 10   6   9  1   
 11   7  10  ar  
 12   7  29  1   
 13   8  11  ar  
 14   8  30  1   
 15   9  12  1   
 16   9  31  1   
 17   9  32  1   
 18  10  13  ar  
 19  10  33  1   
 20  11  13  ar  
 21  11  34  1   
 22  12  14  1   
 23  12  15  1   
 24  12  35  1   
 25  13  16  1   
 26  14  17  1   
 27  14  36  1   
 28  14  37  1   
 29  15  18  1   
 30  15  38  1   
 31  15  39  1   
 32  16  19  1   
 33  16  20  1   
 34  16  21  1   
 35  17  22  1   
 36  17  23  1   
 37  17  24  1   
 38  18  23  1   
 39  18  40  1   
 40  18  41  1   
 41  22  25  1   
 42  22  26  1   
 43  22  42  1   
 44  23  43  1   
 45  23  44  1   
 46  24  27  1   
 47  24  45  1   
 48  24  46  1   
 49  25  47  1   
 50  26  27  1   
 51  26  48  1   
 52  26  49  1   
 53  27  50  1   
 54  27  51  1   
@<TRIPOS>SUBSTRUCTURE
  1 ****   4 GROUP 4 **** **** 0

# MOE 2024.06 (io_trps.svl 2023.06)
