@<TRIPOS>MOLECULE
NONAME
37 38 1 0 0 
SMALL
USER_CHARGES


@<TRIPOS>ATOM
  1 O       -1.8870     0.1560    -2.3330 O.2   1 <1>  -0.5700 
  2 C       -2.1240     0.4160    -1.1830 C.2   1 <1>   0.4230 
  3 C       -3.1590    -0.2500    -0.4420 C.ar  1 <1>   0.0860 
  4 C       -1.2250     1.4410    -0.5190 C.3   1 <1>  -0.1790 
  5 C       -4.0690     0.3490     0.4290 C.ar  1 <1>   0.1660 
  6 C       -3.3020    -1.6210    -0.5790 C.ar  1 <1>   0.1600 
  7 N       -4.9460    -0.3440     1.1110 N.ar  1 <1>  -0.6200 
  8 C       -4.1400     1.8520     0.6390 C.3   1 <1>  -0.0960 
  9 N       -4.1770    -2.3330     0.0850 N.ar  1 <1>  -0.6200 
 10 C       -4.9580    -1.6530     0.9150 C.ar  1 <1>   0.7200 
 11 N       -5.8750    -2.3200     1.6380 N.pl3 1 <1>  -0.8690 
 12 C       -6.2380    -3.7520     1.5320 C.3   1 <1>   0.2090 
 13 C       -7.6280    -3.9140     0.8990 C.3   1 <1>  -0.0800 
 14 C       -7.9990    -5.4050     0.8510 C.3   1 <1>   0.1200 
 15 C       -7.7010    -3.3080    -0.5160 C.3   1 <1>  -0.1600 
 16 O       -9.2530    -5.5650     0.2590 O.3   1 <1>  -0.5600 
 17 C       -9.0430    -3.6590    -1.1690 C.3   1 <1>  -0.1600 
 18 C       -9.3220    -5.1630    -1.0750 C.3   1 <1>   0.1200 
 19 H       -1.2540     1.3420     0.5500 H     1 <1>   0.0800 
 20 H       -1.5280     2.4310    -0.8020 H     1 <1>   0.0800 
 21 H       -0.2130     1.2880    -0.8470 H     1 <1>   0.0800 
 22 H       -2.6540    -2.1390    -1.2660 H     1 <1>   0.1500 
 23 H       -3.9220     2.3800    -0.2700 H     1 <1>   0.0800 
 24 H       -3.4510     2.1500     1.4080 H     1 <1>   0.0800 
 25 H       -5.1310     2.1320     0.9500 H     1 <1>   0.0800 
 26 H       -6.4830    -1.7260     2.1990 H     1 <1>   0.4000 
 27 H       -6.2340    -4.1820     2.5180 H     1 <1>   0.0800 
 28 H       -5.5070    -4.2770     0.9400 H     1 <1>   0.0800 
 29 H       -8.3440    -3.4220     1.5340 H     1 <1>   0.0800 
 30 H       -8.0570    -5.8120     1.8450 H     1 <1>   0.0800 
 31 H       -7.2790    -5.9690     0.2820 H     1 <1>   0.0800 
 32 H       -6.8980    -3.7010    -1.1160 H     1 <1>   0.0800 
 33 H       -7.5890    -2.2390    -0.4730 H     1 <1>   0.0800 
 34 H       -9.0370    -3.3570    -2.2010 H     1 <1>   0.0800 
 35 H       -9.8390    -3.1300    -0.6750 H     1 <1>   0.0800 
 36 H      -10.3110    -5.3870    -1.4350 H     1 <1>   0.0800 
 37 H       -8.6040    -5.7300    -1.6440 H     1 <1>   0.0800 
@<TRIPOS>BOND
  1   1   2  2   
  2   2   3  1   
  3   2   4  1   
  4   3   5  ar  
  5   3   6  ar  
  6   4  19  1   
  7   4  20  1   
  8   4  21  1   
  9   5   7  ar  
 10   5   8  1   
 11   6   9  ar  
 12   6  22  1   
 13   7  10  ar  
 14   8  23  1   
 15   8  24  1   
 16   8  25  1   
 17   9  10  ar  
 18  10  11  1   
 19  11  12  1   
 20  11  26  1   
 21  12  13  1   
 22  12  27  1   
 23  12  28  1   
 24  13  14  1   
 25  13  15  1   
 26  13  29  1   
 27  14  16  1   
 28  14  30  1   
 29  14  31  1   
 30  15  17  1   
 31  15  32  1   
 32  15  33  1   
 33  16  18  1   
 34  17  18  1   
 35  17  34  1   
 36  17  35  1   
 37  18  36  1   
 38  18  37  1   
@<TRIPOS>SUBSTRUCTURE
  1 ****  10 GROUP 4 **** **** 0

# MOE 2024.06 (io_trps.svl 2023.06)
