@<TRIPOS>MOLECULE
NONAME
43 45 1 0 0 
SMALL
USER_CHARGES


@<TRIPOS>ATOM
  1 O       -2.5460     0.7280    -2.4040 O.2   1 <1>  -0.5700 
  2 C       -2.2320     0.9490    -1.2510 C.2   1 <1>   0.5440 
  3 N       -2.1630    -0.1070    -0.3900 N.am  1 <1>  -0.7300 
  4 C       -1.9330     2.2990    -0.8010 C.ar  1 <1>   0.0860 
  5 C       -2.4600    -1.5140    -0.7380 C.3   1 <1>   0.2200 
  6 C       -2.0680     2.6820     0.5350 C.ar  1 <1>  -0.1500 
  7 C       -1.4930     3.2710    -1.6990 C.ar  1 <1>  -0.1500 
  8 C       -3.8430    -1.8690    -0.2200 C.3   1 <1>  -0.0800 
  9 C       -1.5750    -2.4400     0.0870 C.3   1 <1>   0.1200 
 10 C       -1.7660     3.9660     0.9510 C.ar  1 <1>  -0.1500 
 11 C       -1.1910     4.5570    -1.2890 C.ar  1 <1>  -0.1500 
 12 C       -3.5600    -2.2550     1.2370 C.3   1 <1>   0.1200 
 13 C       -4.4670    -3.0250    -1.0240 C.3   1 <1>  -0.0160 
 14 O       -2.1950    -2.5500     1.3320 O.3   1 <1>  -0.5600 
 15 C       -1.3240     4.9140     0.0430 C.ar  1 <1>  -0.1440 
 16 C       -5.8670    -3.3520    -0.5270 C.ar  1 <1>  -0.1440 
 17 C       -0.9910     6.3210     0.5070 C.3   1 <1>   0.2630 
 18 C       -6.1390    -4.4790     0.2220 C.ar  1 <1>  -0.1500 
 19 C       -6.9420    -2.5310    -0.8050 C.ar  1 <1>  -0.1500 
 20 O        0.1270     6.2450     1.3120 O.3   1 <1>  -0.6800 
 21 C       -7.4340    -4.7200     0.6500 C.ar  1 <1>   0.1600 
 22 C       -8.1990    -2.8640    -0.3280 C.ar  1 <1>   0.1600 
 23 N       -8.4700    -3.9380     0.3950 N.ar  1 <1>  -0.6200 
 24 H       -1.8670     0.0300     0.5780 H     1 <1>   0.3700 
 25 H       -2.3440    -1.6740    -1.7970 H     1 <1>   0.0800 
 26 H       -2.4190     1.9730     1.2620 H     1 <1>   0.1500 
 27 H       -1.3880     3.0070    -2.7380 H     1 <1>   0.1500 
 28 H       -4.5030    -1.0200    -0.2730 H     1 <1>   0.0800 
 29 H       -0.5760    -2.0590     0.2100 H     1 <1>   0.0800 
 30 H       -1.5390    -3.4220    -0.3500 H     1 <1>   0.0800 
 31 H       -1.8740     4.2340     1.9900 H     1 <1>   0.1500 
 32 H       -0.8520     5.2760    -2.0140 H     1 <1>   0.1500 
 33 H       -4.1240    -3.1110     1.5630 H     1 <1>   0.0800 
 34 H       -3.7590    -1.4270     1.8950 H     1 <1>   0.0800 
 35 H       -3.8470    -3.9020    -0.9610 H     1 <1>   0.0800 
 36 H       -4.5280    -2.7440    -2.0610 H     1 <1>   0.0800 
 37 H       -1.7950     6.7460     1.0830 H     1 <1>   0.0800 
 38 H       -0.7650     6.9660    -0.3240 H     1 <1>   0.0800 
 39 H       -5.3580    -5.1720     0.4780 H     1 <1>   0.1500 
 40 H       -6.8130    -1.6360    -1.3860 H     1 <1>   0.1500 
 41 H        0.7390     5.5830     0.9360 H     1 <1>   0.4000 
 42 H       -7.6270    -5.6040     1.2340 H     1 <1>   0.1500 
 43 H       -9.0250    -2.2110    -0.5540 H     1 <1>   0.1500 
@<TRIPOS>BOND
  1   1   2  2   
  2   2   3  am  
  3   2   4  1   
  4   3   5  1   
  5   3  24  1   
  6   4   6  ar  
  7   4   7  ar  
  8   5   8  1   
  9   5   9  1   
 10   5  25  1   
 11   6  10  ar  
 12   6  26  1   
 13   7  11  ar  
 14   7  27  1   
 15   8  12  1   
 16   8  13  1   
 17   8  28  1   
 18   9  14  1   
 19   9  29  1   
 20   9  30  1   
 21  10  15  ar  
 22  10  31  1   
 23  11  15  ar  
 24  11  32  1   
 25  12  14  1   
 26  12  33  1   
 27  12  34  1   
 28  13  16  1   
 29  13  35  1   
 30  13  36  1   
 31  15  17  1   
 32  16  18  ar  
 33  16  19  ar  
 34  17  20  1   
 35  17  37  1   
 36  17  38  1   
 37  18  21  ar  
 38  18  39  1   
 39  19  22  ar  
 40  19  40  1   
 41  20  41  1   
 42  21  23  ar  
 43  21  42  1   
 44  22  23  ar  
 45  22  43  1   
@<TRIPOS>SUBSTRUCTURE
  1 ****   3 GROUP 4 **** **** 0

# MOE 2024.06 (io_trps.svl 2023.06)
