@<TRIPOS>MOLECULE
NONAME
55 58 1 0 0 
SMALL
USER_CHARGES


@<TRIPOS>ATOM
  1 O       -1.5480    -0.3280    -1.6160 O.2   1 <1>  -0.5700 
  2 C       -1.9080     0.5130    -0.8130 C.2   1 <1>   0.5440 
  3 N       -2.6860     0.1030     0.2470 N.am  1 <1>  -0.6600 
  4 C       -1.5320     1.9020    -0.9730 C.ar  1 <1>   0.0860 
  5 C       -2.8620    -1.3450     0.5600 C.3   1 <1>   0.1400 
  6 C       -3.7210     0.9730     0.8770 C.3   1 <1>   0.1400 
  7 C       -1.8000     2.6280    -2.1630 C.ar  1 <1>   0.1660 
  8 C       -0.9060     2.5720     0.0480 C.ar  1 <1>  -0.1500 
  9 C       -4.2260    -1.7950    -0.0040 C.3   1 <1>   0.4230 
 10 C       -5.1120     0.5140     0.4050 C.3   1 <1>  -0.1600 
 11 N       -1.4970     3.8780    -2.3410 N.ar  1 <1>  -0.6200 
 12 C       -2.4960     1.9480    -3.3310 C.3   1 <1>  -0.0960 
 13 C       -0.5620     3.9210    -0.1080 C.ar  1 <1>   0.0000 
 14 N       -4.5010    -3.2680     0.1000 N.4   1 <1>  -0.9590 
 15 C       -5.3700    -1.0000     0.6700 C.3   1 <1>  -0.1060 
 16 C       -0.8780     4.5410    -1.3330 C.ar  1 <1>   0.3100 
 17 C        0.0780     4.6740     0.8970 C.ar  1 <1>  -0.1500 
 18 C       -5.7940    -3.6940    -0.5140 C.3   1 <1>   0.3430 
 19 C       -3.3690    -4.1630    -0.2600 C.3   1 <1>   0.2630 
 20 C       -5.3350    -1.3120     2.1780 C.2   1 <1>   0.9060 
 21 C       -6.7550    -1.4060     0.0870 C.3   1 <1>  -0.1600 
 22 C       -0.5400     5.8910    -1.5050 C.ar  1 <1>  -0.1500 
 23 C        0.3970     5.9920     0.7040 C.ar  1 <1>  -0.1440 
 24 C       -6.6520    -2.5090    -0.9790 C.3   1 <1>  -0.1600 
 25 O       -5.1190    -2.4820     2.5320 O.co2 1 <1>  -0.9000 
 26 O       -5.4970    -0.4110     2.9990 O.co2 1 <1>  -0.9000 
 27 C        0.0820     6.6050    -0.5150 C.ar  1 <1>  -0.1500 
 28 C        1.0860     6.8110     1.7810 C.3   1 <1>  -0.0970 
 29 H       -2.0620    -1.9040     0.1110 H     1 <1>   0.0800 
 30 H       -2.8160    -1.4860     1.6260 H     1 <1>   0.0800 
 31 H       -3.6450     0.8990     1.9500 H     1 <1>   0.0800 
 32 H       -3.5760     2.0050     0.6100 H     1 <1>   0.0800 
 33 H       -0.6760     2.0720     0.9720 H     1 <1>   0.1500 
 34 H       -4.2140    -1.5400    -1.0500 H     1 <1>   0.0800 
 35 H       -5.8540     1.0990     0.9220 H     1 <1>   0.0800 
 36 H       -5.2060     0.7300    -0.6450 H     1 <1>   0.0800 
 37 H       -3.3840     1.4440    -2.9980 H     1 <1>   0.0800 
 38 H       -1.8310     1.2350    -3.7830 H     1 <1>   0.0800 
 39 H       -2.7750     2.6720    -4.0750 H     1 <1>   0.0800 
 40 H       -4.6700    -3.3430     1.1410 H     1 <1>   0.4500 
 41 H        0.3110     4.1850     1.8260 H     1 <1>   0.1500 
 42 H       -5.6050    -4.3390    -1.3560 H     1 <1>   0.0800 
 43 H       -6.3490    -4.2570     0.2190 H     1 <1>   0.0800 
 44 H       -3.0990    -4.0240    -1.2940 H     1 <1>   0.0800 
 45 H       -3.6480    -5.1920    -0.1050 H     1 <1>   0.0800 
 46 H       -2.5130    -3.9480     0.3580 H     1 <1>   0.0800 
 47 H       -7.3820    -1.7630     0.8890 H     1 <1>   0.0800 
 48 H       -7.2600    -0.5530    -0.3350 H     1 <1>   0.0800 
 49 H       -0.7870     6.3480    -2.4450 H     1 <1>   0.1500 
 50 H       -6.2340    -2.1040    -1.8840 H     1 <1>   0.0800 
 51 H       -7.6380    -2.8660    -1.2200 H     1 <1>   0.0800 
 52 H        0.3340     7.6410    -0.6670 H     1 <1>   0.1500 
 53 H        2.0290     7.1760     1.4150 H     1 <1>   0.0800 
 54 H        1.2670     6.2170     2.6590 H     1 <1>   0.0800 
 55 H        0.4710     7.6490     2.0540 H     1 <1>   0.0800 
@<TRIPOS>BOND
  1   1   2  2   
  2   2   3  am  
  3   2   4  1   
  4   3   5  1   
  5   3   6  1   
  6   4   7  ar  
  7   4   8  ar  
  8   5   9  1   
  9   5  29  1   
 10   5  30  1   
 11   6  10  1   
 12   6  31  1   
 13   6  32  1   
 14   7  11  ar  
 15   7  12  1   
 16   8  13  ar  
 17   8  33  1   
 18   9  14  1   
 19   9  15  1   
 20   9  34  1   
 21  10  15  1   
 22  10  35  1   
 23  10  36  1   
 24  11  16  ar  
 25  12  37  1   
 26  12  38  1   
 27  12  39  1   
 28  13  16  ar  
 29  13  17  ar  
 30  14  18  1   
 31  14  19  1   
 32  14  40  1   
 33  15  20  1   
 34  15  21  1   
 35  16  22  ar  
 36  17  23  ar  
 37  17  41  1   
 38  18  24  1   
 39  18  42  1   
 40  18  43  1   
 41  19  44  1   
 42  19  45  1   
 43  19  46  1   
 44  20  25  ar  
 45  20  26  ar  
 46  21  24  1   
 47  21  47  1   
 48  21  48  1   
 49  22  27  ar  
 50  22  49  1   
 51  23  27  ar  
 52  23  28  1   
 53  24  50  1   
 54  24  51  1   
 55  27  52  1   
 56  28  53  1   
 57  28  54  1   
 58  28  55  1   
@<TRIPOS>SUBSTRUCTURE
  1 ****   3 GROUP 4 **** **** 0

# MOE 2024.06 (io_trps.svl 2023.06)
