@<TRIPOS>MOLECULE
Untitled Document
47 51 1 0 0 
SMALL
USER_CHARGES


@<TRIPOS>ATOM
  1 O       -4.7670     4.5380     0.3730 O.2   1 <1>  -0.5700 
  2 C       -4.9640     3.3870     0.0340 C.2   1 <1>   0.5440 
  3 N       -3.9550     2.6860    -0.6080 N.am  1 <1>  -0.6600 
  4 C       -6.2450     2.7520     0.3080 C.ar  1 <1>   0.0860 
  5 C       -2.5970     3.2080    -0.9970 C.3   1 <1>   0.2200 
  6 C       -4.2180     1.2740    -1.0280 C.3   1 <1>   0.1400 
  7 C       -6.3720     1.3600     0.2680 C.ar  1 <1>  -0.1440 
  8 C       -7.3800     3.5050     0.6090 C.ar  1 <1>  -0.1500 
  9 C       -1.5460     2.8590     0.0850 C.3   1 <1>  -0.0800 
 10 C       -2.5140     4.7370    -1.2970 C.3   1 <1>   0.3430 
 11 C       -5.1120     0.5460    -0.0130 C.3   1 <1>   0.0630 
 12 C       -7.5980     0.7460     0.5020 C.ar  1 <1>  -0.1440 
 13 C       -8.5980     2.9010     0.8490 C.ar  1 <1>  -0.1500 
 14 C       -1.8410     3.6700     1.3650 C.3   1 <1>  -0.1600 
 15 C       -0.1690     3.3410    -0.4230 C.3   1 <1>  -0.1600 
 16 N       -1.5240     5.4270    -0.3810 N.4   1 <1>  -0.9590 
 17 C       -5.4370    -0.8780    -0.4900 C.3   1 <1>  -0.1600 
 18 C       -8.7070     1.5250     0.7920 C.ar  1 <1>  -0.1500 
 19 C       -7.7770    -0.7670     0.4330 C.3   1 <1>  -0.0170 
 20 C       -1.9310     5.1770     1.0460 C.3   1 <1>   0.3430 
 21 C       -0.1520     4.8720    -0.6160 C.3   1 <1>   0.3430 
 22 C       -6.4480    -1.5300     0.4570 C.3   1 <1>  -0.1600 
 23 H       -2.3210     2.7090    -1.9100 H     1 <1>   0.0800 
 24 H       -4.7040     1.2850    -1.9900 H     1 <1>   0.0800 
 25 H       -3.2900     0.7360    -1.1230 H     1 <1>   0.0800 
 26 H       -7.3040     4.5770     0.6530 H     1 <1>   0.1500 
 27 H       -1.5280     1.8010     0.2840 H     1 <1>   0.0800 
 28 H       -3.4840     5.1910    -1.2090 H     1 <1>   0.0800 
 29 H       -2.1930     4.8650    -2.3170 H     1 <1>   0.0800 
 30 H       -4.5650     0.4660     0.9110 H     1 <1>   0.0800 
 31 H       -9.4620     3.5000     1.0790 H     1 <1>   0.1500 
 32 H       -1.0690     3.5060     2.0960 H     1 <1>   0.0800 
 33 H       -2.7650     3.3490     1.8140 H     1 <1>   0.0800 
 34 H        0.0740     2.8600    -1.3540 H     1 <1>   0.0800 
 35 H        0.6000     3.0680     0.2790 H     1 <1>   0.0800 
 36 H       -1.5480     6.4390    -0.5590 H     1 <1>   0.4500 
 37 H       -5.8510    -0.8480    -1.4840 H     1 <1>   0.0800 
 38 H       -4.5370    -1.4670    -0.5180 H     1 <1>   0.0800 
 39 H       -9.6610     1.0620     0.9730 H     1 <1>   0.1500 
 40 H       -8.3890    -1.0990     1.2530 H     1 <1>   0.0800 
 41 H       -8.2970    -0.9990    -0.4800 H     1 <1>   0.0800 
 42 H       -1.2900     5.7250     1.7170 H     1 <1>   0.0800 
 43 H       -2.9410     5.5200     1.2010 H     1 <1>   0.0800 
 44 H        0.1770     5.1100    -1.6150 H     1 <1>   0.0800 
 45 H        0.5420     5.3160     0.0800 H     1 <1>   0.0800 
 46 H       -6.0550    -1.5280     1.4600 H     1 <1>   0.0800 
 47 H       -6.6180    -2.5540     0.1700 H     1 <1>   0.0800 
@<TRIPOS>BOND
  1   1   2  2   
  2   2   3  am  
  3   2   4  1   
  4   3   5  1   
  5   3   6  1   
  6   4   7  ar  
  7   4   8  ar  
  8   5   9  1   
  9   5  10  1   
 10   5  23  1   
 11   6  11  1   
 12   6  24  1   
 13   6  25  1   
 14   7  11  1   
 15   7  12  ar  
 16   8  13  ar  
 17   8  26  1   
 18   9  14  1   
 19   9  15  1   
 20   9  27  1   
 21  10  16  1   
 22  10  28  1   
 23  10  29  1   
 24  11  17  1   
 25  11  30  1   
 26  12  18  ar  
 27  12  19  1   
 28  13  18  ar  
 29  13  31  1   
 30  14  20  1   
 31  14  32  1   
 32  14  33  1   
 33  15  21  1   
 34  15  34  1   
 35  15  35  1   
 36  16  20  1   
 37  16  21  1   
 38  16  36  1   
 39  17  22  1   
 40  17  37  1   
 41  17  38  1   
 42  18  39  1   
 43  19  22  1   
 44  19  40  1   
 45  19  41  1   
 46  20  42  1   
 47  20  43  1   
 48  21  44  1   
 49  21  45  1   
 50  22  46  1   
 51  22  47  1   
@<TRIPOS>SUBSTRUCTURE
  1 ****   3 GROUP 4 **** **** 0

# MOE 2024.06 (io_trps.svl 2023.06)
