@<TRIPOS>MOLECULE
NONAME
53 56 1 0 0 
SMALL
USER_CHARGES


@<TRIPOS>ATOM
  1 O       -1.4160     1.4560     2.2050 O.3   1 <1>  -0.5600 
  2 C       -0.6240     1.5210     1.0570 C.3   1 <1>   0.1200 
  3 C       -2.6650     2.0460     1.9830 C.3   1 <1>   0.1200 
  4 C       -1.2130     2.6310     0.1950 C.3   1 <1>   0.2890 
  5 C       -2.6920     2.5360     0.5290 C.3   1 <1>  -0.0800 
  6 N       -0.7010     3.9420     0.6640 N.pl3 1 <1>  -0.8690 
  7 C       -3.4210     1.5450    -0.4020 C.3   1 <1>  -0.0170 
  8 C       -0.1230     4.9040    -0.1260 C.ar  1 <1>   0.4100 
  9 C       -4.9290     1.3750    -0.1690 C.ar  1 <1>  -0.1430 
 10 N       -0.2100     4.7410    -1.4300 N.ar  1 <1>  -0.6200 
 11 C        0.5230     6.0020     0.4300 C.ar  1 <1>  -0.1430 
 12 C       -5.6290     0.3230    -0.8100 C.ar  1 <1>   0.0000 
 13 C       -5.6610     2.2040     0.6350 C.ar  1 <1>  -0.1500 
 14 C        0.3510     5.6740    -2.1680 C.ar  1 <1>   0.4770 
 15 C        1.0660     6.9020    -0.4550 C.ar  1 <1>   0.1600 
 16 C        0.6010     6.1610     1.9520 C.3   1 <1>  -0.0170 
 17 C       -7.0150     0.1880    -0.5470 C.ar  1 <1>   0.3100 
 18 C       -5.0380    -0.6030    -1.7040 C.ar  1 <1>  -0.1500 
 19 C       -7.0320     1.9880     0.8200 C.ar  1 <1>   0.1600 
 20 N        0.9890     6.7540    -1.7620 N.ar  1 <1>  -0.6200 
 21 C        0.2480     5.4910    -3.6630 C.3   1 <1>  -0.0970 
 22 C        1.3030     7.4350     2.4470 C.3   1 <1>  -0.1600 
 23 N       -7.7000     1.0260     0.2690 N.ar  1 <1>  -0.6200 
 24 C       -7.7280    -0.8570    -1.1580 C.ar  1 <1>  -0.1500 
 25 C       -5.7620    -1.6080    -2.2850 C.ar  1 <1>  -0.1500 
 26 C        1.3150     7.5050     3.9780 C.3   1 <1>  -0.2400 
 27 C       -7.1240    -1.7410    -2.0090 C.ar  1 <1>  -0.1500 
 28 H        0.3990     1.7120     1.3310 H     1 <1>   0.0800 
 29 H       -0.6960     0.5720     0.5560 H     1 <1>   0.0800 
 30 H       -3.4320     1.3190     2.1930 H     1 <1>   0.0800 
 31 H       -2.7560     2.8730     2.6650 H     1 <1>   0.0800 
 32 H       -1.0030     2.4790    -0.8500 H     1 <1>   0.0800 
 33 H       -3.1510     3.5050     0.4410 H     1 <1>   0.0800 
 34 H       -0.5500     3.9790     1.6730 H     1 <1>   0.4000 
 35 H       -2.9530     0.5830    -0.2930 H     1 <1>   0.0800 
 36 H       -3.2800     1.8650    -1.4210 H     1 <1>   0.0800 
 37 H       -5.2330     3.0410     1.1500 H     1 <1>   0.1500 
 38 H        1.5830     7.7780    -0.1080 H     1 <1>   0.1500 
 39 H       -0.4020     6.1510     2.3430 H     1 <1>   0.0800 
 40 H        1.1190     5.3070     2.3550 H     1 <1>   0.0800 
 41 H       -3.9940    -0.5200    -1.9400 H     1 <1>   0.1500 
 42 H       -7.5640     2.6660     1.4640 H     1 <1>   0.1500 
 43 H        1.1060     5.9180    -4.1470 H     1 <1>   0.0800 
 44 H       -0.6380     5.9820    -4.0180 H     1 <1>   0.0800 
 45 H        0.1950     4.4460    -3.9050 H     1 <1>   0.0800 
 46 H        2.3180     7.4510     2.0900 H     1 <1>   0.0800 
 47 H        0.7910     8.3020     2.0630 H     1 <1>   0.0800 
 48 H       -8.7750    -0.9370    -0.9320 H     1 <1>   0.1500 
 49 H       -5.2950    -2.3040    -2.9610 H     1 <1>   0.1500 
 50 H        1.8400     6.6610     4.3910 H     1 <1>   0.0800 
 51 H        0.3110     7.5130     4.3650 H     1 <1>   0.0800 
 52 H        1.8110     8.4040     4.3000 H     1 <1>   0.0800 
 53 H       -7.6830    -2.5370    -2.4700 H     1 <1>   0.1500 
@<TRIPOS>BOND
  1   1   2  1   
  2   1   3  1   
  3   2   4  1   
  4   2  28  1   
  5   2  29  1   
  6   3   5  1   
  7   3  30  1   
  8   3  31  1   
  9   4   5  1   
 10   4   6  1   
 11   4  32  1   
 12   5   7  1   
 13   5  33  1   
 14   6   8  1   
 15   6  34  1   
 16   7   9  1   
 17   7  35  1   
 18   7  36  1   
 19   8  10  ar  
 20   8  11  ar  
 21   9  12  ar  
 22   9  13  ar  
 23  10  14  ar  
 24  11  15  ar  
 25  11  16  1   
 26  12  17  ar  
 27  12  18  ar  
 28  13  19  ar  
 29  13  37  1   
 30  14  20  ar  
 31  14  21  1   
 32  15  20  ar  
 33  15  38  1   
 34  16  22  1   
 35  16  39  1   
 36  16  40  1   
 37  17  23  ar  
 38  17  24  ar  
 39  18  25  ar  
 40  18  41  1   
 41  19  23  ar  
 42  19  42  1   
 43  21  43  1   
 44  21  44  1   
 45  21  45  1   
 46  22  26  1   
 47  22  46  1   
 48  22  47  1   
 49  24  27  ar  
 50  24  48  1   
 51  25  27  ar  
 52  25  49  1   
 53  26  50  1   
 54  26  51  1   
 55  26  52  1   
 56  27  53  1   
@<TRIPOS>SUBSTRUCTURE
  1 ****   5 GROUP 4 **** **** 0

# MOE 2024.06 (io_trps.svl 2023.06)
