@<TRIPOS>MOLECULE
NONAME
44 46 1 0 0 
SMALL
USER_CHARGES


@<TRIPOS>ATOM
  1 F       -0.7000     1.4260    -1.1940 F     1 <1>  -0.1900 
  2 C       -0.1640     2.5540    -0.8090 C.ar  1 <1>   0.1900 
  3 C        1.0380     2.5240    -0.1290 C.ar  1 <1>  -0.1500 
  4 C       -0.8220     3.7360    -1.0970 C.ar  1 <1>  -0.1500 
  5 C        1.5990     3.7240     0.2740 C.ar  1 <1>  -0.1500 
  6 C       -0.2530     4.9320    -0.6890 C.ar  1 <1>  -0.1500 
  7 C        0.9630     4.9270    -0.0030 C.ar  1 <1>   0.0830 
  8 O        1.5890     6.0520     0.4250 O.3   1 <1>  -0.3630 
  9 C        1.0630     7.3410     0.1500 C.3   1 <1>   0.1810 
 10 C        1.9580     8.4460     0.7150 C.2   1 <1>   0.5690 
 11 O        1.4100     9.3960     1.2260 O.2   1 <1>  -0.5700 
 12 N        3.3310     8.4210     0.6180 N.am  1 <1>  -0.6600 
 13 C        4.1680     9.2070     1.5840 C.3   1 <1>   0.1400 
 14 C        4.0950     7.6160    -0.3800 C.3   1 <1>   0.1400 
 15 C        5.0580    10.3130     0.9540 C.3   1 <1>   0.4230 
 16 C        4.8690     8.5280    -1.3580 C.3   1 <1>  -0.0800 
 17 N        4.5530    10.9020    -0.3500 N.4   1 <1>  -0.9590 
 18 C        6.5320     9.8660     0.8410 C.3   1 <1>   0.1200 
 19 C        6.3880     8.5340    -1.1210 C.3   1 <1>   0.1200 
 20 C        4.2580     9.9360    -1.4700 C.3   1 <1>   0.3430 
 21 C        3.3320    11.7280    -0.0870 C.3   1 <1>   0.2630 
 22 O        6.6800     8.6220     0.2340 O.3   1 <1>  -0.5600 
 23 H        1.5190     1.5840     0.0780 H     1 <1>   0.1500 
 24 H       -1.7570     3.7120    -1.6260 H     1 <1>   0.1500 
 25 H        2.5320     3.7320     0.8090 H     1 <1>   0.1500 
 26 H       -0.7740     5.8440    -0.9130 H     1 <1>   0.1500 
 27 H        0.9760     7.4550    -0.9140 H     1 <1>   0.0800 
 28 H        0.0920     7.4080     0.6060 H     1 <1>   0.0800 
 29 H        3.5290     9.6730     2.3130 H     1 <1>   0.0800 
 30 H        4.7890     8.5200     2.1340 H     1 <1>   0.0800 
 31 H        4.7640     6.9460     0.1350 H     1 <1>   0.0800 
 32 H        3.4190     7.0050    -0.9510 H     1 <1>   0.0800 
 33 H        5.0750    11.1160     1.6720 H     1 <1>   0.0800 
 34 H        4.7420     8.0840    -2.3290 H     1 <1>   0.0800 
 35 H        5.2910    11.5330    -0.6870 H     1 <1>   0.4500 
 36 H        6.9390     9.7650     1.8330 H     1 <1>   0.0800 
 37 H        7.1280    10.5900     0.3140 H     1 <1>   0.0800 
 38 H        6.8840     9.3310    -1.6490 H     1 <1>   0.0800 
 39 H        6.8030     7.5990    -1.4590 H     1 <1>   0.0800 
 40 H        3.1900     9.8120    -1.5460 H     1 <1>   0.0800 
 41 H        4.5870    10.3770    -2.3970 H     1 <1>   0.0800 
 42 H        2.5270    11.1040     0.2660 H     1 <1>   0.0800 
 43 H        3.0090    12.2220    -0.9890 H     1 <1>   0.0800 
 44 H        3.5350    12.4770     0.6600 H     1 <1>   0.0800 
@<TRIPOS>BOND
  1   1   2  1   
  2   2   3  ar  
  3   2   4  ar  
  4   3   5  ar  
  5   3  23  1   
  6   4   6  ar  
  7   4  24  1   
  8   5   7  ar  
  9   5  25  1   
 10   6   7  ar  
 11   6  26  1   
 12   7   8  1   
 13   8   9  1   
 14   9  10  1   
 15   9  27  1   
 16   9  28  1   
 17  10  11  2   
 18  10  12  am  
 19  12  13  1   
 20  12  14  1   
 21  13  15  1   
 22  13  29  1   
 23  13  30  1   
 24  14  16  1   
 25  14  31  1   
 26  14  32  1   
 27  15  17  1   
 28  15  18  1   
 29  15  33  1   
 30  16  19  1   
 31  16  20  1   
 32  16  34  1   
 33  17  20  1   
 34  17  21  1   
 35  17  35  1   
 36  18  22  1   
 37  18  36  1   
 38  18  37  1   
 39  19  22  1   
 40  19  38  1   
 41  19  39  1   
 42  20  40  1   
 43  20  41  1   
 44  21  42  1   
 45  21  43  1   
 46  21  44  1   
@<TRIPOS>SUBSTRUCTURE
  1 ****  14 GROUP 4 **** **** 0

# MOE 2024.06 (io_trps.svl 2023.06)
