@<TRIPOS>MOLECULE
NONAME
53 55 1 0 0 
SMALL
USER_CHARGES


@<TRIPOS>ATOM
  1 O        0.0800     0.0040     1.5450 O.2   1 <1>  -0.5700 
  2 C       -0.7910     0.7620     1.1970 C.2   1 <1>   0.5690 
  3 N       -2.0110     0.3140     0.7780 N.am  1 <1>  -0.6600 
  4 C       -0.4800     2.2400     1.2010 C.3   1 <1>  -0.0990 
  5 C       -3.1760     1.1350     0.3420 C.3   1 <1>   0.1400 
  6 C       -2.3330    -1.1300     0.6670 C.3   1 <1>   0.1400 
  7 C       -0.0720     2.6720    -0.2100 C.3   1 <1>   0.0960 
  8 C       -4.3590     0.1700     0.4010 C.3   1 <1>   0.2000 
  9 C       -3.7350    -1.1850     0.0490 C.3   1 <1>  -0.0800 
 10 N       -0.2310     4.1290    -0.3620 N.pl3 1 <1>   0.3140 
 11 O       -4.8240     0.1390     1.7070 O.3   1 <1>  -0.6800 
 12 C       -4.5540    -2.4190     0.4720 C.3   1 <1>  -0.0160 
 13 N       -1.4440     4.6300    -0.6270 N.2   1 <1>  -0.7070 
 14 C        0.6960     5.1010    -0.2620 C.2   1 <1>  -0.3320 
 15 C       -3.8880    -3.7010    -0.0020 C.ar  1 <1>  -0.1440 
 16 C       -1.2710     5.9080    -0.6950 C.2   1 <1>   0.1080 
 17 C        0.0570     6.2990    -0.4620 C.2   1 <1>  -0.0860 
 18 C        2.1690     4.8060     0.0020 C.3   1 <1>  -0.0600 
 19 C       -3.0800    -4.4570     0.8240 C.ar  1 <1>  -0.1500 
 20 C       -4.0560    -4.1740    -1.2880 C.ar  1 <1>  -0.1500 
 21 C       -2.4300     6.8380    -0.9910 C.3   1 <1>  -0.0590 
 22 C        0.5190     7.6650    -0.4470 C.2   1 <1>   0.5950 
 23 C       -2.4930    -5.6130     0.3370 C.ar  1 <1>   0.1600 
 24 C       -3.4240    -5.3440    -1.6750 C.ar  1 <1>   0.1600 
 25 O        0.0130     8.5530    -1.0860 O.2   1 <1>  -0.5700 
 26 C        1.6830     8.0610     0.4360 C.3   1 <1>  -0.1790 
 27 N       -2.6450    -6.0740    -0.8940 N.ar  1 <1>  -0.6200 
 28 H       -1.3400     2.7880     1.5350 H     1 <1>   0.0800 
 29 H        0.3250     2.4320     1.8850 H     1 <1>   0.0800 
 30 H       -3.3380     1.9920     0.9730 H     1 <1>   0.0800 
 31 H       -3.0190     1.4610    -0.6710 H     1 <1>   0.0800 
 32 H       -1.6090    -1.6370     0.0500 H     1 <1>   0.0800 
 33 H       -2.3250    -1.5660     1.6510 H     1 <1>   0.0800 
 34 H       -0.7080     2.2030    -0.9390 H     1 <1>   0.0800 
 35 H        0.9410     2.3840    -0.4150 H     1 <1>   0.0800 
 36 H       -5.1700     0.4530    -0.2470 H     1 <1>   0.0800 
 37 H       -3.6100    -1.2150    -1.0190 H     1 <1>   0.0800 
 38 H       -4.0590     0.0440     2.3100 H     1 <1>   0.4000 
 39 H       -5.5420    -2.3530     0.0490 H     1 <1>   0.0800 
 40 H       -4.6660    -2.4480     1.5420 H     1 <1>   0.0800 
 41 H        2.7790     5.6730    -0.1540 H     1 <1>   0.0800 
 42 H        2.5220     4.0440    -0.6700 H     1 <1>   0.0800 
 43 H        2.3020     4.4650     1.0140 H     1 <1>   0.0800 
 44 H       -2.9000    -4.1600     1.8410 H     1 <1>   0.1500 
 45 H       -4.6730    -3.6460    -1.9910 H     1 <1>   0.1500 
 46 H       -2.4930     7.5990    -0.2370 H     1 <1>   0.0800 
 47 H       -3.3520     6.2860    -1.0080 H     1 <1>   0.0800 
 48 H       -2.2840     7.3020    -1.9490 H     1 <1>   0.0800 
 49 H       -1.8650    -6.1880     0.9950 H     1 <1>   0.1500 
 50 H       -3.5670    -5.6980    -2.6820 H     1 <1>   0.1500 
 51 H        1.7650     7.3910     1.2700 H     1 <1>   0.0800 
 52 H        1.5250     9.0560     0.8090 H     1 <1>   0.0800 
 53 H        2.5890     8.0470    -0.1380 H     1 <1>   0.0800 
@<TRIPOS>BOND
  1   1   2  2   
  2   2   3  am  
  3   2   4  1   
  4   3   5  1   
  5   3   6  1   
  6   4   7  1   
  7   4  28  1   
  8   4  29  1   
  9   5   8  1   
 10   5  30  1   
 11   5  31  1   
 12   6   9  1   
 13   6  32  1   
 14   6  33  1   
 15   7  10  1   
 16   7  34  1   
 17   7  35  1   
 18   8   9  1   
 19   8  11  1   
 20   8  36  1   
 21   9  12  1   
 22   9  37  1   
 23  10  13  1   
 24  10  14  1   
 25  11  38  1   
 26  12  15  1   
 27  12  39  1   
 28  12  40  1   
 29  13  16  2   
 30  14  17  2   
 31  14  18  1   
 32  15  19  ar  
 33  15  20  ar  
 34  16  17  1   
 35  16  21  1   
 36  17  22  1   
 37  18  41  1   
 38  18  42  1   
 39  18  43  1   
 40  19  23  ar  
 41  19  44  1   
 42  20  24  ar  
 43  20  45  1   
 44  21  46  1   
 45  21  47  1   
 46  21  48  1   
 47  22  25  2   
 48  22  26  1   
 49  23  27  ar  
 50  23  49  1   
 51  24  27  ar  
 52  24  50  1   
 53  26  51  1   
 54  26  52  1   
 55  26  53  1   
@<TRIPOS>SUBSTRUCTURE
  1 ****   3 GROUP 4 **** **** 0

# MOE 2024.06 (io_trps.svl 2023.06)
