@<TRIPOS>MOLECULE
NONAME
54 57 1 0 0 
SMALL
USER_CHARGES


@<TRIPOS>ATOM
  1 O        3.0830    -1.1310     1.9670 O.2   1 <1>  -0.5700 
  2 C        2.2060    -1.7540     1.3900 C.2   1 <1>   0.5440 
  3 N        1.6110    -1.1270     0.3060 N.am  1 <1>  -0.6600 
  4 C        1.8730    -3.1040     1.8620 C.ar  1 <1>   0.3960 
  5 C        2.0630     0.1890    -0.2000 C.3   1 <1>   0.1400 
  6 C        0.5740    -1.6990    -0.5840 C.3   1 <1>   0.1400 
  7 N        0.6770    -3.6630     1.6100 N.ar  1 <1>  -0.6200 
  8 C        2.8480    -3.7940     2.5930 C.ar  1 <1>   0.1600 
  9 C        1.5550     0.2470    -1.6340 C.3   1 <1>  -0.1600 
 10 C        0.3030    -0.6240    -1.6310 C.3   1 <1>  -0.1600 
 11 C        0.5270    -4.8820     2.0990 C.ar  1 <1>   0.4100 
 12 N        2.7230    -5.0150     3.0970 N.ar  1 <1>  -0.6200 
 13 N       -0.6910    -5.5000     1.8410 N.pl3 1 <1>  -0.8380 
 14 C        1.5380    -5.5230     2.8330 C.ar  1 <1>   0.1600 
 15 C       -0.7660    -6.9190     1.3820 C.3   1 <1>   0.2090 
 16 C       -1.9560    -4.7180     1.8620 C.3   1 <1>   0.2090 
 17 C       -1.4180    -7.0880    -0.0050 C.3   1 <1>   0.2090 
 18 C       -2.3760    -4.3610     0.4360 C.3   1 <1>  -0.1600 
 19 N       -2.9010    -6.8240     0.0020 N.pl3 1 <1>  -0.8380 
 20 C       -3.2930    -5.3950    -0.2260 C.3   1 <1>   0.2090 
 21 C       -3.8240    -7.8290     0.0590 C.ar  1 <1>   0.1000 
 22 C       -5.0860    -7.7150    -0.5460 C.ar  1 <1>  -0.1500 
 23 C       -3.5670    -9.0380     0.7230 C.ar  1 <1>  -0.1500 
 24 C       -6.0120    -8.7250    -0.4810 C.ar  1 <1>   0.2180 
 25 C       -4.5070   -10.0330     0.7750 C.ar  1 <1>   0.2110 
 26 N       -5.7130    -9.8690     0.1790 N.ar  1 <1>  -0.1790 
 27 C       -7.3790    -8.6060    -1.1340 C.3   1 <1>  -0.0970 
 28 H        3.1360     0.2770    -0.1550 H     1 <1>   0.0800 
 29 H        1.6120     0.9650     0.3960 H     1 <1>   0.0800 
 30 H       -0.3210    -1.9260    -0.0300 H     1 <1>   0.0800 
 31 H        0.9550    -2.5940    -1.0450 H     1 <1>   0.0800 
 32 H        3.7890    -3.3030     2.7690 H     1 <1>   0.1500 
 33 H        2.2990    -0.1810    -2.2840 H     1 <1>   0.0800 
 34 H        1.3550     1.2570    -1.9470 H     1 <1>   0.0800 
 35 H       -0.5450    -0.0400    -1.3190 H     1 <1>   0.0800 
 36 H        0.0970    -1.0500    -2.5970 H     1 <1>   0.0800 
 37 H        1.3280    -6.5020     3.2160 H     1 <1>   0.1500 
 38 H       -1.3120    -7.4940     2.1070 H     1 <1>   0.0800 
 39 H        0.2300    -7.3220     1.3240 H     1 <1>   0.0800 
 40 H       -1.7960    -3.8110     2.4220 H     1 <1>   0.0800 
 41 H       -2.7290    -5.2790     2.3600 H     1 <1>   0.0800 
 42 H       -1.2460    -8.0940    -0.3440 H     1 <1>   0.0800 
 43 H       -0.9290    -6.4370    -0.7090 H     1 <1>   0.0800 
 44 H       -1.5050    -4.1900    -0.1700 H     1 <1>   0.0800 
 45 H       -2.9140    -3.4310     0.4690 H     1 <1>   0.0800 
 46 H       -3.3260    -5.2060    -1.2860 H     1 <1>   0.0800 
 47 H       -4.2840    -5.2460     0.1670 H     1 <1>   0.0800 
 48 H       -5.3210    -6.8150    -1.0840 H     1 <1>   0.1500 
 49 H       -2.6210    -9.1800     1.2080 H     1 <1>   0.1500 
 50 H       -4.3050   -10.9590     1.2910 H     1 <1>   0.1500 
 51 H       -6.4100   -10.6200     0.2240 H     1 <1>   0.4570 
 52 H       -7.4830    -7.6530    -1.6230 H     1 <1>   0.0800 
 53 H       -8.1570    -8.6890    -0.3960 H     1 <1>   0.0800 
 54 H       -7.5100    -9.3760    -1.8740 H     1 <1>   0.0800 
@<TRIPOS>BOND
  1   1   2  2   
  2   2   3  am  
  3   2   4  1   
  4   3   5  1   
  5   3   6  1   
  6   4   7  ar  
  7   4   8  ar  
  8   5   9  1   
  9   5  28  1   
 10   5  29  1   
 11   6  10  1   
 12   6  30  1   
 13   6  31  1   
 14   7  11  ar  
 15   8  12  ar  
 16   8  32  1   
 17   9  10  1   
 18   9  33  1   
 19   9  34  1   
 20  10  35  1   
 21  10  36  1   
 22  11  13  1   
 23  11  14  ar  
 24  12  14  ar  
 25  13  15  1   
 26  13  16  1   
 27  14  37  1   
 28  15  17  1   
 29  15  38  1   
 30  15  39  1   
 31  16  18  1   
 32  16  40  1   
 33  16  41  1   
 34  17  19  1   
 35  17  42  1   
 36  17  43  1   
 37  18  20  1   
 38  18  44  1   
 39  18  45  1   
 40  19  20  1   
 41  19  21  1   
 42  20  46  1   
 43  20  47  1   
 44  21  22  ar  
 45  21  23  ar  
 46  22  24  ar  
 47  22  48  1   
 48  23  25  ar  
 49  23  49  1   
 50  24  26  ar  
 51  24  27  1   
 52  25  26  ar  
 53  25  50  1   
 54  26  51  1   
 55  27  52  1   
 56  27  53  1   
 57  27  54  1   
@<TRIPOS>SUBSTRUCTURE
  1 ****  13 GROUP 4 **** **** 0

# MOE 2024.06 (io_trps.svl 2023.06)
