@<TRIPOS>MOLECULE
NONAME
51 53 1 0 0 
SMALL
USER_CHARGES


@<TRIPOS>ATOM
  1 F       -2.3750     1.4260    -0.2230 F     1 <1>  -0.1900 
  2 C       -3.2490     0.4580    -0.1670 C.ar  1 <1>   0.1900 
  3 C       -2.9790    -0.6420     0.6220 C.ar  1 <1>  -0.1500 
  4 C       -4.4160     0.5650    -0.8970 C.ar  1 <1>  -0.1500 
  5 C       -3.9110    -1.6640     0.6740 C.ar  1 <1>  -0.1500 
  6 C       -5.3370    -0.4650    -0.8320 C.ar  1 <1>  -0.1500 
  7 C       -5.1030    -1.6000    -0.0500 C.ar  1 <1>   0.0280 
  8 C       -6.0530    -2.6880     0.0340 C.2   1 <1>  -0.1780 
  9 C       -7.0920    -2.9420    -0.7810 C.2   1 <1>  -0.2880 
 10 C       -8.0540    -4.1010    -0.6180 C.3   1 <1>   0.4810 
 11 N       -9.4080    -3.5950    -0.2630 N.4   1 <1>  -0.9590 
 12 C      -10.0450    -2.8670    -1.3980 C.3   1 <1>   0.3430 
 13 C       -9.3630    -2.7270     0.9520 C.3   1 <1>   0.3430 
 14 C      -11.4780    -2.4940    -1.0340 C.3   1 <1>  -0.1600 
 15 C      -10.7800    -2.3460     1.3650 C.3   1 <1>  -0.1600 
 16 C      -11.5190    -1.6210     0.2310 C.3   1 <1>   0.2800 
 17 O      -10.7400    -0.4860    -0.0710 O.3   1 <1>  -0.5600 
 18 C      -12.9670    -1.2590     0.6830 C.3   1 <1>   0.2000 
 19 C      -11.3200     0.7860     0.0260 C.3   1 <1>   0.1200 
 20 O      -13.7560    -2.4080     0.8050 O.3   1 <1>  -0.6800 
 21 C      -13.6540    -0.1640    -0.1890 C.3   1 <1>   0.2800 
 22 C      -12.6190     0.8060    -0.7820 C.3   1 <1>  -0.1600 
 23 O      -14.4550     0.5650     0.6680 O.3   1 <1>  -0.6800 
 24 C      -14.6030    -0.6780    -1.2820 C.3   1 <1>  -0.2400 
 25 H       -2.0600    -0.6920     1.1780 H     1 <1>   0.1500 
 26 H       -4.5920     1.4390    -1.4990 H     1 <1>   0.1500 
 27 H       -3.7030    -2.5250     1.2850 H     1 <1>   0.1500 
 28 H       -6.2470    -0.3760    -1.3950 H     1 <1>   0.1500 
 29 H       -5.8560    -3.3470     0.8650 H     1 <1>   0.1500 
 30 H       -7.3170    -2.3290    -1.6340 H     1 <1>   0.1500 
 31 H       -7.6960    -4.7480     0.1660 H     1 <1>   0.0800 
 32 H       -8.0960    -4.6730    -1.5320 H     1 <1>   0.0800 
 33 H      -10.0040    -4.4020    -0.0430 H     1 <1>   0.4500 
 34 H       -9.4920    -1.9650    -1.6080 H     1 <1>   0.0800 
 35 H      -10.0460    -3.4830    -2.2830 H     1 <1>   0.0800 
 36 H       -8.8760    -3.2440     1.7630 H     1 <1>   0.0800 
 37 H       -8.8050    -1.8280     0.7390 H     1 <1>   0.0800 
 38 H      -12.0560    -3.3890    -0.8940 H     1 <1>   0.0800 
 39 H      -11.9100    -1.9580    -1.8570 H     1 <1>   0.0800 
 40 H      -10.7350    -1.7040     2.2270 H     1 <1>   0.0800 
 41 H      -11.3210    -3.2300     1.6540 H     1 <1>   0.0800 
 42 H      -12.8800    -0.8600     1.6800 H     1 <1>   0.0800 
 43 H      -11.4970     1.0150     1.0640 H     1 <1>   0.0800 
 44 H      -10.6170     1.4980    -0.3710 H     1 <1>   0.0800 
 45 H      -14.6430    -2.1400     1.1260 H     1 <1>   0.4000 
 46 H      -12.3760     0.5210    -1.7900 H     1 <1>   0.0800 
 47 H      -13.0120     1.8060    -0.8200 H     1 <1>   0.0800 
 48 H      -14.9920     1.2020     0.1590 H     1 <1>   0.4000 
 49 H      -14.0840    -1.3280    -1.9590 H     1 <1>   0.0800 
 50 H      -15.0050     0.1410    -1.8520 H     1 <1>   0.0800 
 51 H      -15.4190    -1.2330    -0.8530 H     1 <1>   0.0800 
@<TRIPOS>BOND
  1   1   2  1   
  2   2   3  ar  
  3   2   4  ar  
  4   3   5  ar  
  5   3  25  1   
  6   4   6  ar  
  7   4  26  1   
  8   5   7  ar  
  9   5  27  1   
 10   6   7  ar  
 11   6  28  1   
 12   7   8  1   
 13   8   9  2   
 14   8  29  1   
 15   9  10  1   
 16   9  30  1   
 17  10  11  1   
 18  10  31  1   
 19  10  32  1   
 20  11  12  1   
 21  11  13  1   
 22  11  33  1   
 23  12  14  1   
 24  12  34  1   
 25  12  35  1   
 26  13  15  1   
 27  13  36  1   
 28  13  37  1   
 29  14  16  1   
 30  14  38  1   
 31  14  39  1   
 32  15  16  1   
 33  15  40  1   
 34  15  41  1   
 35  16  17  1   
 36  16  18  1   
 37  17  19  1   
 38  18  20  1   
 39  18  21  1   
 40  18  42  1   
 41  19  22  1   
 42  19  43  1   
 43  19  44  1   
 44  20  45  1   
 45  21  22  1   
 46  21  23  1   
 47  21  24  1   
 48  22  46  1   
 49  22  47  1   
 50  23  48  1   
 51  24  49  1   
 52  24  50  1   
 53  24  51  1   
@<TRIPOS>SUBSTRUCTURE
  1 ****  13 GROUP 4 **** **** 0

# MOE 2024.06 (io_trps.svl 2023.06)
