@<TRIPOS>MOLECULE
NONAME
47 49 1 0 0 
SMALL
USER_CHARGES


@<TRIPOS>ATOM
  1 S       -0.5960     0.8060     0.5580 S.o2  1 <1>   1.5010 
  2 O       -0.5850    -0.1580     1.6400 O.2   1 <1>  -0.6500 
  3 O       -1.1040     2.1390     0.8070 O.2   1 <1>  -0.6500 
  4 N       -1.5120     0.1490    -0.7120 N.am  1 <1>  -0.8490 
  5 C        1.0600     0.9220    -0.1690 C.2   1 <1>  -0.0630 
  6 C       -2.9530     0.2500    -0.4990 C.3   1 <1>   0.1960 
  7 C       -1.2540    -1.2720    -0.9410 C.3   1 <1>   0.1960 
  8 C        1.4110     1.6060    -1.2800 C.2   1 <1>  -0.1400 
  9 C        2.1810     0.2410     0.4220 C.2   1 <1>  -0.1500 
 10 C       -3.3460    -1.0020     0.2880 C.3   1 <1>  -0.0800 
 11 C       -2.3730    -2.0650    -0.2500 C.3   1 <1>  -0.0800 
 12 S        3.1210     1.4280    -1.6300 S.3   1 <1>  -0.0800 
 13 C        0.6130     2.4680    -2.2400 C.3   1 <1>  -0.0600 
 14 C        3.3460     0.4060    -0.2280 C.2   1 <1>  -0.1400 
 15 C       -4.8500    -1.3940     0.2750 C.3   1 <1>   0.2800 
 16 C       -3.0480    -3.0500    -1.2190 C.3   1 <1>  -0.1600 
 17 C        4.7440    -0.1140     0.0340 C.3   1 <1>  -0.0600 
 18 O       -5.4070    -1.0910    -0.9530 O.3   1 <1>  -0.6800 
 19 C       -4.9840    -2.9160     0.4750 C.3   1 <1>  -0.1600 
 20 C       -5.6860    -0.6620     1.3490 C.3   1 <1>  -0.1600 
 21 C       -4.2490    -3.7670    -0.5810 C.3   1 <1>  -0.1600 
 22 C       -5.7140     0.8740     1.2660 C.3   1 <1>  -0.2400 
 23 H       -3.2220     1.1610     0.0040 H     1 <1>   0.0800 
 24 H       -3.4320     0.2460    -1.4630 H     1 <1>   0.0800 
 25 H       -1.2790    -1.4490    -2.0030 H     1 <1>   0.0800 
 26 H       -0.2830    -1.5660    -0.5780 H     1 <1>   0.0800 
 27 H        2.0500    -0.3420     1.3190 H     1 <1>   0.1500 
 28 H       -3.0780    -0.8310     1.3160 H     1 <1>   0.0800 
 29 H       -1.9570    -2.6200     0.5750 H     1 <1>   0.0800 
 30 H       -0.4160     2.5260    -1.9360 H     1 <1>   0.0800 
 31 H        0.6560     2.0490    -3.2290 H     1 <1>   0.0800 
 32 H        1.0210     3.4620    -2.2640 H     1 <1>   0.0800 
 33 H       -3.3970    -2.5010    -2.0780 H     1 <1>   0.0800 
 34 H       -2.3370    -3.7780    -1.5690 H     1 <1>   0.0800 
 35 H        4.7530    -0.7240     0.9190 H     1 <1>   0.0800 
 36 H        5.4200     0.7110     0.1730 H     1 <1>   0.0800 
 37 H        5.0790    -0.7030    -0.8000 H     1 <1>   0.0800 
 38 H       -6.3330    -1.3930    -0.9690 H     1 <1>   0.4000 
 39 H       -4.5650    -3.1530     1.4370 H     1 <1>   0.0800 
 40 H       -6.0200    -3.2030     0.5100 H     1 <1>   0.0800 
 41 H       -6.6990    -1.0210     1.3000 H     1 <1>   0.0800 
 42 H       -5.3120    -0.9340     2.3210 H     1 <1>   0.0800 
 43 H       -3.9180    -4.6800    -0.1180 H     1 <1>   0.0800 
 44 H       -4.9370    -4.0350    -1.3650 H     1 <1>   0.0800 
 45 H       -5.9680     1.2010     0.2730 H     1 <1>   0.0800 
 46 H       -4.7620     1.2880     1.5420 H     1 <1>   0.0800 
 47 H       -6.4500     1.2610     1.9480 H     1 <1>   0.0800 
@<TRIPOS>BOND
  1   1   2  2   
  2   1   3  2   
  3   1   4  am  
  4   1   5  1   
  5   4   6  1   
  6   4   7  1   
  7   5   8  2   
  8   5   9  1   
  9   6  10  1   
 10   6  23  1   
 11   6  24  1   
 12   7  11  1   
 13   7  25  1   
 14   7  26  1   
 15   8  12  1   
 16   8  13  1   
 17   9  14  2   
 18   9  27  1   
 19  10  11  1   
 20  10  15  1   
 21  10  28  1   
 22  11  16  1   
 23  11  29  1   
 24  12  14  1   
 25  13  30  1   
 26  13  31  1   
 27  13  32  1   
 28  14  17  1   
 29  15  18  1   
 30  15  19  1   
 31  15  20  1   
 32  16  21  1   
 33  16  33  1   
 34  16  34  1   
 35  17  35  1   
 36  17  36  1   
 37  17  37  1   
 38  18  38  1   
 39  19  21  1   
 40  19  39  1   
 41  19  40  1   
 42  20  22  1   
 43  20  41  1   
 44  20  42  1   
 45  21  43  1   
 46  21  44  1   
 47  22  45  1   
 48  22  46  1   
 49  22  47  1   
@<TRIPOS>SUBSTRUCTURE
  1 ****   4 GROUP 4 **** **** 0

# MOE 2024.06 (io_trps.svl 2023.06)
