@<TRIPOS>MOLECULE
NONAME
48 49 1 0 0 
SMALL
USER_CHARGES


@<TRIPOS>ATOM
  1 O        1.0700    -0.5550    -2.1090 O.2   1 <1>  -0.5700 
  2 C        1.5860    -0.9060    -1.0620 C.2   1 <1>   0.6160 
  3 N        2.2400     0.0460    -0.3010 N.am  1 <1>  -0.6600 
  4 C        1.5350    -2.2980    -0.7140 C.2   1 <1>   0.0290 
  5 C        2.0270     1.5030    -0.5220 C.3   1 <1>   0.1400 
  6 C        3.1330    -0.2730     0.8470 C.3   1 <1>   0.1400 
  7 C        0.9850    -2.6880     0.5470 C.2   1 <1>   0.6160 
  8 C        1.9730    -3.2820    -1.5660 C.2   1 <1>  -0.1500 
  9 C        3.3710     2.2110    -0.7460 C.3   1 <1>  -0.0800 
 10 C        4.4850     0.4230     0.6600 C.3   1 <1>  -0.1600 
 11 O        0.5540    -1.9170     1.3920 O.2   1 <1>  -0.5700 
 12 N        0.9430    -4.0210     0.8560 N.am  1 <1>  -0.5390 
 13 C        1.9040    -4.6430    -1.1970 C.2   1 <1>  -0.1500 
 14 C        4.3280     1.9330     0.4310 C.3   1 <1>  -0.1600 
 15 C        3.1260     3.7120    -0.9550 C.3   1 <1>   0.1400 
 16 C        1.3910    -5.0070     0.0140 C.2   1 <1>  -0.0290 
 17 N        4.3960     4.4130    -1.2600 N.am  1 <1>  -0.7300 
 18 C        1.2590    -6.4450     0.5240 C.3   1 <1>   0.0580 
 19 C        5.0340     5.3750    -0.5580 C.2   1 <1>   0.5690 
 20 C        2.1410    -7.4470    -0.2340 C.3   1 <1>  -0.2400 
 21 C       -0.2050    -6.8930     0.4610 C.3   1 <1>  -0.2400 
 22 O        6.0870     5.8060    -0.9500 O.2   1 <1>  -0.5700 
 23 C        4.4510     5.9200     0.7210 C.3   1 <1>  -0.1790 
 24 H        1.5350     1.9110     0.3440 H     1 <1>   0.0800 
 25 H        1.3850     1.6680    -1.3710 H     1 <1>   0.0800 
 26 H        3.2940    -1.3330     0.9280 H     1 <1>   0.0800 
 27 H        2.6650     0.0640     1.7570 H     1 <1>   0.0800 
 28 H        2.3720    -3.0270    -2.5330 H     1 <1>   0.1500 
 29 H        3.7960     1.8130    -1.6520 H     1 <1>   0.0800 
 30 H        4.9870    -0.0190    -0.1830 H     1 <1>   0.0800 
 31 H        5.0950     0.2510     1.5290 H     1 <1>   0.0800 
 32 H        0.5260    -4.2310     1.7630 H     1 <1>   0.3700 
 33 H        2.2630    -5.3670    -1.9070 H     1 <1>   0.1500 
 34 H        3.9410     2.3880     1.3270 H     1 <1>   0.0800 
 35 H        5.2960     2.3600     0.2320 H     1 <1>   0.0800 
 36 H        2.6700     4.1310    -0.0750 H     1 <1>   0.0800 
 37 H        2.4490     3.8560    -1.7810 H     1 <1>   0.0800 
 38 H        4.8810     4.1080    -2.1070 H     1 <1>   0.3700 
 39 H        1.5750    -6.4590     1.5540 H     1 <1>   0.0800 
 40 H        1.8200    -7.5460    -1.2550 H     1 <1>   0.0800 
 41 H        2.0860    -8.4140     0.2330 H     1 <1>   0.0800 
 42 H        3.1670    -7.1230    -0.2180 H     1 <1>   0.0800 
 43 H       -0.5560    -6.8760    -0.5560 H     1 <1>   0.0800 
 44 H       -0.8250    -6.2360     1.0450 H     1 <1>   0.0800 
 45 H       -0.3110    -7.8910     0.8470 H     1 <1>   0.0800 
 46 H        4.3580     5.1320     1.4440 H     1 <1>   0.0800 
 47 H        3.4880     6.3520     0.5270 H     1 <1>   0.0800 
 48 H        5.0980     6.6810     1.1180 H     1 <1>   0.0800 
@<TRIPOS>BOND
  1   1   2  2   
  2   2   3  am  
  3   2   4  1   
  4   3   5  1   
  5   3   6  1   
  6   4   7  1   
  7   4   8  2   
  8   5   9  1   
  9   5  24  1   
 10   5  25  1   
 11   6  10  1   
 12   6  26  1   
 13   6  27  1   
 14   7  11  2   
 15   7  12  am  
 16   8  13  1   
 17   8  28  1   
 18   9  14  1   
 19   9  15  1   
 20   9  29  1   
 21  10  14  1   
 22  10  30  1   
 23  10  31  1   
 24  12  16  1   
 25  12  32  1   
 26  13  16  2   
 27  13  33  1   
 28  14  34  1   
 29  14  35  1   
 30  15  17  1   
 31  15  36  1   
 32  15  37  1   
 33  16  18  1   
 34  17  19  am  
 35  17  38  1   
 36  18  20  1   
 37  18  21  1   
 38  18  39  1   
 39  19  22  2   
 40  19  23  1   
 41  20  40  1   
 42  20  41  1   
 43  20  42  1   
 44  21  43  1   
 45  21  44  1   
 46  21  45  1   
 47  23  46  1   
 48  23  47  1   
 49  23  48  1   
@<TRIPOS>SUBSTRUCTURE
  1 ****   3 GROUP 4 **** **** 0

# MOE 2024.06 (io_trps.svl 2023.06)
