@<TRIPOS>MOLECULE
NONAME
40 42 1 0 0 
SMALL
USER_CHARGES


@<TRIPOS>ATOM
  1 O       -1.9860     0.6460    -1.5740 O.2   1 <1>  -0.5700 
  2 C       -1.8930     0.7830    -0.3680 C.2   1 <1>   0.7150 
  3 N       -2.0850    -0.3080     0.4180 N.am  1 <1>  -0.7300 
  4 C       -1.6000     2.0490     0.2540 C.2   1 <1>  -0.2370 
  5 C       -2.3950    -1.6740    -0.0570 C.3   1 <1>   0.2200 
  6 N       -1.3770     3.2280    -0.4220 N.pl3 1 <1>   0.0480 
  7 C       -1.4870     2.3250     1.5960 C.2   1 <1>  -0.1500 
  8 C       -3.8800    -1.9370     0.1190 C.3   1 <1>  -0.0800 
  9 C       -1.7810    -2.6980     0.8920 C.3   1 <1>   0.1200 
 10 C       -1.1350     4.1990     0.4900 C.2   1 <1>  -0.3020 
 11 C       -1.3830     3.4500    -1.8820 C.3   1 <1>   0.0160 
 12 C       -1.1960     3.6770     1.7420 C.2   1 <1>  -0.1500 
 13 C       -3.9570    -2.3710     1.5870 C.3   1 <1>   0.1200 
 14 C       -4.3770    -3.0330    -0.8430 C.3   1 <1>  -0.0170 
 15 O       -2.6920    -2.8540     1.9400 O.3   1 <1>  -0.5600 
 16 C       -5.8700    -3.2800    -0.6820 C.ar  1 <1>  -0.1430 
 17 C       -6.3640    -4.4020    -0.0470 C.ar  1 <1>  -0.1500 
 18 C       -6.8080    -2.3910    -1.1660 C.ar  1 <1>  -0.1500 
 19 C       -7.7330    -4.5720     0.0740 C.ar  1 <1>   0.1600 
 20 C       -8.1560    -2.6560    -0.9930 C.ar  1 <1>   0.1600 
 21 N       -8.6410    -3.7250    -0.3820 N.ar  1 <1>  -0.6200 
 22 H       -2.0540    -0.1930     1.4300 H     1 <1>   0.3700 
 23 H       -2.0550    -1.8040    -1.0710 H     1 <1>   0.0800 
 24 H       -1.5970     1.6430     2.4200 H     1 <1>   0.1500 
 25 H       -4.4560    -1.0430    -0.0490 H     1 <1>   0.0800 
 26 H       -0.8290    -2.3840     1.2820 H     1 <1>   0.0800 
 27 H       -1.6780    -3.6520     0.4060 H     1 <1>   0.0800 
 28 H       -0.9300     5.2180     0.2120 H     1 <1>   0.1500 
 29 H       -1.1640     4.4800    -2.0950 H     1 <1>   0.0800 
 30 H       -2.3510     3.1990    -2.2750 H     1 <1>   0.0800 
 31 H       -0.6390     2.8230    -2.3390 H     1 <1>   0.0800 
 32 H       -1.0490     4.1910     2.6770 H     1 <1>   0.1500 
 33 H       -4.6880    -3.1400     1.7650 H     1 <1>   0.0800 
 34 H       -4.1680    -1.5270     2.2200 H     1 <1>   0.0800 
 35 H       -3.8400    -3.9500    -0.6750 H     1 <1>   0.0800 
 36 H       -4.1890    -2.7270    -1.8580 H     1 <1>   0.0800 
 37 H       -5.7000    -5.1450     0.3560 H     1 <1>   0.1500 
 38 H       -6.5030    -1.4950    -1.6760 H     1 <1>   0.1500 
 39 H       -8.1010    -5.4530     0.5720 H     1 <1>   0.1500 
 40 H       -8.8730    -1.9510    -1.3770 H     1 <1>   0.1500 
@<TRIPOS>BOND
  1   1   2  2   
  2   2   3  am  
  3   2   4  1   
  4   3   5  1   
  5   3  22  1   
  6   4   6  1   
  7   4   7  2   
  8   5   8  1   
  9   5   9  1   
 10   5  23  1   
 11   6  10  1   
 12   6  11  1   
 13   7  12  1   
 14   7  24  1   
 15   8  13  1   
 16   8  14  1   
 17   8  25  1   
 18   9  15  1   
 19   9  26  1   
 20   9  27  1   
 21  10  12  2   
 22  10  28  1   
 23  11  29  1   
 24  11  30  1   
 25  11  31  1   
 26  12  32  1   
 27  13  15  1   
 28  13  33  1   
 29  13  34  1   
 30  14  16  1   
 31  14  35  1   
 32  14  36  1   
 33  16  17  ar  
 34  16  18  ar  
 35  17  19  ar  
 36  17  37  1   
 37  18  20  ar  
 38  18  38  1   
 39  19  21  ar  
 40  19  39  1   
 41  20  21  ar  
 42  20  40  1   
@<TRIPOS>SUBSTRUCTURE
  1 ****   8 GROUP 4 **** **** 0

# MOE 2024.06 (io_trps.svl 2023.06)
