@<TRIPOS>MOLECULE
NONAME
49 52 1 0 0 
SMALL
USER_CHARGES


@<TRIPOS>ATOM
  1 O        1.2830    -0.0950     2.5440 O.2   1 <1>  -0.5700 
  2 C        1.8880    -0.7760     1.7270 C.2   1 <1>   0.5650 
  3 N        2.8650    -0.2370     0.8450 N.pl3 1 <1>   0.5610 
  4 C        1.6310    -2.1730     1.6170 C.2   1 <1>  -0.1360 
  5 N        3.3340     1.0500     0.7040 N.2   1 <1>  -0.7070 
  6 C        3.5050    -1.0530    -0.0580 C.2   1 <1>  -0.0680 
  7 C        2.2650    -2.9750     0.7160 C.2   1 <1>  -0.0380 
  8 C        4.2150     0.9950    -0.2420 C.2   1 <1>   0.1080 
  9 N        3.2090    -2.4250    -0.1270 N.pl3 1 <1>  -0.5840 
 10 C        4.3690    -0.2870    -0.7590 C.2   1 <1>  -0.1500 
 11 C        1.9980    -4.4760     0.5860 C.3   1 <1>   0.2480 
 12 C        4.9730     2.2170    -0.7050 C.3   1 <1>  -0.0590 
 13 N        0.6560    -4.8460     1.0730 N.3   1 <1>  -0.8100 
 14 C       -0.4280    -4.3350     0.2010 C.3   1 <1>   0.1100 
 15 C        0.4750    -6.3000     1.1380 C.3   1 <1>   0.1100 
 16 C       -1.1340    -5.5410    -0.4440 C.3   1 <1>   0.2000 
 17 C       -0.1740    -6.6990    -0.1850 C.3   1 <1>  -0.0800 
 18 O       -2.3460    -5.7970     0.2090 O.3   1 <1>  -0.5600 
 19 C       -0.8300    -8.0920    -0.1520 C.3   1 <1>   0.0200 
 20 C       -3.4270    -5.0320    -0.2250 C.3   1 <1>   0.0400 
 21 C        0.1800    -9.2250    -0.0610 C.2   1 <1>  -0.0400 
 22 O       -0.2580   -10.4450     0.1020 O.3   1 <1>  -0.0190 
 23 C        1.5210    -9.2790    -0.1190 C.2   1 <1>  -0.1500 
 24 N        0.7140   -11.3090     0.1600 N.2   1 <1>  -0.4100 
 25 C        1.7980   -10.6340     0.0300 C.2   1 <1>   0.1080 
 26 C        3.1830   -11.2420     0.0390 C.3   1 <1>  -0.0590 
 27 H        0.8980    -2.5650     2.2970 H     1 <1>   0.1500 
 28 H        3.7200    -3.0000    -0.8090 H     1 <1>   0.4000 
 29 H        5.0390    -0.5780    -1.5460 H     1 <1>   0.1500 
 30 H        2.7430    -4.9970     1.1630 H     1 <1>   0.0800 
 31 H        2.0990    -4.7740    -0.4430 H     1 <1>   0.0800 
 32 H        5.6550     1.9640    -1.4950 H     1 <1>   0.0800 
 33 H        5.5240     2.6300     0.1200 H     1 <1>   0.0800 
 34 H        4.2780     2.9560    -1.0610 H     1 <1>   0.0800 
 35 H       -1.1220    -3.7640     0.7930 H     1 <1>   0.0800 
 36 H       -0.0280    -3.6970    -0.5680 H     1 <1>   0.0800 
 37 H        1.3990    -6.8190     1.3230 H     1 <1>   0.0800 
 38 H       -0.2060    -6.5170     1.9460 H     1 <1>   0.0800 
 39 H       -1.3200    -5.4020    -1.4950 H     1 <1>   0.0800 
 40 H        0.5790    -6.6860    -0.9520 H     1 <1>   0.0800 
 41 H       -1.4170    -8.2320    -1.0420 H     1 <1>   0.0800 
 42 H       -1.4970    -8.1600     0.6910 H     1 <1>   0.0800 
 43 H       -4.2870    -5.3120     0.3580 H     1 <1>   0.0800 
 44 H       -3.6140    -5.2380    -1.2650 H     1 <1>   0.0800 
 45 H       -3.2150    -3.9880    -0.0760 H     1 <1>   0.0800 
 46 H        2.2450    -8.4980    -0.2490 H     1 <1>   0.1500 
 47 H        3.7570   -10.8290     0.8470 H     1 <1>   0.0800 
 48 H        3.6770   -11.0370    -0.8920 H     1 <1>   0.0800 
 49 H        3.1140   -12.3070     0.1690 H     1 <1>   0.0800 
@<TRIPOS>BOND
  1   1   2  2   
  2   2   3  1   
  3   2   4  1   
  4   3   5  1   
  5   3   6  1   
  6   4   7  2   
  7   4  27  1   
  8   5   8  2   
  9   6   9  1   
 10   6  10  2   
 11   7   9  1   
 12   7  11  1   
 13   8  10  1   
 14   8  12  1   
 15   9  28  1   
 16  10  29  1   
 17  11  13  1   
 18  11  30  1   
 19  11  31  1   
 20  12  32  1   
 21  12  33  1   
 22  12  34  1   
 23  13  14  1   
 24  13  15  1   
 25  14  16  1   
 26  14  35  1   
 27  14  36  1   
 28  15  17  1   
 29  15  37  1   
 30  15  38  1   
 31  16  17  1   
 32  16  18  1   
 33  16  39  1   
 34  17  19  1   
 35  17  40  1   
 36  18  20  1   
 37  19  21  1   
 38  19  41  1   
 39  19  42  1   
 40  20  43  1   
 41  20  44  1   
 42  20  45  1   
 43  21  22  1   
 44  21  23  2   
 45  22  24  1   
 46  23  25  1   
 47  23  46  1   
 48  24  25  2   
 49  25  26  1   
 50  26  47  1   
 51  26  48  1   
 52  26  49  1   
@<TRIPOS>SUBSTRUCTURE
  1 ****  11 GROUP 4 **** **** 0

# MOE 2024.06 (io_trps.svl 2023.06)
