@<TRIPOS>MOLECULE
NONAME
48 51 1 0 0 
SMALL
USER_CHARGES


@<TRIPOS>ATOM
  1 O       -1.1140    -0.8890     0.3860 O.co2 1 <1>  -0.9000 
  2 C       -0.3010    -1.7200     0.8270 C.2   1 <1>   1.0330 
  3 O       -0.1840    -1.8530     2.0570 O.co2 1 <1>  -0.9000 
  4 C        0.4640    -2.5200    -0.0680 C.2   1 <1>  -0.2330 
  5 C        0.1230    -3.8050    -0.4830 C.2   1 <1>   0.3720 
  6 C        1.6390    -2.2750    -0.7000 C.2   1 <1>   0.0870 
  7 N        1.0130    -4.2880    -1.2760 N.2   1 <1>  -0.4100 
  8 N       -1.0200    -4.5230    -0.1240 N.pl3 1 <1>  -0.8210 
  9 O        1.9190    -3.3530    -1.3960 O.3   1 <1>  -0.0190 
 10 C        2.5330    -1.1390    -0.7260 C.ar  1 <1>   0.0530 
 11 C       -2.2900    -3.8660    -0.5150 C.3   1 <1>   0.2090 
 12 C       -1.0530    -4.9060     1.3070 C.3   1 <1>   0.2090 
 13 C        2.1090     0.1460    -0.3840 C.ar  1 <1>  -0.1500 
 14 C        3.8690    -1.2880    -1.1040 C.ar  1 <1>  -0.1500 
 15 C       -3.3940    -4.9210    -0.4650 C.3   1 <1>  -0.1600 
 16 C       -2.0840    -6.0220     1.4660 C.3   1 <1>  -0.1600 
 17 C        2.9730     1.2250    -0.4120 C.ar  1 <1>  -0.1500 
 18 C        4.7380    -0.2130    -1.1380 C.ar  1 <1>  -0.1500 
 19 C       -3.4630    -5.5990     0.9190 C.3   1 <1>   0.1000 
 20 C        4.2920     1.0490    -0.7900 C.ar  1 <1>  -0.1500 
 21 C       -4.4540    -6.7620     0.9310 C.2   1 <1>   0.0060 
 22 N       -5.5120    -6.7580     1.6690 N.2   1 <1>  -0.3380 
 23 N       -4.3700    -7.8950     0.2110 N.pl3 1 <1>   0.0480 
 24 N       -6.1580    -7.9000     1.4500 N.2   1 <1>  -0.3380 
 25 C       -5.4700    -8.5610     0.5860 C.2   1 <1>   0.0060 
 26 C       -3.3660    -8.3580    -0.7760 C.3   1 <1>   0.0160 
 27 C       -5.8690    -9.9270     0.0600 C.3   1 <1>   0.3000 
 28 O       -6.1840    -9.8140    -1.2840 O.3   1 <1>  -0.6800 
 29 H       -2.2000    -3.4600    -1.5090 H     1 <1>   0.0800 
 30 H       -2.5180    -3.0590     0.1620 H     1 <1>   0.0800 
 31 H       -1.3280    -4.0600     1.9150 H     1 <1>   0.0800 
 32 H       -0.0790    -5.2450     1.6170 H     1 <1>   0.0800 
 33 H        1.0860     0.3090    -0.0930 H     1 <1>   0.1500 
 34 H        4.2300    -2.2640    -1.3740 H     1 <1>   0.1500 
 35 H       -3.2010    -5.6330    -1.2410 H     1 <1>   0.0800 
 36 H       -4.3380    -4.4530    -0.6780 H     1 <1>   0.0800 
 37 H       -2.1770    -6.2700     2.5070 H     1 <1>   0.0800 
 38 H       -1.7110    -6.8880     0.9570 H     1 <1>   0.0800 
 39 H        2.6120     2.2010    -0.1390 H     1 <1>   0.1500 
 40 H        5.7630    -0.3580    -1.4320 H     1 <1>   0.1500 
 41 H       -3.8410    -4.8550     1.6010 H     1 <1>   0.0800 
 42 H        4.9640     1.8890    -0.8120 H     1 <1>   0.1500 
 43 H       -2.5560    -7.6610    -0.8600 H     1 <1>   0.0800 
 44 H       -3.8380    -8.4630    -1.7360 H     1 <1>   0.0800 
 45 H       -2.9750    -9.3100    -0.4660 H     1 <1>   0.0800 
 46 H       -6.7380   -10.2910     0.5820 H     1 <1>   0.0800 
 47 H       -5.0660   -10.6350     0.1660 H     1 <1>   0.0800 
 48 H       -6.8740    -9.1280    -1.3810 H     1 <1>   0.4000 
@<TRIPOS>BOND
  1   1   2  ar  
  2   2   3  ar  
  3   2   4  1   
  4   4   5  1   
  5   4   6  2   
  6   5   7  2   
  7   5   8  1   
  8   6   9  1   
  9   6  10  1   
 10   7   9  1   
 11   8  11  1   
 12   8  12  1   
 13  10  13  ar  
 14  10  14  ar  
 15  11  15  1   
 16  11  29  1   
 17  11  30  1   
 18  12  16  1   
 19  12  31  1   
 20  12  32  1   
 21  13  17  ar  
 22  13  33  1   
 23  14  18  ar  
 24  14  34  1   
 25  15  19  1   
 26  15  35  1   
 27  15  36  1   
 28  16  19  1   
 29  16  37  1   
 30  16  38  1   
 31  17  20  ar  
 32  17  39  1   
 33  18  20  ar  
 34  18  40  1   
 35  19  21  1   
 36  19  41  1   
 37  20  42  1   
 38  21  22  2   
 39  21  23  1   
 40  22  24  1   
 41  23  25  1   
 42  23  26  1   
 43  24  25  2   
 44  25  27  1   
 45  26  43  1   
 46  26  44  1   
 47  26  45  1   
 48  27  28  1   
 49  27  46  1   
 50  27  47  1   
 51  28  48  1   
@<TRIPOS>SUBSTRUCTURE
  1 ****   8 GROUP 4 **** **** 0

# MOE 2024.06 (io_trps.svl 2023.06)
