@<TRIPOS>MOLECULE
NONAME
36 37 1 0 0 
SMALL
USER_CHARGES


@<TRIPOS>ATOM
  1 S       -0.8220     0.5650     1.5070 S.o2  1 <1>   1.4470 
  2 O       -0.8310    -0.5860     2.3850 O.2   1 <1>  -0.6500 
  3 O       -1.2940     1.8240     2.0470 O.2   1 <1>  -0.6500 
  4 N       -1.7880     0.2290     0.1490 N.am  1 <1>  -0.8490 
  5 C        0.8500     0.7920     0.8110 C.ar  1 <1>  -0.0090 
  6 C       -1.4080    -0.9610    -0.6420 C.3   1 <1>   0.1960 
  7 C       -3.2320     0.3330     0.3770 C.3   1 <1>   0.1960 
  8 C        1.2130     1.8780     0.0060 C.ar  1 <1>  -0.1440 
  9 C        1.8210    -0.1720     1.0700 C.ar  1 <1>  -0.1500 
 10 C       -1.9700    -2.2720    -0.0780 C.3   1 <1>  -0.1860 
 11 C       -3.8110    -0.9370     1.0040 C.3   1 <1>  -0.1600 
 12 C        2.5040     1.9790    -0.4950 C.ar  1 <1>  -0.1500 
 13 C        0.2200     2.9770    -0.3520 C.3   1 <1>  -0.0970 
 14 C        3.1050    -0.0710     0.5680 C.ar  1 <1>  -0.1500 
 15 C       -1.6730    -3.4190    -1.0190 C.2   1 <1>   0.9060 
 16 C       -3.4760    -2.1420     0.1330 C.3   1 <1>   0.2000 
 17 C        3.4490     1.0110    -0.2170 C.ar  1 <1>  -0.1500 
 18 O       -0.9740    -3.2230    -2.0180 O.co2 1 <1>  -0.9000 
 19 O       -2.1630    -4.5260    -0.7640 O.co2 1 <1>  -0.9000 
 20 O       -3.9400    -3.2780     0.7550 O.3   1 <1>  -0.6800 
 21 H       -1.7880    -0.8330    -1.6430 H     1 <1>   0.0800 
 22 H       -0.3370    -1.0350    -0.7260 H     1 <1>   0.0800 
 23 H       -3.4490     1.1820     1.0030 H     1 <1>   0.0800 
 24 H       -3.7130     0.5000    -0.5710 H     1 <1>   0.0800 
 25 H        1.5670    -1.0260     1.6770 H     1 <1>   0.1500 
 26 H       -1.4890    -2.4940     0.8530 H     1 <1>   0.0800 
 27 H       -4.8780    -0.8410     1.0810 H     1 <1>   0.0800 
 28 H       -3.4090    -1.0730     1.9920 H     1 <1>   0.0800 
 29 H        2.7830     2.8160    -1.1110 H     1 <1>   0.1500 
 30 H        0.6310     3.6490    -1.0830 H     1 <1>   0.0800 
 31 H       -0.0310     3.5470     0.5250 H     1 <1>   0.0800 
 32 H       -0.6790     2.5540    -0.7630 H     1 <1>   0.0800 
 33 H        3.8310    -0.8350     0.7850 H     1 <1>   0.1500 
 34 H       -3.9720    -2.0690    -0.8210 H     1 <1>   0.0800 
 35 H        4.4460     1.0970    -0.6130 H     1 <1>   0.1500 
 36 H       -3.4500    -4.0380     0.3220 H     1 <1>   0.4000 
@<TRIPOS>BOND
  1   1   2  2   
  2   1   3  2   
  3   1   4  am  
  4   1   5  1   
  5   4   6  1   
  6   4   7  1   
  7   5   8  ar  
  8   5   9  ar  
  9   6  10  1   
 10   6  21  1   
 11   6  22  1   
 12   7  11  1   
 13   7  23  1   
 14   7  24  1   
 15   8  12  ar  
 16   8  13  1   
 17   9  14  ar  
 18   9  25  1   
 19  10  15  1   
 20  10  16  1   
 21  10  26  1   
 22  11  16  1   
 23  11  27  1   
 24  11  28  1   
 25  12  17  ar  
 26  12  29  1   
 27  13  30  1   
 28  13  31  1   
 29  13  32  1   
 30  14  17  ar  
 31  14  33  1   
 32  15  18  ar  
 33  15  19  ar  
 34  16  20  1   
 35  16  34  1   
 36  17  35  1   
 37  20  36  1   
@<TRIPOS>SUBSTRUCTURE
  1 ****   6 GROUP 4 **** **** 0

# MOE 2024.06 (io_trps.svl 2023.06)
