@<TRIPOS>MOLECULE
NONAME
49 51 1 0 0 
SMALL
USER_CHARGES


@<TRIPOS>ATOM
  1 O       -1.4470     0.3050    -0.4140 O.co2 1 <1>  -0.9000 
  2 C       -0.8520     1.2410    -0.9580 C.2   1 <1>   0.9060 
  3 O       -0.5860     1.2060    -2.1690 O.co2 1 <1>  -0.9000 
  4 C       -0.5580     2.5360    -0.1940 C.3   1 <1>  -0.1060 
  5 C       -1.6300     3.5520    -0.6560 C.3   1 <1>   0.2000 
  6 C        0.8430     3.0630    -0.5840 C.3   1 <1>   0.1400 
  7 C       -0.6550     2.3210     1.3490 C.3   1 <1>  -0.0650 
  8 O       -1.6600     3.6220    -2.0430 O.3   1 <1>  -0.6800 
  9 C       -1.3580     4.9760    -0.1590 C.3   1 <1>  -0.1600 
 10 N        1.0760     4.4630    -0.0860 N.am  1 <1>  -0.6600 
 11 C        0.3550     1.3210     1.9380 C.3   1 <1>  -0.1950 
 12 C        0.0460     5.4390    -0.5520 C.3   1 <1>   0.1400 
 13 C        2.2700     4.8260     0.4950 C.2   1 <1>   0.5690 
 14 C        0.5490     1.2380     3.4190 C.3   1 <1>  -0.2000 
 15 C        1.6450     1.7740     2.5450 C.3   1 <1>  -0.2000 
 16 O        3.1760     4.0390     0.6560 O.2   1 <1>  -0.5700 
 17 C        2.5040     6.2450     1.0050 C.3   1 <1>   0.1810 
 18 O        2.5730     7.1780    -0.0640 O.3   1 <1>  -0.3630 
 19 C        2.4470     8.5090     0.1660 C.ar  1 <1>   0.0820 
 20 C        2.0300     9.3120    -0.8910 C.ar  1 <1>  -0.1430 
 21 C        2.7140     9.0800     1.4080 C.ar  1 <1>  -0.1500 
 22 C        1.8730    10.6740    -0.6920 C.ar  1 <1>  -0.1500 
 23 C        1.7450     8.7070    -2.2590 C.3   1 <1>  -0.0970 
 24 C        2.5530    10.4410     1.5950 C.ar  1 <1>  -0.1500 
 25 C        2.1310    11.2380     0.5460 C.ar  1 <1>  -0.1500 
 26 H       -2.6030     3.2180    -0.3380 H     1 <1>   0.0800 
 27 H        0.9370     3.0740    -1.6570 H     1 <1>   0.0800 
 28 H        1.5980     2.3940    -0.2100 H     1 <1>   0.0800 
 29 H       -0.5320     3.2550     1.8630 H     1 <1>   0.0800 
 30 H       -1.6420     1.9570     1.5770 H     1 <1>   0.0800 
 31 H       -1.3560     2.7300    -2.3890 H     1 <1>   0.4000 
 32 H       -2.0890     5.6400    -0.5820 H     1 <1>   0.0800 
 33 H       -1.4650     5.0270     0.9080 H     1 <1>   0.0800 
 34 H        0.3510     0.3780     1.4160 H     1 <1>   0.1000 
 35 H        0.2140     6.4180    -0.1430 H     1 <1>   0.0800 
 36 H        0.1090     5.5140    -1.6240 H     1 <1>   0.0800 
 37 H        0.0100     1.9200     4.0520 H     1 <1>   0.1000 
 38 H        0.6630     0.2640     3.8610 H     1 <1>   0.1000 
 39 H        2.5210     1.1800     2.3550 H     1 <1>   0.1000 
 40 H        1.8630     2.8250     2.5820 H     1 <1>   0.1000 
 41 H        3.4340     6.2840     1.5410 H     1 <1>   0.0800 
 42 H        1.6960     6.5230     1.6550 H     1 <1>   0.0800 
 43 H        3.0540     8.4850     2.2330 H     1 <1>   0.1500 
 44 H        1.5480    11.3060    -1.5000 H     1 <1>   0.1500 
 45 H        1.5210     9.4690    -2.9830 H     1 <1>   0.0800 
 46 H        0.9090     8.0350    -2.1940 H     1 <1>   0.0800 
 47 H        2.6040     8.1550    -2.5990 H     1 <1>   0.0800 
 48 H        2.7590    10.8830     2.5540 H     1 <1>   0.1500 
 49 H        2.0050    12.2970     0.6900 H     1 <1>   0.1500 
@<TRIPOS>BOND
  1   1   2  ar  
  2   2   3  ar  
  3   2   4  1   
  4   4   5  1   
  5   4   6  1   
  6   4   7  1   
  7   5   8  1   
  8   5   9  1   
  9   5  26  1   
 10   6  10  1   
 11   6  27  1   
 12   6  28  1   
 13   7  11  1   
 14   7  29  1   
 15   7  30  1   
 16   8  31  1   
 17   9  12  1   
 18   9  32  1   
 19   9  33  1   
 20  10  12  1   
 21  10  13  am  
 22  11  14  1   
 23  11  15  1   
 24  11  34  1   
 25  12  35  1   
 26  12  36  1   
 27  13  16  2   
 28  13  17  1   
 29  14  15  1   
 30  14  37  1   
 31  14  38  1   
 32  15  39  1   
 33  15  40  1   
 34  17  18  1   
 35  17  41  1   
 36  17  42  1   
 37  18  19  1   
 38  19  20  ar  
 39  19  21  ar  
 40  20  22  ar  
 41  20  23  1   
 42  21  24  ar  
 43  21  43  1   
 44  22  25  ar  
 45  22  44  1   
 46  23  45  1   
 47  23  46  1   
 48  23  47  1   
 49  24  25  ar  
 50  24  48  1   
 51  25  49  1   
@<TRIPOS>SUBSTRUCTURE
  1 ****  10 GROUP 4 **** **** 0

# MOE 2024.06 (io_trps.svl 2023.06)
