@<TRIPOS>MOLECULE
NONAME
21 21 1 0 0 
SMALL
USER_CHARGES


@<TRIPOS>ATOM
  1 O       -0.7560     1.2760     1.1370 O.co2 1 <1>  -0.9000 
  2 C       -0.6780     1.5190    -0.0720 C.2   1 <1>   0.9060 
  3 O       -1.3360     0.8960    -0.9130 O.co2 1 <1>  -0.9000 
  4 C        0.2620     2.6170    -0.5670 C.3   1 <1>  -0.1860 
  5 C       -0.1530     4.0390    -0.1750 C.3   1 <1>  -0.1600 
  6 C        1.7060     2.5180    -0.0600 C.3   1 <1>  -0.1600 
  7 C        1.0950     4.8680    -0.4490 C.3   1 <1>   0.2000 
  8 C        2.2850     3.9340    -0.1880 C.3   1 <1>  -0.1600 
  9 O        1.1210     5.9740     0.3990 O.3   1 <1>  -0.5600 
 10 C        2.0180     6.9710     0.0290 C.3   1 <1>   0.0400 
 11 H        0.2770     2.5560    -1.6390 H     1 <1>   0.0800 
 12 H       -0.3880     4.0590     0.8760 H     1 <1>   0.0800 
 13 H       -0.9990     4.3730    -0.7460 H     1 <1>   0.0800 
 14 H        1.6920     2.2320     0.9790 H     1 <1>   0.0800 
 15 H        2.2680     1.7880    -0.6140 H     1 <1>   0.0800 
 16 H        1.0850     5.1980    -1.4750 H     1 <1>   0.0800 
 17 H        2.9680     3.9790    -1.0160 H     1 <1>   0.0800 
 18 H        2.7960     4.1990     0.7210 H     1 <1>   0.0800 
 19 H        1.9470     7.7660     0.7500 H     1 <1>   0.0800 
 20 H        1.7530     7.3400    -0.9460 H     1 <1>   0.0800 
 21 H        3.0160     6.5710     0.0270 H     1 <1>   0.0800 
@<TRIPOS>BOND
  1   1   2  ar  
  2   2   3  ar  
  3   2   4  1   
  4   4   5  1   
  5   4   6  1   
  6   4  11  1   
  7   5   7  1   
  8   5  12  1   
  9   5  13  1   
 10   6   8  1   
 11   6  14  1   
 12   6  15  1   
 13   7   8  1   
 14   7   9  1   
 15   7  16  1   
 16   8  17  1   
 17   8  18  1   
 18   9  10  1   
 19  10  19  1   
 20  10  20  1   
 21  10  21  1   
@<TRIPOS>SUBSTRUCTURE
  1 ****   5 GROUP 4 **** **** 0

# MOE 2024.06 (io_trps.svl 2023.06)
