@<TRIPOS>MOLECULE
NONAME
54 57 1 0 0 
SMALL
USER_CHARGES


@<TRIPOS>ATOM
  1 O        0.3830     0.4830    -2.2060 O.2   1 <1>  -0.5700 
  2 C        1.0930     0.3080    -1.2330 C.2   1 <1>   0.5440 
  3 N        0.5430     0.4730     0.0200 N.am  1 <1>  -0.6600 
  4 C        2.4740    -0.0510    -1.4220 C.ar  1 <1>   0.0860 
  5 C        1.3230     0.6620     1.2650 C.3   1 <1>   0.1400 
  6 C       -0.8840     0.8080     0.2310 C.3   1 <1>   0.1400 
  7 C        2.9930    -1.2620    -0.9280 C.ar  1 <1>   0.4100 
  8 C        3.3300     0.7840    -2.1270 C.ar  1 <1>  -0.1500 
  9 C        0.2760     0.8840     2.3500 C.3   1 <1>  -0.1600 
 10 C       -0.9320     1.4550     1.6110 C.3   1 <1>  -0.1600 
 11 N        4.2600    -1.6410    -1.0810 N.ar  1 <1>  -0.6200 
 12 N        2.1940    -2.1390    -0.2350 N.pl3 1 <1>  -0.8690 
 13 C        4.6380     0.3890    -2.2870 C.ar  1 <1>  -0.1500 
 14 C        5.0450    -0.8190    -1.7480 C.ar  1 <1>   0.1600 
 15 C        2.4130    -3.5840    -0.1760 C.3   1 <1>   0.4700 
 16 C        1.0730    -4.2490    -0.4400 C.2   1 <1>  -0.1810 
 17 C        2.9600    -3.9170     1.2070 C.3   1 <1>  -0.2400 
 18 C        0.3570    -4.1250    -1.6240 C.2   1 <1>   0.1390 
 19 C        0.3050    -5.0530     0.3290 C.2   1 <1>  -0.3020 
 20 N       -0.7540    -4.7930    -1.6000 N.2   1 <1>  -0.7070 
 21 N       -0.8070    -5.3770    -0.3770 N.pl3 1 <1>   0.5930 
 22 C       -1.8820    -6.2100     0.0540 C.ar  1 <1>  -0.0230 
 23 C       -2.5860    -6.9890    -0.8620 C.ar  1 <1>  -0.1500 
 24 C       -2.2560    -6.2690     1.3950 C.ar  1 <1>  -0.1500 
 25 C       -3.6230    -7.8090    -0.4560 C.ar  1 <1>  -0.1500 
 26 C       -3.2920    -7.0890     1.8050 C.ar  1 <1>  -0.1500 
 27 C       -3.9820    -7.8640     0.8880 C.ar  1 <1>   0.0820 
 28 O       -4.9830    -8.6400     1.3740 O.3   1 <1>  -0.3620 
 29 C       -5.7570    -9.4510     0.5180 C.3   1 <1>   0.0400 
 30 H        1.9470     1.5340     1.1610 H     1 <1>   0.0800 
 31 H        1.9350    -0.1960     1.4870 H     1 <1>   0.0800 
 32 H       -1.4620    -0.1000     0.2160 H     1 <1>   0.0800 
 33 H       -1.2440     1.4770    -0.5320 H     1 <1>   0.0800 
 34 H        2.9660     1.7100    -2.5360 H     1 <1>   0.1500 
 35 H        0.6330     1.5410     3.1230 H     1 <1>   0.0800 
 36 H        0.0200    -0.0650     2.7870 H     1 <1>   0.0800 
 37 H       -1.8590     1.2490     2.1160 H     1 <1>   0.0800 
 38 H       -0.8230     2.5200     1.4990 H     1 <1>   0.0800 
 39 H        1.2050    -1.8880    -0.1330 H     1 <1>   0.4000 
 40 H        5.3360     1.0040    -2.8240 H     1 <1>   0.1500 
 41 H        6.0710    -1.1200    -1.8760 H     1 <1>   0.1500 
 42 H        3.1180    -3.8910    -0.9320 H     1 <1>   0.0800 
 43 H        2.2710    -3.6030     1.9680 H     1 <1>   0.0800 
 44 H        3.9010    -3.4180     1.3490 H     1 <1>   0.0800 
 45 H        3.1180    -4.9760     1.2900 H     1 <1>   0.0800 
 46 H        0.6800    -3.5390    -2.4700 H     1 <1>   0.1500 
 47 H        0.4770    -5.4160     1.3230 H     1 <1>   0.1500 
 48 H       -2.3160    -6.9480    -1.9040 H     1 <1>   0.1500 
 49 H       -1.7430    -5.6710     2.1270 H     1 <1>   0.1500 
 50 H       -4.1370    -8.3930    -1.1960 H     1 <1>   0.1500 
 51 H       -3.5770    -7.1320     2.8400 H     1 <1>   0.1500 
 52 H       -6.4870    -9.9650     1.1170 H     1 <1>   0.0800 
 53 H       -5.1130   -10.1640     0.0350 H     1 <1>   0.0800 
 54 H       -6.2520    -8.8250    -0.2030 H     1 <1>   0.0800 
@<TRIPOS>BOND
  1   1   2  2   
  2   2   3  am  
  3   2   4  1   
  4   3   5  1   
  5   3   6  1   
  6   4   7  ar  
  7   4   8  ar  
  8   5   9  1   
  9   5  30  1   
 10   5  31  1   
 11   6  10  1   
 12   6  32  1   
 13   6  33  1   
 14   7  11  ar  
 15   7  12  1   
 16   8  13  ar  
 17   8  34  1   
 18   9  10  1   
 19   9  35  1   
 20   9  36  1   
 21  10  37  1   
 22  10  38  1   
 23  11  14  ar  
 24  12  15  1   
 25  12  39  1   
 26  13  14  ar  
 27  13  40  1   
 28  14  41  1   
 29  15  16  1   
 30  15  17  1   
 31  15  42  1   
 32  16  18  1   
 33  16  19  2   
 34  17  43  1   
 35  17  44  1   
 36  17  45  1   
 37  18  20  2   
 38  18  46  1   
 39  19  21  1   
 40  19  47  1   
 41  20  21  1   
 42  21  22  1   
 43  22  23  ar  
 44  22  24  ar  
 45  23  25  ar  
 46  23  48  1   
 47  24  26  ar  
 48  24  49  1   
 49  25  27  ar  
 50  25  50  1   
 51  26  27  ar  
 52  26  51  1   
 53  27  28  1   
 54  28  29  1   
 55  29  52  1   
 56  29  53  1   
 57  29  54  1   
@<TRIPOS>SUBSTRUCTURE
  1 ****  16 GROUP 4 **** **** 0

# MOE 2024.06 (io_trps.svl 2023.06)
