@<TRIPOS>MOLECULE
NONAME
38 41 1 0 0 
SMALL
USER_CHARGES


@<TRIPOS>ATOM
  1 CL      -0.4530     2.5830    -1.3350 Cl    1 <1>  -0.1770 
  2 C        1.0110     3.1640    -0.5830 C.ar  1 <1>   0.1770 
  3 C        2.2330     2.8510    -1.1490 C.ar  1 <1>  -0.1500 
  4 C        0.9180     3.9320     0.5730 C.ar  1 <1>  -0.1500 
  5 C        3.3550     3.3390    -0.5080 C.ar  1 <1>   0.0400 
  6 C        2.0690     4.4040     1.1880 C.ar  1 <1>  -0.1500 
  7 S        5.0330     3.1330    -0.9450 S.3   1 <1>  -0.0800 
  8 C        3.3130     4.1060     0.6420 C.ar  1 <1>   0.2270 
  9 C        5.5190     4.1030     0.4570 C.2   1 <1>   0.4620 
 10 N        4.5270     4.5200     1.1600 N.2   1 <1>  -0.5650 
 11 N        6.8580     4.3520     0.6870 N.pl3 1 <1>  -0.8220 
 12 C        7.2390     5.3830     1.7070 C.3   1 <1>   0.2090 
 13 C        7.9530     3.9550    -0.2520 C.3   1 <1>   0.2090 
 14 C        7.6010     6.7680     1.1040 C.3   1 <1>   0.2200 
 15 C        8.4310     5.1070    -1.1610 C.3   1 <1>  -0.0190 
 16 N        7.0340     6.9920    -0.2680 N.am  1 <1>  -0.6600 
 17 C        9.1220     7.0190     1.1090 C.3   1 <1>   0.1200 
 18 C        7.4000     6.2080    -1.3340 C.2   1 <1>   0.5690 
 19 C        9.7860     5.6950    -0.7420 C.3   1 <1>   0.1200 
 20 C        5.8600     7.9020    -0.3410 C.3   1 <1>   0.0600 
 21 O        9.8570     5.9290     0.6310 O.3   1 <1>  -0.5600 
 22 O        6.9430     6.3750    -2.4420 O.2   1 <1>  -0.5700 
 23 H        2.3050     2.2590    -2.0430 H     1 <1>   0.1500 
 24 H       -0.0520     4.1540     0.9830 H     1 <1>   0.1500 
 25 H        2.0220     4.9990     2.0820 H     1 <1>   0.1500 
 26 H        6.4260     5.5240     2.3970 H     1 <1>   0.0800 
 27 H        8.0640     5.0120     2.2890 H     1 <1>   0.0800 
 28 H        8.7820     3.5810     0.3240 H     1 <1>   0.0800 
 29 H        7.6270     3.1410    -0.8720 H     1 <1>   0.0800 
 30 H        7.1790     7.5120     1.7550 H     1 <1>   0.0800 
 31 H        8.5890     4.6830    -2.1350 H     1 <1>   0.0800 
 32 H        9.4440     7.1790     2.1220 H     1 <1>   0.0800 
 33 H        9.3690     7.8960     0.5360 H     1 <1>   0.0800 
 34 H        9.9930     6.6110    -1.2700 H     1 <1>   0.0800 
 35 H       10.5650     4.9900    -0.9740 H     1 <1>   0.0800 
 36 H        6.1280     8.8770     0.0250 H     1 <1>   0.0800 
 37 H        5.0580     7.5010     0.2560 H     1 <1>   0.0800 
 38 H        5.5140     7.9990    -1.3560 H     1 <1>   0.0800 
@<TRIPOS>BOND
  1   1   2  1   
  2   2   3  ar  
  3   2   4  ar  
  4   3   5  ar  
  5   3  23  1   
  6   4   6  ar  
  7   4  24  1   
  8   5   7  1   
  9   5   8  ar  
 10   6   8  ar  
 11   6  25  1   
 12   7   9  1   
 13   8  10  1   
 14   9  10  2   
 15   9  11  1   
 16  11  12  1   
 17  11  13  1   
 18  12  14  1   
 19  12  26  1   
 20  12  27  1   
 21  13  15  1   
 22  13  28  1   
 23  13  29  1   
 24  14  16  1   
 25  14  17  1   
 26  14  30  1   
 27  15  18  1   
 28  15  19  1   
 29  15  31  1   
 30  16  18  am  
 31  16  20  1   
 32  17  21  1   
 33  17  32  1   
 34  17  33  1   
 35  18  22  2   
 36  19  21  1   
 37  19  34  1   
 38  19  35  1   
 39  20  36  1   
 40  20  37  1   
 41  20  38  1   
@<TRIPOS>SUBSTRUCTURE
  1 ****   9 GROUP 4 **** **** 0

# MOE 2024.06 (io_trps.svl 2023.06)
