@<TRIPOS>MOLECULE
NONAME
36 38 1 0 0 
SMALL
USER_CHARGES


@<TRIPOS>ATOM
  1 CL      -3.6920     1.3960    -1.6660 Cl    1 <1>  -0.1230 
  2 C       -3.3750     0.7230    -0.0750 C.2   1 <1>   0.1230 
  3 C       -3.3530    -0.6290     0.2870 C.2   1 <1>   0.2030 
  4 C       -3.1040     1.4410     1.0270 C.2   1 <1>  -0.3020 
  5 N       -3.0760    -0.7230     1.5830 N.2   1 <1>  -0.7070 
  6 C       -3.5920    -1.7590    -0.5940 C.2   1 <1>   0.7160 
  7 N       -2.9270     0.5430     2.0150 N.pl3 1 <1>   0.3000 
  8 O       -3.9080    -1.6390    -1.7650 O.2   1 <1>  -0.5700 
  9 N       -3.4760    -3.0240    -0.0950 N.am  1 <1>  -0.7300 
 10 C       -3.6510    -4.2910    -0.8410 C.3   1 <1>   0.2200 
 11 C       -4.9670    -4.9680    -0.4830 C.3   1 <1>  -0.0800 
 12 C       -2.6550    -5.3180    -0.3200 C.3   1 <1>   0.1200 
 13 C       -4.6190    -5.7390     0.7940 C.3   1 <1>   0.1200 
 14 C       -6.1890    -4.0400    -0.3490 C.3   1 <1>  -0.0160 
 15 O       -3.2250    -5.8300     0.8470 O.3   1 <1>  -0.5600 
 16 C       -7.4520    -4.8440    -0.0820 C.ar  1 <1>  -0.1430 
 17 C       -7.9630    -5.0050     1.1900 C.ar  1 <1>  -0.1500 
 18 C       -8.1510    -5.4560    -1.1020 C.ar  1 <1>  -0.1500 
 19 C       -9.1130    -5.7550     1.3760 C.ar  1 <1>   0.1600 
 20 C       -9.2920    -6.1840    -0.8090 C.ar  1 <1>   0.1600 
 21 N       -9.7890    -6.3510     0.4070 N.ar  1 <1>  -0.6200 
 22 H       -3.0300     2.5050     1.1570 H     1 <1>   0.1500 
 23 H       -2.7020     0.7680     2.9940 H     1 <1>   0.2700 
 24 H       -3.2300    -3.1140     0.8960 H     1 <1>   0.3700 
 25 H       -3.5460    -4.1250    -1.9000 H     1 <1>   0.0800 
 26 H       -5.1800    -5.6940    -1.2470 H     1 <1>   0.0800 
 27 H       -1.6930    -4.8930    -0.0990 H     1 <1>   0.0800 
 28 H       -2.5470    -6.1310    -1.0170 H     1 <1>   0.0800 
 29 H       -5.0380    -6.7310     0.7900 H     1 <1>   0.0800 
 30 H       -4.9410    -5.2110     1.6750 H     1 <1>   0.0800 
 31 H       -6.3100    -3.4750    -1.2570 H     1 <1>   0.0800 
 32 H       -6.0410    -3.3350     0.4510 H     1 <1>   0.0800 
 33 H       -7.4800    -4.5560     2.0390 H     1 <1>   0.1500 
 34 H       -7.8200    -5.3720    -2.1200 H     1 <1>   0.1500 
 35 H       -9.4970    -5.8710     2.3750 H     1 <1>   0.1500 
 36 H       -9.8250    -6.6550    -1.6170 H     1 <1>   0.1500 
@<TRIPOS>BOND
  1   1   2  1   
  2   2   3  1   
  3   2   4  2   
  4   3   5  2   
  5   3   6  1   
  6   4   7  1   
  7   4  22  1   
  8   5   7  1   
  9   6   8  2   
 10   6   9  am  
 11   7  23  1   
 12   9  10  1   
 13   9  24  1   
 14  10  11  1   
 15  10  12  1   
 16  10  25  1   
 17  11  13  1   
 18  11  14  1   
 19  11  26  1   
 20  12  15  1   
 21  12  27  1   
 22  12  28  1   
 23  13  15  1   
 24  13  29  1   
 25  13  30  1   
 26  14  16  1   
 27  14  31  1   
 28  14  32  1   
 29  16  17  ar  
 30  16  18  ar  
 31  17  19  ar  
 32  17  33  1   
 33  18  20  ar  
 34  18  34  1   
 35  19  21  ar  
 36  19  35  1   
 37  20  21  ar  
 38  20  36  1   
@<TRIPOS>SUBSTRUCTURE
  1 ****  14 GROUP 4 **** **** 0

# MOE 2024.06 (io_trps.svl 2023.06)
