@<TRIPOS>MOLECULE
NONAME
44 45 1 0 0 
SMALL
USER_CHARGES


@<TRIPOS>ATOM
  1 CL      -2.1790     0.3500    -2.5330 Cl    1 <1>  -0.1770 
  2 C       -2.4820    -0.7200    -1.1830 C.ar  1 <1>   0.1770 
  3 C       -2.0360    -0.3830     0.0860 C.ar  1 <1>  -0.1440 
  4 C       -3.1700    -1.8930    -1.4210 C.ar  1 <1>  -0.1500 
  5 C       -2.3010    -1.2590     1.1250 C.ar  1 <1>  -0.1500 
  6 C       -1.2790     0.9130     0.3400 C.3   1 <1>  -0.0960 
  7 C       -3.4370    -2.7880    -0.3860 C.ar  1 <1>   0.0860 
  8 C       -2.9910    -2.4370     0.8910 C.ar  1 <1>  -0.1500 
  9 C       -4.1530    -4.0260    -0.6450 C.2   1 <1>   0.5440 
 10 O       -4.9180    -4.1190    -1.5850 O.2   1 <1>  -0.5700 
 11 N       -3.9930    -5.1150     0.1610 N.am  1 <1>  -0.7300 
 12 C       -4.6790    -6.4130    -0.0340 C.3   1 <1>   0.2200 
 13 C       -6.0600    -6.3540     0.6240 C.3   1 <1>  -0.0800 
 14 C       -3.9690    -7.5140     0.7500 C.3   1 <1>   0.1200 
 15 C       -5.9620    -7.3570     1.7800 C.3   1 <1>   0.1200 
 16 C       -7.2250    -6.5420    -0.3760 C.3   1 <1>  -0.0550 
 17 O       -4.5990    -7.5320     1.9900 O.3   1 <1>  -0.5600 
 18 S       -7.4090    -8.1540    -1.1560 S.o2  1 <1>   1.3330 
 19 O       -6.1010    -8.7270    -1.3810 O.2   1 <1>  -0.6500 
 20 O       -8.3340    -8.0380    -2.2610 O.2   1 <1>  -0.6500 
 21 N       -8.1870    -9.0840     0.0360 N.am  1 <1>  -0.8490 
 22 C       -7.8710   -10.5110    -0.0790 C.3   1 <1>   0.1160 
 23 C       -9.6440    -8.9020     0.0610 C.3   1 <1>   0.1160 
 24 H       -3.5020    -2.1180    -2.4190 H     1 <1>   0.1500 
 25 H       -1.9740    -1.0260     2.1250 H     1 <1>   0.1500 
 26 H       -1.0110     1.0080     1.3770 H     1 <1>   0.0800 
 27 H       -1.8900     1.7550     0.0670 H     1 <1>   0.0800 
 28 H       -0.3790     0.9340    -0.2490 H     1 <1>   0.0800 
 29 H       -3.1900    -3.0900     1.7220 H     1 <1>   0.1500 
 30 H       -3.4130    -5.0650     0.9990 H     1 <1>   0.3700 
 31 H       -4.7120    -6.6490    -1.0850 H     1 <1>   0.0800 
 32 H       -6.1950    -5.3830     1.0680 H     1 <1>   0.0800 
 33 H       -2.9170    -7.3330     0.8760 H     1 <1>   0.0800 
 34 H       -4.1250    -8.4730     0.2850 H     1 <1>   0.0800 
 35 H       -6.3690    -8.3200     1.5380 H     1 <1>   0.0800 
 36 H       -6.4110    -6.9880     2.6850 H     1 <1>   0.0800 
 37 H       -7.0890    -5.8140    -1.1530 H     1 <1>   0.0800 
 38 H       -8.1420    -6.2930     0.1190 H     1 <1>   0.0800 
 39 H       -8.3720   -11.0690     0.6930 H     1 <1>   0.0800 
 40 H       -6.8100   -10.6640     0.0330 H     1 <1>   0.0800 
 41 H       -8.1740   -10.8850    -1.0430 H     1 <1>   0.0800 
 42 H      -10.0690    -9.4360     0.8930 H     1 <1>   0.0800 
 43 H      -10.0850    -9.2670    -0.8520 H     1 <1>   0.0800 
 44 H       -9.8880    -7.8590     0.1670 H     1 <1>   0.0800 
@<TRIPOS>BOND
  1   1   2  1   
  2   2   3  ar  
  3   2   4  ar  
  4   3   5  ar  
  5   3   6  1   
  6   4   7  ar  
  7   4  24  1   
  8   5   8  ar  
  9   5  25  1   
 10   6  26  1   
 11   6  27  1   
 12   6  28  1   
 13   7   8  ar  
 14   7   9  1   
 15   8  29  1   
 16   9  10  2   
 17   9  11  am  
 18  11  12  1   
 19  11  30  1   
 20  12  13  1   
 21  12  14  1   
 22  12  31  1   
 23  13  15  1   
 24  13  16  1   
 25  13  32  1   
 26  14  17  1   
 27  14  33  1   
 28  14  34  1   
 29  15  17  1   
 30  15  35  1   
 31  15  36  1   
 32  16  18  1   
 33  16  37  1   
 34  16  38  1   
 35  18  19  2   
 36  18  20  2   
 37  18  21  am  
 38  21  22  1   
 39  21  23  1   
 40  22  39  1   
 41  22  40  1   
 42  22  41  1   
 43  23  42  1   
 44  23  43  1   
 45  23  44  1   
@<TRIPOS>SUBSTRUCTURE
  1 ****  11 GROUP 4 **** **** 0

# MOE 2024.06 (io_trps.svl 2023.06)
