@<TRIPOS>MOLECULE
NONAME
49 52 1 0 0 
SMALL
USER_CHARGES


@<TRIPOS>ATOM
  1 F       -0.6540     1.3900    -1.3260 F     1 <1>  -0.3400 
  2 C       -1.2900     1.1470    -0.1840 C.3   1 <1>   1.1640 
  3 F       -0.4850     1.5680     0.7880 F     1 <1>  -0.3400 
  4 F       -1.3230    -0.1800    -0.0700 F     1 <1>  -0.3400 
  5 C       -2.6980     1.7970    -0.1260 C.ar  1 <1>   0.1660 
  6 N       -2.8110     3.1160    -0.2110 N.ar  1 <1>  -0.6200 
  7 C       -3.8230     1.0190     0.0130 C.ar  1 <1>  -0.1500 
  8 C       -4.0380     3.6190    -0.1510 C.ar  1 <1>   0.7200 
  9 C       -5.0590     1.6330     0.0580 C.ar  1 <1>   0.4100 
 10 N       -5.1640     2.9370    -0.0190 N.ar  1 <1>  -0.6200 
 11 N       -4.1460     4.9870    -0.2430 N.pl3 1 <1>  -0.8380 
 12 N       -6.2320     0.9080     0.1950 N.pl3 1 <1>  -0.8380 
 13 C       -5.4240     5.7030    -0.0500 C.3   1 <1>   0.2090 
 14 C       -2.9930     5.9070    -0.1370 C.3   1 <1>   0.2090 
 15 C       -7.5640     1.5520     0.0150 C.3   1 <1>   0.2090 
 16 C       -6.3420    -0.5570    -0.0180 C.3   1 <1>   0.2090 
 17 C       -5.0490     7.1790    -0.1120 C.3   1 <1>  -0.1600 
 18 C       -3.5920     7.2260     0.3390 C.3   1 <1>  -0.1600 
 19 C       -8.5120     0.4190    -0.3840 C.3   1 <1>   0.2000 
 20 C       -7.8360    -0.8670     0.0820 C.3   1 <1>  -0.0800 
 21 O       -9.7560     0.5400     0.2190 O.3   1 <1>  -0.6800 
 22 C       -8.2830    -2.0940    -0.7320 C.3   1 <1>  -0.0170 
 23 C       -7.6990    -3.3890    -0.1900 C.ar  1 <1>   0.1670 
 24 N       -6.4250    -3.6290    -0.4620 N.ar  1 <1>  -0.6200 
 25 C       -8.5040    -4.2560     0.5490 C.ar  1 <1>   0.1600 
 26 C       -6.0190    -4.7830     0.0430 C.ar  1 <1>   0.1600 
 27 N       -8.0970    -5.4070     1.0580 N.ar  1 <1>  -0.6200 
 28 C       -6.8270    -5.6420     0.7780 C.ar  1 <1>   0.1600 
 29 H       -3.7610    -0.0480     0.0900 H     1 <1>   0.1500 
 30 H       -6.1310     5.4370    -0.8170 H     1 <1>   0.0800 
 31 H       -5.8260     5.4540     0.9180 H     1 <1>   0.0800 
 32 H       -2.2570     5.5380     0.5570 H     1 <1>   0.0800 
 33 H       -2.5480     6.0210    -1.1110 H     1 <1>   0.0800 
 34 H       -7.8620     2.0050     0.9440 H     1 <1>   0.0800 
 35 H       -7.5270     2.2970    -0.7610 H     1 <1>   0.0800 
 36 H       -5.9660    -0.8050    -0.9970 H     1 <1>   0.0800 
 37 H       -5.7870    -1.1000     0.7290 H     1 <1>   0.0800 
 38 H       -5.1270     7.5110    -1.1330 H     1 <1>   0.0800 
 39 H       -5.6930     7.7800     0.5050 H     1 <1>   0.0800 
 40 H       -3.5440     7.2580     1.4140 H     1 <1>   0.0800 
 41 H       -3.0630     8.0710    -0.0620 H     1 <1>   0.0800 
 42 H       -8.6480     0.4250    -1.4520 H     1 <1>   0.0800 
 43 H       -8.0560    -1.0270     1.1230 H     1 <1>   0.0800 
 44 H       -9.6570     0.6050     1.1890 H     1 <1>   0.4000 
 45 H       -7.9860    -1.9810    -1.7600 H     1 <1>   0.0800 
 46 H       -9.3570    -2.1510    -0.7140 H     1 <1>   0.0800 
 47 H       -9.5290    -3.9860     0.7280 H     1 <1>   0.1500 
 48 H       -4.9950    -5.0640    -0.1320 H     1 <1>   0.1500 
 49 H       -6.4040    -6.5600     1.1480 H     1 <1>   0.1500 
@<TRIPOS>BOND
  1   1   2  1   
  2   2   3  1   
  3   2   4  1   
  4   2   5  1   
  5   5   6  ar  
  6   5   7  ar  
  7   6   8  ar  
  8   7   9  ar  
  9   7  29  1   
 10   8  10  ar  
 11   8  11  1   
 12   9  10  ar  
 13   9  12  1   
 14  11  13  1   
 15  11  14  1   
 16  12  15  1   
 17  12  16  1   
 18  13  17  1   
 19  13  30  1   
 20  13  31  1   
 21  14  18  1   
 22  14  32  1   
 23  14  33  1   
 24  15  19  1   
 25  15  34  1   
 26  15  35  1   
 27  16  20  1   
 28  16  36  1   
 29  16  37  1   
 30  17  18  1   
 31  17  38  1   
 32  17  39  1   
 33  18  40  1   
 34  18  41  1   
 35  19  20  1   
 36  19  21  1   
 37  19  42  1   
 38  20  22  1   
 39  20  43  1   
 40  21  44  1   
 41  22  23  1   
 42  22  45  1   
 43  22  46  1   
 44  23  24  ar  
 45  23  25  ar  
 46  24  26  ar  
 47  25  27  ar  
 48  25  47  1   
 49  26  28  ar  
 50  26  48  1   
 51  27  28  ar  
 52  28  49  1   
@<TRIPOS>SUBSTRUCTURE
  1 ****   9 GROUP 4 **** **** 0

# MOE 2024.06 (io_trps.svl 2023.06)
