@<TRIPOS>MOLECULE
NONAME
46 48 1 0 0 
SMALL
USER_CHARGES


@<TRIPOS>ATOM
  1 F        4.0350    -2.8020    -0.1100 F     1 <1>  -0.3400 
  2 C        3.2080    -3.8130     0.1110 C.3   1 <1>   0.8800 
  3 F        3.5360    -4.7510    -0.7690 F     1 <1>  -0.3400 
  4 O        1.8990    -3.3720    -0.1670 O.3   1 <1>  -0.3630 
  5 C        0.8150    -4.1190     0.1580 C.ar  1 <1>   0.0830 
  6 C        0.8760    -5.4340     0.6120 C.ar  1 <1>  -0.1500 
  7 C       -0.4190    -3.5070     0.0180 C.ar  1 <1>  -0.1500 
  8 C       -0.2890    -6.1160     0.9160 C.ar  1 <1>  -0.1500 
  9 C       -1.5830    -4.1890     0.3220 C.ar  1 <1>  -0.1500 
 10 C       -1.5260    -5.5020     0.7660 C.ar  1 <1>  -0.1440 
 11 C       -2.8030    -6.2600     1.0780 C.3   1 <1>   0.4870 
 12 N       -3.4870    -6.5990    -0.2050 N.4   1 <1>  -0.9590 
 13 C       -4.8660    -7.1160     0.0070 C.3   1 <1>   0.4230 
 14 C       -2.6450    -7.5340    -1.0230 C.3   1 <1>   0.2630 
 15 C       -5.5920    -7.3540    -1.3160 C.3   1 <1>  -0.1600 
 16 C       -5.7510    -6.1020     0.7310 C.3   1 <1>  -0.1600 
 17 C       -7.0850    -7.2590    -0.9800 C.3   1 <1>  -0.0800 
 18 C       -7.1860    -6.4600     0.3290 C.3   1 <1>  -0.0800 
 19 C       -7.7480    -8.6180    -0.7110 C.3   1 <1>  -0.1600 
 20 C       -7.9040    -7.3700     1.3370 C.3   1 <1>  -0.1600 
 21 C       -8.6640    -8.3650     0.4750 C.3   1 <1>   0.2000 
 22 O       -8.8840    -9.5320     1.1700 O.3   1 <1>  -0.6800 
 23 H        3.3310    -4.1760     1.1150 H     1 <1>   0.0800 
 24 H        1.8130    -5.9470     0.7290 H     1 <1>   0.1500 
 25 H       -0.4590    -2.4880    -0.3300 H     1 <1>   0.1500 
 26 H       -0.2160    -7.1320     1.2680 H     1 <1>   0.1500 
 27 H       -2.5240    -3.6770     0.2100 H     1 <1>   0.1500 
 28 H       -3.4350    -5.6360     1.6880 H     1 <1>   0.0800 
 29 H       -2.5760    -7.1580     1.6300 H     1 <1>   0.0800 
 30 H       -3.5620    -5.7180    -0.7290 H     1 <1>   0.4500 
 31 H       -4.8490    -8.0370     0.5690 H     1 <1>   0.0800 
 32 H       -2.5220    -8.4750    -0.5120 H     1 <1>   0.0800 
 33 H       -1.6700    -7.1060    -1.1970 H     1 <1>   0.0800 
 34 H       -3.1050    -7.7180    -1.9800 H     1 <1>   0.0800 
 35 H       -5.3540    -6.5690    -2.0130 H     1 <1>   0.0800 
 36 H       -5.3440    -8.3050    -1.7530 H     1 <1>   0.0800 
 37 H       -5.6220    -6.1320     1.7990 H     1 <1>   0.0800 
 38 H       -5.5420    -5.1090     0.3730 H     1 <1>   0.0800 
 39 H       -7.6210    -6.7500    -1.7660 H     1 <1>   0.0800 
 40 H       -7.7730    -5.5690     0.1730 H     1 <1>   0.0800 
 41 H       -7.0100    -9.3570    -0.4500 H     1 <1>   0.0800 
 42 H       -8.3090    -8.9580    -1.5650 H     1 <1>   0.0800 
 43 H       -8.5770    -6.8100     1.9620 H     1 <1>   0.0800 
 44 H       -7.1930    -7.8920     1.9530 H     1 <1>   0.0800 
 45 H       -9.6120    -7.9620     0.1580 H     1 <1>   0.0800 
 46 H       -8.0450    -9.9320     1.4620 H     1 <1>   0.4000 
@<TRIPOS>BOND
  1   1   2  1   
  2   2   3  1   
  3   2   4  1   
  4   2  23  1   
  5   4   5  1   
  6   5   6  ar  
  7   5   7  ar  
  8   6   8  ar  
  9   6  24  1   
 10   7   9  ar  
 11   7  25  1   
 12   8  10  ar  
 13   8  26  1   
 14   9  10  ar  
 15   9  27  1   
 16  10  11  1   
 17  11  12  1   
 18  11  28  1   
 19  11  29  1   
 20  12  13  1   
 21  12  14  1   
 22  12  30  1   
 23  13  15  1   
 24  13  16  1   
 25  13  31  1   
 26  14  32  1   
 27  14  33  1   
 28  14  34  1   
 29  15  17  1   
 30  15  35  1   
 31  15  36  1   
 32  16  18  1   
 33  16  37  1   
 34  16  38  1   
 35  17  18  1   
 36  17  19  1   
 37  17  39  1   
 38  18  20  1   
 39  18  40  1   
 40  19  21  1   
 41  19  41  1   
 42  19  42  1   
 43  20  21  1   
 44  20  43  1   
 45  20  44  1   
 46  21  22  1   
 47  21  45  1   
 48  22  46  1   
@<TRIPOS>SUBSTRUCTURE
  1 ****  12 GROUP 4 **** **** 0

# MOE 2024.06 (io_trps.svl 2023.06)
