@<TRIPOS>MOLECULE
NONAME
36 37 1 0 0 
SMALL
USER_CHARGES


@<TRIPOS>ATOM
  1 O        1.3440    -0.0880    -2.0050 O.2   1 <1>  -0.5700 
  2 C        1.8510    -0.1850    -0.9080 C.2   1 <1>   0.7800 
  3 O        1.6360    -1.2310    -0.1110 O.3   1 <1>  -0.4300 
  4 N        2.7010     0.7710    -0.4340 N.am  1 <1>  -0.6600 
  5 C        0.7980    -2.3370    -0.3720 C.3   1 <1>   0.2800 
  6 C        2.9810     2.0460    -1.1220 C.3   1 <1>   0.2200 
  7 C        3.3710     0.7500     0.8890 C.3   1 <1>   0.1400 
  8 C       -0.6550    -1.8750    -0.5380 C.3   1 <1>  -0.2400 
  9 C        1.3080    -3.1130    -1.5920 C.3   1 <1>  -0.2400 
 10 C        0.9050    -3.2230     0.8700 C.3   1 <1>  -0.2400 
 11 C        4.1980     1.8340    -2.0290 C.3   1 <1>  -0.1600 
 12 C        3.4000     2.9580     0.0260 C.3   1 <1>  -0.1600 
 13 C        4.2520     2.0130     0.8610 C.3   1 <1>   0.4230 
 14 C        5.3480     1.1700    -1.2600 C.3   1 <1>   0.3430 
 15 N        5.5330     1.7970     0.0960 N.4   1 <1>  -0.9060 
 16 H        2.1220     2.4130    -1.6630 H     1 <1>   0.0800 
 17 H        3.9400    -0.1520     1.0320 H     1 <1>   0.0800 
 18 H        2.6230     0.8300     1.6590 H     1 <1>   0.0800 
 19 H       -0.7820    -1.3070    -1.4420 H     1 <1>   0.0800 
 20 H       -0.9580    -1.2770     0.3020 H     1 <1>   0.0800 
 21 H       -1.3050    -2.7280    -0.6000 H     1 <1>   0.0800 
 22 H        1.1810    -2.5460    -2.4960 H     1 <1>   0.0800 
 23 H        0.7480    -4.0240    -1.7040 H     1 <1>   0.0800 
 24 H        2.3450    -3.3650    -1.4720 H     1 <1>   0.0800 
 25 H        0.5730    -2.6870     1.7410 H     1 <1>   0.0800 
 26 H        1.9220    -3.5410     1.0170 H     1 <1>   0.0800 
 27 H        0.2910    -4.0980     0.7580 H     1 <1>   0.0800 
 28 H        4.5200     2.7740    -2.4390 H     1 <1>   0.0800 
 29 H        3.9150     1.2080    -2.8590 H     1 <1>   0.0800 
 30 H        2.5270     3.2640     0.5760 H     1 <1>   0.0800 
 31 H        3.9250     3.8390    -0.2980 H     1 <1>   0.0800 
 32 H        4.4470     2.3960     1.8510 H     1 <1>   0.0800 
 33 H        6.2600     1.2290    -1.8330 H     1 <1>   0.0800 
 34 H        5.1040     0.1270    -1.1330 H     1 <1>   0.0800 
 35 H        6.1680     1.2100     0.6500 H     1 <1>   0.4500 
 36 H        5.9960     2.7050    -0.0220 H     1 <1>   0.4500 
@<TRIPOS>BOND
  1   1   2  2   
  2   2   3  1   
  3   2   4  am  
  4   3   5  1   
  5   4   6  1   
  6   4   7  1   
  7   5   8  1   
  8   5   9  1   
  9   5  10  1   
 10   6  11  1   
 11   6  12  1   
 12   6  16  1   
 13   7  13  1   
 14   7  17  1   
 15   7  18  1   
 16   8  19  1   
 17   8  20  1   
 18   8  21  1   
 19   9  22  1   
 20   9  23  1   
 21   9  24  1   
 22  10  25  1   
 23  10  26  1   
 24  10  27  1   
 25  11  14  1   
 26  11  28  1   
 27  11  29  1   
 28  12  13  1   
 29  12  30  1   
 30  12  31  1   
 31  13  15  1   
 32  13  32  1   
 33  14  15  1   
 34  14  33  1   
 35  14  34  1   
 36  15  35  1   
 37  15  36  1   
@<TRIPOS>SUBSTRUCTURE
  1 ****   4 GROUP 4 **** **** 0

# MOE 2024.06 (io_trps.svl 2023.06)
