@<TRIPOS>MOLECULE
NONAME
49 51 1 0 0 
SMALL
USER_CHARGES


@<TRIPOS>ATOM
  1 O        0.2680     0.7940     1.4120 O.2   1 <1>  -0.5700 
  2 C       -0.1010     1.2610     0.3520 C.2   1 <1>   0.5440 
  3 N       -1.4450     1.3210     0.1150 N.am  1 <1>  -0.7300 
  4 C        0.8550     1.7060    -0.6480 C.ar  1 <1>   0.0860 
  5 C       -2.5110     0.9480     1.0800 C.3   1 <1>   0.2200 
  6 C        0.5350     2.6840    -1.5930 C.ar  1 <1>  -0.1500 
  7 C        2.1400     1.1640    -0.7010 C.ar  1 <1>  -0.1500 
  8 C       -2.7130    -0.5800     1.1420 C.3   1 <1>   0.2000 
  9 C       -3.8030     1.6630     0.6770 C.3   1 <1>  -0.1600 
 10 C        1.4480     3.0900    -2.5500 C.ar  1 <1>  -0.1500 
 11 C        3.0580     1.5650    -1.6540 C.ar  1 <1>  -0.1500 
 12 O       -1.6100    -1.1730     1.7410 O.3   1 <1>  -0.6800 
 13 C       -3.9610    -0.9480     1.9550 C.3   1 <1>   0.1100 
 14 C       -4.9680     1.2340     1.5720 C.3   1 <1>   0.1100 
 15 C        2.7120     2.5290    -2.5830 C.ar  1 <1>  -0.1500 
 16 N       -5.1550    -0.2170     1.4630 N.3   1 <1>  -0.8100 
 17 C       -6.3840    -0.6570     2.1930 C.3   1 <1>   0.1710 
 18 C       -6.9040    -2.0320     1.7640 C.2   1 <1>   0.5690 
 19 O       -7.6340    -2.6430     2.5100 O.2   1 <1>  -0.5700 
 20 N       -6.5120    -2.4830     0.5460 N.am  1 <1>  -0.4930 
 21 C       -6.7690    -3.6710    -0.1240 C.2   1 <1>   0.3520 
 22 N       -6.2190    -3.8820    -1.2770 N.2   1 <1>  -0.7070 
 23 C       -7.5740    -4.7310     0.2820 C.2   1 <1>  -0.1500 
 24 N       -6.6600    -5.1020    -1.6450 N.pl3 1 <1>   0.3140 
 25 C       -7.4810    -5.6320    -0.7170 C.2   1 <1>  -0.3020 
 26 C       -6.2510    -5.7090    -2.9150 C.3   1 <1>   0.0160 
 27 H       -1.7660     1.5040    -0.8350 H     1 <1>   0.3700 
 28 H       -2.2310     1.2890     2.0640 H     1 <1>   0.0800 
 29 H       -0.4370     3.1430    -1.5770 H     1 <1>   0.1500 
 30 H        2.4190     0.4150     0.0210 H     1 <1>   0.1500 
 31 H       -2.8060    -0.9810     0.1480 H     1 <1>   0.0800 
 32 H       -3.6660     2.7260     0.7660 H     1 <1>   0.0800 
 33 H       -4.0540     1.4310    -0.3430 H     1 <1>   0.0800 
 34 H        1.1790     3.8450    -3.2700 H     1 <1>   0.1500 
 35 H        4.0420     1.1290    -1.6720 H     1 <1>   0.1500 
 36 H       -0.8230    -0.5790     1.6220 H     1 <1>   0.4000 
 37 H       -3.7900    -0.7060     2.9910 H     1 <1>   0.0800 
 38 H       -4.1180    -2.0100     1.8720 H     1 <1>   0.0800 
 39 H       -5.8620     1.7400     1.2480 H     1 <1>   0.0800 
 40 H       -4.7730     1.5080     2.5970 H     1 <1>   0.0800 
 41 H        3.4250     2.8430    -3.3270 H     1 <1>   0.1500 
 42 H       -6.1990    -0.6710     3.2520 H     1 <1>   0.0800 
 43 H       -7.1790     0.0430     2.0080 H     1 <1>   0.0800 
 44 H       -5.8610    -1.8720     0.0540 H     1 <1>   0.3700 
 45 H       -8.1300    -4.7810     1.2010 H     1 <1>   0.1500 
 46 H       -7.9420    -6.5970    -0.8140 H     1 <1>   0.1500 
 47 H       -6.6770    -6.6910    -3.0010 H     1 <1>   0.0800 
 48 H       -5.1790    -5.7740    -2.9390 H     1 <1>   0.0800 
 49 H       -6.5920    -5.0890    -3.7220 H     1 <1>   0.0800 
@<TRIPOS>BOND
  1   1   2  2   
  2   2   3  am  
  3   2   4  1   
  4   3   5  1   
  5   3  27  1   
  6   4   6  ar  
  7   4   7  ar  
  8   5   8  1   
  9   5   9  1   
 10   5  28  1   
 11   6  10  ar  
 12   6  29  1   
 13   7  11  ar  
 14   7  30  1   
 15   8  12  1   
 16   8  13  1   
 17   8  31  1   
 18   9  14  1   
 19   9  32  1   
 20   9  33  1   
 21  10  15  ar  
 22  10  34  1   
 23  11  15  ar  
 24  11  35  1   
 25  12  36  1   
 26  13  16  1   
 27  13  37  1   
 28  13  38  1   
 29  14  16  1   
 30  14  39  1   
 31  14  40  1   
 32  15  41  1   
 33  16  17  1   
 34  17  18  1   
 35  17  42  1   
 36  17  43  1   
 37  18  19  2   
 38  18  20  am  
 39  20  21  1   
 40  20  44  1   
 41  21  22  2   
 42  21  23  1   
 43  22  24  1   
 44  23  25  2   
 45  23  45  1   
 46  24  25  1   
 47  24  26  1   
 48  25  46  1   
 49  26  47  1   
 50  26  48  1   
 51  26  49  1   
@<TRIPOS>SUBSTRUCTURE
  1 ****   8 GROUP 4 **** **** 0

# MOE 2024.06 (io_trps.svl 2023.06)
