@<TRIPOS>MOLECULE
NONAME
35 36 1 0 0 
SMALL
USER_CHARGES


@<TRIPOS>ATOM
  1 O       -0.4020    -0.1610     0.1770 O.2   1 <1>  -0.5700 
  2 C       -0.3720    -1.3710     0.0530 C.2   1 <1>   0.7800 
  3 O        0.7930    -2.0250    -0.0060 O.3   1 <1>  -0.4300 
  4 N       -1.5040    -2.1270    -0.0350 N.am  1 <1>  -0.6600 
  5 C        2.0900    -1.4800     0.0820 C.3   1 <1>   0.2800 
  6 C       -2.8480    -1.4920     0.0380 C.3   1 <1>   0.3200 
  7 C       -1.4400    -3.6300    -0.1410 C.3   1 <1>   0.1400 
  8 C        2.3450    -0.5220    -1.0880 C.3   1 <1>  -0.2400 
  9 C        3.0320    -2.6790    -0.0340 C.3   1 <1>  -0.2400 
 10 C        2.2920    -0.8090     1.4460 C.3   1 <1>  -0.2400 
 11 C       -3.7390    -2.1720    -0.9770 C.2   1 <1>  -0.3320 
 12 C       -2.7930    -4.3490    -0.2870 C.3   1 <1>   0.0700 
 13 N       -3.7290    -3.5140    -1.0500 N.pl3 1 <1>   0.3140 
 14 C       -4.5980    -1.7240    -1.9160 C.2   1 <1>  -0.1500 
 15 C       -3.3350    -4.7120     1.0740 C.2   1 <1>   0.9060 
 16 N       -4.5280    -3.9550    -2.0490 N.2   1 <1>  -0.7070 
 17 C       -5.0570    -2.8770    -2.5430 C.2   1 <1>   0.1390 
 18 O       -3.9190    -3.8790     1.7800 O.co2 1 <1>  -0.9000 
 19 O       -3.0860    -5.8490     1.4940 O.co2 1 <1>  -0.9000 
 20 H       -2.7910    -0.4380    -0.1720 H     1 <1>   0.0800 
 21 H       -3.2500    -1.6220     1.0290 H     1 <1>   0.0800 
 22 H       -0.9280    -4.0230     0.7210 H     1 <1>   0.0800 
 23 H       -0.8450    -3.8760    -1.0020 H     1 <1>   0.0800 
 24 H        2.1210    -1.0060    -2.0210 H     1 <1>   0.0800 
 25 H        3.3760    -0.2200    -1.0970 H     1 <1>   0.0800 
 26 H        1.7470     0.3660    -0.9980 H     1 <1>   0.0800 
 27 H        2.8860    -3.1780    -0.9750 H     1 <1>   0.0800 
 28 H        2.8470    -3.3750     0.7650 H     1 <1>   0.0800 
 29 H        4.0560    -2.3580     0.0260 H     1 <1>   0.0800 
 30 H        1.6950     0.0800     1.5320 H     1 <1>   0.0800 
 31 H        3.3200    -0.5230     1.5660 H     1 <1>   0.0800 
 32 H        2.0300    -1.4880     2.2370 H     1 <1>   0.0800 
 33 H       -2.6530    -5.2680    -0.8190 H     1 <1>   0.0800 
 34 H       -4.8750    -0.7140    -2.1540 H     1 <1>   0.1500 
 35 H       -5.7640    -2.8870    -3.3530 H     1 <1>   0.1500 
@<TRIPOS>BOND
  1   1   2  2   
  2   2   3  1   
  3   2   4  am  
  4   3   5  1   
  5   4   6  1   
  6   4   7  1   
  7   5   8  1   
  8   5   9  1   
  9   5  10  1   
 10   6  11  1   
 11   6  20  1   
 12   6  21  1   
 13   7  12  1   
 14   7  22  1   
 15   7  23  1   
 16   8  24  1   
 17   8  25  1   
 18   8  26  1   
 19   9  27  1   
 20   9  28  1   
 21   9  29  1   
 22  10  30  1   
 23  10  31  1   
 24  10  32  1   
 25  11  13  1   
 26  11  14  2   
 27  12  13  1   
 28  12  15  1   
 29  12  33  1   
 30  13  16  1   
 31  14  17  1   
 32  14  34  1   
 33  15  18  ar  
 34  15  19  ar  
 35  16  17  2   
 36  17  35  1   
@<TRIPOS>SUBSTRUCTURE
  1 ****   4 GROUP 4 **** **** 0

# MOE 2024.06 (io_trps.svl 2023.06)
