@<TRIPOS>MOLECULE
NONAME
38 40 1 0 0 
SMALL
USER_CHARGES


@<TRIPOS>ATOM
  1 S        0.0190     0.4500     0.9670 S.3   1 <1>  -0.0800 
  2 C       -1.4300     1.1510     0.1980 C.2   1 <1>  -0.0450 
  3 C       -0.6040    -1.1900     0.8520 C.2   1 <1>  -0.1100 
  4 C       -2.2850     0.1310    -0.0910 C.2   1 <1>   0.0620 
  5 C       -1.4980     2.5710     0.0060 C.2   1 <1>   0.7150 
  6 C       -1.8150    -1.1750     0.2710 C.2   1 <1>   0.0620 
  7 O       -3.4940     0.2790    -0.6720 O.3   1 <1>  -0.3420 
  8 O       -2.4420     3.0910    -0.5600 O.2   1 <1>  -0.5700 
  9 N       -0.4660     3.3560     0.4660 N.am  1 <1>  -0.4940 
 10 O       -2.5630    -2.2840     0.0280 O.3   1 <1>  -0.3420 
 11 C       -4.3780    -0.8250    -0.6500 C.3   1 <1>   0.1200 
 12 C       -0.2060     4.7470     0.3870 C.2   1 <1>  -0.0880 
 13 C       -3.6110    -2.1300    -0.9110 C.3   1 <1>   0.1200 
 14 N       -1.1010     5.7770     0.4050 N.pl3 1 <1>   0.3140 
 15 C        1.0210     5.3150     0.2970 C.2   1 <1>  -0.1810 
 16 N       -0.4740     6.9720     0.3280 N.2   1 <1>  -0.7070 
 17 C       -2.5580     5.7390     0.5880 C.3   1 <1>   0.0160 
 18 C        0.7850     6.6860     0.2560 C.2   1 <1>   0.1080 
 19 C        2.3730     4.6230     0.2420 C.3   1 <1>   0.0210 
 20 C        1.8390     7.7640     0.1460 C.3   1 <1>  -0.0590 
 21 C        2.7330     4.2730    -1.2030 C.3   1 <1>  -0.2400 
 22 H       -0.0010    -1.9960     1.2280 H     1 <1>   0.1500 
 23 H        0.3190     2.8080     0.8120 H     1 <1>   0.3700 
 24 H       -5.1250    -0.6620    -1.4050 H     1 <1>   0.0800 
 25 H       -4.8520    -0.8540     0.3150 H     1 <1>   0.0800 
 26 H       -4.2640    -2.9800    -0.8210 H     1 <1>   0.0800 
 27 H       -3.1800    -2.1200    -1.8970 H     1 <1>   0.0800 
 28 H       -2.8130     4.9420     1.2590 H     1 <1>   0.0800 
 29 H       -3.0240     5.5800    -0.3660 H     1 <1>   0.0800 
 30 H       -2.8860     6.6750     0.9970 H     1 <1>   0.0800 
 31 H        2.3440     3.7250     0.8330 H     1 <1>   0.0800 
 32 H        3.1270     5.2640     0.6620 H     1 <1>   0.0800 
 33 H        2.5570     7.5040    -0.6080 H     1 <1>   0.0800 
 34 H        2.3340     7.8830     1.0910 H     1 <1>   0.0800 
 35 H        1.3760     8.6960    -0.1240 H     1 <1>   0.0800 
 36 H        1.9870     3.6220    -1.6220 H     1 <1>   0.0800 
 37 H        3.6870     3.7800    -1.2410 H     1 <1>   0.0800 
 38 H        2.7800     5.1670    -1.7990 H     1 <1>   0.0800 
@<TRIPOS>BOND
  1   1   2  1   
  2   1   3  1   
  3   2   4  2   
  4   2   5  1   
  5   3   6  2   
  6   3  22  1   
  7   4   6  1   
  8   4   7  1   
  9   5   8  2   
 10   5   9  am  
 11   6  10  1   
 12   7  11  1   
 13   9  12  1   
 14   9  23  1   
 15  10  13  1   
 16  11  13  1   
 17  11  24  1   
 18  11  25  1   
 19  12  14  1   
 20  12  15  2   
 21  13  26  1   
 22  13  27  1   
 23  14  16  1   
 24  14  17  1   
 25  15  18  1   
 26  15  19  1   
 27  16  18  2   
 28  17  28  1   
 29  17  29  1   
 30  17  30  1   
 31  18  20  1   
 32  19  21  1   
 33  19  31  1   
 34  19  32  1   
 35  20  33  1   
 36  20  34  1   
 37  20  35  1   
 38  21  36  1   
 39  21  37  1   
 40  21  38  1   
@<TRIPOS>SUBSTRUCTURE
  1 ****   5 GROUP 4 **** **** 0

# MOE 2024.06 (io_trps.svl 2023.06)
