@<TRIPOS>MOLECULE
NONAME
53 56 1 0 0 
SMALL
USER_CHARGES


@<TRIPOS>ATOM
  1 O        0.0560     1.3700    -1.6960 O.2   1 <1>  -0.5700 
  2 C       -0.2470     2.5160    -1.4590 C.2   1 <1>   0.5690 
  3 N       -1.0870     2.8800    -0.4410 N.am  1 <1>  -0.5090 
  4 C        0.3130     3.6060    -2.3680 C.3   1 <1>   0.1810 
  5 C       -1.6240     4.2740    -0.3380 C.3   1 <1>   0.3640 
  6 C       -1.6330     1.9100     0.5380 C.3   1 <1>   0.0490 
  7 O        0.3570     4.8510    -1.7220 O.3   1 <1>  -0.5600 
  8 C       -3.1220     4.2600    -0.6480 C.ar  1 <1>  -0.1440 
  9 C       -0.9020     5.3090    -1.2470 C.3   1 <1>   0.2610 
 10 C       -1.3690     2.1400     1.9940 C.3   1 <1>  -0.2000 
 11 C       -0.7020     1.0070     1.2820 C.3   1 <1>  -0.2000 
 12 C       -3.9990     4.9870     0.1470 C.ar  1 <1>   0.1600 
 13 C       -3.6430     3.5380    -1.7090 C.ar  1 <1>  -0.1500 
 14 C       -0.7340     6.6270    -0.4820 C.2   1 <1>   0.5690 
 15 N       -5.3100     5.0410    -0.0210 N.ar  1 <1>  -0.6200 
 16 C       -5.0060     3.5880    -1.8990 C.ar  1 <1>  -0.1500 
 17 O       -1.6860     7.1030     0.0880 O.2   1 <1>  -0.5700 
 18 N        0.4870     7.2210    -0.4500 N.am  1 <1>  -0.7300 
 19 C       -5.7830     4.3420    -1.0380 C.ar  1 <1>   0.1600 
 20 C        0.8320     8.4750     0.2370 C.3   1 <1>   0.2200 
 21 C        1.4140     9.4390    -0.8050 C.3   1 <1>  -0.1600 
 22 C        1.7770     8.1250     1.3920 C.3   1 <1>  -0.1600 
 23 C        1.5050    10.8810    -0.2820 C.3   1 <1>  -0.1600 
 24 C        2.3150     9.3300     2.1820 C.3   1 <1>  -0.1600 
 25 C        2.8000    11.2160     0.4740 C.3   1 <1>  -0.1600 
 26 C        3.3670    10.1230     1.3940 C.3   1 <1>  -0.1600 
 27 H       -0.2910     3.6930    -3.2530 H     1 <1>   0.0800 
 28 H        1.3170     3.3480    -2.6530 H     1 <1>   0.0800 
 29 H       -1.4940     4.5870     0.6830 H     1 <1>   0.0800 
 30 H       -2.5930     1.5170     0.2420 H     1 <1>   0.1000 
 31 H       -1.5110     5.5120    -2.1080 H     1 <1>   0.0800 
 32 H       -0.7510     2.9630     2.3070 H     1 <1>   0.1000 
 33 H       -2.1420     1.9060     2.7040 H     1 <1>   0.1000 
 34 H       -1.0250     0.0030     1.4940 H     1 <1>   0.1000 
 35 H        0.3500     1.0640     1.0630 H     1 <1>   0.1000 
 36 H       -3.6040     5.5620     0.9690 H     1 <1>   0.1500 
 37 H       -3.0220     2.9500    -2.3630 H     1 <1>   0.1500 
 38 H       -5.4670     3.0460    -2.7040 H     1 <1>   0.1500 
 39 H        1.2550     6.7460    -0.9330 H     1 <1>   0.3700 
 40 H       -6.8480     4.3730    -1.1940 H     1 <1>   0.1500 
 41 H       -0.0680     8.9070     0.6450 H     1 <1>   0.0800 
 42 H        2.3750     9.1000    -1.1480 H     1 <1>   0.0800 
 43 H        0.7450     9.4480    -1.6480 H     1 <1>   0.0800 
 44 H        1.2310     7.4990     2.0780 H     1 <1>   0.0800 
 45 H        2.6060     7.5510     1.0180 H     1 <1>   0.0800 
 46 H        1.4310    11.5560    -1.1180 H     1 <1>   0.0800 
 47 H        0.6580    11.0840     0.3520 H     1 <1>   0.0800 
 48 H        1.5110     9.9710     2.5000 H     1 <1>   0.0800 
 49 H        2.7890     8.9490     3.0710 H     1 <1>   0.0800 
 50 H        3.5620    11.4700    -0.2430 H     1 <1>   0.0800 
 51 H        2.6190    12.1000     1.0610 H     1 <1>   0.0800 
 52 H        4.0320    10.6000     2.0940 H     1 <1>   0.0800 
 53 H        3.9700     9.4450     0.8140 H     1 <1>   0.0800 
@<TRIPOS>BOND
  1   1   2  2   
  2   2   3  am  
  3   2   4  1   
  4   3   5  1   
  5   3   6  1   
  6   4   7  1   
  7   4  27  1   
  8   4  28  1   
  9   5   8  1   
 10   5   9  1   
 11   5  29  1   
 12   6  10  1   
 13   6  11  1   
 14   6  30  1   
 15   7   9  1   
 16   8  12  ar  
 17   8  13  ar  
 18   9  14  1   
 19   9  31  1   
 20  10  11  1   
 21  10  32  1   
 22  10  33  1   
 23  11  34  1   
 24  11  35  1   
 25  12  15  ar  
 26  12  36  1   
 27  13  16  ar  
 28  13  37  1   
 29  14  17  2   
 30  14  18  am  
 31  15  19  ar  
 32  16  19  ar  
 33  16  38  1   
 34  18  20  1   
 35  18  39  1   
 36  19  40  1   
 37  20  21  1   
 38  20  22  1   
 39  20  41  1   
 40  21  23  1   
 41  21  42  1   
 42  21  43  1   
 43  22  24  1   
 44  22  44  1   
 45  22  45  1   
 46  23  25  1   
 47  23  46  1   
 48  23  47  1   
 49  24  26  1   
 50  24  48  1   
 51  24  49  1   
 52  25  26  1   
 53  25  50  1   
 54  25  51  1   
 55  26  52  1   
 56  26  53  1   
@<TRIPOS>SUBSTRUCTURE
  1 ****   9 GROUP 4 **** **** 0

# MOE 2024.06 (io_trps.svl 2023.06)
