@<TRIPOS>MOLECULE
NONAME
46 48 1 0 0 
SMALL
USER_CHARGES


@<TRIPOS>ATOM
  1 F        0.4230    -2.2850     1.1360 F     1 <1>  -0.1900 
  2 C       -0.6410    -1.7090     0.6370 C.ar  1 <1>   0.1900 
  3 C       -0.5740    -0.4750    -0.0200 C.ar  1 <1>   0.0830 
  4 C       -1.8320    -2.3940     0.7900 C.ar  1 <1>  -0.1500 
  5 O        0.5340     0.2870    -0.2320 O.3   1 <1>  -0.3630 
  6 C       -1.7580     0.0480    -0.5170 C.ar  1 <1>  -0.1500 
  7 C       -3.0040    -1.8570     0.2760 C.ar  1 <1>  -0.1430 
  8 C        1.8050    -0.0370     0.2890 C.3   1 <1>   0.0400 
  9 C       -2.9580    -0.6290    -0.3720 C.ar  1 <1>  -0.1500 
 10 C       -4.3180    -2.6000     0.4160 C.3   1 <1>   0.4870 
 11 N       -4.6580    -3.2060    -0.9070 N.4   1 <1>  -0.9590 
 12 C       -6.0720    -3.6480    -1.0740 C.3   1 <1>   0.4230 
 13 C       -3.7090    -4.3130    -1.2500 C.3   1 <1>   0.2630 
 14 C       -6.5760    -4.6020     0.0070 C.3   1 <1>  -0.1600 
 15 C       -7.0650    -2.4910    -1.0500 C.3   1 <1>  -0.1600 
 16 C       -8.1040    -4.5380    -0.1230 C.3   1 <1>  -0.0800 
 17 C       -8.4170    -3.1510    -0.7400 C.3   1 <1>  -0.0800 
 18 C       -8.8450    -4.8790     1.1890 C.3   1 <1>   0.1400 
 19 C       -9.3410    -2.2670     0.1230 C.3   1 <1>  -0.0990 
 20 N      -10.2050    -4.3100     1.1540 N.am  1 <1>  -0.7300 
 21 C      -10.4900    -3.0830     0.6720 C.2   1 <1>   0.5690 
 22 O      -11.6090    -2.6430     0.6810 O.2   1 <1>  -0.5700 
 23 H       -1.8190    -3.3360     1.3100 H     1 <1>   0.1500 
 24 H       -1.7280     1.0000    -1.0200 H     1 <1>   0.1500 
 25 H        2.4860     0.7500     0.0220 H     1 <1>   0.0800 
 26 H        2.1360    -0.9650    -0.1430 H     1 <1>   0.0800 
 27 H        1.7370    -0.1120     1.3600 H     1 <1>   0.0800 
 28 H       -3.8520    -0.1760    -0.7680 H     1 <1>   0.1500 
 29 H       -5.0800    -1.9040     0.7230 H     1 <1>   0.0800 
 30 H       -4.2340    -3.3660     1.1690 H     1 <1>   0.0800 
 31 H       -4.4960    -2.4570    -1.5940 H     1 <1>   0.4500 
 32 H       -6.1780    -4.1430    -2.0270 H     1 <1>   0.0800 
 33 H       -3.7960    -5.1180    -0.5380 H     1 <1>   0.0800 
 34 H       -2.6920    -3.9520    -1.2400 H     1 <1>   0.0800 
 35 H       -3.9210    -4.6980    -2.2340 H     1 <1>   0.0800 
 36 H       -6.2190    -5.6060    -0.1450 H     1 <1>   0.0800 
 37 H       -6.2940    -4.2610     0.9860 H     1 <1>   0.0800 
 38 H       -6.8270    -1.7870    -0.2750 H     1 <1>   0.0800 
 39 H       -7.0990    -1.9800    -1.9970 H     1 <1>   0.0800 
 40 H       -8.4020    -5.2790    -0.8480 H     1 <1>   0.0800 
 41 H       -8.9330    -3.3300    -1.6710 H     1 <1>   0.0800 
 42 H       -8.3300    -4.4620     2.0370 H     1 <1>   0.0800 
 43 H       -8.9010    -5.9470     1.3170 H     1 <1>   0.0800 
 44 H       -9.7320    -1.4530    -0.4610 H     1 <1>   0.0800 
 45 H       -8.8100    -1.8570     0.9610 H     1 <1>   0.0800 
 46 H      -10.9790    -4.8450     1.5600 H     1 <1>   0.3700 
@<TRIPOS>BOND
  1   1   2  1   
  2   2   3  ar  
  3   2   4  ar  
  4   3   5  1   
  5   3   6  ar  
  6   4   7  ar  
  7   4  23  1   
  8   5   8  1   
  9   6   9  ar  
 10   6  24  1   
 11   7   9  ar  
 12   7  10  1   
 13   8  25  1   
 14   8  26  1   
 15   8  27  1   
 16   9  28  1   
 17  10  11  1   
 18  10  29  1   
 19  10  30  1   
 20  11  12  1   
 21  11  13  1   
 22  11  31  1   
 23  12  14  1   
 24  12  15  1   
 25  12  32  1   
 26  13  33  1   
 27  13  34  1   
 28  13  35  1   
 29  14  16  1   
 30  14  36  1   
 31  14  37  1   
 32  15  17  1   
 33  15  38  1   
 34  15  39  1   
 35  16  17  1   
 36  16  18  1   
 37  16  40  1   
 38  17  19  1   
 39  17  41  1   
 40  18  20  1   
 41  18  42  1   
 42  18  43  1   
 43  19  21  1   
 44  19  44  1   
 45  19  45  1   
 46  20  21  am  
 47  20  46  1   
 48  21  22  2   
@<TRIPOS>SUBSTRUCTURE
  1 ****  10 GROUP 4 **** **** 0

# MOE 2024.06 (io_trps.svl 2023.06)
