@<TRIPOS>MOLECULE
NONAME
46 49 1 0 0 
SMALL
USER_CHARGES


@<TRIPOS>ATOM
  1 S       -1.7700     1.6960    -1.3250 S.3   1 <1>  -0.0800 
  2 C       -0.7880     2.8980    -0.5160 C.2   1 <1>  -0.1400 
  3 C       -0.3540     1.0700    -2.1550 C.2   1 <1>  -0.1100 
  4 C        0.5030     2.8020    -0.8570 C.2   1 <1>  -0.1810 
  5 C       -1.3700     3.9040     0.4370 C.3   1 <1>   0.0200 
  6 C        0.7540     1.7530    -1.8050 C.2   1 <1>  -0.1500 
  7 C        1.5450     3.7390    -0.2500 C.3   1 <1>   0.4610 
  8 C       -0.3450     5.0410     0.5720 C.3   1 <1>   0.1200 
  9 O        0.9630     4.5400     0.7700 O.3   1 <1>  -0.5600 
 10 C        2.6530     2.9330     0.4330 C.3   1 <1>  -0.1600 
 11 C        2.1720     4.6650    -1.3040 C.3   1 <1>  -0.1600 
 12 C        3.7100     3.8160     1.1050 C.3   1 <1>   0.3430 
 13 C        3.4680     5.3400    -0.8380 C.3   1 <1>   0.3430 
 14 N        3.6110     5.2290     0.6420 N.4   1 <1>  -0.9590 
 15 C        4.6890     6.0950     1.1910 C.3   1 <1>   0.4860 
 16 C        4.3210     7.5440     0.9650 C.ar  1 <1>  -0.1440 
 17 C        4.8890     8.2330    -0.1010 C.ar  1 <1>   0.3930 
 18 C        3.4340     8.1980     1.7970 C.ar  1 <1>  -0.1500 
 19 O        5.7480     7.5530    -0.8940 O.3   1 <1>  -0.3630 
 20 N        4.6260     9.4990    -0.3940 N.ar  1 <1>  -0.6200 
 21 C        3.1640     9.5180     1.5030 C.ar  1 <1>  -0.1500 
 22 C        6.4380     8.2090    -1.9450 C.3   1 <1>   0.0400 
 23 C        3.7770    10.1120     0.4130 C.ar  1 <1>   0.1600 
 24 H       -0.5060     0.2440    -2.8270 H     1 <1>   0.1500 
 25 H       -1.5540     3.4450     1.3920 H     1 <1>   0.0800 
 26 H       -2.2970     4.2920     0.0550 H     1 <1>   0.0800 
 27 H        1.7400     1.5510    -2.1840 H     1 <1>   0.1500 
 28 H       -0.5940     5.6630     1.4140 H     1 <1>   0.0800 
 29 H       -0.3500     5.6470    -0.3160 H     1 <1>   0.0800 
 30 H        3.1410     2.3130    -0.2960 H     1 <1>   0.0800 
 31 H        2.2180     2.2710     1.1610 H     1 <1>   0.0800 
 32 H        1.4620     5.4090    -1.6130 H     1 <1>   0.0800 
 33 H        2.4060     4.0910    -2.1820 H     1 <1>   0.0800 
 34 H        4.6910     3.4220     0.8930 H     1 <1>   0.0800 
 35 H        3.5590     3.7850     2.1720 H     1 <1>   0.0800 
 36 H        3.4500     6.3760    -1.1380 H     1 <1>   0.0800 
 37 H        4.3140     4.8720    -1.3150 H     1 <1>   0.0800 
 38 H        2.7080     5.5700     1.0190 H     1 <1>   0.4500 
 39 H        5.6290     5.8700     0.7140 H     1 <1>   0.0800 
 40 H        4.7960     5.9220     2.2490 H     1 <1>   0.0800 
 41 H        2.9690     7.7200     2.6430 H     1 <1>   0.1500 
 42 H        2.4850    10.0890     2.1120 H     1 <1>   0.1500 
 43 H        7.0850     7.4990    -2.4280 H     1 <1>   0.0800 
 44 H        7.0200     9.0150    -1.5300 H     1 <1>   0.0800 
 45 H        5.7210     8.5950    -2.6490 H     1 <1>   0.0800 
 46 H        3.5570    11.1440     0.1950 H     1 <1>   0.1500 
@<TRIPOS>BOND
  1   1   2  1   
  2   1   3  1   
  3   2   4  2   
  4   2   5  1   
  5   3   6  2   
  6   3  24  1   
  7   4   6  1   
  8   4   7  1   
  9   5   8  1   
 10   5  25  1   
 11   5  26  1   
 12   6  27  1   
 13   7   9  1   
 14   7  10  1   
 15   7  11  1   
 16   8   9  1   
 17   8  28  1   
 18   8  29  1   
 19  10  12  1   
 20  10  30  1   
 21  10  31  1   
 22  11  13  1   
 23  11  32  1   
 24  11  33  1   
 25  12  14  1   
 26  12  34  1   
 27  12  35  1   
 28  13  14  1   
 29  13  36  1   
 30  13  37  1   
 31  14  15  1   
 32  14  38  1   
 33  15  16  1   
 34  15  39  1   
 35  15  40  1   
 36  16  17  ar  
 37  16  18  ar  
 38  17  19  1   
 39  17  20  ar  
 40  18  21  ar  
 41  18  41  1   
 42  19  22  1   
 43  20  23  ar  
 44  21  23  ar  
 45  21  42  1   
 46  22  43  1   
 47  22  44  1   
 48  22  45  1   
 49  23  46  1   
@<TRIPOS>SUBSTRUCTURE
  1 ****  13 GROUP 4 **** **** 0

# MOE 2024.06 (io_trps.svl 2023.06)
