@<TRIPOS>MOLECULE
NONAME
38 39 1 0 0 
SMALL
USER_CHARGES


@<TRIPOS>ATOM
  1 O        1.5400     1.3270    -0.3350 O.co2 1 <1>  -0.9000 
  2 C        1.2810     2.1920     0.5270 C.2   1 <1>   1.0330 
  3 O        1.2950     1.8500     1.7240 O.co2 1 <1>  -0.9000 
  4 C        0.9870     3.5590     0.0920 C.2   1 <1>  -0.0060 
  5 N        0.6760     4.6590     0.8590 N.2   1 <1>  -0.5650 
  6 C        0.9860     3.9690    -1.1930 C.2   1 <1>  -0.0100 
  7 C        0.5340     5.6060     0.0060 C.2   1 <1>   0.2980 
  8 O        0.7030     5.2390    -1.2430 O.3   1 <1>  -0.2800 
  9 C        0.2010     7.0660     0.3170 C.3   1 <1>   0.2900 
 10 N        1.3850     7.9600     0.4800 N.3   1 <1>  -0.8100 
 11 C        2.2530     8.0030    -0.7230 C.3   1 <1>   0.3340 
 12 C        2.1400     7.5410     1.6780 C.3   1 <1>   0.0300 
 13 C        3.5280     8.8280    -0.4880 C.ar  1 <1>  -0.1440 
 14 C        1.4850     8.5140    -1.9470 C.3   1 <1>  -0.2400 
 15 C        3.5480    10.2160    -0.3400 C.ar  1 <1>   0.0820 
 16 C        4.7350     8.1430    -0.4140 C.ar  1 <1>  -0.1500 
 17 O        2.4200    10.9530    -0.4040 O.3   1 <1>  -0.3630 
 18 C        4.7450    10.8880    -0.1390 C.ar  1 <1>  -0.1500 
 19 C        5.9280     8.8130    -0.2060 C.ar  1 <1>  -0.1500 
 20 C        1.8420    11.3070     0.8300 C.3   1 <1>   0.0400 
 21 C        5.9350    10.1890    -0.0690 C.ar  1 <1>  -0.1500 
 22 H        1.1800     3.4090    -2.0900 H     1 <1>   0.1500 
 23 H       -0.3680     7.0830     1.2290 H     1 <1>   0.0800 
 24 H       -0.4410     7.4470    -0.4540 H     1 <1>   0.0800 
 25 H        2.5680     6.9980    -0.9460 H     1 <1>   0.0800 
 26 H        1.4790     7.4490     2.5220 H     1 <1>   0.0800 
 27 H        2.8910     8.2710     1.9230 H     1 <1>   0.0800 
 28 H        2.6190     6.5900     1.5120 H     1 <1>   0.0800 
 29 H        0.9300     9.4000    -1.7060 H     1 <1>   0.0800 
 30 H        0.8150     7.7620    -2.3180 H     1 <1>   0.0800 
 31 H        2.1800     8.7470    -2.7320 H     1 <1>   0.0800 
 32 H        4.7520     7.0710    -0.5160 H     1 <1>   0.1500 
 33 H        4.7360    11.9580    -0.0430 H     1 <1>   0.1500 
 34 H        6.8510     8.2620    -0.1510 H     1 <1>   0.1500 
 35 H        0.9430    11.8610     0.6330 H     1 <1>   0.0800 
 36 H        2.5390    11.9110     1.3830 H     1 <1>   0.0800 
 37 H        1.6090    10.4100     1.3750 H     1 <1>   0.0800 
 38 H        6.8610    10.7130     0.0880 H     1 <1>   0.1500 
@<TRIPOS>BOND
  1   1   2  ar  
  2   2   3  ar  
  3   2   4  1   
  4   4   5  1   
  5   4   6  2   
  6   5   7  2   
  7   6   8  1   
  8   6  22  1   
  9   7   8  1   
 10   7   9  1   
 11   9  10  1   
 12   9  23  1   
 13   9  24  1   
 14  10  11  1   
 15  10  12  1   
 16  11  13  1   
 17  11  14  1   
 18  11  25  1   
 19  12  26  1   
 20  12  27  1   
 21  12  28  1   
 22  13  15  ar  
 23  13  16  ar  
 24  14  29  1   
 25  14  30  1   
 26  14  31  1   
 27  15  17  1   
 28  15  18  ar  
 29  16  19  ar  
 30  16  32  1   
 31  17  20  1   
 32  18  21  ar  
 33  18  33  1   
 34  19  21  ar  
 35  19  34  1   
 36  20  35  1   
 37  20  36  1   
 38  20  37  1   
 39  21  38  1   
@<TRIPOS>SUBSTRUCTURE
  1 ****  11 GROUP 4 **** **** 0

# MOE 2024.06 (io_trps.svl 2023.06)
