@<TRIPOS>MOLECULE
NONAME
40 41 1 0 0 
SMALL
USER_CHARGES


@<TRIPOS>ATOM
  1 O        0.2210     0.0260     0.1540 O.3   1 <1>  -0.1800 
  2 N        1.3820    -0.3210    -0.5100 N.3   1 <1>  -0.6400 
  3 C       -0.2740    -1.0530     0.8830 C.3   1 <1>   0.1200 
  4 C        1.5680    -1.7720    -0.3340 C.3   1 <1>   0.1100 
  5 C        2.5000     0.4610     0.0350 C.3   1 <1>   0.1100 
  6 C        0.2100    -2.2680     0.1180 C.3   1 <1>   0.2000 
  7 C        2.3470     1.9370    -0.3260 C.3   1 <1>   0.1200 
  8 O       -0.5900    -2.4350    -1.0000 O.3   1 <1>  -0.6800 
  9 O        3.4610     2.6410     0.1860 O.3   1 <1>  -0.3620 
 10 C        3.5800     3.9820     0.0070 C.ar  1 <1>   0.0820 
 11 C        2.6490     4.7600    -0.6770 C.ar  1 <1>  -0.1500 
 12 C        4.7060     4.5850     0.5460 C.ar  1 <1>  -0.1500 
 13 C        2.8540     6.1220    -0.8110 C.ar  1 <1>  -0.1500 
 14 C        4.9110     5.9470     0.4120 C.ar  1 <1>  -0.1500 
 15 C        3.9800     6.7250    -0.2710 C.ar  1 <1>   0.0820 
 16 O        4.0990     8.0660    -0.4520 O.3   1 <1>  -0.3630 
 17 C        5.2070     8.7730     0.0570 C.3   1 <1>   0.1200 
 18 C        5.0440    10.2480    -0.3120 C.3   1 <1>  -0.1600 
 19 C        6.2160    11.0870     0.2100 C.3   1 <1>  -0.2400 
 20 H       -1.3450    -0.9920     0.9400 H     1 <1>   0.0800 
 21 H        0.1620    -1.0130     1.8640 H     1 <1>   0.0800 
 22 H        2.2900    -1.9640     0.4410 H     1 <1>   0.0800 
 23 H        1.8880    -2.2410    -1.2480 H     1 <1>   0.0800 
 24 H        3.4200     0.0980    -0.3870 H     1 <1>   0.0800 
 25 H        2.5310     0.3530     1.1050 H     1 <1>   0.0800 
 26 H        0.2280    -3.1820     0.6870 H     1 <1>   0.0800 
 27 H        1.4560     2.3430     0.1190 H     1 <1>   0.0800 
 28 H        2.3300     2.0580    -1.3940 H     1 <1>   0.0800 
 29 H       -0.5130    -1.6110    -1.5300 H     1 <1>   0.4000 
 30 H        1.7660     4.3290    -1.1080 H     1 <1>   0.1500 
 31 H        5.4200     3.9770     1.0720 H     1 <1>   0.1500 
 32 H        2.1410     6.7310    -1.3370 H     1 <1>   0.1500 
 33 H        5.7930     6.3780     0.8430 H     1 <1>   0.1500 
 34 H        6.1010     8.3670    -0.3840 H     1 <1>   0.0800 
 35 H        5.2270     8.6480     1.1260 H     1 <1>   0.0800 
 36 H        4.1260    10.6180     0.1120 H     1 <1>   0.0800 
 37 H        4.9900    10.3390    -1.3830 H     1 <1>   0.0800 
 38 H        6.2780    11.0230     1.2820 H     1 <1>   0.0800 
 39 H        6.0770    12.1190    -0.0630 H     1 <1>   0.0800 
 40 H        7.1430    10.7440    -0.2150 H     1 <1>   0.0800 
@<TRIPOS>BOND
  1   1   2  1   
  2   1   3  1   
  3   2   4  1   
  4   2   5  1   
  5   3   6  1   
  6   3  20  1   
  7   3  21  1   
  8   4   6  1   
  9   4  22  1   
 10   4  23  1   
 11   5   7  1   
 12   5  24  1   
 13   5  25  1   
 14   6   8  1   
 15   6  26  1   
 16   7   9  1   
 17   7  27  1   
 18   7  28  1   
 19   8  29  1   
 20   9  10  1   
 21  10  11  ar  
 22  10  12  ar  
 23  11  13  ar  
 24  11  30  1   
 25  12  14  ar  
 26  12  31  1   
 27  13  15  ar  
 28  13  32  1   
 29  14  15  ar  
 30  14  33  1   
 31  15  16  1   
 32  16  17  1   
 33  17  18  1   
 34  17  34  1   
 35  17  35  1   
 36  18  19  1   
 37  18  36  1   
 38  18  37  1   
 39  19  38  1   
 40  19  39  1   
 41  19  40  1   
@<TRIPOS>SUBSTRUCTURE
  1 ****  10 GROUP 4 **** **** 0

# MOE 2024.06 (io_trps.svl 2023.06)
