@<TRIPOS>MOLECULE
NONAME
51 53 1 0 0 
SMALL
USER_CHARGES


@<TRIPOS>ATOM
  1 O       -1.8080     0.3620     2.1780 O.2   1 <1>  -0.5700 
  2 C       -1.9890     0.7860     1.0530 C.2   1 <1>   0.5440 
  3 N       -2.4600    -0.0600     0.0740 N.am  1 <1>  -0.6600 
  4 C       -1.7230     2.1800     0.7650 C.ar  1 <1>   0.0860 
  5 C       -2.4650    -1.5480     0.3000 C.3   1 <1>   0.3640 
  6 C       -3.1800     0.4820    -1.1220 C.3   1 <1>   0.1400 
  7 C       -0.7880     2.5500    -0.2010 C.ar  1 <1>  -0.1500 
  8 C       -2.4000     3.1950     1.4370 C.ar  1 <1>  -0.1500 
  9 C       -1.1270    -2.1470    -0.1480 C.ar  1 <1>  -0.1430 
 10 C       -3.6420    -2.3160    -0.3770 C.3   1 <1>   0.2000 
 11 C       -3.8850    -0.5990    -1.9510 C.3   1 <1>   0.1200 
 12 C       -0.5410     3.8770    -0.5030 C.ar  1 <1>  -0.1440 
 13 C       -2.1740     4.5310     1.1560 C.ar  1 <1>  -0.1440 
 14 C       -0.5210    -3.1040     0.6550 C.ar  1 <1>  -0.1500 
 15 C       -0.5020    -1.7780    -1.3330 C.ar  1 <1>  -0.1500 
 16 O       -4.5230    -1.4960    -1.1030 O.3   1 <1>  -0.5600 
 17 C       -4.4910    -3.0830     0.6450 C.3   1 <1>   0.1200 
 18 C       -1.2290     4.8700     0.1890 C.ar  1 <1>   0.0830 
 19 C        0.4750     4.2250    -1.5820 C.3   1 <1>  -0.0970 
 20 C       -2.9630     5.5960     1.9030 C.3   1 <1>  -0.0970 
 21 C        0.6790    -3.6850     0.2810 C.ar  1 <1>  -0.1500 
 22 C        0.6970    -2.3570    -1.7100 C.ar  1 <1>  -0.1500 
 23 O       -3.7390    -4.0810     1.2600 O.3   1 <1>  -0.6800 
 24 O       -0.9880     6.1680    -0.0890 O.3   1 <1>  -0.3630 
 25 C        1.2890    -3.3130    -0.9030 C.ar  1 <1>  -0.1500 
 26 C        0.0110     6.8000     0.6780 C.3   1 <1>   0.0400 
 27 H       -2.5450    -1.7220     1.3590 H     1 <1>   0.0800 
 28 H       -3.9200     1.1870    -0.7860 H     1 <1>   0.0800 
 29 H       -2.4870     1.0100    -1.7520 H     1 <1>   0.0800 
 30 H       -0.2520     1.7700    -0.7130 H     1 <1>   0.1500 
 31 H       -3.1140     2.9130     2.1910 H     1 <1>   0.1500 
 32 H       -3.2420    -3.0270    -1.0770 H     1 <1>   0.0800 
 33 H       -3.1880    -1.1360    -2.5710 H     1 <1>   0.0800 
 34 H       -4.6310    -0.1500    -2.5830 H     1 <1>   0.0800 
 35 H       -0.9830    -3.4010     1.5820 H     1 <1>   0.1500 
 36 H       -0.9390    -1.0330    -1.9700 H     1 <1>   0.1500 
 37 H       -5.3320    -3.5490     0.1620 H     1 <1>   0.0800 
 38 H       -4.8430    -2.4140     1.4120 H     1 <1>   0.0800 
 39 H        0.6930     3.3710    -2.1960 H     1 <1>   0.0800 
 40 H        1.3880     4.5650    -1.1280 H     1 <1>   0.0800 
 41 H        0.0900     5.0050    -2.2140 H     1 <1>   0.0800 
 42 H       -3.8480     5.1770     2.3460 H     1 <1>   0.0800 
 43 H       -3.2620     6.3780     1.2280 H     1 <1>   0.0800 
 44 H       -2.3570     6.0210     2.6820 H     1 <1>   0.0800 
 45 H        1.1370    -4.4230     0.9150 H     1 <1>   0.1500 
 46 H        1.1730    -2.0630    -2.6290 H     1 <1>   0.1500 
 47 H       -3.5130    -4.7900     0.6240 H     1 <1>   0.4000 
 48 H        2.2210    -3.7630    -1.1940 H     1 <1>   0.1500 
 49 H        0.0970     7.8180     0.3430 H     1 <1>   0.0800 
 50 H        0.9420     6.2830     0.5350 H     1 <1>   0.0800 
 51 H       -0.2740     6.7740     1.7140 H     1 <1>   0.0800 
@<TRIPOS>BOND
  1   1   2  2   
  2   2   3  am  
  3   2   4  1   
  4   3   5  1   
  5   3   6  1   
  6   4   7  ar  
  7   4   8  ar  
  8   5   9  1   
  9   5  10  1   
 10   5  27  1   
 11   6  11  1   
 12   6  28  1   
 13   6  29  1   
 14   7  12  ar  
 15   7  30  1   
 16   8  13  ar  
 17   8  31  1   
 18   9  14  ar  
 19   9  15  ar  
 20  10  16  1   
 21  10  17  1   
 22  10  32  1   
 23  11  16  1   
 24  11  33  1   
 25  11  34  1   
 26  12  18  ar  
 27  12  19  1   
 28  13  18  ar  
 29  13  20  1   
 30  14  21  ar  
 31  14  35  1   
 32  15  22  ar  
 33  15  36  1   
 34  17  23  1   
 35  17  37  1   
 36  17  38  1   
 37  18  24  1   
 38  19  39  1   
 39  19  40  1   
 40  19  41  1   
 41  20  42  1   
 42  20  43  1   
 43  20  44  1   
 44  21  25  ar  
 45  21  45  1   
 46  22  25  ar  
 47  22  46  1   
 48  23  47  1   
 49  24  26  1   
 50  25  48  1   
 51  26  49  1   
 52  26  50  1   
 53  26  51  1   
@<TRIPOS>SUBSTRUCTURE
  1 ****   3 GROUP 4 **** **** 0

# MOE 2024.06 (io_trps.svl 2023.06)
