@<TRIPOS>MOLECULE
NONAME
50 53 1 0 0 
SMALL
USER_CHARGES


@<TRIPOS>ATOM
  1 CL      -5.5430    -5.1290     3.7150 Cl    1 <1>  -0.1240 
  2 C       -5.0030    -3.9020     2.5990 C.2   1 <1>   0.2640 
  3 O       -5.1410    -4.1320     1.3110 O.3   1 <1>  -0.2800 
  4 C       -4.4490    -2.6980     2.8430 C.2   1 <1>  -0.1500 
  5 C       -4.6730    -3.0650     0.6830 C.2   1 <1>  -0.0400 
  6 C       -4.2320    -2.1430     1.5720 C.2   1 <1>  -0.1500 
  7 C       -4.7230    -3.0530    -0.8360 C.3   1 <1>   0.5230 
  8 N       -6.0880    -3.4520    -1.2610 N.4   1 <1>  -0.9590 
  9 C       -6.1870    -3.8780    -2.6890 C.3   1 <1>   0.3430 
 10 C       -7.1770    -2.5430    -0.8080 C.3   1 <1>   0.3430 
 11 C       -7.4530    -4.7300    -2.9410 C.3   1 <1>   0.1400 
 12 C       -8.2860    -3.3460    -0.1150 C.3   1 <1>  -0.1600 
 13 N       -8.0560    -5.2620    -1.6720 N.am  1 <1>  -0.6600 
 14 C       -9.0270    -4.3510    -1.0100 C.3   1 <1>   0.1400 
 15 C       -7.4280    -6.2630    -0.9610 C.2   1 <1>   0.5440 
 16 O       -6.2240    -6.3680    -1.1140 O.2   1 <1>  -0.5700 
 17 C       -8.1300    -7.0830     0.0060 C.ar  1 <1>   0.0860 
 18 C       -9.3990    -7.6020    -0.2600 C.ar  1 <1>  -0.1500 
 19 C       -7.5600    -7.3700     1.2470 C.ar  1 <1>  -0.1500 
 20 C      -10.0860    -8.3590     0.6720 C.ar  1 <1>  -0.1430 
 21 C       -8.2350    -8.1250     2.1870 C.ar  1 <1>  -0.1500 
 22 C       -9.4960    -8.6210     1.9060 C.ar  1 <1>   0.0830 
 23 C      -11.4680    -8.9030     0.3500 C.3   1 <1>  -0.0170 
 24 O      -10.1210    -9.3470     2.8590 O.3   1 <1>  -0.3620 
 25 C      -12.2030    -9.2820     1.6380 C.3   1 <1>  -0.1600 
 26 C      -11.2760   -10.0980     2.5420 C.3   1 <1>   0.1200 
 27 H       -4.2180    -2.2460     3.7910 H     1 <1>   0.1500 
 28 H       -3.7960    -1.1730     1.3970 H     1 <1>   0.1500 
 29 H       -4.0060    -3.7660    -1.2100 H     1 <1>   0.0800 
 30 H       -4.4750    -2.0750    -1.2140 H     1 <1>   0.0800 
 31 H       -6.2420    -4.3490    -0.7540 H     1 <1>   0.4500 
 32 H       -5.3340    -4.4930    -2.9290 H     1 <1>   0.0800 
 33 H       -6.1760    -3.0260    -3.3480 H     1 <1>   0.0800 
 34 H       -7.5810    -1.9990    -1.6460 H     1 <1>   0.0800 
 35 H       -6.7840    -1.8290    -0.1020 H     1 <1>   0.0800 
 36 H       -7.1910    -5.5570    -3.5790 H     1 <1>   0.0800 
 37 H       -8.1820    -4.1420    -3.4710 H     1 <1>   0.0800 
 38 H       -9.0110    -2.6500     0.2660 H     1 <1>   0.0800 
 39 H       -7.8790    -3.8580     0.7390 H     1 <1>   0.0800 
 40 H       -9.6050    -3.8320    -1.7560 H     1 <1>   0.0800 
 41 H       -9.7160    -4.9220    -0.4090 H     1 <1>   0.0800 
 42 H       -9.8470    -7.4060    -1.2180 H     1 <1>   0.1500 
 43 H       -6.5760    -6.9970     1.4750 H     1 <1>   0.1500 
 44 H       -7.7910    -8.3380     3.1430 H     1 <1>   0.1500 
 45 H      -11.3580    -9.7750    -0.2710 H     1 <1>   0.0800 
 46 H      -12.0420    -8.1720    -0.1920 H     1 <1>   0.0800 
 47 H      -13.0830    -9.8550     1.4030 H     1 <1>   0.0800 
 48 H      -12.5100    -8.3950     2.1630 H     1 <1>   0.0800 
 49 H      -11.7640   -10.3520     3.4660 H     1 <1>   0.0800 
 50 H      -10.9550   -11.0000     2.0500 H     1 <1>   0.0800 
@<TRIPOS>BOND
  1   1   2  1   
  2   2   3  1   
  3   2   4  2   
  4   3   5  1   
  5   4   6  1   
  6   4  27  1   
  7   5   6  2   
  8   5   7  1   
  9   6  28  1   
 10   7   8  1   
 11   7  29  1   
 12   7  30  1   
 13   8   9  1   
 14   8  10  1   
 15   8  31  1   
 16   9  11  1   
 17   9  32  1   
 18   9  33  1   
 19  10  12  1   
 20  10  34  1   
 21  10  35  1   
 22  11  13  1   
 23  11  36  1   
 24  11  37  1   
 25  12  14  1   
 26  12  38  1   
 27  12  39  1   
 28  13  14  1   
 29  13  15  am  
 30  14  40  1   
 31  14  41  1   
 32  15  16  2   
 33  15  17  1   
 34  17  18  ar  
 35  17  19  ar  
 36  18  20  ar  
 37  18  42  1   
 38  19  21  ar  
 39  19  43  1   
 40  20  22  ar  
 41  20  23  1   
 42  21  22  ar  
 43  21  44  1   
 44  22  24  1   
 45  23  25  1   
 46  23  45  1   
 47  23  46  1   
 48  24  26  1   
 49  25  26  1   
 50  25  47  1   
 51  25  48  1   
 52  26  49  1   
 53  26  50  1   
@<TRIPOS>SUBSTRUCTURE
  1 ****  17 GROUP 4 **** **** 0

# MOE 2024.06 (io_trps.svl 2023.06)
