@<TRIPOS>MOLECULE
NONAME
53 56 1 0 0 
SMALL
USER_CHARGES


@<TRIPOS>ATOM
  1 O        1.0730     0.6680     0.1620 O.3   1 <1>  -0.6800 
  2 C        2.2770     0.3600    -0.4570 C.3   1 <1>   0.2000 
  3 C        2.7680    -0.9660     0.1210 C.3   1 <1>  -0.0800 
  4 C        3.3200     1.3890     0.0050 C.3   1 <1>   0.3430 
  5 C        3.3560    -0.5120     1.4580 C.3   1 <1>   0.3430 
  6 C        3.8150    -1.6390    -0.7980 C.3   1 <1>  -0.0160 
  7 N        4.0540     0.7620     1.1500 N.4   1 <1>  -0.9590 
  8 C        4.3020    -2.9720    -0.2460 C.ar  1 <1>   0.1670 
  9 C        4.2070     1.6570     2.3240 C.3   1 <1>   0.5240 
 10 N        5.0870    -2.9190     0.8190 N.ar  1 <1>  -0.6200 
 11 C        3.9230    -4.1640    -0.8630 C.ar  1 <1>   0.1600 
 12 C        4.9640     2.9190     1.9450 C.2   1 <1>  -0.1810 
 13 C        5.4660    -4.1240     1.2180 C.ar  1 <1>   0.1600 
 14 N        4.2950    -5.3650    -0.4600 N.ar  1 <1>  -0.6200 
 15 C        6.0770     3.0190     1.0980 C.2   1 <1>   0.2350 
 16 C        4.7170     4.1810     2.3560 C.2   1 <1>  -0.3020 
 17 C        5.0820    -5.3080     0.5990 C.ar  1 <1>   0.1600 
 18 N        6.4760     4.2590     1.0020 N.2   1 <1>  -0.7070 
 19 C        6.6720     1.9020     0.3940 C.ar  1 <1>   0.0540 
 20 N        5.6460     4.9680     1.7800 N.pl3 1 <1>   0.3000 
 21 C        6.6690     1.8040    -1.0020 C.ar  1 <1>  -0.1430 
 22 C        7.1950     0.8380     1.1270 C.ar  1 <1>  -0.1500 
 23 C        7.1250     0.6510    -1.6170 C.ar  1 <1>  -0.1500 
 24 C        6.1900     2.9600    -1.8730 C.3   1 <1>  -0.0970 
 25 C        7.6400    -0.3170     0.5130 C.ar  1 <1>  -0.1430 
 26 C        7.5970    -0.4090    -0.8660 C.ar  1 <1>  -0.1500 
 27 C        8.1910    -1.4650     1.3390 C.3   1 <1>  -0.0970 
 28 H        0.3280     0.1610    -0.2250 H     1 <1>   0.4000 
 29 H        2.1300     0.3630    -1.5240 H     1 <1>   0.0800 
 30 H        1.9540    -1.6530     0.2790 H     1 <1>   0.0800 
 31 H        2.8330     2.3050     0.2960 H     1 <1>   0.0800 
 32 H        4.0140     1.5930    -0.7930 H     1 <1>   0.0800 
 33 H        4.0200    -1.2370     1.8970 H     1 <1>   0.0800 
 34 H        2.5440    -0.3220     2.1420 H     1 <1>   0.0800 
 35 H        4.6700    -1.0020    -0.9400 H     1 <1>   0.0800 
 36 H        3.3780    -1.8020    -1.7680 H     1 <1>   0.0800 
 37 H        5.0070     0.5280     0.8220 H     1 <1>   0.4500 
 38 H        3.2370     1.9250     2.7090 H     1 <1>   0.0800 
 39 H        4.7500     1.1430     3.1010 H     1 <1>   0.0800 
 40 H        3.2840    -4.1290    -1.7270 H     1 <1>   0.1500 
 41 H        6.1120    -4.1830     2.0760 H     1 <1>   0.1500 
 42 H        3.9590     4.5690     3.0150 H     1 <1>   0.1500 
 43 H        5.4400    -6.2420     0.9970 H     1 <1>   0.1500 
 44 H        5.7420     5.9860     1.8970 H     1 <1>   0.2700 
 45 H        7.2550     0.9240     2.1980 H     1 <1>   0.1500 
 46 H        7.1290     0.5700    -2.6910 H     1 <1>   0.1500 
 47 H        6.1000     2.6650    -2.9020 H     1 <1>   0.0800 
 48 H        6.9010     3.7660    -1.8150 H     1 <1>   0.0800 
 49 H        5.2380     3.3290    -1.5370 H     1 <1>   0.0800 
 50 H        7.9480    -1.2990    -1.3610 H     1 <1>   0.1500 
 51 H        8.1250    -2.3890     0.7930 H     1 <1>   0.0800 
 52 H        7.6350    -1.5720     2.2530 H     1 <1>   0.0800 
 53 H        9.2220    -1.2780     1.5780 H     1 <1>   0.0800 
@<TRIPOS>BOND
  1   1   2  1   
  2   1  28  1   
  3   2   3  1   
  4   2   4  1   
  5   2  29  1   
  6   3   5  1   
  7   3   6  1   
  8   3  30  1   
  9   4   7  1   
 10   4  31  1   
 11   4  32  1   
 12   5   7  1   
 13   5  33  1   
 14   5  34  1   
 15   6   8  1   
 16   6  35  1   
 17   6  36  1   
 18   7   9  1   
 19   7  37  1   
 20   8  10  ar  
 21   8  11  ar  
 22   9  12  1   
 23   9  38  1   
 24   9  39  1   
 25  10  13  ar  
 26  11  14  ar  
 27  11  40  1   
 28  12  15  1   
 29  12  16  2   
 30  13  17  ar  
 31  13  41  1   
 32  14  17  ar  
 33  15  18  2   
 34  15  19  1   
 35  16  20  1   
 36  16  42  1   
 37  17  43  1   
 38  18  20  1   
 39  19  21  ar  
 40  19  22  ar  
 41  20  44  1   
 42  21  23  ar  
 43  21  24  1   
 44  22  25  ar  
 45  22  45  1   
 46  23  26  ar  
 47  23  46  1   
 48  24  47  1   
 49  24  48  1   
 50  24  49  1   
 51  25  26  ar  
 52  25  27  1   
 53  26  50  1   
 54  27  51  1   
 55  27  52  1   
 56  27  53  1   
@<TRIPOS>SUBSTRUCTURE
  1 ****   7 GROUP 4 **** **** 0

# MOE 2024.06 (io_trps.svl 2023.06)
