@<TRIPOS>MOLECULE
NONAME
53 55 1 0 0 
SMALL
USER_CHARGES


@<TRIPOS>ATOM
  1 O       -0.9900     0.6890     1.7750 O.2   1 <1>  -0.5700 
  2 C       -1.5190     0.9840     0.7290 C.2   1 <1>   0.5690 
  3 N       -2.1200     0.0630    -0.0950 N.am  1 <1>  -0.5470 
  4 C       -1.5150     2.4670     0.2690 C.3   1 <1>   0.2510 
  5 C       -2.2460    -1.3330     0.0030 C.ar  1 <1>   0.1170 
  6 N       -0.1700     3.0330    -0.0830 N.3   1 <1>  -0.8100 
  7 C       -2.1370     3.3460     1.3660 C.3   1 <1>  -0.2400 
  8 C       -1.4720    -2.1200     0.8510 C.ar  1 <1>  -0.1500 
  9 C       -3.1860    -1.9660    -0.8050 C.ar  1 <1>  -0.1500 
 10 C       -0.2240     4.3020    -0.8380 C.3   1 <1>   0.1100 
 11 C        0.7610     2.0500    -0.6660 C.3   1 <1>   0.1100 
 12 C       -1.6340    -3.4940     0.8920 C.ar  1 <1>  -0.1500 
 13 C       -3.3500    -3.3390    -0.7680 C.ar  1 <1>  -0.1500 
 14 C        0.7050     5.3480    -0.1900 C.3   1 <1>   0.3430 
 15 C        2.1670     2.6300    -0.8500 C.3   1 <1>  -0.1600 
 16 C       -2.5740    -4.1060     0.0820 C.ar  1 <1>  -0.1500 
 17 N        2.1810     5.0520    -0.3080 N.4   1 <1>  -0.9590 
 18 C        2.5180     3.6830     0.2020 C.3   1 <1>   0.3430 
 19 C        2.9970     6.0890     0.3820 C.3   1 <1>   0.4230 
 20 C        2.6630     7.5000    -0.1120 C.3   1 <1>  -0.1600 
 21 C        4.4990     5.9110     0.1060 C.3   1 <1>  -0.1600 
 22 C        3.9680     8.2800    -0.0010 C.3   1 <1>  -0.1600 
 23 C        5.0370     7.2620    -0.3770 C.3   1 <1>  -0.1600 
 24 H       -2.5870     0.4520    -0.9090 H     1 <1>   0.3700 
 25 H       -2.1420     2.5260    -0.6030 H     1 <1>   0.0800 
 26 H       -1.4960     3.3590     2.2300 H     1 <1>   0.0800 
 27 H       -3.0830     2.9320     1.6650 H     1 <1>   0.0800 
 28 H       -2.3100     4.3510     1.0320 H     1 <1>   0.0800 
 29 H       -0.7330    -1.6710     1.4870 H     1 <1>   0.1500 
 30 H       -3.7990    -1.3860    -1.4690 H     1 <1>   0.1500 
 31 H       -1.2230     4.6990    -0.8250 H     1 <1>   0.0800 
 32 H        0.0370     4.1500    -1.8720 H     1 <1>   0.0800 
 33 H        0.3820     1.6800    -1.6050 H     1 <1>   0.0800 
 34 H        0.8540     1.2130     0.0060 H     1 <1>   0.0800 
 35 H       -1.0280    -4.0850     1.5560 H     1 <1>   0.1500 
 36 H       -4.0820    -3.8140    -1.3980 H     1 <1>   0.1500 
 37 H        0.4380     5.4240     0.8510 H     1 <1>   0.0800 
 38 H        0.4990     6.3000    -0.6480 H     1 <1>   0.0800 
 39 H        2.2860     3.0210    -1.8440 H     1 <1>   0.0800 
 40 H        2.8590     1.8130    -0.7560 H     1 <1>   0.0800 
 41 H       -2.7000    -5.1740     0.1150 H     1 <1>   0.1500 
 42 H        2.4390     5.0820    -1.2990 H     1 <1>   0.4500 
 43 H        3.5740     3.6180     0.4030 H     1 <1>   0.0800 
 44 H        1.9900     3.4780     1.1210 H     1 <1>   0.0800 
 45 H        2.8310     6.0440     1.4470 H     1 <1>   0.0800 
 46 H        1.8920     7.9610     0.4800 H     1 <1>   0.0800 
 47 H        2.3700     7.4820    -1.1480 H     1 <1>   0.0800 
 48 H        4.7070     5.1600    -0.6350 H     1 <1>   0.0800 
 49 H        4.9910     5.6430     1.0250 H     1 <1>   0.0800 
 50 H        4.1180     8.6030     1.0160 H     1 <1>   0.0800 
 51 H        3.9860     9.1420    -0.6480 H     1 <1>   0.0800 
 52 H        5.1500     7.2450    -1.4490 H     1 <1>   0.0800 
 53 H        5.9900     7.5030     0.0650 H     1 <1>   0.0800 
@<TRIPOS>BOND
  1   1   2  2   
  2   2   3  am  
  3   2   4  1   
  4   3   5  1   
  5   3  24  1   
  6   4   6  1   
  7   4   7  1   
  8   4  25  1   
  9   5   8  ar  
 10   5   9  ar  
 11   6  10  1   
 12   6  11  1   
 13   7  26  1   
 14   7  27  1   
 15   7  28  1   
 16   8  12  ar  
 17   8  29  1   
 18   9  13  ar  
 19   9  30  1   
 20  10  14  1   
 21  10  31  1   
 22  10  32  1   
 23  11  15  1   
 24  11  33  1   
 25  11  34  1   
 26  12  16  ar  
 27  12  35  1   
 28  13  16  ar  
 29  13  36  1   
 30  14  17  1   
 31  14  37  1   
 32  14  38  1   
 33  15  18  1   
 34  15  39  1   
 35  15  40  1   
 36  16  41  1   
 37  17  18  1   
 38  17  19  1   
 39  17  42  1   
 40  18  43  1   
 41  18  44  1   
 42  19  20  1   
 43  19  21  1   
 44  19  45  1   
 45  20  22  1   
 46  20  46  1   
 47  20  47  1   
 48  21  23  1   
 49  21  48  1   
 50  21  49  1   
 51  22  23  1   
 52  22  50  1   
 53  22  51  1   
 54  23  52  1   
 55  23  53  1   
@<TRIPOS>SUBSTRUCTURE
  1 ****   6 GROUP 4 **** **** 0

# MOE 2024.06 (io_trps.svl 2023.06)
