@<TRIPOS>MOLECULE
NONAME
45 47 1 0 0 
SMALL
USER_CHARGES


@<TRIPOS>ATOM
  1 O       -2.1880     0.9750    -2.4510 O.2   1 <1>  -0.5700 
  2 C       -2.3600     0.8990    -1.2590 C.2   1 <1>   0.5690 
  3 N       -2.5390    -0.2970    -0.6480 N.am  1 <1>  -0.7300 
  4 C       -2.3830     2.1620    -0.3960 C.3   1 <1>  -0.0190 
  5 C       -2.6000    -1.6050    -1.3390 C.3   1 <1>   0.2840 
  6 C       -2.6430     3.4490    -1.2080 C.3   1 <1>  -0.1600 
  7 C       -1.0790     2.2920     0.4280 C.3   1 <1>  -0.1600 
  8 C       -3.8560    -2.3500    -0.9090 C.ar  1 <1>   0.1660 
  9 C       -2.8120     4.6890    -0.3040 C.3   1 <1>   0.2000 
 10 C       -0.8040     3.7220     0.9390 C.3   1 <1>  -0.1600 
 11 N       -3.8360    -2.9700     0.2360 N.ar  1 <1>  -0.6200 
 12 C       -4.9760    -2.3230    -1.7570 C.ar  1 <1>  -0.1500 
 13 O       -2.2890     5.8080    -0.9770 O.3   1 <1>  -0.5600 
 14 C       -2.0930     4.5370     1.0630 C.3   1 <1>   0.2000 
 15 C       -4.9590    -3.6340     0.6150 C.ar  1 <1>   0.3100 
 16 C       -6.1150    -2.9770    -1.3980 C.ar  1 <1>  -0.1500 
 17 C       -3.1020     6.3330    -1.9800 C.3   1 <1>   0.0400 
 18 O       -1.7640     5.7870     1.5450 O.3   1 <1>  -0.6800 
 19 C       -6.1300    -3.6650    -0.1730 C.ar  1 <1>   0.0000 
 20 C       -4.9610    -4.3200     1.8400 C.ar  1 <1>  -0.1500 
 21 C       -7.2530    -4.3750     0.2950 C.ar  1 <1>  -0.1500 
 22 C       -6.0630    -5.0060     2.2780 C.ar  1 <1>  -0.1500 
 23 C       -7.2220    -5.0330     1.4950 C.ar  1 <1>  -0.1500 
 24 H       -2.7310    -0.3600     0.3530 H     1 <1>   0.3700 
 25 H       -3.2040     2.0490     0.2900 H     1 <1>   0.0800 
 26 H       -2.5950    -1.4660    -2.4060 H     1 <1>   0.0800 
 27 H       -1.7350    -2.1850    -1.0710 H     1 <1>   0.0800 
 28 H       -3.5280     3.3220    -1.8050 H     1 <1>   0.0800 
 29 H       -1.8090     3.6000    -1.8730 H     1 <1>   0.0800 
 30 H       -1.1330     1.6180     1.2650 H     1 <1>   0.0800 
 31 H       -0.2420     1.9850    -0.1760 H     1 <1>   0.0800 
 32 H       -3.8560     4.8640    -0.1060 H     1 <1>   0.0800 
 33 H       -0.1540     4.2200     0.2400 H     1 <1>   0.0800 
 34 H       -0.3040     3.6770     1.8910 H     1 <1>   0.0800 
 35 H       -4.9190    -1.7790    -2.6830 H     1 <1>   0.1500 
 36 H       -2.7450     4.0690     1.7800 H     1 <1>   0.0800 
 37 H       -6.9910    -2.9780    -2.0220 H     1 <1>   0.1500 
 38 H       -2.6050     7.1910    -2.3970 H     1 <1>   0.0800 
 39 H       -4.0440     6.6330    -1.5560 H     1 <1>   0.0800 
 40 H       -3.2480     5.5950    -2.7500 H     1 <1>   0.0800 
 41 H       -1.6000     6.3440     0.7490 H     1 <1>   0.4000 
 42 H       -4.0610    -4.2890     2.4260 H     1 <1>   0.1500 
 43 H       -8.1410    -4.3920    -0.3110 H     1 <1>   0.1500 
 44 H       -6.0510    -5.5290     3.2190 H     1 <1>   0.1500 
 45 H       -8.0810    -5.5750     1.8510 H     1 <1>   0.1500 
@<TRIPOS>BOND
  1   1   2  2   
  2   2   3  am  
  3   2   4  1   
  4   3   5  1   
  5   3  24  1   
  6   4   6  1   
  7   4   7  1   
  8   4  25  1   
  9   5   8  1   
 10   5  26  1   
 11   5  27  1   
 12   6   9  1   
 13   6  28  1   
 14   6  29  1   
 15   7  10  1   
 16   7  30  1   
 17   7  31  1   
 18   8  11  ar  
 19   8  12  ar  
 20   9  13  1   
 21   9  14  1   
 22   9  32  1   
 23  10  14  1   
 24  10  33  1   
 25  10  34  1   
 26  11  15  ar  
 27  12  16  ar  
 28  12  35  1   
 29  13  17  1   
 30  14  18  1   
 31  14  36  1   
 32  15  19  ar  
 33  15  20  ar  
 34  16  19  ar  
 35  16  37  1   
 36  17  38  1   
 37  17  39  1   
 38  17  40  1   
 39  18  41  1   
 40  19  21  ar  
 41  20  22  ar  
 42  20  42  1   
 43  21  23  ar  
 44  21  43  1   
 45  22  23  ar  
 46  22  44  1   
 47  23  45  1   
@<TRIPOS>SUBSTRUCTURE
  1 ****   3 GROUP 4 **** **** 0

# MOE 2024.06 (io_trps.svl 2023.06)
