@<TRIPOS>MOLECULE
NONAME
24 24 1 0 0 
SMALL
USER_CHARGES


@<TRIPOS>ATOM
  1 F        0.8030    -0.7170    -1.8730 F     1 <1>  -0.3400 
  2 C        0.8090    -1.2810    -0.6700 C.3   1 <1>   1.1640 
  3 F        0.2690    -0.4040     0.1690 F     1 <1>  -0.3400 
  4 F       -0.0630    -2.2810    -0.7450 F     1 <1>  -0.3400 
  5 C        2.2070    -1.7500    -0.2320 C.ar  1 <1>  -0.1440 
  6 C        3.2340    -0.8190    -0.1060 C.ar  1 <1>   0.0820 
  7 C        2.4730    -3.0890     0.0430 C.ar  1 <1>  -0.1500 
  8 O        2.9610     0.4760    -0.3760 O.3   1 <1>  -0.3630 
  9 C        4.4980    -1.2450     0.2900 C.ar  1 <1>  -0.1500 
 10 C        3.7350    -3.5480     0.4430 C.ar  1 <1>   0.0860 
 11 C        3.9260     1.5010    -0.2810 C.3   1 <1>   0.0400 
 12 C        4.7340    -2.5780     0.5560 C.ar  1 <1>  -0.1500 
 13 C        4.0530    -4.9350     0.7390 C.2   1 <1>   0.4230 
 14 O        5.1620    -5.2790     1.0820 O.2   1 <1>  -0.5700 
 15 C        2.9970    -6.0390     0.6320 C.3   1 <1>   0.6610 
 16 F        2.4840    -6.1000    -0.5960 F     1 <1>  -0.3400 
 17 F        1.9550    -5.7900     1.4240 F     1 <1>  -0.3400 
 18 H        1.6710    -3.7980    -0.0590 H     1 <1>   0.1500 
 19 H        5.3110    -0.5520     0.3960 H     1 <1>   0.1500 
 20 H        3.4530     2.4290    -0.5470 H     1 <1>   0.0800 
 21 H        4.7290     1.2910    -0.9660 H     1 <1>   0.0800 
 22 H        4.2850     1.5520     0.7320 H     1 <1>   0.0800 
 23 H        5.7240    -2.8760     0.8600 H     1 <1>   0.1500 
 24 H        3.3820    -7.0100     0.8810 H     1 <1>   0.0800 
@<TRIPOS>BOND
  1   1   2  1   
  2   2   3  1   
  3   2   4  1   
  4   2   5  1   
  5   5   6  ar  
  6   5   7  ar  
  7   6   8  1   
  8   6   9  ar  
  9   7  10  ar  
 10   7  18  1   
 11   8  11  1   
 12   9  12  ar  
 13   9  19  1   
 14  10  12  ar  
 15  10  13  1   
 16  11  20  1   
 17  11  21  1   
 18  11  22  1   
 19  12  23  1   
 20  13  14  2   
 21  13  15  1   
 22  15  16  1   
 23  15  17  1   
 24  15  24  1   
@<TRIPOS>SUBSTRUCTURE
  1 ****   7 GROUP 4 **** **** 0

# MOE 2024.06 (io_trps.svl 2023.06)
