@<TRIPOS>MOLECULE
NONAME
52 54 1 0 0 
SMALL
USER_CHARGES


@<TRIPOS>ATOM
  1 O       -0.3850     0.1620    -1.7040 O.2   1 <1>  -0.5700 
  2 C       -1.2820     0.8230    -1.2340 C.2   1 <1>   0.5690 
  3 N       -2.4130     0.2260    -0.7400 N.am  1 <1>  -0.6600 
  4 C       -1.1280     2.3410    -1.2430 C.3   1 <1>   0.1810 
  5 C       -3.5550     0.9180    -0.0920 C.3   1 <1>   0.1400 
  6 C       -2.5720    -1.2440    -0.6590 C.3   1 <1>   0.1400 
  7 O       -1.2380     2.8840     0.0630 O.3   1 <1>  -0.3620 
  8 C       -4.5310    -0.1990     0.2770 C.3   1 <1>   0.2000 
  9 C       -3.6860    -1.4690     0.3640 C.3   1 <1>  -0.0800 
 10 C       -0.8860     4.1830     0.1840 C.ar  1 <1>   0.0820 
 11 O       -5.1520     0.0480     1.4910 O.3   1 <1>  -0.6800 
 12 C       -4.5010    -2.7480     0.1230 C.3   1 <1>  -0.0170 
 13 C        0.4550     4.5310     0.3580 C.ar  1 <1>  -0.1440 
 14 C       -1.8820     5.1540     0.1330 C.ar  1 <1>  -0.1440 
 15 C       -3.6180    -3.9830     0.2100 C.ar  1 <1>  -0.1440 
 16 C        0.7980     5.8780     0.4320 C.ar  1 <1>  -0.1440 
 17 C        1.5320     3.4510     0.4700 C.3   1 <1>  -0.0970 
 18 C       -1.5220     6.4860     0.2190 C.ar  1 <1>  -0.1500 
 19 C       -3.3500     4.7790    -0.0100 C.3   1 <1>  -0.0970 
 20 C       -3.2760    -4.5430     1.4240 C.ar  1 <1>  -0.1500 
 21 C       -3.1120    -4.6070    -0.9130 C.ar  1 <1>  -0.1500 
 22 C       -0.1940     6.8430     0.3610 C.ar  1 <1>  -0.1500 
 23 C        2.2420     6.3350     0.5930 C.3   1 <1>  -0.0970 
 24 C       -2.4640    -5.6650     1.4560 C.ar  1 <1>   0.1600 
 25 C       -2.3070    -5.7260    -0.7710 C.ar  1 <1>   0.1600 
 26 N       -1.9710    -6.2700     0.3880 N.ar  1 <1>  -0.6200 
 27 H       -1.8880     2.7830    -1.8590 H     1 <1>   0.0800 
 28 H       -0.1620     2.5970    -1.6380 H     1 <1>   0.0800 
 29 H       -3.2070     1.4250     0.7910 H     1 <1>   0.0800 
 30 H       -4.0080     1.6170    -0.7720 H     1 <1>   0.0800 
 31 H       -2.8560    -1.6150    -1.6290 H     1 <1>   0.0800 
 32 H       -1.6530    -1.7160    -0.3530 H     1 <1>   0.0800 
 33 H       -5.2900    -0.2840    -0.4820 H     1 <1>   0.0800 
 34 H       -3.2190    -1.5200     1.3320 H     1 <1>   0.0800 
 35 H       -4.4860     0.1340     2.2010 H     1 <1>   0.4000 
 36 H       -4.9740    -2.7070    -0.8430 H     1 <1>   0.0800 
 37 H       -5.2810    -2.8180     0.8610 H     1 <1>   0.0800 
 38 H        2.2400     3.7000     1.2380 H     1 <1>   0.0800 
 39 H        2.0500     3.3530    -0.4660 H     1 <1>   0.0800 
 40 H        1.1100     2.4970     0.7290 H     1 <1>   0.0800 
 41 H       -2.2720     7.2560     0.1760 H     1 <1>   0.1500 
 42 H       -3.9820     5.6330     0.1530 H     1 <1>   0.0800 
 43 H       -3.6070     4.0270     0.7140 H     1 <1>   0.0800 
 44 H       -3.5370     4.3970    -0.9960 H     1 <1>   0.0800 
 45 H       -3.6320    -4.1180     2.3440 H     1 <1>   0.1500 
 46 H       -3.3320    -4.2370    -1.8970 H     1 <1>   0.1500 
 47 H        0.0600     7.8860     0.4220 H     1 <1>   0.1500 
 48 H        2.3280     7.3980     0.4550 H     1 <1>   0.0800 
 49 H        2.8690     5.8530    -0.1360 H     1 <1>   0.0800 
 50 H        2.5950     6.0920     1.5780 H     1 <1>   0.0800 
 51 H       -2.2080    -6.0880     2.4120 H     1 <1>   0.1500 
 52 H       -1.9200    -6.1980    -1.6570 H     1 <1>   0.1500 
@<TRIPOS>BOND
  1   1   2  2   
  2   2   3  am  
  3   2   4  1   
  4   3   5  1   
  5   3   6  1   
  6   4   7  1   
  7   4  27  1   
  8   4  28  1   
  9   5   8  1   
 10   5  29  1   
 11   5  30  1   
 12   6   9  1   
 13   6  31  1   
 14   6  32  1   
 15   7  10  1   
 16   8   9  1   
 17   8  11  1   
 18   8  33  1   
 19   9  12  1   
 20   9  34  1   
 21  10  13  ar  
 22  10  14  ar  
 23  11  35  1   
 24  12  15  1   
 25  12  36  1   
 26  12  37  1   
 27  13  16  ar  
 28  13  17  1   
 29  14  18  ar  
 30  14  19  1   
 31  15  20  ar  
 32  15  21  ar  
 33  16  22  ar  
 34  16  23  1   
 35  17  38  1   
 36  17  39  1   
 37  17  40  1   
 38  18  22  ar  
 39  18  41  1   
 40  19  42  1   
 41  19  43  1   
 42  19  44  1   
 43  20  24  ar  
 44  20  45  1   
 45  21  25  ar  
 46  21  46  1   
 47  22  47  1   
 48  23  48  1   
 49  23  49  1   
 50  23  50  1   
 51  24  26  ar  
 52  24  51  1   
 53  25  26  ar  
 54  25  52  1   
@<TRIPOS>SUBSTRUCTURE
  1 ****   3 GROUP 4 **** **** 0

# MOE 2024.06 (io_trps.svl 2023.06)
