@<TRIPOS>MOLECULE
NONAME
52 55 1 0 0 
SMALL
USER_CHARGES


@<TRIPOS>ATOM
  1 O       -0.6720     0.7200     0.6670 O.2   1 <1>  -0.5700 
  2 C       -0.4980     1.8510     0.2920 C.2   1 <1>   0.5690 
  3 N       -1.0060     2.8930     0.9870 N.am  1 <1>  -0.7300 
  4 C        0.2840     2.1230    -0.9970 C.3   1 <1>   0.1810 
  5 C       -0.8350     4.3080     0.5820 C.3   1 <1>   0.3640 
  6 O        0.7260     3.4620    -1.0980 O.3   1 <1>  -0.5600 
  7 C       -2.1610     5.0410     0.7460 C.ar  1 <1>  -0.1440 
  8 C       -0.2910     4.4250    -0.8630 C.3   1 <1>   0.2610 
  9 C       -3.3470     4.5010     0.2640 C.ar  1 <1>  -0.1500 
 10 C       -2.1900     6.2760     1.3790 C.ar  1 <1>  -0.1500 
 11 C        0.1750     5.8640    -1.1220 C.2   1 <1>   0.5690 
 12 C       -4.5410     5.1850     0.4150 C.ar  1 <1>  -0.1500 
 13 C       -3.3840     6.9600     1.5290 C.ar  1 <1>  -0.1500 
 14 O       -0.4250     6.4820    -1.9730 O.2   1 <1>  -0.5700 
 15 N        1.1980     6.4230    -0.3860 N.am  1 <1>  -0.5090 
 16 C       -4.5600     6.4150     1.0480 C.ar  1 <1>  -0.1500 
 17 C        1.1720     7.8140     0.1610 C.3   1 <1>   0.0490 
 18 C        2.4430     5.6420    -0.1070 C.3   1 <1>   0.2840 
 19 C        0.0420     8.7760    -0.0400 C.3   1 <1>  -0.2000 
 20 C        1.3170     8.9410    -0.8080 C.3   1 <1>  -0.2000 
 21 C        3.6890     6.5170    -0.0190 C.ar  1 <1>  -0.1430 
 22 C        4.3400     6.7010     1.1930 C.ar  1 <1>  -0.1500 
 23 C        4.1830     7.1370    -1.1560 C.ar  1 <1>  -0.1500 
 24 C        5.4710     7.4960     1.2690 C.ar  1 <1>  -0.1500 
 25 C        5.3130     7.9320    -1.0820 C.ar  1 <1>  -0.1500 
 26 C        5.9640     8.1190     0.1260 C.ar  1 <1>   0.0830 
 27 O        7.0620     8.9140     0.1120 O.3   1 <1>  -0.3620 
 28 C        7.8030     9.1630     1.2860 C.3   1 <1>   0.0400 
 29 H       -1.5630     2.7090     1.8240 H     1 <1>   0.3700 
 30 H       -0.3380     1.9060    -1.8470 H     1 <1>   0.0800 
 31 H        1.1500     1.4870    -1.0310 H     1 <1>   0.0800 
 32 H       -0.1190     4.7490     1.2530 H     1 <1>   0.0800 
 33 H       -1.0910     4.2200    -1.5520 H     1 <1>   0.0800 
 34 H       -3.3520     3.5450    -0.2310 H     1 <1>   0.1500 
 35 H       -1.2850     6.7200     1.7570 H     1 <1>   0.1500 
 36 H       -5.4560     4.7600     0.0400 H     1 <1>   0.1500 
 37 H       -3.3970     7.9180     2.0180 H     1 <1>   0.1500 
 38 H       -5.4880     6.9470     1.1640 H     1 <1>   0.1500 
 39 H        1.6860     7.8860     1.1060 H     1 <1>   0.1000 
 40 H        2.3150     5.0950     0.8100 H     1 <1>   0.0800 
 41 H        2.6040     4.9330    -0.8990 H     1 <1>   0.0800 
 42 H       -0.8440     8.4840    -0.5750 H     1 <1>   0.1000 
 43 H       -0.1710     9.4970     0.7290 H     1 <1>   0.1000 
 44 H        1.9770     9.7520    -0.5560 H     1 <1>   0.1000 
 45 H        1.3080     8.7220    -1.8620 H     1 <1>   0.1000 
 46 H        3.9710     6.2270     2.0850 H     1 <1>   0.1500 
 47 H        3.6840     7.0070    -2.1010 H     1 <1>   0.1500 
 48 H        5.9510     7.6200     2.2200 H     1 <1>   0.1500 
 49 H        5.6960     8.4150    -1.9630 H     1 <1>   0.1500 
 50 H        8.6230     9.8110     1.0320 H     1 <1>   0.0800 
 51 H        8.1790     8.2290     1.6660 H     1 <1>   0.0800 
 52 H        7.1660     9.6450     2.0050 H     1 <1>   0.0800 
@<TRIPOS>BOND
  1   1   2  2   
  2   2   3  am  
  3   2   4  1   
  4   3   5  1   
  5   3  29  1   
  6   4   6  1   
  7   4  30  1   
  8   4  31  1   
  9   5   7  1   
 10   5   8  1   
 11   5  32  1   
 12   6   8  1   
 13   7   9  ar  
 14   7  10  ar  
 15   8  11  1   
 16   8  33  1   
 17   9  12  ar  
 18   9  34  1   
 19  10  13  ar  
 20  10  35  1   
 21  11  14  2   
 22  11  15  am  
 23  12  16  ar  
 24  12  36  1   
 25  13  16  ar  
 26  13  37  1   
 27  15  17  1   
 28  15  18  1   
 29  16  38  1   
 30  17  19  1   
 31  17  20  1   
 32  17  39  1   
 33  18  21  1   
 34  18  40  1   
 35  18  41  1   
 36  19  20  1   
 37  19  42  1   
 38  19  43  1   
 39  20  44  1   
 40  20  45  1   
 41  21  22  ar  
 42  21  23  ar  
 43  22  24  ar  
 44  22  46  1   
 45  23  25  ar  
 46  23  47  1   
 47  24  26  ar  
 48  24  48  1   
 49  25  26  ar  
 50  25  49  1   
 51  26  27  1   
 52  27  28  1   
 53  28  50  1   
 54  28  51  1   
 55  28  52  1   
@<TRIPOS>SUBSTRUCTURE
  1 ****  15 GROUP 4 **** **** 0

# MOE 2024.06 (io_trps.svl 2023.06)
