@<TRIPOS>MOLECULE
NONAME
38 41 1 0 0 
SMALL
USER_CHARGES


@<TRIPOS>ATOM
  1 S       -0.0310     0.0970     0.9980 S.3   1 <1>  -0.0800 
  2 C        0.8460    -0.8500    -0.2110 C.2   1 <1>   0.4420 
  3 C        0.7150     1.5560     0.3890 C.ar  1 <1>   0.0400 
  4 N        1.6000    -0.1550    -0.9720 N.2   1 <1>  -0.5650 
  5 N        0.7110    -2.2130    -0.3030 N.am  1 <1>  -0.4940 
  6 C        1.5480     1.2030    -0.6580 C.ar  1 <1>   0.2270 
  7 C        0.5380     2.8540     0.8380 C.ar  1 <1>  -0.1500 
  8 C       -0.0230    -3.1130     0.4150 C.2   1 <1>   0.5690 
  9 C        2.2330     2.2510    -1.2720 C.ar  1 <1>   0.1900 
 10 C        1.2380     3.8670     0.2000 C.ar  1 <1>  -0.1500 
 11 O       -0.7290    -2.8090     1.3410 O.2   1 <1>  -0.5700 
 12 C        0.0770    -4.5820     0.0220 C.3   1 <1>  -0.0190 
 13 F        3.0390     1.9970    -2.2700 F     1 <1>  -0.1900 
 14 C        2.0900     3.5650    -0.8600 C.ar  1 <1>  -0.1500 
 15 C       -1.3220    -5.2250     0.0000 C.3   1 <1>   0.1400 
 16 C        1.0200    -5.3520     0.9730 C.3   1 <1>  -0.1600 
 17 N       -1.2090    -6.6840    -0.1920 N.am  1 <1>  -0.4200 
 18 C        1.1940    -6.8150     0.5220 C.3   1 <1>  -0.0990 
 19 C       -2.1940    -7.5530    -0.4790 C.2   1 <1>   0.6900 
 20 C       -0.1240    -7.4630     0.1360 C.2   1 <1>   0.4490 
 21 O       -3.3430    -7.2590    -0.8000 O.2   1 <1>  -0.5700 
 22 N       -1.6690    -8.7990    -0.3340 N.am  1 <1>  -0.2980 
 23 N       -0.3540    -8.7170     0.0600 N.2   1 <1>  -0.5120 
 24 C       -2.3520   -10.0900    -0.5290 C.3   1 <1>   0.0600 
 25 H        1.2860    -2.5900    -1.0510 H     1 <1>   0.3700 
 26 H       -0.1260     3.0620     1.6590 H     1 <1>   0.1500 
 27 H        1.1240     4.8880     0.5230 H     1 <1>   0.1500 
 28 H        0.4730    -4.6360    -0.9760 H     1 <1>   0.0800 
 29 H        2.6370     4.3440    -1.3610 H     1 <1>   0.1500 
 30 H       -1.9200    -4.8050    -0.7910 H     1 <1>   0.0800 
 31 H       -1.8290    -5.0490     0.9350 H     1 <1>   0.0800 
 32 H        0.6030    -5.3360     1.9670 H     1 <1>   0.0800 
 33 H        1.9830    -4.8720     1.0150 H     1 <1>   0.0800 
 34 H        1.6550    -7.3920     1.3030 H     1 <1>   0.0800 
 35 H        1.8380    -6.8510    -0.3380 H     1 <1>   0.0800 
 36 H       -3.3710    -9.9230    -0.8320 H     1 <1>   0.0800 
 37 H       -2.3390   -10.6410     0.3940 H     1 <1>   0.0800 
 38 H       -1.8400   -10.6530    -1.2880 H     1 <1>   0.0800 
@<TRIPOS>BOND
  1   1   2  1   
  2   1   3  1   
  3   2   4  2   
  4   2   5  1   
  5   3   6  ar  
  6   3   7  ar  
  7   4   6  1   
  8   5   8  am  
  9   5  25  1   
 10   6   9  ar  
 11   7  10  ar  
 12   7  26  1   
 13   8  11  2   
 14   8  12  1   
 15   9  13  1   
 16   9  14  ar  
 17  10  14  ar  
 18  10  27  1   
 19  12  15  1   
 20  12  16  1   
 21  12  28  1   
 22  14  29  1   
 23  15  17  1   
 24  15  30  1   
 25  15  31  1   
 26  16  18  1   
 27  16  32  1   
 28  16  33  1   
 29  17  19  am  
 30  17  20  1   
 31  18  20  1   
 32  18  34  1   
 33  18  35  1   
 34  19  21  2   
 35  19  22  am  
 36  20  23  2   
 37  22  23  1   
 38  22  24  1   
 39  24  36  1   
 40  24  37  1   
 41  24  38  1   
@<TRIPOS>SUBSTRUCTURE
  1 ****   8 GROUP 4 **** **** 0

# MOE 2024.06 (io_trps.svl 2023.06)
