@<TRIPOS>MOLECULE
NONAME
60 64 1 0 0 
SMALL
USER_CHARGES


@<TRIPOS>ATOM
  1 O        0.7490     0.0020    -0.2610 O.2   1 <1>  -0.5700 
  2 C        1.6840    -0.7530    -0.0470 C.2   1 <1>   0.6160 
  3 N        2.9830    -0.3000    -0.0020 N.am  1 <1>  -0.4770 
  4 C        1.4410    -2.1370     0.1570 C.2   1 <1>  -0.1360 
  5 C        4.0550    -1.1900     0.1980 C.ar  1 <1>   0.1170 
  6 C        3.2290     1.1560    -0.2230 C.3   1 <1>   0.1400 
  7 C        2.4350    -3.0380     0.3690 C.2   1 <1>  -0.1670 
  8 C        3.7990    -2.5680     0.3910 C.ar  1 <1>   0.0280 
  9 C        5.3780    -0.7240     0.2140 C.ar  1 <1>  -0.1440 
 10 C        4.5140     1.6100     0.4650 C.3   1 <1>  -0.1600 
 11 C        2.2180    -4.5370     0.5920 C.3   1 <1>   0.4810 
 12 C        4.8950    -3.4190     0.5950 C.ar  1 <1>  -0.1500 
 13 C        6.4270    -1.5940     0.4150 C.ar  1 <1>  -0.1500 
 14 C        5.6890     0.7500     0.0050 C.3   1 <1>  -0.0160 
 15 N        0.8210    -5.0150     0.4680 N.4   1 <1>  -0.9590 
 16 C        6.1850    -2.9430     0.6070 C.ar  1 <1>  -0.1500 
 17 C        0.2160    -4.9340    -0.9010 C.3   1 <1>   0.3430 
 18 C       -0.1030    -4.6110     1.5790 C.3   1 <1>   0.3430 
 19 C       -1.0190    -5.8620    -1.0270 C.3   1 <1>   0.2000 
 20 C       -1.5650    -4.9520     1.2290 C.3   1 <1>  -0.1600 
 21 O       -0.6470    -7.0120    -1.7030 O.3   1 <1>  -0.6800 
 22 C       -1.6490    -6.2310     0.3520 C.3   1 <1>  -0.1060 
 23 C       -0.8400    -7.3140     1.0900 C.2   1 <1>   0.9060 
 24 C       -3.1070    -6.7320     0.1920 C.3   1 <1>  -0.0170 
 25 O       -1.1920    -7.6510     2.2160 O.co2 1 <1>  -0.9000 
 26 O        0.2670    -7.6530     0.6360 O.co2 1 <1>  -0.9000 
 27 C       -4.0480    -5.7290    -0.4690 C.ar  1 <1>  -0.1440 
 28 C       -4.7130    -4.7800     0.2930 C.ar  1 <1>  -0.1500 
 29 C       -4.2600    -5.7650    -1.8390 C.ar  1 <1>  -0.1500 
 30 C       -5.5610    -3.8660    -0.3080 C.ar  1 <1>  -0.1500 
 31 C       -5.1070    -4.8520    -2.4430 C.ar  1 <1>  -0.1500 
 32 C       -5.7560    -3.8990    -1.6780 C.ar  1 <1>  -0.1500 
 33 H        0.4010    -2.3840     0.1250 H     1 <1>   0.1500 
 34 H        3.2950     1.3350    -1.2820 H     1 <1>   0.0800 
 35 H        2.4050     1.7310     0.1640 H     1 <1>   0.0800 
 36 H        4.7030     2.6430     0.2320 H     1 <1>   0.0800 
 37 H        4.3940     1.5250     1.5310 H     1 <1>   0.0800 
 38 H        2.5850    -4.7930     1.5720 H     1 <1>   0.0800 
 39 H        2.8210    -5.0730    -0.1230 H     1 <1>   0.0800 
 40 H        4.7660    -4.4730     0.7510 H     1 <1>   0.1500 
 41 H        7.4430    -1.2360     0.4250 H     1 <1>   0.1500 
 42 H        6.5700     1.0270     0.5560 H     1 <1>   0.0800 
 43 H        5.8770     0.9220    -1.0400 H     1 <1>   0.0800 
 44 H        0.8920    -6.0600     0.6000 H     1 <1>   0.4500 
 45 H        7.0160    -3.6110     0.7650 H     1 <1>   0.1500 
 46 H       -0.0970    -3.9230    -1.0920 H     1 <1>   0.0800 
 47 H        0.9360    -5.2130    -1.6520 H     1 <1>   0.0800 
 48 H        0.1700    -5.1580     2.4690 H     1 <1>   0.0800 
 49 H       -0.0160    -3.5600     1.7930 H     1 <1>   0.0800 
 50 H       -1.7280    -5.3550    -1.6540 H     1 <1>   0.0800 
 51 H       -2.1040    -5.1020     2.1490 H     1 <1>   0.0800 
 52 H       -2.0170    -4.1160     0.7250 H     1 <1>   0.0800 
 53 H       -0.1750    -7.5960    -1.0420 H     1 <1>   0.4000 
 54 H       -3.1010    -7.6420    -0.3840 H     1 <1>   0.0800 
 55 H       -3.5020    -6.9910     1.1600 H     1 <1>   0.0800 
 56 H       -4.5760    -4.7530     1.3600 H     1 <1>   0.1500 
 57 H       -3.7620    -6.5070    -2.4410 H     1 <1>   0.1500 
 58 H       -6.0720    -3.1310     0.2890 H     1 <1>   0.1500 
 59 H       -5.2620    -4.8860    -3.5070 H     1 <1>   0.1500 
 60 H       -6.4150    -3.1900    -2.1460 H     1 <1>   0.1500 
@<TRIPOS>BOND
  1   1   2  2   
  2   2   3  am  
  3   2   4  1   
  4   3   5  1   
  5   3   6  1   
  6   4   7  2   
  7   4  33  1   
  8   5   8  ar  
  9   5   9  ar  
 10   6  10  1   
 11   6  34  1   
 12   6  35  1   
 13   7   8  1   
 14   7  11  1   
 15   8  12  ar  
 16   9  13  ar  
 17   9  14  1   
 18  10  14  1   
 19  10  36  1   
 20  10  37  1   
 21  11  15  1   
 22  11  38  1   
 23  11  39  1   
 24  12  16  ar  
 25  12  40  1   
 26  13  16  ar  
 27  13  41  1   
 28  14  42  1   
 29  14  43  1   
 30  15  17  1   
 31  15  18  1   
 32  15  44  1   
 33  16  45  1   
 34  17  19  1   
 35  17  46  1   
 36  17  47  1   
 37  18  20  1   
 38  18  48  1   
 39  18  49  1   
 40  19  21  1   
 41  19  22  1   
 42  19  50  1   
 43  20  22  1   
 44  20  51  1   
 45  20  52  1   
 46  21  53  1   
 47  22  23  1   
 48  22  24  1   
 49  23  25  ar  
 50  23  26  ar  
 51  24  27  1   
 52  24  54  1   
 53  24  55  1   
 54  27  28  ar  
 55  27  29  ar  
 56  28  30  ar  
 57  28  56  1   
 58  29  31  ar  
 59  29  57  1   
 60  30  32  ar  
 61  30  58  1   
 62  31  32  ar  
 63  31  59  1   
 64  32  60  1   
@<TRIPOS>SUBSTRUCTURE
  1 ****  15 GROUP 4 **** **** 0

# MOE 2024.06 (io_trps.svl 2023.06)
