@<TRIPOS>MOLECULE
NONAME
52 54 1 0 0 
SMALL
USER_CHARGES


@<TRIPOS>ATOM
  1 O        0.3140     0.2530    -0.8460 O.3   1 <1>  -0.5600 
  2 C        1.5420    -0.4030    -1.0330 C.3   1 <1>   0.2000 
  3 C        0.4110     1.6440    -0.9600 C.3   1 <1>   0.1200 
  4 C        2.5620     0.0770     0.0380 C.3   1 <1>   0.3340 
  5 C        1.2620    -1.9140    -0.9840 C.3   1 <1>   0.1200 
  6 C        1.3760     2.2020     0.0980 C.3   1 <1>   0.1100 
  7 N        2.7010     1.5540     0.0150 N.3   1 <1>  -0.8100 
  8 C        3.9220    -0.5930    -0.1590 C.ar  1 <1>  -0.1440 
  9 O        2.3210    -2.6460    -1.5160 O.3   1 <1>  -0.6800 
 10 C        3.6400     2.0450     1.0600 C.3   1 <1>   0.2530 
 11 C        4.3350    -1.5970     0.7060 C.ar  1 <1>  -0.1500 
 12 C        4.7520    -0.2200    -1.2080 C.ar  1 <1>  -0.1500 
 13 C        3.7680     3.5700     1.1240 C.ar  1 <1>   0.1670 
 14 C        5.5510    -2.2310     0.5240 C.ar  1 <1>   0.0830 
 15 C        5.9790    -0.8360    -1.3870 C.ar  1 <1>  -0.1500 
 16 N        4.5340     4.1590     0.2140 N.ar  1 <1>  -0.6200 
 17 C        3.0960     4.2600     2.1230 C.ar  1 <1>  -0.1500 
 18 O        5.8620    -3.2350     1.3790 O.3   1 <1>  -0.3630 
 19 C        6.3940    -1.8300    -0.5190 C.ar  1 <1>   0.0830 
 20 C        4.6290     5.4740     0.2890 C.ar  1 <1>   0.1670 
 21 C        3.2020     5.6320     2.1960 C.ar  1 <1>  -0.1500 
 22 C        5.9560    -4.5270     0.8180 C.3   1 <1>   0.0400 
 23 O        7.6200    -2.3700    -0.7230 O.3   1 <1>  -0.3630 
 24 C        3.9910     6.2450     1.2490 C.ar  1 <1>  -0.1500 
 25 C        5.5000     6.1300    -0.7600 C.3   1 <1>  -0.0970 
 26 C        8.5880    -2.1040     0.2680 C.3   1 <1>   0.0400 
 27 H        1.8980    -0.1500    -2.0170 H     1 <1>   0.0800 
 28 H        0.7560     1.8890    -1.9510 H     1 <1>   0.0800 
 29 H       -0.5720     2.0560    -0.8230 H     1 <1>   0.0800 
 30 H        2.1760    -0.2130     1.0000 H     1 <1>   0.0800 
 31 H        0.3910    -2.1430    -1.5740 H     1 <1>   0.0800 
 32 H        1.1020    -2.2380     0.0280 H     1 <1>   0.0800 
 33 H        0.9510     2.0540     1.0760 H     1 <1>   0.0800 
 34 H        1.4830     3.2600    -0.0690 H     1 <1>   0.0800 
 35 H        3.1780    -2.3420    -1.1420 H     1 <1>   0.4000 
 36 H        3.3260     1.6790     2.0210 H     1 <1>   0.0800 
 37 H        4.6230     1.6530     0.8690 H     1 <1>   0.0800 
 38 H        3.7140    -1.9090     1.5260 H     1 <1>   0.1500 
 39 H        4.4440     0.5630    -1.8810 H     1 <1>   0.1500 
 40 H        6.6210    -0.5390    -2.1960 H     1 <1>   0.1500 
 41 H        2.4930     3.7310     2.8370 H     1 <1>   0.1500 
 42 H        2.6930     6.1980     2.9570 H     1 <1>   0.1500 
 43 H        6.0850    -5.2330     1.6190 H     1 <1>   0.0800 
 44 H        6.8010    -4.5680     0.1550 H     1 <1>   0.0800 
 45 H        5.0490    -4.7400     0.2810 H     1 <1>   0.0800 
 46 H        4.1100     7.3120     1.2570 H     1 <1>   0.1500 
 47 H        5.5190     7.1970    -0.6390 H     1 <1>   0.0800 
 48 H        5.1200     5.8950    -1.7370 H     1 <1>   0.0800 
 49 H        6.5030     5.7510    -0.6790 H     1 <1>   0.0800 
 50 H        9.5280    -2.5030    -0.0650 H     1 <1>   0.0800 
 51 H        8.2940    -2.5750     1.1880 H     1 <1>   0.0800 
 52 H        8.6630    -1.0390     0.4010 H     1 <1>   0.0800 
@<TRIPOS>BOND
  1   1   2  1   
  2   1   3  1   
  3   2   4  1   
  4   2   5  1   
  5   2  27  1   
  6   3   6  1   
  7   3  28  1   
  8   3  29  1   
  9   4   7  1   
 10   4   8  1   
 11   4  30  1   
 12   5   9  1   
 13   5  31  1   
 14   5  32  1   
 15   6   7  1   
 16   6  33  1   
 17   6  34  1   
 18   7  10  1   
 19   8  11  ar  
 20   8  12  ar  
 21   9  35  1   
 22  10  13  1   
 23  10  36  1   
 24  10  37  1   
 25  11  14  ar  
 26  11  38  1   
 27  12  15  ar  
 28  12  39  1   
 29  13  16  ar  
 30  13  17  ar  
 31  14  18  1   
 32  14  19  ar  
 33  15  19  ar  
 34  15  40  1   
 35  16  20  ar  
 36  17  21  ar  
 37  17  41  1   
 38  18  22  1   
 39  19  23  1   
 40  20  24  ar  
 41  20  25  1   
 42  21  24  ar  
 43  21  42  1   
 44  22  43  1   
 45  22  44  1   
 46  22  45  1   
 47  23  26  1   
 48  24  46  1   
 49  25  47  1   
 50  25  48  1   
 51  25  49  1   
 52  26  50  1   
 53  26  51  1   
 54  26  52  1   
@<TRIPOS>SUBSTRUCTURE
  1 ****   8 GROUP 4 **** **** 0

# MOE 2024.06 (io_trps.svl 2023.06)
