@<TRIPOS>MOLECULE
NONAME
45 46 1 0 0 
SMALL
USER_CHARGES


@<TRIPOS>ATOM
  1 O        2.9500     1.7050     2.2220 O.co2 1 <1>  -0.9000 
  2 C        2.4030     0.7070     1.7290 C.2   1 <1>   0.9060 
  3 O        2.1940    -0.3000     2.4030 O.co2 1 <1>  -0.9000 
  4 C        2.2830     0.5970     0.1960 C.3   1 <1>  -0.1060 
  5 C        3.2860    -0.5260    -0.1570 C.3   1 <1>   0.2000 
  6 C        2.7490     1.9060    -0.5270 C.3   1 <1>  -0.1600 
  7 C        0.8360     0.2190    -0.2240 C.3   1 <1>  -0.1600 
  8 O        3.3590    -0.6800    -1.5430 O.3   1 <1>  -0.6800 
  9 C        4.6980    -0.1750     0.3830 C.3   1 <1>   0.3430 
 10 C        4.2770     2.0440    -0.6620 C.3   1 <1>   0.3430 
 11 C       -0.2160     1.2610     0.1890 C.3   1 <1>  -0.1600 
 12 N        4.9380     1.3120     0.4490 N.4   1 <1>  -0.9590 
 13 C       -1.6200     0.8180    -0.2300 C.3   1 <1>  -0.2400 
 14 C        6.3330     1.6890     0.7420 C.3   1 <1>   0.4860 
 15 C        6.4230     3.1900     0.9490 C.ar  1 <1>  -0.1430 
 16 C        7.2200     3.9960     0.1400 C.ar  1 <1>   0.1670 
 17 C        5.6870     3.7780     1.9630 C.ar  1 <1>  -0.1500 
 18 N        7.3180     5.3060     0.2730 N.ar  1 <1>  -0.6200 
 19 C        8.0530     3.4100    -0.9870 C.3   1 <1>  -0.0970 
 20 C        5.7890     5.1430     2.1060 C.ar  1 <1>  -0.1500 
 21 C        6.6080     5.8510     1.2460 C.ar  1 <1>   0.1600 
 22 H        2.9700    -1.4690     0.2590 H     1 <1>   0.0800 
 23 H        2.3670     2.7640    -0.0010 H     1 <1>   0.0800 
 24 H        2.3360     1.9450    -1.5190 H     1 <1>   0.0800 
 25 H        0.7850     0.0810    -1.2890 H     1 <1>   0.0800 
 26 H        0.5800    -0.7200     0.2400 H     1 <1>   0.0800 
 27 H        2.4770    -0.9340    -1.8820 H     1 <1>   0.4000 
 28 H        5.4340    -0.6570    -0.2370 H     1 <1>   0.0800 
 29 H        4.7760    -0.5740     1.3820 H     1 <1>   0.0800 
 30 H        4.5420     3.0890    -0.6420 H     1 <1>   0.0800 
 31 H        4.5940     1.6230    -1.6020 H     1 <1>   0.0800 
 32 H       -0.1980     1.3920     1.2590 H     1 <1>   0.0800 
 33 H       -0.0010     2.2120    -0.2650 H     1 <1>   0.0800 
 34 H        4.3750     1.6240     1.2830 H     1 <1>   0.4500 
 35 H       -1.8720    -0.1170     0.2390 H     1 <1>   0.0800 
 36 H       -1.6770     0.7000    -1.2980 H     1 <1>   0.0800 
 37 H       -2.3430     1.5550     0.0720 H     1 <1>   0.0800 
 38 H        6.6580     1.1920     1.6410 H     1 <1>   0.0800 
 39 H        6.9700     1.3800    -0.0680 H     1 <1>   0.0800 
 40 H        5.0460     3.2090     2.6210 H     1 <1>   0.1500 
 41 H        7.4260     2.8880    -1.6860 H     1 <1>   0.0800 
 42 H        8.7940     2.7410    -0.5900 H     1 <1>   0.0800 
 43 H        8.5640     4.1940    -1.5190 H     1 <1>   0.0800 
 44 H        5.2370     5.6530     2.8750 H     1 <1>   0.1500 
 45 H        6.6820     6.9190     1.3650 H     1 <1>   0.1500 
@<TRIPOS>BOND
  1   1   2  ar  
  2   2   3  ar  
  3   2   4  1   
  4   4   5  1   
  5   4   6  1   
  6   4   7  1   
  7   5   8  1   
  8   5   9  1   
  9   5  22  1   
 10   6  10  1   
 11   6  23  1   
 12   6  24  1   
 13   7  11  1   
 14   7  25  1   
 15   7  26  1   
 16   8  27  1   
 17   9  12  1   
 18   9  28  1   
 19   9  29  1   
 20  10  12  1   
 21  10  30  1   
 22  10  31  1   
 23  11  13  1   
 24  11  32  1   
 25  11  33  1   
 26  12  14  1   
 27  12  34  1   
 28  13  35  1   
 29  13  36  1   
 30  13  37  1   
 31  14  15  1   
 32  14  38  1   
 33  14  39  1   
 34  15  16  ar  
 35  15  17  ar  
 36  16  18  ar  
 37  16  19  1   
 38  17  20  ar  
 39  17  40  1   
 40  18  21  ar  
 41  19  41  1   
 42  19  42  1   
 43  19  43  1   
 44  20  21  ar  
 45  20  44  1   
 46  21  45  1   
@<TRIPOS>SUBSTRUCTURE
  1 ****  12 GROUP 4 **** **** 0

# MOE 2024.06 (io_trps.svl 2023.06)
