@<TRIPOS>MOLECULE
NONAME
50 53 1 0 0 
SMALL
USER_CHARGES


@<TRIPOS>ATOM
  1 O       -0.4500     0.1600     1.1380 O.2   1 <1>  -0.5700 
  2 C       -1.4080     0.8220     0.7720 C.2   1 <1>   0.5440 
  3 N       -2.4550     0.1510     0.1710 N.am  1 <1>  -0.6600 
  4 C       -1.4120     2.2760     0.9480 C.ar  1 <1>   0.3960 
  5 C       -3.6910     0.7790    -0.3620 C.3   1 <1>   0.1400 
  6 C       -2.5600    -1.3270     0.1370 C.3   1 <1>   0.1400 
  7 N       -2.4260     2.8340     1.6040 N.ar  1 <1>  -0.6200 
  8 C       -0.3850     3.0710     0.4400 C.ar  1 <1>  -0.1430 
  9 C       -4.4970    -0.3830    -0.9390 C.3   1 <1>   0.2000 
 10 C       -4.0320    -1.6110    -0.1630 C.3   1 <1>  -0.0800 
 11 C       -2.3830     4.1360     1.7300 C.ar  1 <1>   0.7200 
 12 C       -0.4610     4.4320     0.6620 C.ar  1 <1>   0.1660 
 13 C        0.7910     2.4560    -0.3260 C.3   1 <1>  -0.0170 
 14 O       -5.8600    -0.1970    -0.7730 O.3   1 <1>  -0.6800 
 15 C       -4.2650    -2.9340    -0.9080 C.3   1 <1>   0.0210 
 16 N       -1.4620     4.9730     1.3070 N.ar  1 <1>  -0.6200 
 17 N       -3.3990     4.6850     2.3940 N.pl3 1 <1>  -0.9000 
 18 C        0.6000     5.4020     0.1600 C.3   1 <1>  -0.0170 
 19 C        1.5920     3.4870    -1.1290 C.3   1 <1>  -0.1600 
 20 C       -3.6660    -4.0990    -0.1450 C.2   1 <1>   0.1080 
 21 C        1.9010     4.7110    -0.2670 C.3   1 <1>  -0.1600 
 22 N       -3.9640    -4.3590     1.0900 N.2   1 <1>  -0.7070 
 23 C       -2.7370    -4.9960    -0.6610 C.2   1 <1>  -0.1500 
 24 N       -3.2240    -5.4400     1.3990 N.pl3 1 <1>   0.3000 
 25 C       -2.4720    -5.8450     0.3540 C.2   1 <1>  -0.3320 
 26 C       -1.5310    -7.0350     0.3910 C.3   1 <1>  -0.0600 
 27 H       -4.2270     1.2480     0.4450 H     1 <1>   0.0800 
 28 H       -3.4520     1.5020    -1.1220 H     1 <1>   0.0800 
 29 H       -1.9230    -1.7050    -0.6440 H     1 <1>   0.0800 
 30 H       -2.2620    -1.7590     1.0790 H     1 <1>   0.0800 
 31 H       -4.2920    -0.4810    -1.9920 H     1 <1>   0.0800 
 32 H       -4.5400    -1.6500     0.7860 H     1 <1>   0.0800 
 33 H        1.4460     1.9810     0.3860 H     1 <1>   0.0800 
 34 H        0.4410     1.6950    -1.0010 H     1 <1>   0.0800 
 35 H       -6.0840    -0.2050     0.1780 H     1 <1>   0.4000 
 36 H       -3.8280    -2.8870    -1.8880 H     1 <1>   0.0800 
 37 H       -5.3220    -3.1000    -1.0190 H     1 <1>   0.0800 
 38 H       -3.8990     4.0580     3.0180 H     1 <1>   0.4000 
 39 H       -3.2230     5.6240     2.7390 H     1 <1>   0.4000 
 40 H        0.1890     5.9360    -0.6780 H     1 <1>   0.0800 
 41 H        0.8180     6.1210     0.9300 H     1 <1>   0.0800 
 42 H        2.5080     3.0390    -1.4740 H     1 <1>   0.0800 
 43 H        1.0240     3.7890    -1.9930 H     1 <1>   0.0800 
 44 H        2.5150     5.4050    -0.8140 H     1 <1>   0.0800 
 45 H        2.4460     4.4030     0.6100 H     1 <1>   0.0800 
 46 H       -2.3330    -4.9900    -1.6580 H     1 <1>   0.1500 
 47 H       -3.2540    -5.8740     2.3290 H     1 <1>   0.2700 
 48 H       -1.0460    -7.1530    -0.5620 H     1 <1>   0.0800 
 49 H       -2.0770    -7.9350     0.6110 H     1 <1>   0.0800 
 50 H       -0.7760    -6.8890     1.1430 H     1 <1>   0.0800 
@<TRIPOS>BOND
  1   1   2  2   
  2   2   3  am  
  3   2   4  1   
  4   3   5  1   
  5   3   6  1   
  6   4   7  ar  
  7   4   8  ar  
  8   5   9  1   
  9   5  27  1   
 10   5  28  1   
 11   6  10  1   
 12   6  29  1   
 13   6  30  1   
 14   7  11  ar  
 15   8  12  ar  
 16   8  13  1   
 17   9  10  1   
 18   9  14  1   
 19   9  31  1   
 20  10  15  1   
 21  10  32  1   
 22  11  16  ar  
 23  11  17  1   
 24  12  16  ar  
 25  12  18  1   
 26  13  19  1   
 27  13  33  1   
 28  13  34  1   
 29  14  35  1   
 30  15  20  1   
 31  15  36  1   
 32  15  37  1   
 33  17  38  1   
 34  17  39  1   
 35  18  21  1   
 36  18  40  1   
 37  18  41  1   
 38  19  21  1   
 39  19  42  1   
 40  19  43  1   
 41  20  22  2   
 42  20  23  1   
 43  21  44  1   
 44  21  45  1   
 45  22  24  1   
 46  23  25  2   
 47  23  46  1   
 48  24  25  1   
 49  24  47  1   
 50  25  26  1   
 51  26  48  1   
 52  26  49  1   
 53  26  50  1   
@<TRIPOS>SUBSTRUCTURE
  1 ****   3 GROUP 4 **** **** 0

# MOE 2024.06 (io_trps.svl 2023.06)
