@<TRIPOS>MOLECULE
Untitled Document
54 57 1 0 0 
SMALL
USER_CHARGES


@<TRIPOS>ATOM
  1 O        0.2750    -1.3380     1.8990 O.2   1 <1>  -0.5700 
  2 C        0.3260    -1.6970     0.7420 C.2   1 <1>   0.5440 
  3 N        1.3540    -1.4120    -0.1230 N.am  1 <1>  -0.4200 
  4 C       -0.6590    -2.4760     0.0480 C.ar  1 <1>   0.0860 
  5 C        1.0740    -1.9960    -1.3290 C.2   1 <1>   0.5440 
  6 C        2.6710    -0.8070     0.1750 C.3   1 <1>   0.3640 
  7 C       -0.1930    -2.6630    -1.2430 C.ar  1 <1>   0.0860 
  8 C       -1.8800    -3.0140     0.4390 C.ar  1 <1>  -0.1500 
  9 O        1.8040    -1.9410    -2.2970 O.2   1 <1>  -0.5700 
 10 C        3.6060    -1.8770     0.7420 C.ar  1 <1>  -0.1440 
 11 C        2.5770     0.4280     1.0740 C.3   1 <1>  -0.0990 
 12 C       -0.9410    -3.3910    -2.1610 C.ar  1 <1>  -0.1500 
 13 C       -2.6250    -3.7390    -0.4760 C.ar  1 <1>  -0.1500 
 14 C        4.6720    -2.3160    -0.0270 C.ar  1 <1>  -0.1500 
 15 C        3.4230    -2.4160     2.0060 C.ar  1 <1>  -0.1500 
 16 C        3.9180     1.1140     1.1110 C.2   1 <1>   0.5690 
 17 C       -2.1570    -3.9260    -1.7720 C.ar  1 <1>  -0.1500 
 18 C        5.5720    -3.2680     0.4480 C.ar  1 <1>   0.0830 
 19 C        4.3060    -3.3610     2.4920 C.ar  1 <1>  -0.1500 
 20 O        4.1580     1.9870     0.3210 O.2   1 <1>  -0.5700 
 21 N        4.8430     0.7360     2.0090 N.am  1 <1>  -0.8000 
 22 O        6.6170    -3.6930    -0.3220 O.3   1 <1>  -0.3620 
 23 C        5.3850    -3.7940     1.7400 C.ar  1 <1>   0.0830 
 24 C        6.9530    -3.1420    -1.5810 C.3   1 <1>   0.2000 
 25 O        6.1690    -4.7140     2.3760 O.3   1 <1>  -0.3630 
 26 C        8.0340    -4.0250    -2.1920 C.3   1 <1>  -0.1600 
 27 C        7.6660    -1.8050    -1.3780 C.3   1 <1>  -0.1600 
 28 C        7.4010    -5.1720     1.8670 C.3   1 <1>   0.0400 
 29 C        9.3480    -3.5830    -1.5390 C.3   1 <1>  -0.1600 
 30 C        9.1070    -2.1650    -1.0050 C.3   1 <1>  -0.1600 
 31 H        3.0810    -0.4650    -0.7610 H     1 <1>   0.0800 
 32 H       -2.2300    -2.8630     1.4460 H     1 <1>   0.1500 
 33 H        2.2870     0.1730     2.0740 H     1 <1>   0.0800 
 34 H        1.8560     1.1140     0.6690 H     1 <1>   0.0800 
 35 H       -0.5660    -3.5290    -3.1610 H     1 <1>   0.1500 
 36 H       -3.5730    -4.1610    -0.1850 H     1 <1>   0.1500 
 37 H        4.7860    -1.8990    -1.0090 H     1 <1>   0.1500 
 38 H        2.5960    -2.1110     2.6250 H     1 <1>   0.1500 
 39 H       -2.7460    -4.4920    -2.4750 H     1 <1>   0.1500 
 40 H        4.1600    -3.7760     3.4730 H     1 <1>   0.1500 
 41 H        5.7580     1.1870     2.0080 H     1 <1>   0.3700 
 42 H        4.7490    -0.0930     2.6000 H     1 <1>   0.3700 
 43 H        6.0760    -3.0950    -2.2030 H     1 <1>   0.0800 
 44 H        8.0830    -3.8260    -3.2480 H     1 <1>   0.0800 
 45 H        7.8290    -5.0710    -2.0450 H     1 <1>   0.0800 
 46 H        7.1940    -1.1880    -0.6340 H     1 <1>   0.0800 
 47 H        7.6690    -1.2740    -2.3140 H     1 <1>   0.0800 
 48 H        7.8530    -5.8100     2.6050 H     1 <1>   0.0800 
 49 H        8.0360    -4.3260     1.6740 H     1 <1>   0.0800 
 50 H        7.2190    -5.7290     0.9660 H     1 <1>   0.0800 
 51 H       10.1570    -3.6060    -2.2480 H     1 <1>   0.0800 
 52 H        9.5830    -4.2390    -0.7180 H     1 <1>   0.0800 
 53 H        9.2110    -2.1650     0.0670 H     1 <1>   0.0800 
 54 H        9.8040    -1.4590    -1.4220 H     1 <1>   0.0800 
@<TRIPOS>BOND
  1   1   2  2   
  2   2   3  am  
  3   2   4  1   
  4   3   5  am  
  5   3   6  1   
  6   4   7  ar  
  7   4   8  ar  
  8   5   7  1   
  9   5   9  2   
 10   6  10  1   
 11   6  11  1   
 12   6  31  1   
 13   7  12  ar  
 14   8  13  ar  
 15   8  32  1   
 16  10  14  ar  
 17  10  15  ar  
 18  11  16  1   
 19  11  33  1   
 20  11  34  1   
 21  12  17  ar  
 22  12  35  1   
 23  13  17  ar  
 24  13  36  1   
 25  14  18  ar  
 26  14  37  1   
 27  15  19  ar  
 28  15  38  1   
 29  16  20  2   
 30  16  21  am  
 31  17  39  1   
 32  18  22  1   
 33  18  23  ar  
 34  19  23  ar  
 35  19  40  1   
 36  21  41  1   
 37  21  42  1   
 38  22  24  1   
 39  23  25  1   
 40  24  26  1   
 41  24  27  1   
 42  24  43  1   
 43  25  28  1   
 44  26  29  1   
 45  26  44  1   
 46  26  45  1   
 47  27  30  1   
 48  27  46  1   
 49  27  47  1   
 50  28  48  1   
 51  28  49  1   
 52  28  50  1   
 53  29  30  1   
 54  29  51  1   
 55  29  52  1   
 56  30  53  1   
 57  30  54  1   
@<TRIPOS>SUBSTRUCTURE
  1 ****  10 GROUP 4 **** **** 0

# MOE 2024.06 (io_trps.svl 2023.06)
