@<TRIPOS>MOLECULE
NONAME
48 50 1 0 0 
SMALL
USER_CHARGES


@<TRIPOS>ATOM
  1 O       -2.8250     1.4410    -1.9060 O.2   1 <1>  -0.5700 
  2 C       -2.2620     1.1870    -0.8660 C.2   1 <1>   0.5690 
  3 N       -2.1980    -0.0960    -0.4230 N.am  1 <1>  -0.7300 
  4 C       -1.6590     2.3340    -0.0140 C.3   1 <1>   0.0610 
  5 C       -2.7140    -1.2780    -1.1450 C.3   1 <1>   0.2200 
  6 C       -1.0040     3.4110    -0.9160 C.3   1 <1>  -0.1600 
  7 C       -0.5840     1.8460     0.9960 C.3   1 <1>  -0.1600 
  8 C       -2.8020     2.9930     0.7830 C.3   1 <1>  -0.2400 
  9 C       -3.9240    -1.8210    -0.4060 C.3   1 <1>  -0.0800 
 10 C       -1.7230    -2.4280    -1.0080 C.3   1 <1>   0.1200 
 11 C        0.2510     2.8880    -1.6320 C.3   1 <1>  -0.1600 
 12 C        0.6880     1.3190     0.3080 C.3   1 <1>  -0.1600 
 13 C       -3.2780    -2.6970     0.6730 C.3   1 <1>   0.1200 
 14 C       -4.8410    -2.6290    -1.3440 C.3   1 <1>  -0.0170 
 15 O       -1.9950    -3.0290     0.2230 O.3   1 <1>  -0.5600 
 16 C        1.2880     2.3770    -0.6250 C.3   1 <1>  -0.1600 
 17 C       -6.0680    -3.1490    -0.6110 C.ar  1 <1>  -0.1440 
 18 C       -6.2010    -4.4750    -0.2500 C.ar  1 <1>  -0.1500 
 19 C       -7.1150    -2.3170    -0.2700 C.ar  1 <1>  -0.1500 
 20 C       -7.3400    -4.8910     0.4200 C.ar  1 <1>   0.1600 
 21 C       -8.2110    -2.8340     0.4010 C.ar  1 <1>   0.1600 
 22 N       -8.3480    -4.1010     0.7560 N.ar  1 <1>  -0.6200 
 23 H       -1.7110    -0.3080     0.4490 H     1 <1>   0.3700 
 24 H       -2.9150    -1.0320    -2.1740 H     1 <1>   0.0800 
 25 H       -1.7130     3.7530    -1.6500 H     1 <1>   0.0800 
 26 H       -0.7280     4.2610    -0.3180 H     1 <1>   0.0800 
 27 H       -0.3000     2.6710     1.6260 H     1 <1>   0.0800 
 28 H       -0.9890     1.0880     1.6430 H     1 <1>   0.0800 
 29 H       -2.4360     3.8110     1.3780 H     1 <1>   0.0800 
 30 H       -3.2680     2.2750     1.4330 H     1 <1>   0.0800 
 31 H       -3.5500     3.3710     0.1080 H     1 <1>   0.0800 
 32 H       -4.4980    -1.0250     0.0350 H     1 <1>   0.0800 
 33 H       -0.6990    -2.0980    -1.0330 H     1 <1>   0.0800 
 34 H       -1.8870    -3.1640    -1.7750 H     1 <1>   0.0800 
 35 H       -0.0220     2.0930    -2.3050 H     1 <1>   0.0800 
 36 H        0.6820     3.6790    -2.2210 H     1 <1>   0.0800 
 37 H        1.4150     1.0490     1.0550 H     1 <1>   0.0800 
 38 H        0.4640     0.4340    -0.2620 H     1 <1>   0.0800 
 39 H       -3.8250    -3.6020     0.8690 H     1 <1>   0.0800 
 40 H       -3.1640    -2.1450     1.5900 H     1 <1>   0.0800 
 41 H       -4.3020    -3.4540    -1.7750 H     1 <1>   0.0800 
 42 H       -5.1680    -1.9970    -2.1520 H     1 <1>   0.0800 
 43 H        1.6480     3.2050    -0.0380 H     1 <1>   0.0800 
 44 H        2.1280     1.9590    -1.1530 H     1 <1>   0.0800 
 45 H       -5.4320    -5.1890    -0.4810 H     1 <1>   0.1500 
 46 H       -7.0890    -1.2720    -0.5200 H     1 <1>   0.1500 
 47 H       -7.4260    -5.9280     0.6950 H     1 <1>   0.1500 
 48 H       -9.0180    -2.1700     0.6580 H     1 <1>   0.1500 
@<TRIPOS>BOND
  1   1   2  2   
  2   2   3  am  
  3   2   4  1   
  4   3   5  1   
  5   3  23  1   
  6   4   6  1   
  7   4   7  1   
  8   4   8  1   
  9   5   9  1   
 10   5  10  1   
 11   5  24  1   
 12   6  11  1   
 13   6  25  1   
 14   6  26  1   
 15   7  12  1   
 16   7  27  1   
 17   7  28  1   
 18   8  29  1   
 19   8  30  1   
 20   8  31  1   
 21   9  13  1   
 22   9  14  1   
 23   9  32  1   
 24  10  15  1   
 25  10  33  1   
 26  10  34  1   
 27  11  16  1   
 28  11  35  1   
 29  11  36  1   
 30  12  16  1   
 31  12  37  1   
 32  12  38  1   
 33  13  15  1   
 34  13  39  1   
 35  13  40  1   
 36  14  17  1   
 37  14  41  1   
 38  14  42  1   
 39  16  43  1   
 40  16  44  1   
 41  17  18  ar  
 42  17  19  ar  
 43  18  20  ar  
 44  18  45  1   
 45  19  21  ar  
 46  19  46  1   
 47  20  22  ar  
 48  20  47  1   
 49  21  22  ar  
 50  21  48  1   
@<TRIPOS>SUBSTRUCTURE
  1 ****   5 GROUP 4 **** **** 0

# MOE 2024.06 (io_trps.svl 2023.06)
