@<TRIPOS>MOLECULE
NONAME
37 38 1 0 0 
SMALL
USER_CHARGES


@<TRIPOS>ATOM
  1 S        0.7420     0.7800    -1.3200 S.3   1 <1>  -0.0800 
  2 C        1.5500    -0.3090    -0.1990 C.2   1 <1>   0.4620 
  3 C       -0.0700    -0.5750    -2.0350 C.2   1 <1>  -0.1100 
  4 N        1.2240    -1.5400    -0.3680 N.2   1 <1>  -0.5650 
  5 N        2.4290     0.1960     0.7360 N.pl3 1 <1>  -0.8220 
  6 C        0.3000    -1.7130    -1.4110 C.2   1 <1>   0.1410 
  7 C        2.7060     1.6670     0.8800 C.3   1 <1>   0.3900 
  8 C        3.3430    -0.7050     1.4920 C.3   1 <1>   0.1290 
  9 C       -0.1880    -3.0440    -1.7470 C.2   1 <1>   0.7160 
 10 C        3.8530     2.2050     0.0140 C.2   1 <1>   0.3350 
 11 O       -0.9920    -3.2330    -2.6370 O.2   1 <1>  -0.5700 
 12 N        0.2410    -4.1320    -1.0700 N.am  1 <1>  -0.8000 
 13 N        4.6730     1.5210    -0.6870 N.2   1 <1>  -0.4100 
 14 N        4.0830     3.5130    -0.0480 N.2   1 <1>  -0.5650 
 15 O        5.4860     2.3560    -1.2570 O.3   1 <1>  -0.0190 
 16 C        5.0840     3.5290    -0.8340 C.2   1 <1>   0.2980 
 17 C        5.8130     4.7730    -1.3070 C.3   1 <1>   0.0200 
 18 C        7.0240     5.1370    -0.4250 C.3   1 <1>  -0.0800 
 19 C        7.6220     6.4770    -0.8730 C.3   1 <1>  -0.2400 
 20 C        8.1130     4.0550    -0.4540 C.3   1 <1>  -0.2400 
 21 H       -0.7470    -0.3970    -2.8510 H     1 <1>   0.1500 
 22 H        2.9440     1.8730     1.9080 H     1 <1>   0.0800 
 23 H        1.8190     2.2290     0.6520 H     1 <1>   0.0800 
 24 H        3.0820    -1.7370     1.3340 H     1 <1>   0.0800 
 25 H        3.2770    -0.4940     2.5450 H     1 <1>   0.0800 
 26 H        4.3570    -0.5560     1.1620 H     1 <1>   0.0800 
 27 H       -0.0990    -5.0610    -1.3080 H     1 <1>   0.3700 
 28 H        0.9200    -4.0280    -0.3150 H     1 <1>   0.3700 
 29 H        5.1120     5.5880    -1.2930 H     1 <1>   0.0800 
 30 H        6.1260     4.6290    -2.3260 H     1 <1>   0.0800 
 31 H        6.6790     5.2450     0.5910 H     1 <1>   0.0800 
 32 H        7.9840     6.4140    -1.8840 H     1 <1>   0.0800 
 33 H        8.4430     6.7520    -0.2330 H     1 <1>   0.0800 
 34 H        6.8820     7.2560    -0.8200 H     1 <1>   0.0800 
 35 H        8.4490     3.8770    -1.4610 H     1 <1>   0.0800 
 36 H        7.7450     3.1310    -0.0450 H     1 <1>   0.0800 
 37 H        8.9580     4.3610     0.1380 H     1 <1>   0.0800 
@<TRIPOS>BOND
  1   1   2  1   
  2   1   3  1   
  3   2   4  2   
  4   2   5  1   
  5   3   6  2   
  6   3  21  1   
  7   4   6  1   
  8   5   7  1   
  9   5   8  1   
 10   6   9  1   
 11   7  10  1   
 12   7  22  1   
 13   7  23  1   
 14   8  24  1   
 15   8  25  1   
 16   8  26  1   
 17   9  11  2   
 18   9  12  am  
 19  10  13  2   
 20  10  14  1   
 21  12  27  1   
 22  12  28  1   
 23  13  15  1   
 24  14  16  2   
 25  15  16  1   
 26  16  17  1   
 27  17  18  1   
 28  17  29  1   
 29  17  30  1   
 30  18  19  1   
 31  18  20  1   
 32  18  31  1   
 33  19  32  1   
 34  19  33  1   
 35  19  34  1   
 36  20  35  1   
 37  20  36  1   
 38  20  37  1   
@<TRIPOS>SUBSTRUCTURE
  1 ****  10 GROUP 4 **** **** 0

# MOE 2024.06 (io_trps.svl 2023.06)
