@<TRIPOS>MOLECULE
NONAME
53 55 1 0 0 
SMALL
USER_CHARGES


@<TRIPOS>ATOM
  1 CL      -0.0610     0.8740     0.0940 Cl    1 <1>  -0.1770 
  2 C       -1.7880     1.0890    -0.0130 C.ar  1 <1>   0.1770 
  3 C       -2.4010     2.0610     0.7530 C.ar  1 <1>  -0.1500 
  4 C       -2.5230     0.2870    -0.8640 C.ar  1 <1>  -0.1500 
  5 C       -3.7720     2.2250     0.6660 C.ar  1 <1>  -0.1500 
  6 C       -3.8930     0.4620    -0.9440 C.ar  1 <1>  -0.1500 
  7 C       -4.5490     1.4270    -0.1770 C.ar  1 <1>   0.0530 
  8 C       -5.9760     1.6140    -0.2410 C.2   1 <1>   0.0870 
  9 O       -6.4800     2.8220    -0.2020 O.3   1 <1>  -0.0190 
 10 C       -7.0270     0.7540    -0.3050 C.2   1 <1>  -0.0860 
 11 N       -7.7870     2.8330    -0.2460 N.2   1 <1>  -0.4100 
 12 C       -8.1370     1.5990    -0.3190 C.2   1 <1>   0.3720 
 13 C       -7.1060    -0.6720    -0.3150 C.2   1 <1>   0.7160 
 14 N       -9.4540     1.1530    -0.4060 N.pl3 1 <1>  -0.8520 
 15 O       -6.5740    -1.3040    -1.2090 O.2   1 <1>  -0.5700 
 16 N       -7.8020    -1.3490     0.6710 N.am  1 <1>  -0.6600 
 17 C      -10.5370     1.9560     0.2240 C.3   1 <1>   0.2090 
 18 C       -8.1620    -2.7920     0.5200 C.3   1 <1>   0.1400 
 19 C       -8.0560    -0.7600     2.0190 C.3   1 <1>   0.0600 
 20 C      -11.8180     1.8260    -0.5970 C.3   1 <1>   0.1200 
 21 C       -9.6780    -3.0180     0.6650 C.3   1 <1>  -0.0800 
 22 O      -12.8710     2.3840     0.1250 O.3   1 <1>  -0.5600 
 23 C      -10.0770    -4.4660     0.3870 C.3   1 <1>  -0.1600 
 24 C      -10.5400    -2.1930    -0.3010 C.3   1 <1>  -0.1600 
 25 C      -14.0860     2.3720    -0.5530 C.3   1 <1>   0.0400 
 26 C      -11.5680    -4.3860     0.0830 C.3   1 <1>  -0.1600 
 27 C      -11.7470    -3.0660    -0.6660 C.3   1 <1>  -0.1600 
 28 H       -1.8100     2.6780     1.4060 H     1 <1>   0.1500 
 29 H       -2.0270    -0.4610    -1.4560 H     1 <1>   0.1500 
 30 H       -4.2530     2.9830     1.2610 H     1 <1>   0.1500 
 31 H       -4.4570    -0.1560    -1.6200 H     1 <1>   0.1500 
 32 H       -9.5350     0.1510    -0.1980 H     1 <1>   0.4000 
 33 H      -10.2600     2.9960     0.2740 H     1 <1>   0.0800 
 34 H      -10.7110     1.5930     1.2220 H     1 <1>   0.0800 
 35 H       -7.6360    -3.3670     1.2620 H     1 <1>   0.0800 
 36 H       -7.8520    -3.1510    -0.4470 H     1 <1>   0.0800 
 37 H       -7.4680     0.1290     2.1700 H     1 <1>   0.0800 
 38 H       -7.7930    -1.4710     2.7840 H     1 <1>   0.0800 
 39 H       -9.0980    -0.5090     2.1180 H     1 <1>   0.0800 
 40 H      -12.0430     0.7900    -0.7790 H     1 <1>   0.0800 
 41 H      -11.7110     2.3560    -1.5280 H     1 <1>   0.0800 
 42 H       -9.9770    -2.7910     1.6730 H     1 <1>   0.0800 
 43 H       -9.8700    -5.1130     1.2220 H     1 <1>   0.0800 
 44 H       -9.5590    -4.8320    -0.4840 H     1 <1>   0.0800 
 45 H       -9.9860    -1.9600    -1.1960 H     1 <1>   0.0800 
 46 H      -10.8580    -1.2790     0.1650 H     1 <1>   0.0800 
 47 H      -14.8290     2.8170     0.0840 H     1 <1>   0.0800 
 48 H      -14.3600     1.3550    -0.7740 H     1 <1>   0.0800 
 49 H      -13.9930     2.9460    -1.4580 H     1 <1>   0.0800 
 50 H      -12.1180    -4.3490     1.0080 H     1 <1>   0.0800 
 51 H      -11.9080    -5.2280    -0.4950 H     1 <1>   0.0800 
 52 H      -11.7490    -3.2480    -1.7270 H     1 <1>   0.0800 
 53 H      -12.6740    -2.5920    -0.3930 H     1 <1>   0.0800 
@<TRIPOS>BOND
  1   1   2  1   
  2   2   3  ar  
  3   2   4  ar  
  4   3   5  ar  
  5   3  28  1   
  6   4   6  ar  
  7   4  29  1   
  8   5   7  ar  
  9   5  30  1   
 10   6   7  ar  
 11   6  31  1   
 12   7   8  1   
 13   8   9  1   
 14   8  10  2   
 15   9  11  1   
 16  10  12  1   
 17  10  13  1   
 18  11  12  2   
 19  12  14  1   
 20  13  15  2   
 21  13  16  am  
 22  14  17  1   
 23  14  32  1   
 24  16  18  1   
 25  16  19  1   
 26  17  20  1   
 27  17  33  1   
 28  17  34  1   
 29  18  21  1   
 30  18  35  1   
 31  18  36  1   
 32  19  37  1   
 33  19  38  1   
 34  19  39  1   
 35  20  22  1   
 36  20  40  1   
 37  20  41  1   
 38  21  23  1   
 39  21  24  1   
 40  21  42  1   
 41  22  25  1   
 42  23  26  1   
 43  23  43  1   
 44  23  44  1   
 45  24  27  1   
 46  24  45  1   
 47  24  46  1   
 48  25  47  1   
 49  25  48  1   
 50  25  49  1   
 51  26  27  1   
 52  26  50  1   
 53  26  51  1   
 54  27  52  1   
 55  27  53  1   
@<TRIPOS>SUBSTRUCTURE
  1 ****  10 GROUP 4 **** **** 0

# MOE 2024.06 (io_trps.svl 2023.06)
