@<TRIPOS>MOLECULE
NONAME
56 59 1 0 0 
SMALL
USER_CHARGES


@<TRIPOS>ATOM
  1 CL      -0.7470    -0.8820     0.4540 Cl    1 <1>  -0.1770 
  2 C        0.2490    -2.3200     0.4710 C.ar  1 <1>   0.1770 
  3 C        1.1800    -2.5060     1.5030 C.ar  1 <1>  -0.1440 
  4 C        0.0810    -3.2370    -0.5450 C.ar  1 <1>  -0.1500 
  5 C        1.9580    -3.6490     1.5010 C.ar  1 <1>  -0.1500 
  6 C        1.3380    -1.4700     2.6070 C.3   1 <1>  -0.0960 
  7 C        0.8630    -4.3910    -0.5380 C.ar  1 <1>   0.0000 
  8 C        1.7860    -4.5740     0.4780 C.ar  1 <1>   0.1400 
  9 C        0.9890    -5.5420    -1.3480 C.2   1 <1>  -0.1810 
 10 O        2.4360    -5.7260     0.3140 O.3   1 <1>  -0.2800 
 11 C        1.9530    -6.2950    -0.7840 C.2   1 <1>  -0.0100 
 12 C        0.1590    -5.8530    -2.5870 C.3   1 <1>   0.0820 
 13 C       -0.5150    -7.2150    -2.4760 C.2   1 <1>   0.5690 
 14 O       -0.1990    -8.0470    -3.2930 O.2   1 <1>  -0.5700 
 15 N       -1.4210    -7.4910    -1.4770 N.am  1 <1>  -0.6600 
 16 C       -1.8590    -8.8970    -1.1870 C.3   1 <1>   0.1400 
 17 C       -2.0550    -6.4660    -0.6020 C.3   1 <1>   0.1400 
 18 C       -1.5620    -9.2960     0.2830 C.3   1 <1>   0.0000 
 19 C       -1.7410    -6.7800     0.8580 C.3   1 <1>  -0.1600 
 20 C       -2.1970    -8.2030     1.1860 C.3   1 <1>   0.2000 
 21 C       -2.2880   -10.6250     0.6110 C.3   1 <1>   0.1200 
 22 C       -0.0230    -9.4090     0.5280 C.3   1 <1>  -0.0170 
 23 O       -1.9400    -8.4360     2.5260 O.3   1 <1>  -0.6800 
 24 O       -2.0650   -11.5890    -0.3620 O.3   1 <1>  -0.6800 
 25 C        0.6510   -10.6460    -0.0570 C.ar  1 <1>  -0.1430 
 26 C        0.8310   -11.7760     0.7290 C.ar  1 <1>  -0.1500 
 27 C        1.0920   -10.6640    -1.3710 C.ar  1 <1>  -0.1500 
 28 C        1.4260   -12.9090     0.2040 C.ar  1 <1>  -0.1500 
 29 C        1.6860   -11.7960    -1.8980 C.ar  1 <1>  -0.1500 
 30 C        1.8530   -12.9210    -1.1110 C.ar  1 <1>  -0.1500 
 31 H       -0.6360    -3.0620    -1.3240 H     1 <1>   0.1500 
 32 H        2.6910    -3.8440     2.2630 H     1 <1>   0.1500 
 33 H        2.0930    -1.7690     3.3110 H     1 <1>   0.0800 
 34 H        0.4090    -1.3490     3.1340 H     1 <1>   0.0800 
 35 H        1.6220    -0.5230     2.1840 H     1 <1>   0.0800 
 36 H        2.3580    -7.2480    -1.0830 H     1 <1>   0.1500 
 37 H        0.8080    -5.8540    -3.4440 H     1 <1>   0.0800 
 38 H       -0.5880    -5.1020    -2.7490 H     1 <1>   0.0800 
 39 H       -2.9170    -8.9700    -1.3720 H     1 <1>   0.0800 
 40 H       -1.3780    -9.5870    -1.8580 H     1 <1>   0.0800 
 41 H       -1.7180    -5.4760    -0.8400 H     1 <1>   0.0800 
 42 H       -3.1210    -6.4920    -0.7570 H     1 <1>   0.0800 
 43 H       -2.2680    -6.0810     1.4830 H     1 <1>   0.0800 
 44 H       -0.6860    -6.6580     1.0270 H     1 <1>   0.0800 
 45 H       -3.2680    -8.2450     1.0730 H     1 <1>   0.0800 
 46 H       -3.3530   -10.4740     0.6610 H     1 <1>   0.0800 
 47 H       -1.9580   -11.0170     1.5580 H     1 <1>   0.0800 
 48 H        0.4720    -8.5390     0.1380 H     1 <1>   0.0800 
 49 H        0.1760    -9.4180     1.5840 H     1 <1>   0.0800 
 50 H       -1.0190    -8.1930     2.7410 H     1 <1>   0.4000 
 51 H       -1.0950   -11.7340    -0.4690 H     1 <1>   0.4000 
 52 H        0.5060   -11.7820     1.7550 H     1 <1>   0.1500 
 53 H        0.9750    -9.7980    -1.9960 H     1 <1>   0.1500 
 54 H        1.5580   -13.7820     0.8200 H     1 <1>   0.1500 
 55 H        2.0180   -11.7980    -2.9220 H     1 <1>   0.1500 
 56 H        2.3140   -13.8020    -1.5220 H     1 <1>   0.1500 
@<TRIPOS>BOND
  1   1   2  1   
  2   2   3  ar  
  3   2   4  ar  
  4   3   5  ar  
  5   3   6  1   
  6   4   7  ar  
  7   4  31  1   
  8   5   8  ar  
  9   5  32  1   
 10   6  33  1   
 11   6  34  1   
 12   6  35  1   
 13   7   8  ar  
 14   7   9  1   
 15   8  10  1   
 16   9  11  2   
 17   9  12  1   
 18  10  11  1   
 19  11  36  1   
 20  12  13  1   
 21  12  37  1   
 22  12  38  1   
 23  13  14  2   
 24  13  15  am  
 25  15  16  1   
 26  15  17  1   
 27  16  18  1   
 28  16  39  1   
 29  16  40  1   
 30  17  19  1   
 31  17  41  1   
 32  17  42  1   
 33  18  20  1   
 34  18  21  1   
 35  18  22  1   
 36  19  20  1   
 37  19  43  1   
 38  19  44  1   
 39  20  23  1   
 40  20  45  1   
 41  21  24  1   
 42  21  46  1   
 43  21  47  1   
 44  22  25  1   
 45  22  48  1   
 46  22  49  1   
 47  23  50  1   
 48  24  51  1   
 49  25  26  ar  
 50  25  27  ar  
 51  26  28  ar  
 52  26  52  1   
 53  27  29  ar  
 54  27  53  1   
 55  28  30  ar  
 56  28  54  1   
 57  29  30  ar  
 58  29  55  1   
 59  30  56  1   
@<TRIPOS>SUBSTRUCTURE
  1 ****  15 GROUP 4 **** **** 0

# MOE 2024.06 (io_trps.svl 2023.06)
