@<TRIPOS>MOLECULE
NONAME
46 47 1 0 0 
SMALL
USER_CHARGES


@<TRIPOS>ATOM
  1 O        0.3860     0.3540     1.0090 O.2   1 <1>  -0.5700 
  2 C        0.2490     1.5480     0.8880 C.2   1 <1>   0.5690 
  3 N       -0.9620     2.1280     0.6100 N.am  1 <1>  -0.6600 
  4 C        1.4970     2.4040     1.0390 C.3   1 <1>  -0.0990 
  5 C       -1.1930     3.6020     0.6470 C.3   1 <1>   0.1400 
  6 C       -2.1720     1.2930     0.4060 C.3   1 <1>   0.2780 
  7 C        1.2140     3.8900     1.3120 C.3   1 <1>  -0.1600 
  8 C        0.0970     4.3900     0.3840 C.3   1 <1>  -0.0190 
  9 C       -2.5660     1.3260    -1.0600 C.2   1 <1>  -0.2880 
 10 C       -0.1410     5.8850     0.5550 C.2   1 <1>   0.5690 
 11 C       -2.5150     0.2800    -1.8900 C.2   1 <1>  -0.3000 
 12 O       -0.8920     6.2750     1.4160 O.2   1 <1>  -0.5700 
 13 N        0.5130     6.7430    -0.2710 N.am  1 <1>  -0.7300 
 14 C        0.4070     8.2150    -0.2170 C.3   1 <1>   0.1400 
 15 C        1.8030     8.8060    -0.0300 C.3   1 <1>  -0.1600 
 16 C        1.7530    10.3340     0.0630 C.3   1 <1>   0.0210 
 17 C        3.1530    10.8980     0.2010 C.2   1 <1>  -0.1810 
 18 C        3.9640    10.8500     1.3300 C.2   1 <1>   0.1390 
 19 C        3.8940    11.5490    -0.7190 C.2   1 <1>  -0.3020 
 20 N        5.1130    11.4200     1.1340 N.2   1 <1>  -0.7070 
 21 N        5.0690    11.8540    -0.1360 N.pl3 1 <1>   0.3140 
 22 C        6.2010    12.5620    -0.7410 C.3   1 <1>   0.0160 
 23 H        2.0580     2.3090     0.1270 H     1 <1>   0.0800 
 24 H        2.0980     2.0010     1.8340 H     1 <1>   0.0800 
 25 H       -1.5840     3.8570     1.6180 H     1 <1>   0.0800 
 26 H       -1.9270     3.8790    -0.0880 H     1 <1>   0.0800 
 27 H       -2.9770     1.6640     1.0160 H     1 <1>   0.0800 
 28 H       -1.9790     0.2760     0.7030 H     1 <1>   0.0800 
 29 H        2.1120     4.4640     1.1640 H     1 <1>   0.0800 
 30 H        0.9040     4.0140     2.3360 H     1 <1>   0.0800 
 31 H        0.3840     4.2180    -0.6380 H     1 <1>   0.0800 
 32 H       -2.8990     2.2970    -1.3800 H     1 <1>   0.1500 
 33 H       -2.7980     0.3180    -2.9280 H     1 <1>   0.1500 
 34 H       -2.1790    -0.7020    -1.6010 H     1 <1>   0.1500 
 35 H        1.1540     6.3760    -0.9760 H     1 <1>   0.3700 
 36 H       -0.2290     8.5090     0.6020 H     1 <1>   0.0800 
 37 H       -0.0310     8.5730    -1.1340 H     1 <1>   0.0800 
 38 H        2.4290     8.5270    -0.8590 H     1 <1>   0.0800 
 39 H        2.2350     8.4140     0.8750 H     1 <1>   0.0800 
 40 H        1.1640    10.6360     0.9110 H     1 <1>   0.0800 
 41 H        1.2980    10.7390    -0.8240 H     1 <1>   0.0800 
 42 H        3.6830    10.3960     2.2650 H     1 <1>   0.1500 
 43 H        3.6570    11.8080    -1.7340 H     1 <1>   0.1500 
 44 H        5.9510    12.8550    -1.7430 H     1 <1>   0.0800 
 45 H        7.0530    11.9080    -0.7520 H     1 <1>   0.0800 
 46 H        6.4220    13.4310    -0.1500 H     1 <1>   0.0800 
@<TRIPOS>BOND
  1   1   2  2   
  2   2   3  am  
  3   2   4  1   
  4   3   5  1   
  5   3   6  1   
  6   4   7  1   
  7   4  23  1   
  8   4  24  1   
  9   5   8  1   
 10   5  25  1   
 11   5  26  1   
 12   6   9  1   
 13   6  27  1   
 14   6  28  1   
 15   7   8  1   
 16   7  29  1   
 17   7  30  1   
 18   8  10  1   
 19   8  31  1   
 20   9  11  2   
 21   9  32  1   
 22  10  12  2   
 23  10  13  am  
 24  11  33  1   
 25  11  34  1   
 26  13  14  1   
 27  13  35  1   
 28  14  15  1   
 29  14  36  1   
 30  14  37  1   
 31  15  16  1   
 32  15  38  1   
 33  15  39  1   
 34  16  17  1   
 35  16  40  1   
 36  16  41  1   
 37  17  18  1   
 38  17  19  2   
 39  18  20  2   
 40  18  42  1   
 41  19  21  1   
 42  19  43  1   
 43  20  21  1   
 44  21  22  1   
 45  22  44  1   
 46  22  45  1   
 47  22  46  1   
@<TRIPOS>SUBSTRUCTURE
  1 ****  13 GROUP 4 **** **** 0

# MOE 2024.06 (io_trps.svl 2023.06)
