@<TRIPOS>MOLECULE
NONAME
52 55 1 0 0 
SMALL
USER_CHARGES


@<TRIPOS>ATOM
  1 F        2.7590    -3.3000    -1.2530 F     1 <1>  -0.1900 
  2 C        2.3620    -3.2830    -0.0080 C.ar  1 <1>   0.1900 
  3 C        1.1120    -2.7690     0.3120 C.ar  1 <1>  -0.0320 
  4 C        3.2300    -3.7840     0.9450 C.ar  1 <1>  -0.1500 
  5 C        0.7450    -2.7640     1.6510 C.ar  1 <1>  -0.1500 
  6 C        0.1670    -2.2340    -0.7640 C.3   1 <1>   0.0320 
  7 C        2.8410    -3.7740     2.2730 C.ar  1 <1>  -0.1500 
  8 C        1.6000    -3.2640     2.6220 C.ar  1 <1>  -0.1500 
  9 C       -0.5320    -3.3550    -1.5540 C.2   1 <1>   0.6300 
 10 C        0.6120    -0.9950    -1.4970 C.3   1 <1>  -0.2000 
 11 C       -0.5380    -0.9190    -0.5500 C.3   1 <1>  -0.2000 
 12 O       -0.1480    -3.5780    -2.6810 O.2   1 <1>  -0.5700 
 13 N       -1.5650    -4.0750    -1.0040 N.am  1 <1>  -0.6600 
 14 C       -2.1160    -5.2710    -1.7320 C.3   1 <1>   0.1400 
 15 C       -2.1820    -3.7810     0.3290 C.3   1 <1>   0.1400 
 16 C       -2.7820    -6.2410    -0.7470 C.3   1 <1>   0.2000 
 17 C       -3.6770    -4.0930     0.2770 C.3   1 <1>  -0.1600 
 18 O       -3.1960    -7.3970    -1.3890 O.3   1 <1>  -0.6800 
 19 C       -3.9630    -5.6070     0.0300 C.3   1 <1>  -0.1060 
 20 C       -3.9980    -6.4260     1.3230 C.2   1 <1>   0.9060 
 21 C       -5.3180    -5.7360    -0.7300 C.3   1 <1>  -0.0160 
 22 O       -3.6280    -5.9250     2.3910 O.co2 1 <1>  -0.9000 
 23 O       -4.3200    -7.6210     1.2410 O.co2 1 <1>  -0.9000 
 24 C       -6.4630    -4.9180    -0.1340 C.ar  1 <1>  -0.1430 
 25 C       -6.9560    -3.8060    -0.8010 C.ar  1 <1>  -0.1500 
 26 C       -7.0260    -5.2820     1.0790 C.ar  1 <1>  -0.1500 
 27 C       -7.9940    -3.0660    -0.2610 C.ar  1 <1>  -0.1500 
 28 C       -8.0630    -4.5430     1.6220 C.ar  1 <1>  -0.1500 
 29 C       -8.5480    -3.4340     0.9520 C.ar  1 <1>  -0.1500 
 30 H        4.1860    -4.1730     0.6470 H     1 <1>   0.1500 
 31 H       -0.2110    -2.3750     1.9500 H     1 <1>   0.1500 
 32 H        3.4980    -4.1630     3.0320 H     1 <1>   0.1500 
 33 H        1.2950    -3.2600     3.6550 H     1 <1>   0.1500 
 34 H        1.5510    -0.5490    -1.2220 H     1 <1>   0.1000 
 35 H        0.4280    -0.9430    -2.5570 H     1 <1>   0.1000 
 36 H       -1.5270    -0.7940    -0.9560 H     1 <1>   0.1000 
 37 H       -0.4000    -0.3900     0.3760 H     1 <1>   0.1000 
 38 H       -2.8360    -4.9390    -2.4570 H     1 <1>   0.0800 
 39 H       -1.3160    -5.7810    -2.2410 H     1 <1>   0.0800 
 40 H       -1.7120    -4.3840     1.0900 H     1 <1>   0.0800 
 41 H       -2.0570    -2.7470     0.5870 H     1 <1>   0.0800 
 42 H       -2.0200    -6.5480    -0.0490 H     1 <1>   0.0800 
 43 H       -4.1440    -3.7800     1.1940 H     1 <1>   0.0800 
 44 H       -4.1000    -3.4950    -0.5100 H     1 <1>   0.0800 
 45 H       -3.6440    -7.9410    -0.6900 H     1 <1>   0.4000 
 46 H       -5.1710    -5.4340    -1.7510 H     1 <1>   0.0800 
 47 H       -5.6290    -6.7670    -0.7580 H     1 <1>   0.0800 
 48 H       -6.5310    -3.5130    -1.7440 H     1 <1>   0.1500 
 49 H       -6.6530    -6.1450     1.6090 H     1 <1>   0.1500 
 50 H       -8.3690    -2.2050    -0.7850 H     1 <1>   0.1500 
 51 H       -8.4840    -4.8360     2.5670 H     1 <1>   0.1500 
 52 H       -9.3530    -2.8600     1.3760 H     1 <1>   0.1500 
@<TRIPOS>BOND
  1   1   2  1   
  2   2   3  ar  
  3   2   4  ar  
  4   3   5  ar  
  5   3   6  1   
  6   4   7  ar  
  7   4  30  1   
  8   5   8  ar  
  9   5  31  1   
 10   6   9  1   
 11   6  10  1   
 12   6  11  1   
 13   7   8  ar  
 14   7  32  1   
 15   8  33  1   
 16   9  12  2   
 17   9  13  am  
 18  10  11  1   
 19  10  34  1   
 20  10  35  1   
 21  11  36  1   
 22  11  37  1   
 23  13  14  1   
 24  13  15  1   
 25  14  16  1   
 26  14  38  1   
 27  14  39  1   
 28  15  17  1   
 29  15  40  1   
 30  15  41  1   
 31  16  18  1   
 32  16  19  1   
 33  16  42  1   
 34  17  19  1   
 35  17  43  1   
 36  17  44  1   
 37  18  45  1   
 38  19  20  1   
 39  19  21  1   
 40  20  22  ar  
 41  20  23  ar  
 42  21  24  1   
 43  21  46  1   
 44  21  47  1   
 45  24  25  ar  
 46  24  26  ar  
 47  25  27  ar  
 48  25  48  1   
 49  26  28  ar  
 50  26  49  1   
 51  27  29  ar  
 52  27  50  1   
 53  28  29  ar  
 54  28  51  1   
 55  29  52  1   
@<TRIPOS>SUBSTRUCTURE
  1 ****  15 GROUP 4 **** **** 0

# MOE 2024.06 (io_trps.svl 2023.06)
