@<TRIPOS>MOLECULE
NONAME
53 55 1 0 0 
SMALL
USER_CHARGES


@<TRIPOS>ATOM
  1 F       -0.5930     1.3180     0.3840 F     1 <1>  -0.1900 
  2 C       -1.8970     1.4170     0.4280 C.ar  1 <1>   0.1900 
  3 C       -2.5870     2.4380    -0.2350 C.ar  1 <1>   0.0830 
  4 C       -2.5620     0.4570     1.1680 C.ar  1 <1>  -0.1500 
  5 O       -2.0490     3.4380    -0.9900 O.3   1 <1>  -0.3630 
  6 C       -3.9690     2.4530    -0.1290 C.ar  1 <1>  -0.1500 
  7 C       -3.9410     0.5030     1.2530 C.ar  1 <1>  -0.1500 
  8 C       -0.6600     3.5910    -1.1870 C.3   1 <1>   0.0400 
  9 C       -4.6740     1.4960     0.6020 C.ar  1 <1>   0.0530 
 10 C       -6.1120     1.5450     0.6710 C.2   1 <1>   0.0870 
 11 O       -6.7300     2.6940     0.7680 O.3   1 <1>  -0.0190 
 12 C       -7.0730     0.5860     0.6260 C.2   1 <1>  -0.0860 
 13 N       -8.0320     2.5720     0.7980 N.2   1 <1>  -0.4100 
 14 C       -8.2660     1.3080     0.7240 C.2   1 <1>   0.3720 
 15 C       -6.9720    -0.8300     0.4710 C.2   1 <1>   0.7160 
 16 N       -9.5540     0.7480     0.7260 N.pl3 1 <1>  -0.8210 
 17 O       -6.5220    -1.5010     1.3830 O.2   1 <1>  -0.5700 
 18 N       -7.3840    -1.4630    -0.6870 N.am  1 <1>  -0.6600 
 19 C       -9.8720    -0.1170     1.8980 C.3   1 <1>   0.1290 
 20 C      -10.6710     1.6760     0.3940 C.3   1 <1>   0.1290 
 21 C       -7.6040    -2.9310    -0.7180 C.3   1 <1>   0.1400 
 22 C       -7.8870    -0.7050    -1.8680 C.3   1 <1>   0.0600 
 23 C       -9.0530    -3.2270    -0.3280 C.3   1 <1>  -0.1600 
 24 C       -9.2990    -4.7330    -0.1820 C.3   1 <1>   0.0960 
 25 N      -10.7110    -4.9940     0.1570 N.pl3 1 <1>   0.3140 
 26 N      -11.2010    -4.7790     1.3930 N.2   1 <1>  -0.7070 
 27 C      -11.6680    -5.4550    -0.6730 C.2   1 <1>  -0.3020 
 28 C      -12.4530    -5.1120     1.3180 C.2   1 <1>   0.1390 
 29 C      -12.8070    -5.5430     0.0460 C.2   1 <1>  -0.1500 
 30 H       -2.0050    -0.3130     1.6710 H     1 <1>   0.1500 
 31 H       -4.5110     3.2330    -0.6340 H     1 <1>   0.1500 
 32 H       -4.4520    -0.2400     1.8410 H     1 <1>   0.1500 
 33 H       -0.5030     4.4570    -1.8030 H     1 <1>   0.0800 
 34 H       -0.2790     2.7160    -1.6840 H     1 <1>   0.0800 
 35 H       -0.1840     3.7310    -0.2330 H     1 <1>   0.0800 
 36 H       -8.9970    -0.6440     2.2360 H     1 <1>   0.0800 
 37 H      -10.6200    -0.8410     1.6230 H     1 <1>   0.0800 
 38 H      -10.2440     0.4840     2.7100 H     1 <1>   0.0800 
 39 H      -10.4290     2.2350    -0.4930 H     1 <1>   0.0800 
 40 H      -10.8320     2.3650     1.2060 H     1 <1>   0.0800 
 41 H      -11.5730     1.1170     0.2150 H     1 <1>   0.0800 
 42 H       -6.9330    -3.4140    -0.0270 H     1 <1>   0.0800 
 43 H       -7.3920    -3.3080    -1.7030 H     1 <1>   0.0800 
 44 H       -7.3860     0.2440    -1.9500 H     1 <1>   0.0800 
 45 H       -8.9440    -0.5310    -1.7610 H     1 <1>   0.0800 
 46 H       -7.7080    -1.2620    -2.7710 H     1 <1>   0.0800 
 47 H       -9.7170    -2.8260    -1.0730 H     1 <1>   0.0800 
 48 H       -9.2630    -2.7570     0.6180 H     1 <1>   0.0800 
 49 H       -8.6880    -5.1320     0.6070 H     1 <1>   0.0800 
 50 H       -9.0650    -5.2440    -1.0970 H     1 <1>   0.0800 
 51 H      -11.4910    -5.6900    -1.7060 H     1 <1>   0.1500 
 52 H      -13.1320    -5.0550     2.1530 H     1 <1>   0.1500 
 53 H      -13.7830    -5.8700    -0.2650 H     1 <1>   0.1500 
@<TRIPOS>BOND
  1   1   2  1   
  2   2   3  ar  
  3   2   4  ar  
  4   3   5  1   
  5   3   6  ar  
  6   4   7  ar  
  7   4  30  1   
  8   5   8  1   
  9   6   9  ar  
 10   6  31  1   
 11   7   9  ar  
 12   7  32  1   
 13   8  33  1   
 14   8  34  1   
 15   8  35  1   
 16   9  10  1   
 17  10  11  1   
 18  10  12  2   
 19  11  13  1   
 20  12  14  1   
 21  12  15  1   
 22  13  14  2   
 23  14  16  1   
 24  15  17  2   
 25  15  18  am  
 26  16  19  1   
 27  16  20  1   
 28  18  21  1   
 29  18  22  1   
 30  19  36  1   
 31  19  37  1   
 32  19  38  1   
 33  20  39  1   
 34  20  40  1   
 35  20  41  1   
 36  21  23  1   
 37  21  42  1   
 38  21  43  1   
 39  22  44  1   
 40  22  45  1   
 41  22  46  1   
 42  23  24  1   
 43  23  47  1   
 44  23  48  1   
 45  24  25  1   
 46  24  49  1   
 47  24  50  1   
 48  25  26  1   
 49  25  27  1   
 50  26  28  2   
 51  27  29  2   
 52  27  51  1   
 53  28  29  1   
 54  28  52  1   
 55  29  53  1   
@<TRIPOS>SUBSTRUCTURE
  1 ****  15 GROUP 4 **** **** 0

# MOE 2024.06 (io_trps.svl 2023.06)
