@<TRIPOS>MOLECULE
NONAME
54 58 1 0 0 
SMALL
USER_CHARGES


@<TRIPOS>ATOM
  1 O       -1.0390     0.5070     0.5250 O.2   1 <1>  -0.5700 
  2 C       -2.0860     1.1120     0.4940 C.2   1 <1>   0.5690 
  3 N       -3.2370     0.5450     0.9760 N.am  1 <1>  -0.6600 
  4 C       -2.1070     2.5260    -0.0880 C.3   1 <1>  -0.0190 
  5 C       -4.6050     1.1100     0.9260 C.3   1 <1>   0.1400 
  6 C       -3.2760    -0.8290     1.5150 C.3   1 <1>   0.1400 
  7 C       -0.8290     2.9610    -0.8390 C.3   1 <1>  -0.0170 
  8 C       -2.3480     3.6180     0.9720 C.3   1 <1>  -0.0170 
  9 C       -5.5540    -0.0930     1.0290 C.3   1 <1>  -0.0800 
 10 C       -4.6690    -1.3540     1.1670 C.3   1 <1>  -0.0800 
 11 C       -0.8180     4.4570    -0.6410 C.ar  1 <1>  -0.1440 
 12 C       -1.6640     4.8250     0.3760 C.ar  1 <1>  -0.1440 
 13 C       -6.6310    -0.1540    -0.0850 C.3   1 <1>   0.4230 
 14 C       -4.6460    -2.2240    -0.1030 C.3   1 <1>  -0.1600 
 15 C       -0.0880     5.4060    -1.3320 C.ar  1 <1>  -0.1500 
 16 C       -1.8070     6.1530     0.7320 C.ar  1 <1>  -0.1500 
 17 O       -6.0440     0.1290    -1.3060 O.3   1 <1>  -0.6800 
 18 C       -7.7550     0.8670     0.1920 C.ar  1 <1>  -0.1440 
 19 C       -7.1560    -1.5940    -0.2140 C.3   1 <1>  -0.1600 
 20 C       -6.0600    -2.6290    -0.5650 C.3   1 <1>  -0.1600 
 21 C       -0.2240     6.7410    -0.9830 C.ar  1 <1>  -0.1500 
 22 C       -1.0790     7.1130     0.0450 C.ar  1 <1>  -0.1500 
 23 C       -7.9160     2.0190    -0.5740 C.ar  1 <1>  -0.1500 
 24 C       -8.6390     0.6610     1.2480 C.ar  1 <1>  -0.1500 
 25 C       -8.9240     2.9270    -0.3000 C.ar  1 <1>  -0.1500 
 26 C       -9.6500     1.5660     1.5240 C.ar  1 <1>  -0.1500 
 27 C       -9.7940     2.7010     0.7500 C.ar  1 <1>  -0.1500 
 28 H       -2.9070     2.5830    -0.8030 H     1 <1>   0.0800 
 29 H       -4.7530     1.7670     1.7660 H     1 <1>   0.0800 
 30 H       -4.7540     1.6710     0.0210 H     1 <1>   0.0800 
 31 H       -2.4960    -1.4400     1.0920 H     1 <1>   0.0800 
 32 H       -3.1480    -0.7840     2.5830 H     1 <1>   0.0800 
 33 H       -0.8700     2.6900    -1.8790 H     1 <1>   0.0800 
 34 H        0.0570     2.5490    -0.3900 H     1 <1>   0.0800 
 35 H       -1.8690     3.3600     1.9000 H     1 <1>   0.0800 
 36 H       -3.3950     3.7970     1.1330 H     1 <1>   0.0800 
 37 H       -6.0720     0.0110     1.9640 H     1 <1>   0.0800 
 38 H       -5.0260    -1.9660     1.9780 H     1 <1>   0.0800 
 39 H       -4.1470    -1.6820    -0.8890 H     1 <1>   0.0800 
 40 H       -4.0640    -3.1130     0.0760 H     1 <1>   0.0800 
 41 H        0.5750     5.1120    -2.1260 H     1 <1>   0.1500 
 42 H       -2.4700     6.4370     1.5290 H     1 <1>   0.1500 
 43 H       -5.3920    -0.5720    -1.4840 H     1 <1>   0.4000 
 44 H       -7.5900    -1.8840     0.7250 H     1 <1>   0.0800 
 45 H       -7.9440    -1.6250    -0.9450 H     1 <1>   0.0800 
 46 H       -6.3260    -3.5700    -0.1150 H     1 <1>   0.0800 
 47 H       -6.0430    -2.7840    -1.6310 H     1 <1>   0.0800 
 48 H        0.3380     7.4910    -1.5100 H     1 <1>   0.1500 
 49 H       -1.1780     8.1500     0.3110 H     1 <1>   0.1500 
 50 H       -7.2580     2.2250    -1.4000 H     1 <1>   0.1500 
 51 H       -8.5540    -0.2080     1.8730 H     1 <1>   0.1500 
 52 H       -9.0310     3.8080    -0.9080 H     1 <1>   0.1500 
 53 H      -10.3250     1.3870     2.3430 H     1 <1>   0.1500 
 54 H      -10.5800     3.4060     0.9620 H     1 <1>   0.1500 
@<TRIPOS>BOND
  1   1   2  2   
  2   2   3  am  
  3   2   4  1   
  4   3   5  1   
  5   3   6  1   
  6   4   7  1   
  7   4   8  1   
  8   4  28  1   
  9   5   9  1   
 10   5  29  1   
 11   5  30  1   
 12   6  10  1   
 13   6  31  1   
 14   6  32  1   
 15   7  11  1   
 16   7  33  1   
 17   7  34  1   
 18   8  12  1   
 19   8  35  1   
 20   8  36  1   
 21   9  10  1   
 22   9  13  1   
 23   9  37  1   
 24  10  14  1   
 25  10  38  1   
 26  11  12  ar  
 27  11  15  ar  
 28  12  16  ar  
 29  13  17  1   
 30  13  18  1   
 31  13  19  1   
 32  14  20  1   
 33  14  39  1   
 34  14  40  1   
 35  15  21  ar  
 36  15  41  1   
 37  16  22  ar  
 38  16  42  1   
 39  17  43  1   
 40  18  23  ar  
 41  18  24  ar  
 42  19  20  1   
 43  19  44  1   
 44  19  45  1   
 45  20  46  1   
 46  20  47  1   
 47  21  22  ar  
 48  21  48  1   
 49  22  49  1   
 50  23  25  ar  
 51  23  50  1   
 52  24  26  ar  
 53  24  51  1   
 54  25  27  ar  
 55  25  52  1   
 56  26  27  ar  
 57  26  53  1   
 58  27  54  1   
@<TRIPOS>SUBSTRUCTURE
  1 ****   5 GROUP 4 **** **** 0

# MOE 2024.06 (io_trps.svl 2023.06)
