@<TRIPOS>MOLECULE
NONAME
51 53 1 0 0 
SMALL
USER_CHARGES


@<TRIPOS>ATOM
  1 CL      -0.6410    -0.0910    -0.8930 Cl    1 <1>  -0.1770 
  2 C        0.5060    -1.2790    -1.4730 C.ar  1 <1>   0.1770 
  3 C        1.0680    -2.2170    -0.6130 C.ar  1 <1>  -0.1440 
  4 C        0.8240    -1.2520    -2.8190 C.ar  1 <1>  -0.1500 
  5 C        1.9640    -3.1370    -1.1410 C.ar  1 <1>  -0.1500 
  6 C        0.7500    -2.2750     0.8830 C.3   1 <1>   0.0450 
  7 C        1.7170    -2.1770    -3.3300 C.ar  1 <1>  -0.1500 
  8 C        2.2840    -3.1180    -2.4890 C.ar  1 <1>  -0.1500 
  9 C        0.2670    -3.6480     1.3420 C.2   1 <1>   0.5690 
 10 O        1.0790    -4.3430     1.9080 O.2   1 <1>  -0.5700 
 11 N       -1.0300    -4.0730     1.1450 N.am  1 <1>  -0.6600 
 12 C       -2.0170    -3.3140     0.3200 C.3   1 <1>   0.2200 
 13 C       -1.4740    -5.3680     1.7490 C.3   1 <1>   0.0600 
 14 C       -3.0410    -2.5710     1.1720 C.3   1 <1>  -0.1600 
 15 C       -2.8580    -4.1590    -0.6370 C.3   1 <1>  -0.1600 
 16 C       -4.1840    -2.2630     0.1960 C.3   1 <1>  -0.0800 
 17 C       -4.0560    -3.2560    -0.9650 C.3   1 <1>  -0.0800 
 18 C       -5.6000    -2.4560     0.7560 C.3   1 <1>  -0.1600 
 19 C       -5.4140    -3.9690    -1.0610 C.3   1 <1>  -0.1600 
 20 C       -6.4230    -3.0180    -0.4080 C.3   1 <1>   0.4230 
 21 N       -6.8180    -1.9250    -1.3560 N.4   1 <1>  -0.9590 
 22 C       -7.7010    -0.8950    -0.7180 C.3   1 <1>   0.2630 
 23 C       -7.5080    -2.4430    -2.5820 C.3   1 <1>   0.2630 
 24 H        0.3770    -0.5130    -3.4590 H     1 <1>   0.1500 
 25 H        2.4190    -3.8770    -0.5020 H     1 <1>   0.1500 
 26 H        0.0230    -1.5440     1.1730 H     1 <1>   0.0800 
 27 H        1.6490    -2.0410     1.4240 H     1 <1>   0.0800 
 28 H        1.9710    -2.1650    -4.3760 H     1 <1>   0.1500 
 29 H        2.9800    -3.8400    -2.8820 H     1 <1>   0.1500 
 30 H       -1.5080    -2.5920    -0.2860 H     1 <1>   0.0800 
 31 H       -2.4850    -5.2920     2.1070 H     1 <1>   0.0800 
 32 H       -0.8450    -5.6330     2.5820 H     1 <1>   0.0800 
 33 H       -1.4110    -6.1500     1.0130 H     1 <1>   0.0800 
 34 H       -3.3770    -3.2050     1.9710 H     1 <1>   0.0800 
 35 H       -2.6220    -1.6700     1.5850 H     1 <1>   0.0800 
 36 H       -2.2980    -4.4140    -1.5200 H     1 <1>   0.0800 
 37 H       -3.1960    -5.0580    -0.1580 H     1 <1>   0.0800 
 38 H       -4.0660    -1.2620    -0.1880 H     1 <1>   0.0800 
 39 H       -3.8530    -2.7090    -1.8720 H     1 <1>   0.0800 
 40 H       -5.9910    -1.5610     1.2010 H     1 <1>   0.0800 
 41 H       -5.5800    -3.2100     1.5240 H     1 <1>   0.0800 
 42 H       -5.3920    -4.8640    -0.4640 H     1 <1>   0.0800 
 43 H       -5.6500    -4.2650    -2.0650 H     1 <1>   0.0800 
 44 H       -7.2950    -3.5470    -0.0570 H     1 <1>   0.0800 
 45 H       -5.9400    -1.4690    -1.6440 H     1 <1>   0.4500 
 46 H       -8.5890    -1.3580    -0.3200 H     1 <1>   0.0800 
 47 H       -7.9950    -0.1550    -1.4440 H     1 <1>   0.0800 
 48 H       -7.1840    -0.3910     0.0820 H     1 <1>   0.0800 
 49 H       -8.3830    -3.0100    -2.3090 H     1 <1>   0.0800 
 50 H       -6.8500    -3.0760    -3.1540 H     1 <1>   0.0800 
 51 H       -7.8120    -1.6230    -3.2130 H     1 <1>   0.0800 
@<TRIPOS>BOND
  1   1   2  1   
  2   2   3  ar  
  3   2   4  ar  
  4   3   5  ar  
  5   3   6  1   
  6   4   7  ar  
  7   4  24  1   
  8   5   8  ar  
  9   5  25  1   
 10   6   9  1   
 11   6  26  1   
 12   6  27  1   
 13   7   8  ar  
 14   7  28  1   
 15   8  29  1   
 16   9  10  2   
 17   9  11  am  
 18  11  12  1   
 19  11  13  1   
 20  12  14  1   
 21  12  15  1   
 22  12  30  1   
 23  13  31  1   
 24  13  32  1   
 25  13  33  1   
 26  14  16  1   
 27  14  34  1   
 28  14  35  1   
 29  15  17  1   
 30  15  36  1   
 31  15  37  1   
 32  16  17  1   
 33  16  18  1   
 34  16  38  1   
 35  17  19  1   
 36  17  39  1   
 37  18  20  1   
 38  18  40  1   
 39  18  41  1   
 40  19  20  1   
 41  19  42  1   
 42  19  43  1   
 43  20  21  1   
 44  20  44  1   
 45  21  22  1   
 46  21  23  1   
 47  21  45  1   
 48  22  46  1   
 49  22  47  1   
 50  22  48  1   
 51  23  49  1   
 52  23  50  1   
 53  23  51  1   
@<TRIPOS>SUBSTRUCTURE
  1 ****  12 GROUP 4 **** **** 0

# MOE 2024.06 (io_trps.svl 2023.06)
