@<TRIPOS>MOLECULE
NONAME
48 50 1 0 0 
SMALL
USER_CHARGES


@<TRIPOS>ATOM
  1 CL      -2.6710    -0.8780    -2.2180 Cl    1 <1>  -0.1770 
  2 C       -2.1640     0.3310    -1.0630 C.ar  1 <1>   0.1770 
  3 C       -2.2690     0.0830     0.3040 C.ar  1 <1>   0.0860 
  4 C       -1.6760     1.5280    -1.5560 C.ar  1 <1>  -0.1500 
  5 C       -2.7850    -1.1640     0.8200 C.2   1 <1>   0.5440 
  6 C       -1.8490     1.0920     1.1700 C.ar  1 <1>  -0.1500 
  7 C       -1.2740     2.5160    -0.6750 C.ar  1 <1>  -0.1500 
  8 O       -1.9980    -1.9590     1.2960 O.2   1 <1>  -0.5700 
  9 N       -4.1360    -1.4650     0.8260 N.am  1 <1>  -0.6600 
 10 C       -1.3610     2.2950     0.6890 C.ar  1 <1>  -0.1500 
 11 C       -5.1680    -0.5260     0.2910 C.3   1 <1>   0.2200 
 12 C       -4.5850    -2.7970     1.3440 C.3   1 <1>   0.0600 
 13 C       -6.0710     0.0430     1.3810 C.3   1 <1>  -0.1600 
 14 C       -6.1290    -1.1570    -0.7150 C.3   1 <1>  -0.1600 
 15 C       -7.3230     0.5210     0.6290 C.3   1 <1>  -0.0800 
 16 C       -7.3420    -0.2160    -0.7160 C.3   1 <1>  -0.0800 
 17 C       -8.6610     0.2150     1.3190 C.3   1 <1>  -0.1600 
 18 C       -8.7100    -0.9080    -0.8300 C.3   1 <1>  -0.1600 
 19 C       -9.6190    -0.2850     0.2310 C.3   1 <1>   0.4230 
 20 N      -10.4790     0.7950    -0.3560 N.4   1 <1>  -0.9590 
 21 C       -9.7460     2.0010    -0.8600 C.3   1 <1>   0.2630 
 22 C      -11.5500     1.2060     0.6060 C.3   1 <1>   0.2630 
 23 H       -1.6110     1.6810    -2.6180 H     1 <1>   0.1500 
 24 H       -1.9050     0.9200     2.2310 H     1 <1>   0.1500 
 25 H       -0.8920     3.4520    -1.0480 H     1 <1>   0.1500 
 26 H       -1.0430     3.0600     1.3780 H     1 <1>   0.1500 
 27 H       -4.6970     0.3060    -0.2010 H     1 <1>   0.0800 
 28 H       -5.5960    -2.7560     1.7020 H     1 <1>   0.0800 
 29 H       -3.9540    -3.1130     2.1570 H     1 <1>   0.0800 
 30 H       -4.5170    -3.5260     0.5550 H     1 <1>   0.0800 
 31 H       -6.3180    -0.7220     2.0920 H     1 <1>   0.0800 
 32 H       -5.5860     0.8540     1.8950 H     1 <1>   0.0800 
 33 H       -5.6790    -1.2250    -1.6900 H     1 <1>   0.0800 
 34 H       -6.4180    -2.1390    -0.3930 H     1 <1>   0.0800 
 35 H       -7.2340     1.5780     0.4430 H     1 <1>   0.0800 
 36 H       -7.2210     0.5050    -1.5080 H     1 <1>   0.0800 
 37 H       -9.0360     1.0600     1.8670 H     1 <1>   0.0800 
 38 H       -8.5270    -0.5940     2.0150 H     1 <1>   0.0800 
 39 H       -8.6080    -1.9510    -0.5880 H     1 <1>   0.0800 
 40 H       -9.1170    -0.8390    -1.8230 H     1 <1>   0.0800 
 41 H      -10.2600    -1.0500     0.6400 H     1 <1>   0.0800 
 42 H      -10.9500     0.3670    -1.1660 H     1 <1>   0.4500 
 43 H       -9.2340     2.4940    -0.0510 H     1 <1>   0.0800 
 44 H      -10.4370     2.6990    -1.3060 H     1 <1>   0.0800 
 45 H       -9.0230     1.7150    -1.6050 H     1 <1>   0.0800 
 46 H      -11.1160     1.6750     1.4740 H     1 <1>   0.0800 
 47 H      -12.1170     0.3470     0.9250 H     1 <1>   0.0800 
 48 H      -12.2230     1.9070     0.1390 H     1 <1>   0.0800 
@<TRIPOS>BOND
  1   1   2  1   
  2   2   3  ar  
  3   2   4  ar  
  4   3   5  1   
  5   3   6  ar  
  6   4   7  ar  
  7   4  23  1   
  8   5   8  2   
  9   5   9  am  
 10   6  10  ar  
 11   6  24  1   
 12   7  10  ar  
 13   7  25  1   
 14   9  11  1   
 15   9  12  1   
 16  10  26  1   
 17  11  13  1   
 18  11  14  1   
 19  11  27  1   
 20  12  28  1   
 21  12  29  1   
 22  12  30  1   
 23  13  15  1   
 24  13  31  1   
 25  13  32  1   
 26  14  16  1   
 27  14  33  1   
 28  14  34  1   
 29  15  16  1   
 30  15  17  1   
 31  15  35  1   
 32  16  18  1   
 33  16  36  1   
 34  17  19  1   
 35  17  37  1   
 36  17  38  1   
 37  18  19  1   
 38  18  39  1   
 39  18  40  1   
 40  19  20  1   
 41  19  41  1   
 42  20  21  1   
 43  20  22  1   
 44  20  42  1   
 45  21  43  1   
 46  21  44  1   
 47  21  45  1   
 48  22  46  1   
 49  22  47  1   
 50  22  48  1   
@<TRIPOS>SUBSTRUCTURE
  1 ****  11 GROUP 4 **** **** 0

# MOE 2024.06 (io_trps.svl 2023.06)
