@<TRIPOS>MOLECULE
NONAME
58 60 1 0 0 
SMALL
USER_CHARGES


@<TRIPOS>ATOM
  1 O        0.3890     0.1940     1.0960 O.2   1 <1>  -0.5700 
  2 C        0.6850    -0.8800     0.6240 C.2   1 <1>   0.5690 
  3 N       -0.2980    -1.6960     0.1250 N.am  1 <1>  -0.6600 
  4 C        2.1570    -1.3340     0.6490 C.3   1 <1>  -0.0190 
  5 C       -1.7200    -1.2770     0.1260 C.3   1 <1>   0.1400 
  6 C       -0.1830    -3.1250    -0.2490 C.3   1 <1>   0.1400 
  7 C        3.1370    -0.4130     1.4290 C.3   1 <1>  -0.0190 
  8 C        2.7460    -1.6410    -0.7510 C.3   1 <1>  -0.1600 
  9 C       -2.4940    -2.4760    -0.4100 C.3   1 <1>  -0.1600 
 10 C       -1.5970    -3.6740    -0.1190 C.3   1 <1>  -0.1600 
 11 C        3.4390     0.9290     0.7270 C.2   1 <1>   0.5690 
 12 C        4.4240    -1.2260     1.7430 C.3   1 <1>  -0.1600 
 13 C        4.2700    -1.8880    -0.7330 C.3   1 <1>  -0.1600 
 14 O        4.5280     1.1510     0.2480 O.2   1 <1>  -0.5700 
 15 N        2.4780     1.8840     0.6800 N.am  1 <1>  -0.7300 
 16 C        4.7960    -2.2650     0.6610 C.3   1 <1>  -0.1600 
 17 C        2.5880     3.1660    -0.0500 C.3   1 <1>   0.1400 
 18 C        3.5050     4.1330     0.7020 C.3   1 <1>   0.0200 
 19 C        4.0530     5.1900    -0.2370 C.2   1 <1>   0.0060 
 20 N        3.6220     6.4040    -0.2720 N.2   1 <1>  -0.3380 
 21 N        5.0370     4.9910    -1.1250 N.pl3 1 <1>   0.0480 
 22 N        4.3280     7.0450    -1.2050 N.2   1 <1>  -0.3380 
 23 C        5.1570     6.1910    -1.6950 C.2   1 <1>   0.0360 
 24 C        5.8290     3.7830    -1.4530 C.3   1 <1>   0.0960 
 25 C        6.8850     3.5170    -0.3830 C.3   1 <1>   0.1200 
 26 O        7.8750     2.7220    -0.9520 O.3   1 <1>  -0.5600 
 27 C        8.7790     2.2040    -0.0310 C.3   1 <1>   0.0400 
 28 H        2.1340    -2.2590     1.1940 H     1 <1>   0.0800 
 29 H       -2.0200    -1.0550     1.1360 H     1 <1>   0.0800 
 30 H       -1.8600    -0.4050    -0.4900 H     1 <1>   0.0800 
 31 H        0.1380    -3.1960    -1.2740 H     1 <1>   0.0800 
 32 H        0.5020    -3.6530     0.3910 H     1 <1>   0.0800 
 33 H        2.6870    -0.1620     2.3730 H     1 <1>   0.0800 
 34 H        2.2720    -2.5140    -1.1560 H     1 <1>   0.0800 
 35 H        2.5350    -0.8230    -1.4190 H     1 <1>   0.0800 
 36 H       -3.4620    -2.5650     0.0520 H     1 <1>   0.0800 
 37 H       -2.6220    -2.3630    -1.4720 H     1 <1>   0.0800 
 38 H       -1.7740    -4.4940    -0.7930 H     1 <1>   0.0800 
 39 H       -1.7510    -4.0100     0.8920 H     1 <1>   0.0800 
 40 H        5.2520    -0.5550     1.8970 H     1 <1>   0.0800 
 41 H        4.2850    -1.7520     2.6710 H     1 <1>   0.0800 
 42 H        4.5170    -2.6660    -1.4360 H     1 <1>   0.0800 
 43 H        4.7790    -1.0000    -1.0640 H     1 <1>   0.0800 
 44 H        1.5270     1.6080     0.9770 H     1 <1>   0.3700 
 45 H        5.8660    -2.3780     0.6260 H     1 <1>   0.0800 
 46 H        4.3830    -3.2210     0.9330 H     1 <1>   0.0800 
 47 H        2.9860     2.9640    -1.0290 H     1 <1>   0.0800 
 48 H        1.6120     3.6050    -0.1720 H     1 <1>   0.0800 
 49 H        4.3260     3.6080     1.1510 H     1 <1>   0.0800 
 50 H        2.9460     4.6080     1.4880 H     1 <1>   0.0800 
 51 H        5.8680     6.4050    -2.4710 H     1 <1>   0.1500 
 52 H        5.1760     2.9350    -1.5380 H     1 <1>   0.0800 
 53 H        6.3140     3.9440    -2.3980 H     1 <1>   0.0800 
 54 H        6.4490     2.9920     0.4500 H     1 <1>   0.0800 
 55 H        7.3430     4.4340    -0.0540 H     1 <1>   0.0800 
 56 H        9.5140     1.6310    -0.5680 H     1 <1>   0.0800 
 57 H        8.2540     1.5630     0.6580 H     1 <1>   0.0800 
 58 H        9.2590     3.0130     0.4930 H     1 <1>   0.0800 
@<TRIPOS>BOND
  1   1   2  2   
  2   2   3  am  
  3   2   4  1   
  4   3   5  1   
  5   3   6  1   
  6   4   7  1   
  7   4   8  1   
  8   4  28  1   
  9   5   9  1   
 10   5  29  1   
 11   5  30  1   
 12   6  10  1   
 13   6  31  1   
 14   6  32  1   
 15   7  11  1   
 16   7  12  1   
 17   7  33  1   
 18   8  13  1   
 19   8  34  1   
 20   8  35  1   
 21   9  10  1   
 22   9  36  1   
 23   9  37  1   
 24  10  38  1   
 25  10  39  1   
 26  11  14  2   
 27  11  15  am  
 28  12  16  1   
 29  12  40  1   
 30  12  41  1   
 31  13  16  1   
 32  13  42  1   
 33  13  43  1   
 34  15  17  1   
 35  15  44  1   
 36  16  45  1   
 37  16  46  1   
 38  17  18  1   
 39  17  47  1   
 40  17  48  1   
 41  18  19  1   
 42  18  49  1   
 43  18  50  1   
 44  19  20  2   
 45  19  21  1   
 46  20  22  1   
 47  21  23  1   
 48  21  24  1   
 49  22  23  2   
 50  23  51  1   
 51  24  25  1   
 52  24  52  1   
 53  24  53  1   
 54  25  26  1   
 55  25  54  1   
 56  25  55  1   
 57  26  27  1   
 58  27  56  1   
 59  27  57  1   
 60  27  58  1   
@<TRIPOS>SUBSTRUCTURE
  1 ****  11 GROUP 4 **** **** 0

# MOE 2024.06 (io_trps.svl 2023.06)
