@<TRIPOS>MOLECULE
NONAME
51 55 1 0 0 
SMALL
USER_CHARGES


@<TRIPOS>ATOM
  1 CL      -0.5170    -2.3920    -2.3730 Cl    1 <1>  -0.1770 
  2 C       -1.6250    -2.1860    -1.0350 C.ar  1 <1>   0.1770 
  3 C       -1.3580    -2.7190     0.2310 C.ar  1 <1>   0.0860 
  4 C       -2.7710    -1.4580    -1.3000 C.ar  1 <1>  -0.1500 
  5 C       -0.1790    -3.5010     0.5610 C.2   1 <1>   0.5440 
  6 C       -2.3090    -2.4650     1.2230 C.ar  1 <1>  -0.1500 
  7 C       -3.6940    -1.2320    -0.2960 C.ar  1 <1>  -0.1500 
  8 O        0.2980    -3.4380     1.6770 O.2   1 <1>  -0.5700 
  9 N        0.3980    -4.3560    -0.3340 N.am  1 <1>  -0.7300 
 10 C       -3.4580    -1.7370     0.9700 C.ar  1 <1>  -0.1500 
 11 C        1.6320    -5.1420    -0.0930 C.3   1 <1>   0.1400 
 12 C        1.3020    -6.4470     0.6450 C.3   1 <1>  -0.0800 
 13 C        0.4230    -7.3670    -0.2140 C.3   1 <1>   0.2000 
 14 C        2.5180    -7.3700     0.8800 C.3   1 <1>  -0.0800 
 15 O        1.3820    -7.9440    -1.0060 O.3   1 <1>  -0.5600 
 16 C       -0.0820    -8.5930     0.5700 C.3   1 <1>  -0.1600 
 17 C        2.1780    -8.5390    -0.0440 C.3   1 <1>   0.2800 
 18 C        3.9500    -6.9580     0.4820 C.3   1 <1>   0.1100 
 19 C        1.1720    -9.4810     0.6110 C.3   1 <1>  -0.1600 
 20 C        3.5100    -9.0110    -0.6130 C.3   1 <1>   0.1100 
 21 N        4.3460    -7.7990    -0.6600 N.3   1 <1>  -0.8100 
 22 C        5.7950    -8.0820    -0.7230 C.3   1 <1>   0.2900 
 23 C        6.6540    -6.8220    -0.7420 C.2   1 <1>   0.2980 
 24 O        6.5860    -6.0250    -1.7810 O.3   1 <1>  -0.0190 
 25 N        7.4610    -6.4560     0.1760 N.2   1 <1>  -0.5650 
 26 N        7.4210    -5.0710    -1.4990 N.2   1 <1>  -0.4100 
 27 C        7.9180    -5.3350    -0.3590 C.2   1 <1>   0.3350 
 28 C        8.9360    -4.4870     0.3640 C.3   1 <1>  -0.0590 
 29 H       -2.9380    -1.0680    -2.2880 H     1 <1>   0.1500 
 30 H       -2.1370    -2.8490     2.2150 H     1 <1>   0.1500 
 31 H       -4.5890    -0.6650    -0.4950 H     1 <1>   0.1500 
 32 H        0.0810    -4.3430    -1.3070 H     1 <1>   0.3700 
 33 H       -4.1690    -1.5630     1.7600 H     1 <1>   0.1500 
 34 H        2.1070    -5.3590    -1.0360 H     1 <1>   0.0800 
 35 H        2.3090    -4.5510     0.5010 H     1 <1>   0.0800 
 36 H        0.8190    -6.2090     1.5760 H     1 <1>   0.0800 
 37 H       -0.3280    -6.8720    -0.8040 H     1 <1>   0.0800 
 38 H        2.5390    -7.6930     1.9050 H     1 <1>   0.0800 
 39 H       -0.4300    -8.3170     1.5490 H     1 <1>   0.0800 
 40 H       -0.8770    -9.0750     0.0290 H     1 <1>   0.0800 
 41 H        4.6060    -7.1460     1.3160 H     1 <1>   0.0800 
 42 H        4.0410    -5.9200     0.2180 H     1 <1>   0.0800 
 43 H        1.0450   -10.3610     0.0050 H     1 <1>   0.0800 
 44 H        1.4580    -9.7600     1.6090 H     1 <1>   0.0800 
 45 H        3.3850    -9.4420    -1.5910 H     1 <1>   0.0800 
 46 H        3.9440    -9.7330     0.0560 H     1 <1>   0.0800 
 47 H        6.0820    -8.6760     0.1270 H     1 <1>   0.0800 
 48 H        6.0030    -8.6470    -1.6140 H     1 <1>   0.0800 
 49 H        9.8300    -5.0590     0.5270 H     1 <1>   0.0800 
 50 H        8.5360    -4.1760     1.3110 H     1 <1>   0.0800 
 51 H        9.1730    -3.6190    -0.2220 H     1 <1>   0.0800 
@<TRIPOS>BOND
  1   1   2  1   
  2   2   3  ar  
  3   2   4  ar  
  4   3   5  1   
  5   3   6  ar  
  6   4   7  ar  
  7   4  29  1   
  8   5   8  2   
  9   5   9  am  
 10   6  10  ar  
 11   6  30  1   
 12   7  10  ar  
 13   7  31  1   
 14   9  11  1   
 15   9  32  1   
 16  10  33  1   
 17  11  12  1   
 18  11  34  1   
 19  11  35  1   
 20  12  13  1   
 21  12  14  1   
 22  12  36  1   
 23  13  15  1   
 24  13  16  1   
 25  13  37  1   
 26  14  17  1   
 27  14  18  1   
 28  14  38  1   
 29  15  17  1   
 30  16  19  1   
 31  16  39  1   
 32  16  40  1   
 33  17  19  1   
 34  17  20  1   
 35  18  21  1   
 36  18  41  1   
 37  18  42  1   
 38  19  43  1   
 39  19  44  1   
 40  20  21  1   
 41  20  45  1   
 42  20  46  1   
 43  21  22  1   
 44  22  23  1   
 45  22  47  1   
 46  22  48  1   
 47  23  24  1   
 48  23  25  2   
 49  24  26  1   
 50  25  27  1   
 51  26  27  2   
 52  27  28  1   
 53  28  49  1   
 54  28  50  1   
 55  28  51  1   
@<TRIPOS>SUBSTRUCTURE
  1 ****  11 GROUP 4 **** **** 0

# MOE 2024.06 (io_trps.svl 2023.06)
