@<TRIPOS>MOLECULE
NONAME
48 52 1 0 0 
SMALL
USER_CHARGES


@<TRIPOS>ATOM
  1 S        0.4650     0.5160    -2.2540 S.3   1 <1>  -0.0800 
  2 C        0.2930     1.7690    -1.0440 C.2   1 <1>  -0.1400 
  3 C        2.1410     0.9750    -2.5180 C.2   1 <1>  -0.1100 
  4 C        1.4290     2.4540    -0.8660 C.2   1 <1>  -0.1810 
  5 C       -0.9990     2.0200    -0.3150 C.3   1 <1>   0.0200 
  6 C        2.4920     2.0020    -1.7190 C.2   1 <1>  -0.1500 
  7 C        1.5130     3.5880     0.1580 C.3   1 <1>   0.4610 
  8 C       -0.9090     3.4280     0.2960 C.3   1 <1>   0.1200 
  9 O        0.3300     3.6280     0.9360 O.3   1 <1>  -0.5600 
 10 C        2.6570     3.3290     1.1460 C.3   1 <1>  -0.1600 
 11 C        1.6980     4.9460    -0.5370 C.3   1 <1>  -0.1600 
 12 C        2.8240     4.4830     2.1360 C.3   1 <1>   0.1400 
 13 C        1.8710     6.0770     0.4770 C.3   1 <1>   0.1400 
 14 N        3.0140     5.7490     1.3740 N.am  1 <1>  -0.6600 
 15 C        4.1890     6.4690     1.4290 C.2   1 <1>   0.5440 
 16 O        5.1170     6.0520     2.0930 O.2   1 <1>  -0.5700 
 17 C        4.3540     7.6910     0.6850 C.ar  1 <1>   0.0860 
 18 C        5.0670     7.7230    -0.5140 C.ar  1 <1>   0.0000 
 19 C        3.8130     8.9030     1.0740 C.ar  1 <1>  -0.1500 
 20 C        5.1450     8.9040    -1.2060 C.ar  1 <1>   0.3970 
 21 C        5.7940     6.8390    -1.3290 C.2   1 <1>   0.1080 
 22 C        3.9690    10.0480     0.2890 C.ar  1 <1>   0.1660 
 23 O        5.8390     8.6780    -2.3080 O.3   1 <1>  -0.0190 
 24 N        4.6170    10.0770    -0.8530 N.ar  1 <1>  -0.5670 
 25 N        6.2300     7.4240    -2.3800 N.2   1 <1>  -0.4100 
 26 C        6.0450     5.3790    -1.0110 C.3   1 <1>  -0.0590 
 27 C        3.3640    11.3600     0.7450 C.3   1 <1>  -0.0970 
 28 H        2.6930     0.4190    -3.2540 H     1 <1>   0.1500 
 29 H       -1.1350     1.2850     0.4570 H     1 <1>   0.0800 
 30 H       -1.8310     1.9700    -0.9940 H     1 <1>   0.0800 
 31 H        3.4640     2.4620    -1.6950 H     1 <1>   0.1500 
 32 H       -1.6840     3.5630     1.0300 H     1 <1>   0.0800 
 33 H       -1.0230     4.1750    -0.4680 H     1 <1>   0.0800 
 34 H        3.5810     3.2040     0.6150 H     1 <1>   0.0800 
 35 H        2.4620     2.4160     1.6790 H     1 <1>   0.0800 
 36 H        0.8630     5.1480    -1.1800 H     1 <1>   0.0800 
 37 H        2.5720     4.9080    -1.1600 H     1 <1>   0.0800 
 38 H        3.6640     4.2910     2.7820 H     1 <1>   0.0800 
 39 H        1.9450     4.5700     2.7530 H     1 <1>   0.0800 
 40 H        0.9770     6.1770     1.0710 H     1 <1>   0.0800 
 41 H        2.0310     7.0050    -0.0420 H     1 <1>   0.0800 
 42 H        3.2630     8.9560     1.9970 H     1 <1>   0.1500 
 43 H        5.1130     4.8610    -0.8830 H     1 <1>   0.0800 
 44 H        6.6190     5.2970    -0.1060 H     1 <1>   0.0800 
 45 H        6.5950     4.9160    -1.8110 H     1 <1>   0.0800 
 46 H        2.8640    11.2540     1.6900 H     1 <1>   0.0800 
 47 H        2.6560    11.7040     0.0130 H     1 <1>   0.0800 
 48 H        4.1410    12.0970     0.8450 H     1 <1>   0.0800 
@<TRIPOS>BOND
  1   1   2  1   
  2   1   3  1   
  3   2   4  2   
  4   2   5  1   
  5   3   6  2   
  6   3  28  1   
  7   4   6  1   
  8   4   7  1   
  9   5   8  1   
 10   5  29  1   
 11   5  30  1   
 12   6  31  1   
 13   7   9  1   
 14   7  10  1   
 15   7  11  1   
 16   8   9  1   
 17   8  32  1   
 18   8  33  1   
 19  10  12  1   
 20  10  34  1   
 21  10  35  1   
 22  11  13  1   
 23  11  36  1   
 24  11  37  1   
 25  12  14  1   
 26  12  38  1   
 27  12  39  1   
 28  13  14  1   
 29  13  40  1   
 30  13  41  1   
 31  14  15  am  
 32  15  16  2   
 33  15  17  1   
 34  17  18  ar  
 35  17  19  ar  
 36  18  20  ar  
 37  18  21  1   
 38  19  22  ar  
 39  19  42  1   
 40  20  23  1   
 41  20  24  ar  
 42  21  25  2   
 43  21  26  1   
 44  22  24  ar  
 45  22  27  1   
 46  23  25  1   
 47  26  43  1   
 48  26  44  1   
 49  26  45  1   
 50  27  46  1   
 51  27  47  1   
 52  27  48  1   
@<TRIPOS>SUBSTRUCTURE
  1 ****  13 GROUP 4 **** **** 0

# MOE 2024.06 (io_trps.svl 2023.06)
