@<TRIPOS>MOLECULE
NONAME
50 53 1 0 0 
SMALL
USER_CHARGES


@<TRIPOS>ATOM
  1 S       -0.0720    -1.0170    -1.5310 S.3   1 <1>  -0.0800 
  2 C        0.7000    -1.6020    -0.0770 C.2   1 <1>   0.1980 
  3 C       -1.5310    -1.8300    -1.0490 C.2   1 <1>  -0.1100 
  4 N       -0.0520    -2.3140     0.6610 N.2   1 <1>  -0.5650 
  5 C        2.1430    -1.2140     0.1500 C.3   1 <1>  -0.0600 
  6 C       -1.3220    -2.4540     0.1250 C.2   1 <1>   0.0460 
  7 C       -2.2820    -3.2990     0.9620 C.3   1 <1>   0.5240 
  8 N       -3.5920    -3.5880     0.3040 N.4   1 <1>  -0.9590 
  9 C       -3.4640    -4.4610    -0.9060 C.3   1 <1>   0.3430 
 10 C       -4.4640    -2.4000     0.1320 C.3   1 <1>   0.3430 
 11 C       -4.8270    -5.0250    -1.3640 C.3   1 <1>   0.1400 
 12 C       -5.8620    -2.7110     0.6730 C.3   1 <1>  -0.1600 
 13 N       -5.8360    -5.0330    -0.2630 N.am  1 <1>  -0.6600 
 14 C       -6.6370    -3.7930    -0.0950 C.3   1 <1>   0.1400 
 15 C       -5.7340    -5.9360     0.7650 C.2   1 <1>   0.5440 
 16 O       -4.9300    -5.6440     1.6350 O.2   1 <1>  -0.5700 
 17 C       -6.4480    -7.2020     0.7980 C.ar  1 <1>   0.0860 
 18 C       -7.7230    -7.4020     0.2470 C.ar  1 <1>   0.0820 
 19 C       -5.8360    -8.3030     1.4090 C.ar  1 <1>  -0.1500 
 20 O       -8.3780    -6.3730    -0.3530 O.3   1 <1>  -0.3620 
 21 C       -8.3360    -8.6580     0.3170 C.ar  1 <1>   0.0820 
 22 C       -6.4400    -9.5440     1.4650 C.ar  1 <1>  -0.1500 
 23 C       -9.5170    -6.6640    -1.1420 C.3   1 <1>   0.1200 
 24 O       -9.5780    -8.8720    -0.1850 O.3   1 <1>  -0.3630 
 25 C       -7.6940    -9.7240     0.9140 C.ar  1 <1>  -0.1500 
 26 C      -10.3700    -7.7350    -0.4570 C.3   1 <1>   0.1200 
 27 H       -2.3720    -1.7370    -1.7100 H     1 <1>   0.1500 
 28 H        2.7520    -1.5820    -0.6560 H     1 <1>   0.0800 
 29 H        2.4940    -1.6360     1.0740 H     1 <1>   0.0800 
 30 H        2.2300    -0.1440     0.1990 H     1 <1>   0.0800 
 31 H       -2.4520    -2.7920     1.8970 H     1 <1>   0.0800 
 32 H       -1.7900    -4.2300     1.1910 H     1 <1>   0.0800 
 33 H       -4.1160    -4.2050     0.9670 H     1 <1>   0.4500 
 34 H       -2.8270    -5.2960    -0.6650 H     1 <1>   0.0800 
 35 H       -3.0000    -3.9250    -1.7170 H     1 <1>   0.0800 
 36 H       -4.5210    -2.1220    -0.9070 H     1 <1>   0.0800 
 37 H       -4.0570    -1.5670     0.6840 H     1 <1>   0.0800 
 38 H       -4.6890    -6.0290    -1.7290 H     1 <1>   0.0800 
 39 H       -5.2000    -4.4390    -2.1860 H     1 <1>   0.0800 
 40 H       -6.4430    -1.8070     0.6400 H     1 <1>   0.0800 
 41 H       -5.7940    -2.9910     1.7100 H     1 <1>   0.0800 
 42 H       -6.9310    -3.4250    -1.0640 H     1 <1>   0.0800 
 43 H       -7.5380    -4.0290     0.4470 H     1 <1>   0.0800 
 44 H       -4.8630    -8.1810     1.8530 H     1 <1>   0.1500 
 45 H       -5.9390   -10.3720     1.9390 H     1 <1>   0.1500 
 46 H       -9.1800    -7.0140    -2.1020 H     1 <1>   0.0800 
 47 H      -10.0760    -5.7550    -1.2720 H     1 <1>   0.0800 
 48 H       -8.1780   -10.6830     0.9510 H     1 <1>   0.1500 
 49 H      -11.1850    -8.0400    -1.0880 H     1 <1>   0.0800 
 50 H      -10.7610    -7.3670     0.4750 H     1 <1>   0.0800 
@<TRIPOS>BOND
  1   1   2  1   
  2   1   3  1   
  3   2   4  2   
  4   2   5  1   
  5   3   6  2   
  6   3  27  1   
  7   4   6  1   
  8   5  28  1   
  9   5  29  1   
 10   5  30  1   
 11   6   7  1   
 12   7   8  1   
 13   7  31  1   
 14   7  32  1   
 15   8   9  1   
 16   8  10  1   
 17   8  33  1   
 18   9  11  1   
 19   9  34  1   
 20   9  35  1   
 21  10  12  1   
 22  10  36  1   
 23  10  37  1   
 24  11  13  1   
 25  11  38  1   
 26  11  39  1   
 27  12  14  1   
 28  12  40  1   
 29  12  41  1   
 30  13  14  1   
 31  13  15  am  
 32  14  42  1   
 33  14  43  1   
 34  15  16  2   
 35  15  17  1   
 36  17  18  ar  
 37  17  19  ar  
 38  18  20  1   
 39  18  21  ar  
 40  19  22  ar  
 41  19  44  1   
 42  20  23  1   
 43  21  24  1   
 44  21  25  ar  
 45  22  25  ar  
 46  22  45  1   
 47  23  26  1   
 48  23  46  1   
 49  23  47  1   
 50  24  26  1   
 51  25  48  1   
 52  26  49  1   
 53  26  50  1   
@<TRIPOS>SUBSTRUCTURE
  1 ****  13 GROUP 4 **** **** 0

# MOE 2024.06 (io_trps.svl 2023.06)
