@<TRIPOS>MOLECULE
NONAME
60 64 1 0 0 
SMALL
USER_CHARGES


@<TRIPOS>ATOM
  1 F       -0.6500     1.5330    -0.8520 F     1 <1>  -0.3400 
  2 C       -0.2300     1.0710     0.3330 C.3   1 <1>   0.3400 
  3 C        1.3270     1.3080     0.3540 C.3   1 <1>   0.2760 
  4 C       -0.7080    -0.4140     0.3620 C.3   1 <1>   0.2000 
  5 C       -0.9740     1.9170     1.4060 C.3   1 <1>   0.0580 
  6 C        1.5910     2.8310     0.2890 C.2   1 <1>  -0.2760 
  7 C        2.0160     0.6150    -0.8370 C.2   1 <1>  -0.2880 
  8 C        2.0570     0.7800     1.6050 C.3   1 <1>  -0.2400 
  9 O       -0.2790    -1.0900     1.4980 O.3   1 <1>  -0.6800 
 10 C       -2.2420    -0.5570     0.2760 C.3   1 <1>  -0.1600 
 11 C       -2.4950     1.7300     1.3130 C.2   1 <1>  -0.2760 
 12 C       -0.6040     3.4130     1.3340 C.3   1 <1>  -0.1600 
 13 C        2.3390     3.4040    -0.6760 C.2   1 <1>  -0.1360 
 14 C        0.9090     3.6460     1.3800 C.3   1 <1>  -0.0220 
 15 C        2.7470     1.2640    -1.7630 C.2   1 <1>  -0.1360 
 16 C       -3.0530     0.3140     1.2780 C.3   1 <1>   0.1380 
 17 C       -3.4630     2.6410     1.2500 C.2   1 <1>  -0.2880 
 18 C        2.9680     2.6810    -1.7450 C.2   1 <1>   0.5410 
 19 C       -4.5600     0.5470     0.8620 C.3   1 <1>   0.3410 
 20 C       -2.9590    -0.2480     2.7170 C.3   1 <1>  -0.2400 
 21 C       -4.8340     2.0260     1.1260 C.3   1 <1>   0.3380 
 22 O        3.6490     3.2330    -2.5780 O.2   1 <1>  -0.5700 
 23 O       -4.7410     0.4380    -0.5260 O.3   1 <1>  -0.5600 
 24 C       -5.5770    -0.3720     1.5430 C.2   1 <1>   0.4480 
 25 O       -5.4410     2.4960    -0.0170 O.3   1 <1>  -0.5600 
 26 C       -5.1860     1.6350    -1.0650 C.3   1 <1>   0.5600 
 27 O       -6.2400    -0.0410     2.4880 O.2   1 <1>  -0.5700 
 28 C       -5.7130    -1.7780     0.9620 C.3   1 <1>   0.1810 
 29 C       -4.1130     2.2150    -1.9760 C.3   1 <1>  -0.2400 
 30 C       -6.4950     1.3720    -1.7900 C.3   1 <1>  -0.2400 
 31 O       -5.4500    -2.7420     1.9340 O.3   1 <1>  -0.6800 
 32 H       -0.2720    -0.9290    -0.4760 H     1 <1>   0.0800 
 33 H       -0.6680     1.5580     2.3710 H     1 <1>   0.0800 
 34 H        1.8730    -0.4490    -0.8640 H     1 <1>   0.1500 
 35 H        3.0660     1.1530     1.6200 H     1 <1>   0.0800 
 36 H        2.1110    -0.2930     1.5970 H     1 <1>   0.0800 
 37 H        1.5710     1.0830     2.5120 H     1 <1>   0.0800 
 38 H       -0.6330    -2.0020     1.5050 H     1 <1>   0.4000 
 39 H       -2.4900    -0.2570    -0.7250 H     1 <1>   0.0800 
 40 H       -2.5270    -1.5890     0.3620 H     1 <1>   0.0800 
 41 H       -0.9860     3.8260     0.4160 H     1 <1>   0.0800 
 42 H       -1.0670     3.9390     2.1510 H     1 <1>   0.0800 
 43 H        2.5100     4.4630    -0.7150 H     1 <1>   0.1500 
 44 H        1.2940     3.3750     2.3480 H     1 <1>   0.0800 
 45 H        1.1070     4.6940     1.2390 H     1 <1>   0.0800 
 46 H        3.2200     0.7540    -2.5820 H     1 <1>   0.1500 
 47 H       -3.4070     3.7150     1.2590 H     1 <1>   0.1500 
 48 H       -1.9620    -0.1910     3.1050 H     1 <1>   0.0800 
 49 H       -3.2650    -1.2780     2.7490 H     1 <1>   0.0800 
 50 H       -3.5860     0.3170     3.3840 H     1 <1>   0.0800 
 51 H       -5.4460     2.2320     1.9870 H     1 <1>   0.0800 
 52 H       -5.0290    -1.9370     0.1480 H     1 <1>   0.0800 
 53 H       -6.7180    -1.9240     0.6100 H     1 <1>   0.0800 
 54 H       -4.4420     3.1580    -2.3700 H     1 <1>   0.0800 
 55 H       -3.9320     1.5470    -2.7980 H     1 <1>   0.0800 
 56 H       -3.1940     2.3610    -1.4410 H     1 <1>   0.0800 
 57 H       -6.8690     2.2900    -2.2050 H     1 <1>   0.0800 
 58 H       -7.2220     0.9730    -1.1080 H     1 <1>   0.0800 
 59 H       -6.3360     0.6750    -2.5920 H     1 <1>   0.0800 
 60 H       -5.9960    -2.5550     2.7290 H     1 <1>   0.4000 
@<TRIPOS>BOND
  1   1   2  1   
  2   2   3  1   
  3   2   4  1   
  4   2   5  1   
  5   3   6  1   
  6   3   7  1   
  7   3   8  1   
  8   4   9  1   
  9   4  10  1   
 10   4  32  1   
 11   5  11  1   
 12   5  12  1   
 13   5  33  1   
 14   6  13  2   
 15   6  14  1   
 16   7  15  2   
 17   7  34  1   
 18   8  35  1   
 19   8  36  1   
 20   8  37  1   
 21   9  38  1   
 22  10  16  1   
 23  10  39  1   
 24  10  40  1   
 25  11  16  1   
 26  11  17  2   
 27  12  14  1   
 28  12  41  1   
 29  12  42  1   
 30  13  18  1   
 31  13  43  1   
 32  14  44  1   
 33  14  45  1   
 34  15  18  1   
 35  15  46  1   
 36  16  19  1   
 37  16  20  1   
 38  17  21  1   
 39  17  47  1   
 40  18  22  2   
 41  19  21  1   
 42  19  23  1   
 43  19  24  1   
 44  20  48  1   
 45  20  49  1   
 46  20  50  1   
 47  21  25  1   
 48  21  51  1   
 49  23  26  1   
 50  24  27  2   
 51  24  28  1   
 52  25  26  1   
 53  26  29  1   
 54  26  30  1   
 55  28  31  1   
 56  28  52  1   
 57  28  53  1   
 58  29  54  1   
 59  29  55  1   
 60  29  56  1   
 61  30  57  1   
 62  30  58  1   
 63  30  59  1   
 64  31  60  1   
@<TRIPOS>SUBSTRUCTURE
  1 ****  11 GROUP 4 **** **** 0

# MOE 2024.06 (io_trps.svl 2023.06)
