@<TRIPOS>MOLECULE
NONAME
42 45 1 0 0 
SMALL
USER_CHARGES


@<TRIPOS>ATOM
  1 F       -1.4680     1.8370    -0.7940 F     1 <1>  -0.3400 
  2 C       -2.7920     1.8450    -0.9370 C.3   1 <1>   1.1640 
  3 F       -3.2230     2.8740    -0.2110 F     1 <1>  -0.3400 
  4 F       -3.0150     2.1660    -2.2070 F     1 <1>  -0.3400 
  5 C       -3.4510     0.4980    -0.5340 C.ar  1 <1>   0.1660 
  6 N       -4.7690     0.4130    -0.4440 N.ar  1 <1>  -0.6200 
  7 C       -2.6710    -0.6120    -0.2710 C.ar  1 <1>  -0.1500 
  8 C       -5.2940    -0.7580    -0.0910 C.ar  1 <1>   0.7200 
  9 C       -3.3040    -1.7770     0.0850 C.ar  1 <1>   0.1600 
 10 N       -4.6040    -1.8620     0.1800 N.ar  1 <1>  -0.6200 
 11 N       -6.6660    -0.8260     0.0090 N.pl3 1 <1>  -0.8380 
 12 C       -7.5830     0.1950    -0.5970 C.3   1 <1>   0.2090 
 13 C       -7.3720    -1.8780     0.7920 C.3   1 <1>   0.2090 
 14 C       -8.4130     0.9020     0.4920 C.3   1 <1>   0.1440 
 15 C       -8.2150    -1.2200     1.8930 C.3   1 <1>  -0.1600 
 16 C       -9.3420     1.8960    -0.1820 C.ar  1 <1>   0.1660 
 17 C       -9.1710    -0.1500     1.3330 C.3   1 <1>  -0.1600 
 18 C       -7.5310     1.8280     1.3720 C.3   1 <1>  -0.1600 
 19 N      -10.4410     1.5980    -0.8360 N.ar  1 <1>  -0.6200 
 20 C       -8.8870     3.1750    -0.0410 C.ar  1 <1>  -0.1440 
 21 C       -7.6000     3.2300     0.7440 C.3   1 <1>  -0.0170 
 22 C      -11.0680     2.6490    -1.3440 C.ar  1 <1>   0.7200 
 23 C       -9.6260     4.1840    -0.6080 C.ar  1 <1>   0.1600 
 24 N      -10.7360     3.9300    -1.2660 N.ar  1 <1>  -0.6200 
 25 N      -12.1990     2.3850    -2.0000 N.pl3 1 <1>  -0.9000 
 26 H       -1.5980    -0.5880    -0.3360 H     1 <1>   0.1500 
 27 H       -2.7260    -2.6610     0.2970 H     1 <1>   0.1500 
 28 H       -8.2520    -0.3050    -1.2760 H     1 <1>   0.0800 
 29 H       -7.0390     0.9250    -1.1690 H     1 <1>   0.0800 
 30 H       -6.6770    -2.5650     1.2440 H     1 <1>   0.0800 
 31 H       -8.0070    -2.4390     0.1280 H     1 <1>   0.0800 
 32 H       -7.5500    -0.7780     2.6140 H     1 <1>   0.0800 
 33 H       -8.7830    -1.9790     2.3990 H     1 <1>   0.0800 
 34 H       -9.8990    -0.6340     0.7050 H     1 <1>   0.0800 
 35 H       -9.7040     0.3300     2.1340 H     1 <1>   0.0800 
 36 H       -6.5170     1.4790     1.4560 H     1 <1>   0.0800 
 37 H       -7.9490     1.8840     2.3610 H     1 <1>   0.0800 
 38 H       -6.7710     3.3840     0.0750 H     1 <1>   0.0800 
 39 H       -7.6170     4.0000     1.4950 H     1 <1>   0.0800 
 40 H       -9.3050     5.2080    -0.5220 H     1 <1>   0.1500 
 41 H      -12.8280     3.1750    -2.1060 H     1 <1>   0.4000 
 42 H      -12.6180     1.4840    -1.7890 H     1 <1>   0.4000 
@<TRIPOS>BOND
  1   1   2  1   
  2   2   3  1   
  3   2   4  1   
  4   2   5  1   
  5   5   6  ar  
  6   5   7  ar  
  7   6   8  ar  
  8   7   9  ar  
  9   7  26  1   
 10   8  10  ar  
 11   8  11  1   
 12   9  10  ar  
 13   9  27  1   
 14  11  12  1   
 15  11  13  1   
 16  12  14  1   
 17  12  28  1   
 18  12  29  1   
 19  13  15  1   
 20  13  30  1   
 21  13  31  1   
 22  14  16  1   
 23  14  17  1   
 24  14  18  1   
 25  15  17  1   
 26  15  32  1   
 27  15  33  1   
 28  16  19  ar  
 29  16  20  ar  
 30  17  34  1   
 31  17  35  1   
 32  18  21  1   
 33  18  36  1   
 34  18  37  1   
 35  19  22  ar  
 36  20  21  1   
 37  20  23  ar  
 38  21  38  1   
 39  21  39  1   
 40  22  24  ar  
 41  22  25  1   
 42  23  24  ar  
 43  23  40  1   
 44  25  41  1   
 45  25  42  1   
@<TRIPOS>SUBSTRUCTURE
  1 ****  12 GROUP 4 **** **** 0

# MOE 2024.06 (io_trps.svl 2023.06)
