@<TRIPOS>MOLECULE
NONAME
45 48 1 0 0 
SMALL
USER_CHARGES


@<TRIPOS>ATOM
  1 S        0.1690    -0.0900    -0.2760 S.3   1 <1>  -0.0800 
  2 C       -1.5880     0.0400    -0.3280 C.2   1 <1>   0.3250 
  3 C        0.3050     1.6160    -0.0490 C.2   1 <1>  -0.1100 
  4 N       -1.9710     1.2680    -0.1860 N.2   1 <1>  -0.5650 
  5 C       -2.3650    -1.1820    -0.5180 C.ar  1 <1>   0.6730 
  6 C       -0.9230     2.1790    -0.0240 C.2   1 <1>   0.1410 
  7 N       -3.6970    -1.0710    -0.6390 N.ar  1 <1>  -0.6200 
  8 N       -1.7080    -2.3530    -0.5640 N.ar  1 <1>  -0.6200 
  9 C       -1.1710     3.6060     0.1440 C.2   1 <1>   0.7160 
 10 C       -4.3860    -2.1730    -0.8070 C.ar  1 <1>   0.1600 
 11 C       -2.4200    -3.4410    -0.7330 C.ar  1 <1>   0.1600 
 12 O       -2.1190     4.0200     0.7900 O.2   1 <1>  -0.5700 
 13 N       -0.2790     4.4820    -0.4110 N.am  1 <1>  -0.4930 
 14 C       -3.7850    -3.4040    -0.8610 C.ar  1 <1>  -0.1500 
 15 C       -0.0920     5.8690    -0.2000 C.2   1 <1>   0.0630 
 16 C        1.1790     6.4360    -0.0640 C.2   1 <1>   0.3720 
 17 C       -0.9510     6.9070    -0.1000 C.2   1 <1>  -0.3320 
 18 N        1.1350     7.7160     0.1280 N.2   1 <1>  -0.7070 
 19 N        2.3760     5.6940    -0.1240 N.pl3 1 <1>  -0.8210 
 20 N       -0.1860     8.0080     0.1150 N.pl3 1 <1>   0.3140 
 21 C       -2.4690     6.9290    -0.2080 C.3   1 <1>  -0.0600 
 22 C        3.3420     6.2650    -1.1070 C.3   1 <1>   0.2090 
 23 C        3.0490     5.6510     1.2030 C.3   1 <1>   0.2090 
 24 C       -0.6530     9.3850     0.3150 C.3   1 <1>   0.0160 
 25 C        4.5540     6.7240    -0.3090 C.3   1 <1>  -0.1600 
 26 C        4.5320     5.8480     0.9310 C.3   1 <1>  -0.1600 
 27 H        1.2900     2.0330     0.0510 H     1 <1>   0.1500 
 28 H       -5.4560    -2.0890    -0.9030 H     1 <1>   0.1500 
 29 H       -1.9020    -4.3850    -0.7690 H     1 <1>   0.1500 
 30 H        0.5670     4.0640    -0.7940 H     1 <1>   0.3700 
 31 H       -4.3590    -4.3010    -0.9990 H     1 <1>   0.1500 
 32 H       -2.8280     6.0100    -0.6340 H     1 <1>   0.0800 
 33 H       -2.7930     7.7350    -0.8410 H     1 <1>   0.0800 
 34 H       -2.9060     7.0450     0.7680 H     1 <1>   0.0800 
 35 H        2.9140     7.0820    -1.6650 H     1 <1>   0.0800 
 36 H        3.6270     5.4890    -1.7960 H     1 <1>   0.0800 
 37 H        2.8630     4.7090     1.6880 H     1 <1>   0.0800 
 38 H        2.6860     6.4480     1.8320 H     1 <1>   0.0800 
 39 H       -1.3970     9.3960     1.0880 H     1 <1>   0.0800 
 40 H       -1.0700     9.7510    -0.6040 H     1 <1>   0.0800 
 41 H        0.1780    10.0000     0.6050 H     1 <1>   0.0800 
 42 H        4.4110     7.7550    -0.0330 H     1 <1>   0.0800 
 43 H        5.4660     6.6300    -0.8710 H     1 <1>   0.0800 
 44 H        4.9820     4.8940     0.7200 H     1 <1>   0.0800 
 45 H        5.0340     6.3040     1.7660 H     1 <1>   0.0800 
@<TRIPOS>BOND
  1   1   2  1   
  2   1   3  1   
  3   2   4  2   
  4   2   5  1   
  5   3   6  2   
  6   3  27  1   
  7   4   6  1   
  8   5   7  ar  
  9   5   8  ar  
 10   6   9  1   
 11   7  10  ar  
 12   8  11  ar  
 13   9  12  2   
 14   9  13  am  
 15  10  14  ar  
 16  10  28  1   
 17  11  14  ar  
 18  11  29  1   
 19  13  15  1   
 20  13  30  1   
 21  14  31  1   
 22  15  16  1   
 23  15  17  2   
 24  16  18  2   
 25  16  19  1   
 26  17  20  1   
 27  17  21  1   
 28  18  20  1   
 29  19  22  1   
 30  19  23  1   
 31  20  24  1   
 32  21  32  1   
 33  21  33  1   
 34  21  34  1   
 35  22  25  1   
 36  22  35  1   
 37  22  36  1   
 38  23  26  1   
 39  23  37  1   
 40  23  38  1   
 41  24  39  1   
 42  24  40  1   
 43  24  41  1   
 44  25  26  1   
 45  25  42  1   
 46  25  43  1   
 47  26  44  1   
 48  26  45  1   
@<TRIPOS>SUBSTRUCTURE
  1 ****   9 GROUP 4 **** **** 0

# MOE 2024.06 (io_trps.svl 2023.06)
