@<TRIPOS>MOLECULE
NONAME
51 54 1 0 0 
SMALL
USER_CHARGES


@<TRIPOS>ATOM
  1 CL       0.2890    -1.0220     1.7840 Cl    1 <1>  -0.1770 
  2 C       -0.6710    -2.2850     1.0590 C.ar  1 <1>   0.1770 
  3 C       -1.6070    -2.9550     1.8220 C.ar  1 <1>  -0.1500 
  4 C       -0.4830    -2.6020    -0.2720 C.ar  1 <1>  -0.1500 
  5 C       -2.3610    -3.9590     1.2400 C.ar  1 <1>  -0.1500 
  6 C       -1.2460    -3.6060    -0.8420 C.ar  1 <1>  -0.1500 
  7 C       -2.2020    -4.3080    -0.1020 C.ar  1 <1>   0.0530 
  8 C       -2.9690    -5.3640    -0.7190 C.2   1 <1>   0.0870 
  9 O       -2.3920    -6.1140    -1.6320 O.3   1 <1>  -0.0190 
 10 C       -4.2380    -5.8340    -0.5720 C.2   1 <1>  -0.2330 
 11 N       -3.1760    -7.0500    -2.0970 N.2   1 <1>  -0.4100 
 12 C       -4.2900    -6.8870    -1.4820 C.2   1 <1>   0.3720 
 13 C       -5.3320    -5.4480     0.2720 C.2   1 <1>   1.0330 
 14 N       -5.4010    -7.6890    -1.6760 N.pl3 1 <1>  -0.8520 
 15 O       -5.3320    -4.3730     0.8860 O.co2 1 <1>  -0.9000 
 16 O       -6.3110    -6.2090     0.4190 O.co2 1 <1>  -0.9000 
 17 C       -5.2600    -8.9980    -1.0330 C.3   1 <1>   0.2090 
 18 C       -6.6080    -9.7430    -1.0300 C.3   1 <1>  -0.0800 
 19 C       -6.5140   -11.1780    -0.4320 C.3   1 <1>   0.4230 
 20 C       -7.7380    -8.9130    -0.3730 C.3   1 <1>  -0.1600 
 21 N       -7.7870   -11.5650     0.2600 N.4   1 <1>  -0.9590 
 22 C       -5.3660   -11.4090     0.5720 C.3   1 <1>  -0.1600 
 23 C       -9.0960    -9.6320    -0.4640 C.3   1 <1>  -0.1600 
 24 C       -8.9850   -11.1570    -0.5100 C.3   1 <1>   0.3430 
 25 C       -7.8200   -13.0010     0.6400 C.3   1 <1>   0.3430 
 26 C       -5.3320   -12.8550     1.0910 C.3   1 <1>  -0.1600 
 27 C       -6.7000   -13.2730     1.6430 C.3   1 <1>  -0.1600 
 28 H       -1.7480    -2.6950     2.8550 H     1 <1>   0.1500 
 29 H        0.2490    -2.0680    -0.8510 H     1 <1>   0.1500 
 30 H       -3.0920    -4.4790     1.8350 H     1 <1>   0.1500 
 31 H       -1.1060    -3.8540    -1.8800 H     1 <1>   0.1500 
 32 H       -6.1480    -7.1950    -1.1410 H     1 <1>   0.4000 
 33 H       -4.5160    -9.5620    -1.5710 H     1 <1>   0.0800 
 34 H       -4.9160    -8.8410    -0.0230 H     1 <1>   0.0800 
 35 H       -6.8670    -9.8650    -2.0670 H     1 <1>   0.0800 
 36 H       -6.3540   -11.8520    -1.2580 H     1 <1>   0.0800 
 37 H       -7.4880    -8.7250     0.6580 H     1 <1>   0.0800 
 38 H       -7.8390    -7.9500    -0.8460 H     1 <1>   0.0800 
 39 H       -7.8000   -11.0080     1.1240 H     1 <1>   0.4500 
 40 H       -4.4190   -11.2160     0.1000 H     1 <1>   0.0800 
 41 H       -5.4640   -10.7250     1.3970 H     1 <1>   0.0800 
 42 H       -9.6100    -9.3090    -1.3530 H     1 <1>   0.0800 
 43 H       -9.7070    -9.3360     0.3720 H     1 <1>   0.0800 
 44 H       -8.8850   -11.4840    -1.5330 H     1 <1>   0.0800 
 45 H       -9.8780   -11.5960    -0.0940 H     1 <1>   0.0800 
 46 H       -8.7700   -13.2460     1.0880 H     1 <1>   0.0800 
 47 H       -7.6850   -13.6160    -0.2350 H     1 <1>   0.0800 
 48 H       -5.0550   -13.5160     0.2860 H     1 <1>   0.0800 
 49 H       -4.5840   -12.9480     1.8610 H     1 <1>   0.0800 
 50 H       -6.9040   -12.7430     2.5570 H     1 <1>   0.0800 
 51 H       -6.6840   -14.3240     1.8780 H     1 <1>   0.0800 
@<TRIPOS>BOND
  1   1   2  1   
  2   2   3  ar  
  3   2   4  ar  
  4   3   5  ar  
  5   3  28  1   
  6   4   6  ar  
  7   4  29  1   
  8   5   7  ar  
  9   5  30  1   
 10   6   7  ar  
 11   6  31  1   
 12   7   8  1   
 13   8   9  1   
 14   8  10  2   
 15   9  11  1   
 16  10  12  1   
 17  10  13  1   
 18  11  12  2   
 19  12  14  1   
 20  13  15  ar  
 21  13  16  ar  
 22  14  17  1   
 23  14  32  1   
 24  17  18  1   
 25  17  33  1   
 26  17  34  1   
 27  18  19  1   
 28  18  20  1   
 29  18  35  1   
 30  19  21  1   
 31  19  22  1   
 32  19  36  1   
 33  20  23  1   
 34  20  37  1   
 35  20  38  1   
 36  21  24  1   
 37  21  25  1   
 38  21  39  1   
 39  22  26  1   
 40  22  40  1   
 41  22  41  1   
 42  23  24  1   
 43  23  42  1   
 44  23  43  1   
 45  24  44  1   
 46  24  45  1   
 47  25  27  1   
 48  25  46  1   
 49  25  47  1   
 50  26  27  1   
 51  26  48  1   
 52  26  49  1   
 53  27  50  1   
 54  27  51  1   
@<TRIPOS>SUBSTRUCTURE
  1 ****  12 GROUP 4 **** **** 0

# MOE 2024.06 (io_trps.svl 2023.06)
