@<TRIPOS>MOLECULE
NONAME
37 38 1 0 0 
SMALL
USER_CHARGES


@<TRIPOS>ATOM
  1 CL       0.0320    -1.5390    -1.9440 Cl    1 <1>  -0.1770 
  2 C        1.1600    -2.6760    -1.2280 C.ar  1 <1>   0.1770 
  3 C        0.8180    -3.4100    -0.1000 C.ar  1 <1>   0.4100 
  4 C        2.4000    -2.8650    -1.7740 C.ar  1 <1>   0.1600 
  5 N        1.6770    -4.2650     0.4220 N.ar  1 <1>  -0.6200 
  6 N       -0.4140    -3.3050     0.5040 N.pl3 1 <1>  -0.8690 
  7 N        3.2660    -3.7210    -1.2550 N.ar  1 <1>  -0.6200 
  8 C        2.8490    -4.3670    -0.1790 C.ar  1 <1>   0.4770 
  9 C       -0.7570    -3.8390     1.8510 C.3   1 <1>   0.3890 
 10 C        3.8320    -5.3360     0.4340 C.3   1 <1>  -0.0960 
 11 C       -1.9670    -4.7560     1.7800 C.2   1 <1>   0.0070 
 12 N       -3.0550    -4.5530     2.4430 N.2   1 <1>  -0.3380 
 13 N       -2.0420    -5.8740     1.0450 N.pl3 1 <1>   0.0480 
 14 N       -3.8850    -5.5550     2.1530 N.2   1 <1>  -0.3380 
 15 C       -3.2660    -6.3220     1.3260 C.2   1 <1>   0.0370 
 16 C       -1.0690    -6.4840     0.1130 C.3   1 <1>   0.0960 
 17 C        0.0210    -7.2560     0.8640 C.3   1 <1>  -0.1600 
 18 C        1.0420    -7.8230    -0.1200 C.3   1 <1>   0.1200 
 19 O        2.0320    -8.4580     0.6160 O.3   1 <1>  -0.5600 
 20 C        3.0010    -9.0840    -0.1610 C.3   1 <1>   0.0400 
 21 H        2.6930    -2.3100    -2.6480 H     1 <1>   0.1500 
 22 H       -1.0890    -2.6280     0.1340 H     1 <1>   0.4000 
 23 H       -0.9820    -3.0140     2.5050 H     1 <1>   0.0800 
 24 H        0.0680    -4.3770     2.2810 H     1 <1>   0.0800 
 25 H        3.3330    -6.0020     1.1150 H     1 <1>   0.0800 
 26 H        4.5840    -4.7890     0.9690 H     1 <1>   0.0800 
 27 H        4.3010    -5.9170    -0.3370 H     1 <1>   0.0800 
 28 H       -3.6760    -7.2210     0.9030 H     1 <1>   0.1500 
 29 H       -0.6280    -5.7080    -0.4850 H     1 <1>   0.0800 
 30 H       -1.5970    -7.1500    -0.5460 H     1 <1>   0.0800 
 31 H       -0.4220    -8.0640     1.4190 H     1 <1>   0.0800 
 32 H        0.5310    -6.5970     1.5430 H     1 <1>   0.0800 
 33 H        1.4960    -7.0340    -0.6970 H     1 <1>   0.0800 
 34 H        0.5810    -8.5430    -0.7760 H     1 <1>   0.0800 
 35 H        3.7270    -9.5220     0.5000 H     1 <1>   0.0800 
 36 H        3.4780    -8.3550    -0.7940 H     1 <1>   0.0800 
 37 H        2.5380    -9.8550    -0.7530 H     1 <1>   0.0800 
@<TRIPOS>BOND
  1   1   2  1   
  2   2   3  ar  
  3   2   4  ar  
  4   3   5  ar  
  5   3   6  1   
  6   4   7  ar  
  7   4  21  1   
  8   5   8  ar  
  9   6   9  1   
 10   6  22  1   
 11   7   8  ar  
 12   8  10  1   
 13   9  11  1   
 14   9  23  1   
 15   9  24  1   
 16  10  25  1   
 17  10  26  1   
 18  10  27  1   
 19  11  12  2   
 20  11  13  1   
 21  12  14  1   
 22  13  15  1   
 23  13  16  1   
 24  14  15  2   
 25  15  28  1   
 26  16  17  1   
 27  16  29  1   
 28  16  30  1   
 29  17  18  1   
 30  17  31  1   
 31  17  32  1   
 32  18  19  1   
 33  18  33  1   
 34  18  34  1   
 35  19  20  1   
 36  20  35  1   
 37  20  36  1   
 38  20  37  1   
@<TRIPOS>SUBSTRUCTURE
  1 ****   5 GROUP 4 **** **** 0

# MOE 2024.06 (io_trps.svl 2023.06)
