@<TRIPOS>MOLECULE
NONAME
47 49 1 0 0 
SMALL
USER_CHARGES


@<TRIPOS>ATOM
  1 S        1.4330    -0.0370     1.1750 S.o2  1 <1>   1.3330 
  2 O        2.4480    -0.8260     1.8350 O.2   1 <1>  -0.6500 
  3 O        0.8300     1.0750     1.8740 O.2   1 <1>  -0.6500 
  4 N        0.1940    -1.0930     0.6920 N.am  1 <1>  -0.8490 
  5 C        2.0520     0.5770    -0.3930 C.3   1 <1>  -0.0550 
  6 C       -0.8690    -1.1970     1.6950 C.3   1 <1>   0.1160 
  7 C        0.6780    -2.4320     0.3370 C.3   1 <1>   0.1160 
  8 C        3.1540     1.6460    -0.2500 C.3   1 <1>  -0.0800 
  9 C        3.4660     2.2890    -1.5910 C.3   1 <1>   0.2200 
 10 C        4.5060     1.0290     0.1100 C.3   1 <1>   0.1200 
 11 N        4.0740     3.6160    -1.3590 N.am  1 <1>  -0.7300 
 12 C        4.5060     1.3350    -2.1770 C.3   1 <1>   0.1200 
 13 O        5.0960     0.6640    -1.1010 O.3   1 <1>  -0.5600 
 14 C        3.5360     4.8070    -1.7230 C.2   1 <1>   0.5690 
 15 O        2.4910     4.8720    -2.3230 O.2   1 <1>  -0.5700 
 16 C        4.2580     6.0970    -1.3670 C.3   1 <1>   0.0440 
 17 C        5.5570     5.8630    -0.5980 C.ar  1 <1>  -0.1430 
 18 C        5.5190     5.6760     0.7800 C.ar  1 <1>  -0.1500 
 19 C        6.7760     5.8170    -1.2760 C.ar  1 <1>  -0.1500 
 20 C        6.7090     5.4430     1.4400 C.ar  1 <1>   0.0820 
 21 C        7.9630     5.5840    -0.5940 C.ar  1 <1>  -0.1500 
 22 O        6.9060     5.2300     2.7450 O.3   1 <1>  -0.3630 
 23 C        7.8980     5.3990     0.7720 C.ar  1 <1>   0.0820 
 24 C        8.3090     5.0480     2.9220 C.3   1 <1>   0.4000 
 25 O        8.8980     5.1600     1.6270 O.3   1 <1>  -0.3630 
 26 H        2.4200    -0.2420    -0.9790 H     1 <1>   0.0800 
 27 H        1.2250     1.0110    -0.9210 H     1 <1>   0.0800 
 28 H       -1.6440    -1.8610     1.3510 H     1 <1>   0.0800 
 29 H       -1.3100    -0.2290     1.8670 H     1 <1>   0.0800 
 30 H       -0.4710    -1.5660     2.6260 H     1 <1>   0.0800 
 31 H       -0.1330    -3.0270    -0.0490 H     1 <1>   0.0800 
 32 H        1.0930    -2.9240     1.2020 H     1 <1>   0.0800 
 33 H        1.4400    -2.3650    -0.4200 H     1 <1>   0.0800 
 34 H        2.8440     2.3800     0.4750 H     1 <1>   0.0800 
 35 H        2.6030     2.3830    -2.2280 H     1 <1>   0.0800 
 36 H        4.4380     0.1620     0.7430 H     1 <1>   0.0800 
 37 H        5.1450     1.7590     0.5770 H     1 <1>   0.0800 
 38 H        4.9750     3.6130    -0.8690 H     1 <1>   0.3700 
 39 H        5.2650     1.8500    -2.7400 H     1 <1>   0.0800 
 40 H        4.0330     0.5940    -2.7970 H     1 <1>   0.0800 
 41 H        4.4590     6.6320    -2.2750 H     1 <1>   0.0800 
 42 H        3.5940     6.7010    -0.7770 H     1 <1>   0.0800 
 43 H        4.5980     5.7030     1.3350 H     1 <1>   0.1500 
 44 H        6.8070     5.9620    -2.3430 H     1 <1>   0.1500 
 45 H        8.9100     5.5460    -1.1010 H     1 <1>   0.1500 
 46 H        8.6950     5.8210     3.5620 H     1 <1>   0.0800 
 47 H        8.4990     4.0670     3.3210 H     1 <1>   0.0800 
@<TRIPOS>BOND
  1   1   2  2   
  2   1   3  2   
  3   1   4  am  
  4   1   5  1   
  5   4   6  1   
  6   4   7  1   
  7   5   8  1   
  8   5  26  1   
  9   5  27  1   
 10   6  28  1   
 11   6  29  1   
 12   6  30  1   
 13   7  31  1   
 14   7  32  1   
 15   7  33  1   
 16   8   9  1   
 17   8  10  1   
 18   8  34  1   
 19   9  11  1   
 20   9  12  1   
 21   9  35  1   
 22  10  13  1   
 23  10  36  1   
 24  10  37  1   
 25  11  14  am  
 26  11  38  1   
 27  12  13  1   
 28  12  39  1   
 29  12  40  1   
 30  14  15  2   
 31  14  16  1   
 32  16  17  1   
 33  16  41  1   
 34  16  42  1   
 35  17  18  ar  
 36  17  19  ar  
 37  18  20  ar  
 38  18  43  1   
 39  19  21  ar  
 40  19  44  1   
 41  20  22  1   
 42  20  23  ar  
 43  21  23  ar  
 44  21  45  1   
 45  22  24  1   
 46  23  25  1   
 47  24  25  1   
 48  24  46  1   
 49  24  47  1   
@<TRIPOS>SUBSTRUCTURE
  1 ****  11 GROUP 4 **** **** 0

# MOE 2024.06 (io_trps.svl 2023.06)
