@<TRIPOS>MOLECULE
NONAME
52 54 1 0 0 
SMALL
USER_CHARGES


@<TRIPOS>ATOM
  1 S        0.0100     0.8180     1.1130 S.o2  1 <1>   1.3330 
  2 O        0.0650     0.0650     2.3470 O.2   1 <1>  -0.6500 
  3 O        0.4490     2.1960     1.0920 O.2   1 <1>  -0.6500 
  4 N       -1.5830     0.7750     0.5350 N.am  1 <1>  -0.8490 
  5 C        0.8870    -0.1210    -0.1400 C.3   1 <1>  -0.0550 
  6 C       -2.5600     0.8980     1.6200 C.3   1 <1>   0.1960 
  7 C       -1.8380     1.8110    -0.4680 C.3   1 <1>   0.1960 
  8 C        2.3730    -0.3590     0.1740 C.3   1 <1>  -0.0800 
  9 C       -3.9710     0.6620     1.0800 C.3   1 <1>  -0.1600 
 10 C       -3.2160     1.6000    -1.0970 C.3   1 <1>  -0.1600 
 11 C        3.2250     0.9090     0.1490 C.3   1 <1>  -0.1600 
 12 C        3.0500    -1.2620    -0.8540 C.3   1 <1>  -0.1600 
 13 C       -4.3480     1.6390    -0.0480 C.3   1 <1>   0.2800 
 14 C        4.6540     0.4360    -0.1280 C.3   1 <1>  -0.1600 
 15 C        4.5430    -0.9880    -0.6840 C.3   1 <1>  -0.1600 
 16 O       -4.3320     2.9230     0.5380 O.3   1 <1>  -0.5600 
 17 C       -5.7600     1.2810    -0.6410 C.3   1 <1>   0.2000 
 18 C       -5.1490     3.9040    -0.0140 C.3   1 <1>   0.1200 
 19 O       -5.8250     1.5760    -2.0160 O.3   1 <1>  -0.6800 
 20 C       -6.9110     2.0210     0.0960 C.3   1 <1>   0.2800 
 21 C       -6.6310     3.5370     0.1670 C.3   1 <1>  -0.1600 
 22 O       -6.9910     1.5470     1.3910 O.3   1 <1>  -0.6800 
 23 C       -8.2950     1.7370    -0.5030 C.3   1 <1>  -0.2400 
 24 H        0.4080    -1.0760    -0.2360 H     1 <1>   0.0800 
 25 H        0.8020     0.3790    -1.0840 H     1 <1>   0.0800 
 26 H       -2.3620     0.1610     2.3810 H     1 <1>   0.0800 
 27 H       -2.4900     1.8750     2.0730 H     1 <1>   0.0800 
 28 H       -1.7880     2.7870    -0.0120 H     1 <1>   0.0800 
 29 H       -1.0900     1.7640    -1.2400 H     1 <1>   0.0800 
 30 H        2.4660    -0.8190     1.1450 H     1 <1>   0.0800 
 31 H       -4.6650     0.7500     1.8940 H     1 <1>   0.0800 
 32 H       -4.0270    -0.3490     0.7180 H     1 <1>   0.0800 
 33 H       -3.2230     0.6460    -1.5930 H     1 <1>   0.0800 
 34 H       -3.3720     2.3540    -1.8440 H     1 <1>   0.0800 
 35 H        2.9060     1.5520    -0.6540 H     1 <1>   0.0800 
 36 H        3.1600     1.4550     1.0760 H     1 <1>   0.0800 
 37 H        2.8130    -2.3010    -0.6990 H     1 <1>   0.0800 
 38 H        2.7510    -0.9760    -1.8480 H     1 <1>   0.0800 
 39 H        5.1390     1.0910    -0.8310 H     1 <1>   0.0800 
 40 H        5.2250     0.4260     0.7850 H     1 <1>   0.0800 
 41 H        4.9570    -1.6820     0.0290 H     1 <1>   0.0800 
 42 H        5.0700    -1.0940    -1.6170 H     1 <1>   0.0800 
 43 H       -5.9200     0.2200    -0.5680 H     1 <1>   0.0800 
 44 H       -4.9310     4.8320     0.4860 H     1 <1>   0.0800 
 45 H       -4.8940     4.0110    -1.0530 H     1 <1>   0.0800 
 46 H       -5.6910     2.5310    -2.1540 H     1 <1>   0.4000 
 47 H       -7.1730     4.0400    -0.6130 H     1 <1>   0.0800 
 48 H       -6.9860     3.9410     1.0980 H     1 <1>   0.0800 
 49 H       -7.6840     2.0290     1.8760 H     1 <1>   0.4000 
 50 H       -8.3460     2.0880    -1.5170 H     1 <1>   0.0800 
 51 H       -9.0660     2.2300     0.0600 H     1 <1>   0.0800 
 52 H       -8.4820     0.6780    -0.5120 H     1 <1>   0.0800 
@<TRIPOS>BOND
  1   1   2  2   
  2   1   3  2   
  3   1   4  am  
  4   1   5  1   
  5   4   6  1   
  6   4   7  1   
  7   5   8  1   
  8   5  24  1   
  9   5  25  1   
 10   6   9  1   
 11   6  26  1   
 12   6  27  1   
 13   7  10  1   
 14   7  28  1   
 15   7  29  1   
 16   8  11  1   
 17   8  12  1   
 18   8  30  1   
 19   9  13  1   
 20   9  31  1   
 21   9  32  1   
 22  10  13  1   
 23  10  33  1   
 24  10  34  1   
 25  11  14  1   
 26  11  35  1   
 27  11  36  1   
 28  12  15  1   
 29  12  37  1   
 30  12  38  1   
 31  13  16  1   
 32  13  17  1   
 33  14  15  1   
 34  14  39  1   
 35  14  40  1   
 36  15  41  1   
 37  15  42  1   
 38  16  18  1   
 39  17  19  1   
 40  17  20  1   
 41  17  43  1   
 42  18  21  1   
 43  18  44  1   
 44  18  45  1   
 45  19  46  1   
 46  20  21  1   
 47  20  22  1   
 48  20  23  1   
 49  21  47  1   
 50  21  48  1   
 51  22  49  1   
 52  23  50  1   
 53  23  51  1   
 54  23  52  1   
@<TRIPOS>SUBSTRUCTURE
  1 ****   4 GROUP 4 **** **** 0

# MOE 2024.06 (io_trps.svl 2023.06)
