@<TRIPOS>MOLECULE
NONAME
52 55 1 0 0 
SMALL
USER_CHARGES


@<TRIPOS>ATOM
  1 O       -0.2210     1.0120     0.8200 O.2   1 <1>  -0.5700 
  2 C       -0.3230     2.2070     0.6700 C.2   1 <1>   0.5690 
  3 N       -1.4600     2.8940     0.9940 N.am  1 <1>  -0.6600 
  4 C        0.8630     2.9550     0.0600 C.3   1 <1>   0.1810 
  5 C       -1.5680     4.3740     0.7680 C.3   1 <1>   0.3640 
  6 C       -2.6110     2.2530     1.6940 C.3   1 <1>   0.0600 
  7 O        0.8660     4.3270     0.3670 O.3   1 <1>  -0.5600 
  8 C       -2.8620     4.7210     0.0090 C.ar  1 <1>  -0.1430 
  9 C       -0.3400     5.0050     0.0530 C.3   1 <1>   0.2610 
 10 C       -3.2810     4.1150    -1.1810 C.ar  1 <1>  -0.1430 
 11 C       -3.6540     5.7210     0.5620 C.ar  1 <1>  -0.1500 
 12 C       -0.1960     6.5130     0.3480 C.2   1 <1>   0.5690 
 13 C       -4.4690     4.5220    -1.7730 C.ar  1 <1>  -0.1500 
 14 C       -2.5160     2.9970    -1.8840 C.3   1 <1>  -0.0960 
 15 C       -4.8340     6.1190    -0.0370 C.ar  1 <1>  -0.1500 
 16 O       -0.8640     7.0050     1.2310 O.2   1 <1>  -0.5700 
 17 N        0.6760     7.2920    -0.3790 N.am  1 <1>  -0.6600 
 18 C       -5.2430     5.5180    -1.2090 C.ar  1 <1>  -0.1500 
 19 C        0.9000     8.7250    -0.0340 C.3   1 <1>   0.2840 
 20 C        1.6190     6.7900    -1.4090 C.3   1 <1>   0.1400 
 21 C        2.3860     9.0560     0.1140 C.ar  1 <1>  -0.1430 
 22 C        3.0310     6.7980    -0.8260 C.3   1 <1>  -0.0170 
 23 C        3.3940     8.1640    -0.2450 C.ar  1 <1>  -0.1430 
 24 C        2.7220    10.3010     0.6280 C.ar  1 <1>  -0.1500 
 25 C        4.7230     8.5370    -0.0600 C.ar  1 <1>   0.0820 
 26 C        4.0470    10.6670     0.7920 C.ar  1 <1>  -0.1500 
 27 O        5.7280     7.6960    -0.3530 O.3   1 <1>  -0.5330 
 28 C        5.0490     9.7810     0.4470 C.ar  1 <1>  -0.1500 
 29 H        0.8490     2.8420    -1.0080 H     1 <1>   0.0800 
 30 H        1.7750     2.5350     0.4420 H     1 <1>   0.0800 
 31 H       -1.6260     4.8090     1.7500 H     1 <1>   0.0800 
 32 H       -2.8100     2.7700     2.6160 H     1 <1>   0.0800 
 33 H       -2.3950     1.2220     1.9170 H     1 <1>   0.0800 
 34 H       -3.4880     2.2930     1.0710 H     1 <1>   0.0800 
 35 H       -0.4900     4.9130    -1.0040 H     1 <1>   0.0800 
 36 H       -3.3550     6.2100     1.4740 H     1 <1>   0.1500 
 37 H       -4.8080     4.0620    -2.6840 H     1 <1>   0.1500 
 38 H       -2.8840     2.8480    -2.8830 H     1 <1>   0.0800 
 39 H       -2.6400     2.0740    -1.3460 H     1 <1>   0.0800 
 40 H       -1.4710     3.2210    -1.9560 H     1 <1>   0.0800 
 41 H       -5.4290     6.8970     0.4090 H     1 <1>   0.1500 
 42 H       -6.1610     5.8230    -1.6810 H     1 <1>   0.1500 
 43 H        0.4790     9.3360    -0.8120 H     1 <1>   0.0800 
 44 H        0.3990     8.9730     0.8860 H     1 <1>   0.0800 
 45 H        1.3650     5.7990    -1.7350 H     1 <1>   0.0800 
 46 H        1.5800     7.4420    -2.2660 H     1 <1>   0.0800 
 47 H        3.0960     6.0540    -0.0510 H     1 <1>   0.0800 
 48 H        3.7160     6.5330    -1.6110 H     1 <1>   0.0800 
 49 H        1.9500    10.9970     0.9080 H     1 <1>   0.1500 
 50 H        4.2960    11.6350     1.1890 H     1 <1>   0.1500 
 51 H        5.4160     6.8050    -0.5760 H     1 <1>   0.4500 
 52 H        6.0830    10.0470     0.5740 H     1 <1>   0.1500 
@<TRIPOS>BOND
  1   1   2  2   
  2   2   3  am  
  3   2   4  1   
  4   3   5  1   
  5   3   6  1   
  6   4   7  1   
  7   4  29  1   
  8   4  30  1   
  9   5   8  1   
 10   5   9  1   
 11   5  31  1   
 12   6  32  1   
 13   6  33  1   
 14   6  34  1   
 15   7   9  1   
 16   8  10  ar  
 17   8  11  ar  
 18   9  12  1   
 19   9  35  1   
 20  10  13  ar  
 21  10  14  1   
 22  11  15  ar  
 23  11  36  1   
 24  12  16  2   
 25  12  17  am  
 26  13  18  ar  
 27  13  37  1   
 28  14  38  1   
 29  14  39  1   
 30  14  40  1   
 31  15  18  ar  
 32  15  41  1   
 33  17  19  1   
 34  17  20  1   
 35  18  42  1   
 36  19  21  1   
 37  19  43  1   
 38  19  44  1   
 39  20  22  1   
 40  20  45  1   
 41  20  46  1   
 42  21  23  ar  
 43  21  24  ar  
 44  22  23  1   
 45  22  47  1   
 46  22  48  1   
 47  23  25  ar  
 48  24  26  ar  
 49  24  49  1   
 50  25  27  1   
 51  25  28  ar  
 52  26  28  ar  
 53  26  50  1   
 54  27  51  1   
 55  28  52  1   
@<TRIPOS>SUBSTRUCTURE
  1 ****  12 GROUP 4 **** **** 0

# MOE 2024.06 (io_trps.svl 2023.06)
