@<TRIPOS>MOLECULE
NONAME
48 50 1 0 0 
SMALL
USER_CHARGES


@<TRIPOS>ATOM
  1 F        0.9420     0.8450     1.1430 F     1 <1>  -0.1900 
  2 C        2.0090     1.5960     1.1880 C.ar  1 <1>   0.1900 
  3 C        1.8930     2.8910     1.6520 C.ar  1 <1>  -0.1500 
  4 C        3.2150     1.0670     0.7710 C.ar  1 <1>  -0.1500 
  5 C        3.0280     3.6830     1.6960 C.ar  1 <1>  -0.1500 
  6 C        4.3420     1.8700     0.8190 C.ar  1 <1>  -0.1500 
  7 C        4.2540     3.1810     1.2740 C.ar  1 <1>  -0.1430 
  8 C        5.5040     4.0590     1.3290 C.3   1 <1>  -0.0160 
  9 C        5.7740     4.9120     0.0680 C.3   1 <1>   0.3690 
 10 N        6.9870     5.7060     0.3560 N.pl3 1 <1>  -0.8690 
 11 C        4.6270     5.8900    -0.2030 C.3   1 <1>  -0.2400 
 12 C        5.9980     4.0220    -1.1590 C.3   1 <1>  -0.2400 
 13 C        7.6010     6.5050    -0.5730 C.ar  1 <1>   0.4100 
 14 N        7.3620     7.7870    -0.3950 N.ar  1 <1>  -0.6200 
 15 C        8.4340     6.0150    -1.5910 C.ar  1 <1>   0.1600 
 16 C        7.9510     8.5810    -1.3070 C.ar  1 <1>   0.3960 
 17 N        9.0280     6.7610    -2.4990 N.ar  1 <1>  -0.6200 
 18 C        7.7750    10.0360    -1.2810 C.2   1 <1>   0.5440 
 19 C        8.7510     8.0470    -2.3230 C.ar  1 <1>   0.1600 
 20 O        7.8100    10.6480    -2.3370 O.2   1 <1>  -0.5700 
 21 N        7.5970    10.7820    -0.1290 N.am  1 <1>  -0.6600 
 22 C        7.5180    12.2600    -0.1370 C.3   1 <1>   0.1400 
 23 C        7.6350    10.2680     1.2600 C.3   1 <1>   0.1400 
 24 C        7.8870    12.6750     1.2810 C.3   1 <1>  -0.1600 
 25 C        7.4580    11.4960     2.1480 C.3   1 <1>  -0.1600 
 26 H        0.9380     3.2660     1.9720 H     1 <1>   0.1500 
 27 H        3.2650     0.0530     0.4190 H     1 <1>   0.1500 
 28 H        2.9510     4.6930     2.0590 H     1 <1>   0.1500 
 29 H        5.2880     1.4680     0.5000 H     1 <1>   0.1500 
 30 H        6.3580     3.4290     1.5040 H     1 <1>   0.0800 
 31 H        5.4170     4.7120     2.1780 H     1 <1>   0.0800 
 32 H        6.7900     6.2840     1.1750 H     1 <1>   0.4000 
 33 H        4.4510     6.5150     0.6530 H     1 <1>   0.0800 
 34 H        3.7230     5.3540    -0.4280 H     1 <1>   0.0800 
 35 H        4.8530     6.5140    -1.0490 H     1 <1>   0.0800 
 36 H        6.8360     3.3680    -1.0020 H     1 <1>   0.0800 
 37 H        6.1590     4.6140    -2.0410 H     1 <1>   0.0800 
 38 H        5.1280     3.4180    -1.3430 H     1 <1>   0.0800 
 39 H        8.6010     4.9560    -1.6290 H     1 <1>   0.1500 
 40 H        9.1890     8.7300    -3.0310 H     1 <1>   0.1500 
 41 H        6.5090    12.5540    -0.3700 H     1 <1>   0.0800 
 42 H        8.1930    12.6830    -0.8630 H     1 <1>   0.0800 
 43 H        8.5890     9.8020     1.4410 H     1 <1>   0.0800 
 44 H        6.8430     9.5580     1.4290 H     1 <1>   0.0800 
 45 H        7.4060    13.5940     1.5660 H     1 <1>   0.0800 
 46 H        8.9540    12.8040     1.3390 H     1 <1>   0.0800 
 47 H        8.0330    11.4210     3.0530 H     1 <1>   0.0800 
 48 H        6.4170    11.5920     2.4030 H     1 <1>   0.0800 
@<TRIPOS>BOND
  1   1   2  1   
  2   2   3  ar  
  3   2   4  ar  
  4   3   5  ar  
  5   3  26  1   
  6   4   6  ar  
  7   4  27  1   
  8   5   7  ar  
  9   5  28  1   
 10   6   7  ar  
 11   6  29  1   
 12   7   8  1   
 13   8   9  1   
 14   8  30  1   
 15   8  31  1   
 16   9  10  1   
 17   9  11  1   
 18   9  12  1   
 19  10  13  1   
 20  10  32  1   
 21  11  33  1   
 22  11  34  1   
 23  11  35  1   
 24  12  36  1   
 25  12  37  1   
 26  12  38  1   
 27  13  14  ar  
 28  13  15  ar  
 29  14  16  ar  
 30  15  17  ar  
 31  15  39  1   
 32  16  18  1   
 33  16  19  ar  
 34  17  19  ar  
 35  18  20  2   
 36  18  21  am  
 37  19  40  1   
 38  21  22  1   
 39  21  23  1   
 40  22  24  1   
 41  22  41  1   
 42  22  42  1   
 43  23  25  1   
 44  23  43  1   
 45  23  44  1   
 46  24  25  1   
 47  24  45  1   
 48  24  46  1   
 49  25  47  1   
 50  25  48  1   
@<TRIPOS>SUBSTRUCTURE
  1 ****  10 GROUP 4 **** **** 0

# MOE 2024.06 (io_trps.svl 2023.06)
