@<TRIPOS>MOLECULE
NONAME
48 50 1 0 0 
SMALL
USER_CHARGES


@<TRIPOS>ATOM
  1 O        2.8830    -2.6950     1.6270 O.2   1 <1>  -0.5700 
  2 C        2.6140    -1.8890     0.7540 C.2   1 <1>   0.5440 
  3 N        2.9980    -0.5730     0.9190 N.am  1 <1>  -0.6600 
  4 C        1.9100    -2.3310    -0.4360 C.ar  1 <1>   0.0860 
  5 C        3.9300    -0.2330     2.0390 C.3   1 <1>   0.1400 
  6 C        2.5230     0.5190     0.0270 C.3   1 <1>   0.1400 
  7 C        0.5440    -2.6450    -0.4450 C.ar  1 <1>  -0.1440 
  8 C        2.6130    -2.4350    -1.6350 C.ar  1 <1>  -0.1500 
  9 C        4.4650     1.2090     2.0870 C.3   1 <1>   0.1100 
 10 C        3.6590     1.0270    -0.8610 C.3   1 <1>  -0.1600 
 11 C       -0.0740    -3.0260    -1.6260 C.ar  1 <1>  -0.1500 
 12 C       -0.2970    -2.5790     0.8280 C.3   1 <1>  -0.0160 
 13 C        1.9930    -2.8180    -2.8090 C.ar  1 <1>  -0.1500 
 14 N        5.3190     1.5510     0.9260 N.3   1 <1>  -0.8100 
 15 C        4.5420     2.0870    -0.2010 C.3   1 <1>   0.1100 
 16 C        0.6430    -3.1110    -2.8050 C.ar  1 <1>  -0.1500 
 17 C       -0.8020    -1.1570     1.0830 C.3   1 <1>  -0.2400 
 18 C        6.4190     2.4680     1.3360 C.3   1 <1>   0.2900 
 19 C        7.5270     2.6660     0.3010 C.2   1 <1>   0.2980 
 20 O        7.3830     3.5130    -0.6700 O.3   1 <1>  -0.2800 
 21 N        8.6750     2.1000     0.2780 N.2   1 <1>  -0.3380 
 22 C        8.5030     3.4350    -1.3110 C.2   1 <1>   0.2980 
 23 N        9.3120     2.6020    -0.7810 N.2   1 <1>  -0.3380 
 24 C        8.7290     4.2810    -2.5410 C.3   1 <1>  -0.0600 
 25 H        4.7730    -0.9010     1.9940 H     1 <1>   0.0800 
 26 H        3.4180    -0.4340     2.9640 H     1 <1>   0.0800 
 27 H        2.1130     1.3200     0.6160 H     1 <1>   0.0800 
 28 H        1.7290     0.1560    -0.6020 H     1 <1>   0.0800 
 29 H        3.6660    -2.2090    -1.6360 H     1 <1>   0.1500 
 30 H        5.0480     1.2770     2.9890 H     1 <1>   0.0800 
 31 H        3.6530     1.9080     2.1870 H     1 <1>   0.0800 
 32 H        3.2150     1.4800    -1.7280 H     1 <1>   0.0800 
 33 H        4.2640     0.2070    -1.2030 H     1 <1>   0.0800 
 34 H       -1.1240    -3.2610    -1.6350 H     1 <1>   0.1500 
 35 H        0.2760    -2.9200     1.6740 H     1 <1>   0.0800 
 36 H       -1.1400    -3.2410     0.7370 H     1 <1>   0.0800 
 37 H        2.5590    -2.8890    -3.7220 H     1 <1>   0.1500 
 38 H        3.9450     2.9220     0.1240 H     1 <1>   0.0800 
 39 H        5.2140     2.4420    -0.9620 H     1 <1>   0.0800 
 40 H        0.1530    -3.4090    -3.7150 H     1 <1>   0.1500 
 41 H        0.0250    -0.4930     1.2560 H     1 <1>   0.0800 
 42 H       -1.4360    -1.1440     1.9510 H     1 <1>   0.0800 
 43 H       -1.3630    -0.8040     0.2370 H     1 <1>   0.0800 
 44 H        6.8940     2.0630     2.2120 H     1 <1>   0.0800 
 45 H        6.0120     3.4280     1.5970 H     1 <1>   0.0800 
 46 H        7.9940     4.0400    -3.2860 H     1 <1>   0.0800 
 47 H        9.7090     4.0910    -2.9390 H     1 <1>   0.0800 
 48 H        8.6480     5.3210    -2.2850 H     1 <1>   0.0800 
@<TRIPOS>BOND
  1   1   2  2   
  2   2   3  am  
  3   2   4  1   
  4   3   5  1   
  5   3   6  1   
  6   4   7  ar  
  7   4   8  ar  
  8   5   9  1   
  9   5  25  1   
 10   5  26  1   
 11   6  10  1   
 12   6  27  1   
 13   6  28  1   
 14   7  11  ar  
 15   7  12  1   
 16   8  13  ar  
 17   8  29  1   
 18   9  14  1   
 19   9  30  1   
 20   9  31  1   
 21  10  15  1   
 22  10  32  1   
 23  10  33  1   
 24  11  16  ar  
 25  11  34  1   
 26  12  17  1   
 27  12  35  1   
 28  12  36  1   
 29  13  16  ar  
 30  13  37  1   
 31  14  15  1   
 32  14  18  1   
 33  15  38  1   
 34  15  39  1   
 35  16  40  1   
 36  17  41  1   
 37  17  42  1   
 38  17  43  1   
 39  18  19  1   
 40  18  44  1   
 41  18  45  1   
 42  19  20  1   
 43  19  21  2   
 44  20  22  1   
 45  21  23  1   
 46  22  23  2   
 47  22  24  1   
 48  24  46  1   
 49  24  47  1   
 50  24  48  1   
@<TRIPOS>SUBSTRUCTURE
  1 ****  10 GROUP 4 **** **** 0

# MOE 2024.06 (io_trps.svl 2023.06)
