@<TRIPOS>MOLECULE
NONAME
43 44 1 0 0 
SMALL
USER_CHARGES


@<TRIPOS>ATOM
  1 F       -1.4930     0.0110     1.0730 F     1 <1>  -0.3400 
  2 C       -1.8800     0.6340    -0.0370 C.3   1 <1>   1.1640 
  3 F       -3.1860     0.3960    -0.1440 F     1 <1>  -0.3400 
  4 F       -1.3130    -0.0170    -1.0480 F     1 <1>  -0.3400 
  5 C       -1.5390     2.1510    -0.0250 C.ar  1 <1>   0.1660 
  6 N       -0.2730     2.5460     0.0840 N.ar  1 <1>  -0.6200 
  7 C       -2.5430     3.0960    -0.1280 C.ar  1 <1>  -0.1500 
  8 C       -0.0480     3.8510     0.0800 C.ar  1 <1>   0.4760 
  9 C       -2.2010     4.4260    -0.1130 C.ar  1 <1>   0.1660 
 10 N       -0.9550     4.8160    -0.0060 N.ar  1 <1>  -0.6200 
 11 C        1.4150     4.2990     0.2050 C.3   1 <1>   0.2540 
 12 C       -3.2510     5.5130    -0.2190 C.3   1 <1>  -0.0970 
 13 N        1.7630     5.3950    -0.7320 N.3   1 <1>  -0.9000 
 14 C        2.8020     6.2970    -0.2350 C.3   1 <1>   0.1900 
 15 C        2.8780     7.5180    -1.1620 C.3   1 <1>   0.0960 
 16 C        4.1340     5.5430    -0.1840 C.3   1 <1>  -0.2400 
 17 N        3.6200     8.6220    -0.5230 N.pl3 1 <1>   0.3140 
 18 N        4.9200     8.8460    -0.7920 N.2   1 <1>  -0.7070 
 19 C        3.1400     9.5290     0.3620 C.2   1 <1>  -0.3320 
 20 C        5.2380     9.8760    -0.0760 C.2   1 <1>   0.1080 
 21 C        4.1670    10.3500     0.6690 C.2   1 <1>  -0.1500 
 22 C        1.7130     9.5840     0.8810 C.3   1 <1>  -0.0600 
 23 C        6.6290    10.4650    -0.0830 C.3   1 <1>  -0.0590 
 24 H       -3.5760     2.8110    -0.2180 H     1 <1>   0.1500 
 25 H        2.0630     3.4600     0.0210 H     1 <1>   0.0800 
 26 H        1.5620     4.6220     1.2200 H     1 <1>   0.0800 
 27 H       -4.2370     5.0950    -0.2990 H     1 <1>   0.0800 
 28 H       -3.0570     6.1150    -1.0880 H     1 <1>   0.0800 
 29 H       -3.2090     6.1400     0.6520 H     1 <1>   0.0800 
 30 H        0.8820     5.9230    -0.8380 H     1 <1>   0.3600 
 31 H        2.5330     6.6310     0.7540 H     1 <1>   0.0800 
 32 H        1.8920     7.8710    -1.3910 H     1 <1>   0.0800 
 33 H        3.3750     7.2570    -2.0770 H     1 <1>   0.0800 
 34 H        4.3820     5.1590    -1.1580 H     1 <1>   0.0800 
 35 H        4.0970     4.7340     0.5200 H     1 <1>   0.0800 
 36 H        4.9220     6.2080     0.1250 H     1 <1>   0.0800 
 37 H        4.1820    11.1940     1.3350 H     1 <1>   0.1500 
 38 H        1.4690     8.6800     1.4090 H     1 <1>   0.0800 
 39 H        1.0240     9.7120     0.0650 H     1 <1>   0.0800 
 40 H        1.5980    10.4130     1.5560 H     1 <1>   0.0800 
 41 H        7.3340     9.7200     0.2340 H     1 <1>   0.0800 
 42 H        6.6830    11.3090     0.5800 H     1 <1>   0.0800 
 43 H        6.8780    10.7810    -1.0790 H     1 <1>   0.0800 
@<TRIPOS>BOND
  1   1   2  1   
  2   2   3  1   
  3   2   4  1   
  4   2   5  1   
  5   5   6  ar  
  6   5   7  ar  
  7   6   8  ar  
  8   7   9  ar  
  9   7  24  1   
 10   8  10  ar  
 11   8  11  1   
 12   9  10  ar  
 13   9  12  1   
 14  11  13  1   
 15  11  25  1   
 16  11  26  1   
 17  12  27  1   
 18  12  28  1   
 19  12  29  1   
 20  13  14  1   
 21  13  30  1   
 22  14  15  1   
 23  14  16  1   
 24  14  31  1   
 25  15  17  1   
 26  15  32  1   
 27  15  33  1   
 28  16  34  1   
 29  16  35  1   
 30  16  36  1   
 31  17  18  1   
 32  17  19  1   
 33  18  20  2   
 34  19  21  2   
 35  19  22  1   
 36  20  21  1   
 37  20  23  1   
 38  21  37  1   
 39  22  38  1   
 40  22  39  1   
 41  22  40  1   
 42  23  41  1   
 43  23  42  1   
 44  23  43  1   
@<TRIPOS>SUBSTRUCTURE
  1 ****  13 GROUP 4 **** **** 0

# MOE 2024.06 (io_trps.svl 2023.06)
