@<TRIPOS>MOLECULE
NONAME
45 46 1 0 0 
SMALL
USER_CHARGES


@<TRIPOS>ATOM
  1 S        0.5810    -1.1890    -0.0560 S.o2  1 <1>   1.0900 
  2 O        0.6630    -0.0830    -0.9810 O.2   1 <1>  -0.6500 
  3 O        1.4200    -2.3490    -0.2450 O.2   1 <1>  -0.6500 
  4 C       -1.1160    -1.7220     0.0510 C.3   1 <1>  -0.0550 
  5 C        0.8960    -0.5520     1.5790 C.3   1 <1>  -0.1350 
  6 C       -1.6010    -2.3040    -1.2830 C.3   1 <1>   0.1100 
  7 N       -3.0000    -2.7680    -1.2420 N.3   1 <1>  -0.8100 
  8 C       -3.1990    -3.8830    -0.2740 C.3   1 <1>   0.1100 
  9 C       -3.9530    -1.6620    -0.9930 C.3   1 <1>   0.1100 
 10 C       -4.6230    -4.4490    -0.3920 C.3   1 <1>   0.2000 
 11 C       -5.4110    -2.1450    -1.0110 C.3   1 <1>  -0.1600 
 12 O       -4.7530    -4.8510    -1.7150 O.3   1 <1>  -0.6800 
 13 C       -5.6600    -3.3520    -0.0590 C.3   1 <1>  -0.1060 
 14 C       -5.4290    -3.0000     1.4220 C.2   1 <1>   0.9060 
 15 C       -7.1000    -3.9070    -0.2290 C.3   1 <1>  -0.0170 
 16 O       -5.2070    -1.8360     1.7820 O.co2 1 <1>  -0.9000 
 17 O       -5.4070    -3.9230     2.2470 O.co2 1 <1>  -0.9000 
 18 C       -8.2030    -2.8540    -0.1500 C.ar  1 <1>  -0.1440 
 19 C       -8.5550    -2.2910     1.0660 C.ar  1 <1>  -0.1500 
 20 C       -8.8690    -2.4510    -1.2980 C.ar  1 <1>  -0.1500 
 21 C       -9.5570    -1.3390     1.1360 C.ar  1 <1>  -0.1500 
 22 C       -9.8740    -1.5010    -1.2320 C.ar  1 <1>  -0.1500 
 23 C      -10.2190    -0.9440    -0.0130 C.ar  1 <1>  -0.1500 
 24 H       -1.1990    -2.4650     0.8180 H     1 <1>   0.0800 
 25 H       -1.7250    -0.8820     0.3180 H     1 <1>   0.0800 
 26 H        0.2310     0.2610     1.8010 H     1 <1>   0.0800 
 27 H        1.9050    -0.1930     1.6430 H     1 <1>   0.0800 
 28 H        0.7610    -1.3210     2.3150 H     1 <1>   0.0800 
 29 H       -0.9690    -3.1330    -1.5590 H     1 <1>   0.0800 
 30 H       -1.5050    -1.5570    -2.0530 H     1 <1>   0.0800 
 31 H       -2.4970    -4.6730    -0.4750 H     1 <1>   0.0800 
 32 H       -3.0370    -3.5450     0.7340 H     1 <1>   0.0800 
 33 H       -3.7590    -1.2130    -0.0350 H     1 <1>   0.0800 
 34 H       -3.8260    -0.9030    -1.7450 H     1 <1>   0.0800 
 35 H       -4.7530    -5.3100     0.2420 H     1 <1>   0.0800 
 36 H       -6.0370    -1.3230    -0.7110 H     1 <1>   0.0800 
 37 H       -5.6820    -2.4010    -2.0190 H     1 <1>   0.0800 
 38 H       -4.2980    -4.1390    -2.2200 H     1 <1>   0.4000 
 39 H       -7.1820    -4.4080    -1.1750 H     1 <1>   0.0800 
 40 H       -7.2800    -4.6520     0.5270 H     1 <1>   0.0800 
 41 H       -8.0390    -2.5880     1.9660 H     1 <1>   0.1500 
 42 H       -8.6020    -2.8780    -2.2480 H     1 <1>   0.1500 
 43 H       -9.8110    -0.9080     2.0870 H     1 <1>   0.1500 
 44 H      -10.3830    -1.1960    -2.1280 H     1 <1>   0.1500 
 45 H      -10.9960    -0.2030     0.0420 H     1 <1>   0.1500 
@<TRIPOS>BOND
  1   1   2  2   
  2   1   3  2   
  3   1   4  1   
  4   1   5  1   
  5   4   6  1   
  6   4  24  1   
  7   4  25  1   
  8   5  26  1   
  9   5  27  1   
 10   5  28  1   
 11   6   7  1   
 12   6  29  1   
 13   6  30  1   
 14   7   8  1   
 15   7   9  1   
 16   8  10  1   
 17   8  31  1   
 18   8  32  1   
 19   9  11  1   
 20   9  33  1   
 21   9  34  1   
 22  10  12  1   
 23  10  13  1   
 24  10  35  1   
 25  11  13  1   
 26  11  36  1   
 27  11  37  1   
 28  12  38  1   
 29  13  14  1   
 30  13  15  1   
 31  14  16  ar  
 32  14  17  ar  
 33  15  18  1   
 34  15  39  1   
 35  15  40  1   
 36  18  19  ar  
 37  18  20  ar  
 38  19  21  ar  
 39  19  41  1   
 40  20  22  ar  
 41  20  42  1   
 42  21  23  ar  
 43  21  43  1   
 44  22  23  ar  
 45  22  44  1   
 46  23  45  1   
@<TRIPOS>SUBSTRUCTURE
  1 ****  11 GROUP 4 **** **** 0

# MOE 2024.06 (io_trps.svl 2023.06)
