@<TRIPOS>MOLECULE
NONAME
48 50 1 0 0 
SMALL
USER_CHARGES


@<TRIPOS>ATOM
  1 F       -0.0330     0.8440     0.2970 F     1 <1>  -0.1900 
  2 C       -1.3240     1.0330     0.2010 C.ar  1 <1>   0.1900 
  3 C       -1.9750     2.0710     0.8770 C.ar  1 <1>   0.0830 
  4 C       -2.0150     0.1540    -0.6110 C.ar  1 <1>  -0.1500 
  5 O       -1.4070     2.9980     1.7010 O.3   1 <1>  -0.3630 
  6 C       -3.3450     2.1890     0.7070 C.ar  1 <1>  -0.1500 
  7 C       -3.3810     0.3000    -0.7580 C.ar  1 <1>  -0.1500 
  8 C       -0.0350     3.0010     2.0250 C.3   1 <1>   0.0400 
  9 C       -4.0770     1.3160    -0.1010 C.ar  1 <1>   0.0530 
 10 C       -5.5010     1.4840    -0.2530 C.2   1 <1>   0.0870 
 11 O       -5.9900     2.6900    -0.3880 O.3   1 <1>  -0.0190 
 12 C       -6.5530     0.6200    -0.3010 C.2   1 <1>  -0.0860 
 13 N       -7.2870     2.7040    -0.5340 N.2   1 <1>  -0.4100 
 14 C       -7.6520     1.4720    -0.4870 C.2   1 <1>   0.3720 
 15 C       -6.6050    -0.8070    -0.1770 C.2   1 <1>   0.7160 
 16 N       -8.9940     1.0740    -0.5920 N.pl3 1 <1>  -0.8210 
 17 O       -5.6420    -1.4510     0.1930 O.2   1 <1>  -0.5700 
 18 N       -7.7490    -1.4740    -0.4650 N.am  1 <1>  -0.7300 
 19 C       -9.7190     1.7020    -1.7320 C.3   1 <1>   0.1290 
 20 C       -9.7400     1.2420     0.6850 C.3   1 <1>   0.1290 
 21 C       -7.9980    -2.9010    -0.2940 C.3   1 <1>   0.3580 
 22 C       -8.9520    -3.3320    -1.3920 C.2   1 <1>  -0.2880 
 23 C       -8.6110    -3.1300     1.0950 C.3   1 <1>  -0.1600 
 24 C      -10.0470    -4.0730    -1.1900 C.2   1 <1>  -0.2880 
 25 C       -9.3130    -4.4950     1.1880 C.3   1 <1>  -0.1600 
 26 C      -10.4630    -4.6030     0.1730 C.3   1 <1>  -0.0220 
 27 H       -1.4880    -0.6350    -1.1170 H     1 <1>   0.1500 
 28 H       -3.8570     2.9820     1.2200 H     1 <1>   0.1500 
 29 H       -3.9180    -0.3840    -1.3920 H     1 <1>   0.1500 
 30 H        0.1460     3.8130     2.7070 H     1 <1>   0.0800 
 31 H        0.5380     3.1470     1.1260 H     1 <1>   0.0800 
 32 H        0.2160     2.0670     2.4970 H     1 <1>   0.0800 
 33 H       -8.5700    -0.8910    -0.6740 H     1 <1>   0.3700 
 34 H       -9.1220     1.6360    -2.6250 H     1 <1>   0.0800 
 35 H       -9.9130     2.7410    -1.5230 H     1 <1>   0.0800 
 36 H      -10.6510     1.1920    -1.9010 H     1 <1>   0.0800 
 37 H       -9.2050     0.7620     1.4870 H     1 <1>   0.0800 
 38 H      -10.7150     0.7940     0.6040 H     1 <1>   0.0800 
 39 H       -9.8460     2.2880     0.9160 H     1 <1>   0.0800 
 40 H       -7.0750    -3.4500    -0.3890 H     1 <1>   0.0800 
 41 H       -8.6530    -2.9790    -2.3640 H     1 <1>   0.1500 
 42 H       -9.3350    -2.3610     1.2990 H     1 <1>   0.0800 
 43 H       -7.8310    -3.0700     1.8340 H     1 <1>   0.0800 
 44 H      -10.7210    -4.3530    -1.9820 H     1 <1>   0.1500 
 45 H       -9.6950    -4.6460     2.1830 H     1 <1>   0.0800 
 46 H       -8.5940    -5.2710     0.9870 H     1 <1>   0.0800 
 47 H      -10.7580    -5.6350     0.0860 H     1 <1>   0.0800 
 48 H      -11.3120    -4.0410     0.5200 H     1 <1>   0.0800 
@<TRIPOS>BOND
  1   1   2  1   
  2   2   3  ar  
  3   2   4  ar  
  4   3   5  1   
  5   3   6  ar  
  6   4   7  ar  
  7   4  27  1   
  8   5   8  1   
  9   6   9  ar  
 10   6  28  1   
 11   7   9  ar  
 12   7  29  1   
 13   8  30  1   
 14   8  31  1   
 15   8  32  1   
 16   9  10  1   
 17  10  11  1   
 18  10  12  2   
 19  11  13  1   
 20  12  14  1   
 21  12  15  1   
 22  13  14  2   
 23  14  16  1   
 24  15  17  2   
 25  15  18  am  
 26  16  19  1   
 27  16  20  1   
 28  18  21  1   
 29  18  33  1   
 30  19  34  1   
 31  19  35  1   
 32  19  36  1   
 33  20  37  1   
 34  20  38  1   
 35  20  39  1   
 36  21  22  1   
 37  21  23  1   
 38  21  40  1   
 39  22  24  2   
 40  22  41  1   
 41  23  25  1   
 42  23  42  1   
 43  23  43  1   
 44  24  26  1   
 45  24  44  1   
 46  25  26  1   
 47  25  45  1   
 48  25  46  1   
 49  26  47  1   
 50  26  48  1   
@<TRIPOS>SUBSTRUCTURE
  1 ****  12 GROUP 4 **** **** 0

# MOE 2024.06 (io_trps.svl 2023.06)
