@<TRIPOS>MOLECULE
NONAME
44 45 1 0 0 
SMALL
USER_CHARGES


@<TRIPOS>ATOM
  1 CL       1.5550     1.0350    -2.0690 Cl    1 <1>  -0.1770 
  2 C        0.6670     1.9520    -0.8720 C.ar  1 <1>   0.1770 
  3 C        1.2450     2.3280     0.3380 C.ar  1 <1>  -0.1440 
  4 C       -0.6380     2.2880    -1.1850 C.ar  1 <1>  -0.1500 
  5 C        0.4710     3.0630     1.2290 C.ar  1 <1>  -0.1500 
  6 C        2.6780     1.9710     0.7310 C.3   1 <1>   0.3640 
  7 C       -1.3940     3.0160    -0.2840 C.ar  1 <1>  -0.1500 
  8 C       -0.8360     3.4040     0.9210 C.ar  1 <1>  -0.1500 
  9 N        2.8000     0.4930     0.7860 N.am  1 <1>  -0.7300 
 10 C        3.7490     2.6410    -0.1750 C.3   1 <1>   0.2610 
 11 C        3.7960    -0.1960     0.1880 C.2   1 <1>   0.5690 
 12 O        4.9740     1.9110    -0.1720 O.3   1 <1>  -0.5600 
 13 C        3.9860     4.0780     0.2960 C.2   1 <1>   0.5690 
 14 O        3.8500    -1.3970     0.2680 O.2   1 <1>  -0.5700 
 15 C        4.8520     0.5740    -0.6060 C.3   1 <1>   0.1810 
 16 O        3.0930     4.8880     0.2150 O.2   1 <1>  -0.5700 
 17 N        5.2050     4.4150     0.7940 N.am  1 <1>  -0.7300 
 18 C        5.6350     5.7690     1.2230 C.3   1 <1>   0.1400 
 19 C        6.6850     6.3740     0.2640 C.3   1 <1>   0.0000 
 20 C        6.0660     6.4910    -1.1510 C.3   1 <1>   0.1200 
 21 C        7.0720     7.7660     0.8010 C.3   1 <1>  -0.2400 
 22 C        7.9500     5.4910     0.2340 C.3   1 <1>  -0.2400 
 23 O        6.9480     7.0950    -2.0380 O.3   1 <1>  -0.6800 
 24 H       -1.0560     1.9810    -2.1260 H     1 <1>   0.1500 
 25 H        0.8800     3.3850     2.1720 H     1 <1>   0.1500 
 26 H        2.8490     2.3300     1.7320 H     1 <1>   0.0800 
 27 H       -2.4100     3.2830    -0.5200 H     1 <1>   0.1500 
 28 H       -1.4200     3.9750     1.6220 H     1 <1>   0.1500 
 29 H        2.0670    -0.0280     1.2680 H     1 <1>   0.3700 
 30 H        3.4040     2.6880    -1.1900 H     1 <1>   0.0800 
 31 H        4.5920     0.5730    -1.6490 H     1 <1>   0.0800 
 32 H        5.8080     0.0990    -0.4840 H     1 <1>   0.0800 
 33 H        5.9330     3.6930     0.7630 H     1 <1>   0.3700 
 34 H        4.7750     6.4170     1.2690 H     1 <1>   0.0800 
 35 H        6.0440     5.7010     2.2160 H     1 <1>   0.0800 
 36 H        5.1630     7.0780    -1.1260 H     1 <1>   0.0800 
 37 H        5.8290     5.5180    -1.5470 H     1 <1>   0.0800 
 38 H        7.4330     7.6920     1.8120 H     1 <1>   0.0800 
 39 H        6.2210     8.4250     0.7920 H     1 <1>   0.0800 
 40 H        7.8510     8.2070     0.2060 H     1 <1>   0.0800 
 41 H        8.3400     5.3500     1.2260 H     1 <1>   0.0800 
 42 H        8.7150     5.9500    -0.3680 H     1 <1>   0.0800 
 43 H        7.7340     4.5280    -0.1930 H     1 <1>   0.0800 
 44 H        7.2090     7.9730    -1.7030 H     1 <1>   0.4000 
@<TRIPOS>BOND
  1   1   2  1   
  2   2   3  ar  
  3   2   4  ar  
  4   3   5  ar  
  5   3   6  1   
  6   4   7  ar  
  7   4  24  1   
  8   5   8  ar  
  9   5  25  1   
 10   6   9  1   
 11   6  10  1   
 12   6  26  1   
 13   7   8  ar  
 14   7  27  1   
 15   8  28  1   
 16   9  11  am  
 17   9  29  1   
 18  10  12  1   
 19  10  13  1   
 20  10  30  1   
 21  11  14  2   
 22  11  15  1   
 23  12  15  1   
 24  13  16  2   
 25  13  17  am  
 26  15  31  1   
 27  15  32  1   
 28  17  18  1   
 29  17  33  1   
 30  18  19  1   
 31  18  34  1   
 32  18  35  1   
 33  19  20  1   
 34  19  21  1   
 35  19  22  1   
 36  20  23  1   
 37  20  36  1   
 38  20  37  1   
 39  21  38  1   
 40  21  39  1   
 41  21  40  1   
 42  22  41  1   
 43  22  42  1   
 44  22  43  1   
 45  23  44  1   
@<TRIPOS>SUBSTRUCTURE
  1 ****  10 GROUP 4 **** **** 0

# MOE 2024.06 (io_trps.svl 2023.06)
