@<TRIPOS>MOLECULE
NONAME
56 58 1 0 0 
SMALL
USER_CHARGES


@<TRIPOS>ATOM
  1 O       -0.3060    -0.5100     0.3790 O.2   1 <1>  -0.5700 
  2 C       -0.9980     0.4830     0.3220 C.2   1 <1>   0.5690 
  3 N       -2.3600     0.4200     0.5430 N.am  1 <1>  -0.6600 
  4 C       -0.2710     1.7970     0.0320 C.3   1 <1>   0.1810 
  5 C       -3.2320     1.6340     0.5160 C.3   1 <1>   0.2200 
  6 C       -3.0130    -0.9080     0.7630 C.3   1 <1>   0.0600 
  7 O       -0.8140     2.4640    -1.1000 O.3   1 <1>  -0.3620 
  8 C       -4.2990     1.6940     1.6090 C.3   1 <1>  -0.1600 
  9 C       -4.0180     1.7580    -0.7860 C.3   1 <1>  -0.1600 
 10 C       -0.3010     3.6830    -1.3910 C.ar  1 <1>   0.0820 
 11 C       -5.3130     2.7160     1.0750 C.3   1 <1>  -0.0800 
 12 C       -5.1460     2.7400    -0.4490 C.3   1 <1>  -0.0800 
 13 C       -0.5320     4.8030    -0.5850 C.ar  1 <1>   0.0820 
 14 C        0.4610     3.7920    -2.5410 C.ar  1 <1>  -0.1500 
 15 C       -6.7900     2.3800     1.3290 C.3   1 <1>  -0.1600 
 16 C       -6.5220     2.3830    -1.0270 C.3   1 <1>  -0.1600 
 17 O       -1.3130     4.6670     0.5270 O.3   1 <1>  -0.3630 
 18 C        0.0360     6.0210    -0.9500 C.ar  1 <1>  -0.1500 
 19 C        1.0180     5.0080    -2.8940 C.ar  1 <1>  -0.1500 
 20 C       -7.5290     2.7940     0.0510 C.3   1 <1>   0.4230 
 21 C       -1.3090     5.6490     1.5400 C.3   1 <1>   0.0400 
 22 C        0.8070     6.1200    -2.0970 C.ar  1 <1>  -0.1500 
 23 N       -7.7580     4.2760     0.0280 N.4   1 <1>  -0.9590 
 24 C       -8.6460     4.7420     1.1420 C.3   1 <1>   0.2630 
 25 C       -8.3350     4.7550    -1.2700 C.3   1 <1>   0.2630 
 26 H        0.7640     1.5970    -0.1720 H     1 <1>   0.0800 
 27 H       -0.3400     2.4370     0.8900 H     1 <1>   0.0800 
 28 H       -2.6320     2.5190     0.6240 H     1 <1>   0.0800 
 29 H       -3.9520    -0.9600     0.2430 H     1 <1>   0.0800 
 30 H       -3.1770    -1.0590     1.8150 H     1 <1>   0.0800 
 31 H       -2.3870    -1.7050     0.3970 H     1 <1>   0.0800 
 32 H       -4.7710     0.7380     1.7320 H     1 <1>   0.0800 
 33 H       -3.8750     2.0080     2.5470 H     1 <1>   0.0800 
 34 H       -3.3970     2.1320    -1.5800 H     1 <1>   0.0800 
 35 H       -4.4110     0.7990    -1.0680 H     1 <1>   0.0800 
 36 H       -5.0750     3.6930     1.4650 H     1 <1>   0.0800 
 37 H       -4.8550     3.7320    -0.7540 H     1 <1>   0.0800 
 38 H        0.6160     2.9230    -3.1550 H     1 <1>   0.1500 
 39 H       -7.1610     2.8250     2.2330 H     1 <1>   0.0800 
 40 H       -6.9040     1.3150     1.4290 H     1 <1>   0.0800 
 41 H       -6.5950     1.3150    -1.1400 H     1 <1>   0.0800 
 42 H       -6.6850     2.8150    -1.9950 H     1 <1>   0.0800 
 43 H       -0.1130     6.9070    -0.3640 H     1 <1>   0.1500 
 44 H        1.6130     5.0890    -3.7880 H     1 <1>   0.1500 
 45 H       -8.4630     2.2650    -0.0570 H     1 <1>   0.0800 
 46 H       -1.8760     5.2750     2.3730 H     1 <1>   0.0800 
 47 H       -1.7650     6.5460     1.1600 H     1 <1>   0.0800 
 48 H       -0.2930     5.8340     1.8440 H     1 <1>   0.0800 
 49 H        1.2420     7.0650    -2.3730 H     1 <1>   0.1500 
 50 H       -6.8290     4.7040     0.1460 H     1 <1>   0.4500 
 51 H       -9.5980     4.2390     1.0970 H     1 <1>   0.0800 
 52 H       -8.8130     5.8040     1.0650 H     1 <1>   0.0800 
 53 H       -8.1950     4.5440     2.1000 H     1 <1>   0.0800 
 54 H       -9.2630     4.2460    -1.4780 H     1 <1>   0.0800 
 55 H       -7.6510     4.5740    -2.0830 H     1 <1>   0.0800 
 56 H       -8.5260     5.8150    -1.2250 H     1 <1>   0.0800 
@<TRIPOS>BOND
  1   1   2  2   
  2   2   3  am  
  3   2   4  1   
  4   3   5  1   
  5   3   6  1   
  6   4   7  1   
  7   4  26  1   
  8   4  27  1   
  9   5   8  1   
 10   5   9  1   
 11   5  28  1   
 12   6  29  1   
 13   6  30  1   
 14   6  31  1   
 15   7  10  1   
 16   8  11  1   
 17   8  32  1   
 18   8  33  1   
 19   9  12  1   
 20   9  34  1   
 21   9  35  1   
 22  10  13  ar  
 23  10  14  ar  
 24  11  12  1   
 25  11  15  1   
 26  11  36  1   
 27  12  16  1   
 28  12  37  1   
 29  13  17  1   
 30  13  18  ar  
 31  14  19  ar  
 32  14  38  1   
 33  15  20  1   
 34  15  39  1   
 35  15  40  1   
 36  16  20  1   
 37  16  41  1   
 38  16  42  1   
 39  17  21  1   
 40  18  22  ar  
 41  18  43  1   
 42  19  22  ar  
 43  19  44  1   
 44  20  23  1   
 45  20  45  1   
 46  21  46  1   
 47  21  47  1   
 48  21  48  1   
 49  22  49  1   
 50  23  24  1   
 51  23  25  1   
 52  23  50  1   
 53  24  51  1   
 54  24  52  1   
 55  24  53  1   
 56  25  54  1   
 57  25  55  1   
 58  25  56  1   
@<TRIPOS>SUBSTRUCTURE
  1 ****   5 GROUP 4 **** **** 0

# MOE 2024.06 (io_trps.svl 2023.06)
