@<TRIPOS>MOLECULE
NONAME
41 43 1 0 0 
SMALL
USER_CHARGES


@<TRIPOS>ATOM
  1 N        0.0200     0.7610     0.3710 N.2   1 <1>  -0.6210 
  2 C       -0.8950     0.0390     0.9420 C.2   1 <1>   0.9190 
  3 C       -0.3670     1.8000    -0.3810 C.2   1 <1>   0.2710 
  4 N       -2.2180     0.2890     0.8240 N.pl3 1 <1>  -0.6690 
  5 N       -0.5070    -0.9990     1.6790 N.pl3 1 <1>  -0.8500 
  6 N        0.6260     2.5220    -0.9780 N.pl3 1 <1>  -0.8380 
  7 C       -1.6930     2.1170    -0.5480 C.2   1 <1>  -0.1410 
  8 C       -2.6180     1.3180     0.0810 C.cat 1 <1>   0.7910 
  9 C       -3.3660    -0.2930     1.3030 C.2   1 <1>   0.5030 
 10 C        0.7500     4.0050    -0.8050 C.3   1 <1>   0.2090 
 11 C        1.8560     1.8550    -1.5230 C.3   1 <1>   0.2090 
 12 N       -3.9600     1.3230     0.1310 N.pl3 1 <1>  -0.3930 
 13 N       -4.4250     0.3050     0.9040 N.2   1 <1>  -0.2600 
 14 C        2.0250     4.3670    -0.0090 C.3   1 <1>   0.3430 
 15 C        3.1050     2.2340    -0.7000 C.3   1 <1>   0.3430 
 16 N        3.2700     3.7260    -0.5710 N.4   1 <1>  -0.9590 
 17 C        4.4560     4.0840     0.2350 C.3   1 <1>   0.4810 
 18 C        4.8210     5.5440    -0.0130 C.2   1 <1>  -0.2760 
 19 C        4.3710     6.3430    -0.9920 C.2   1 <1>  -0.3000 
 20 C        5.8270     6.0600     1.0080 C.3   1 <1>  -0.1020 
 21 H        0.4920    -1.1940     1.7560 H     1 <1>   0.4000 
 22 H       -1.1170    -1.6640     2.1460 H     1 <1>   0.4000 
 23 H       -1.9980     2.9440    -1.1580 H     1 <1>   0.1500 
 24 H       -3.3560    -1.1600     1.9460 H     1 <1>   0.1500 
 25 H       -0.1070     4.3890    -0.2790 H     1 <1>   0.0800 
 26 H        0.7810     4.4760    -1.7720 H     1 <1>   0.0800 
 27 H        1.9960     2.1520    -2.5480 H     1 <1>   0.0800 
 28 H        1.7360     0.7850    -1.5160 H     1 <1>   0.0800 
 29 H       -4.5810     1.9880    -0.3460 H     1 <1>   0.4500 
 30 H        1.8860     4.0410     1.0090 H     1 <1>   0.0800 
 31 H        2.1400     5.4390     0.0060 H     1 <1>   0.0800 
 32 H        3.9770     1.8060    -1.1660 H     1 <1>   0.0800 
 33 H        3.0020     1.7950     0.2790 H     1 <1>   0.0800 
 34 H        3.4440     4.1220    -1.5020 H     1 <1>   0.4500 
 35 H        5.2950     3.4630    -0.0360 H     1 <1>   0.0800 
 36 H        4.2450     3.9310     1.2810 H     1 <1>   0.0800 
 37 H        4.6830     7.3700    -1.1030 H     1 <1>   0.1500 
 38 H        3.6760     6.0850    -1.7710 H     1 <1>   0.1500 
 39 H        6.7360     5.4840     0.9680 H     1 <1>   0.0800 
 40 H        5.4230     6.0030     2.0030 H     1 <1>   0.0800 
 41 H        6.0790     7.0880     0.8110 H     1 <1>   0.0800 
@<TRIPOS>BOND
  1   1   2  2   
  2   1   3  1   
  3   2   4  1   
  4   2   5  1   
  5   3   6  1   
  6   3   7  2   
  7   4   8  ar  
  8   4   9  1   
  9   5  21  1   
 10   5  22  1   
 11   6  10  1   
 12   6  11  1   
 13   7   8  1   
 14   7  23  1   
 15   8  12  ar  
 16   9  13  2   
 17   9  24  1   
 18  10  14  1   
 19  10  25  1   
 20  10  26  1   
 21  11  15  1   
 22  11  27  1   
 23  11  28  1   
 24  12  13  1   
 25  12  29  1   
 26  14  16  1   
 27  14  30  1   
 28  14  31  1   
 29  15  16  1   
 30  15  32  1   
 31  15  33  1   
 32  16  17  1   
 33  16  34  1   
 34  17  18  1   
 35  17  35  1   
 36  17  36  1   
 37  18  19  2   
 38  18  20  1   
 39  19  37  1   
 40  19  38  1   
 41  20  39  1   
 42  20  40  1   
 43  20  41  1   
@<TRIPOS>SUBSTRUCTURE
  1 ****   6 GROUP 4 **** **** 0

# MOE 2024.06 (io_trps.svl 2023.06)
