@<TRIPOS>MOLECULE
NONAME
54 56 1 0 0 
SMALL
USER_CHARGES


@<TRIPOS>ATOM
  1 O       -1.1300     0.5700    -0.9720 O.2   1 <1>  -0.5700 
  2 C       -2.1790     0.9760    -0.5310 C.2   1 <1>   0.5690 
  3 N       -3.2160     0.1250    -0.2640 N.am  1 <1>  -0.6600 
  4 C       -2.2910     2.4850    -0.2920 C.3   1 <1>  -0.0190 
  5 C       -4.5550     0.4540     0.2910 C.3   1 <1>   0.1400 
  6 C       -3.1060    -1.3370    -0.5030 C.3   1 <1>   0.1400 
  7 C       -2.1620     3.2480    -1.6250 C.3   1 <1>  -0.1600 
  8 C       -1.2100     2.9560     0.7030 C.3   1 <1>  -0.1600 
  9 C       -5.3040    -0.8790     0.3540 C.3   1 <1>   0.2000 
 10 C       -4.2310    -1.9630     0.3220 C.3   1 <1>  -0.0800 
 11 C       -2.0830     4.7600    -1.4280 C.3   1 <1>   0.3430 
 12 C       -1.1590     4.4760     0.8340 C.3   1 <1>   0.3430 
 13 O       -6.0530    -0.9860     1.5150 O.3   1 <1>  -0.6800 
 14 C       -4.7550    -3.2990    -0.2340 C.3   1 <1>  -0.0160 
 15 N       -0.9510     5.0800    -0.5140 N.4   1 <1>  -0.9590 
 16 C       -3.6760    -4.3710    -0.2380 C.ar  1 <1>   0.1670 
 17 C       -0.7450     6.5650    -0.4490 C.3   1 <1>   0.3430 
 18 N       -2.8360    -4.3580    -1.2600 N.ar  1 <1>  -0.6200 
 19 C       -3.6090    -5.2970     0.8020 C.ar  1 <1>   0.1600 
 20 C        0.5780     6.9580     0.2180 C.3   1 <1>   0.1200 
 21 C       -1.9300    -5.3180    -1.1710 C.ar  1 <1>   0.1600 
 22 N       -2.7040    -6.2580     0.8920 N.ar  1 <1>  -0.6200 
 23 O        0.6520     8.3420     0.1870 O.3   1 <1>  -0.5600 
 24 C       -1.8670    -6.2360    -0.1300 C.ar  1 <1>   0.1600 
 25 C        1.8180     8.8720     0.7380 C.3   1 <1>   0.0400 
 26 H       -3.2510     2.7150     0.1300 H     1 <1>   0.0800 
 27 H       -4.4410     0.8730     1.2750 H     1 <1>   0.0800 
 28 H       -5.0710     1.1410    -0.3560 H     1 <1>   0.0800 
 29 H       -3.2450    -1.5330    -1.5540 H     1 <1>   0.0800 
 30 H       -2.1410    -1.7110    -0.2030 H     1 <1>   0.0800 
 31 H       -3.0070     3.0160    -2.2490 H     1 <1>   0.0800 
 32 H       -1.2820     2.9200    -2.1530 H     1 <1>   0.0800 
 33 H       -0.2420     2.6020     0.3900 H     1 <1>   0.0800 
 34 H       -1.4060     2.5230     1.6690 H     1 <1>   0.0800 
 35 H       -5.9710    -0.9610    -0.4880 H     1 <1>   0.0800 
 36 H       -3.8450    -2.1170     1.3150 H     1 <1>   0.0800 
 37 H       -3.0090     5.1210    -1.0080 H     1 <1>   0.0800 
 38 H       -1.9350     5.2370    -2.3840 H     1 <1>   0.0800 
 39 H       -0.3520     4.7460     1.4940 H     1 <1>   0.0800 
 40 H       -2.0820     4.8370     1.2590 H     1 <1>   0.0800 
 41 H       -5.4730    -0.9990     2.3010 H     1 <1>   0.4000 
 42 H       -5.1150    -3.1650    -1.2390 H     1 <1>   0.0800 
 43 H       -5.5860    -3.6290     0.3640 H     1 <1>   0.0800 
 44 H       -0.1090     4.6500    -0.9240 H     1 <1>   0.4500 
 45 H       -0.7410     6.9690    -1.4480 H     1 <1>   0.0800 
 46 H       -1.5560     7.0220     0.0950 H     1 <1>   0.0800 
 47 H       -4.3320    -5.2400     1.5950 H     1 <1>   0.1500 
 48 H        1.4160     6.5610    -0.3290 H     1 <1>   0.0800 
 49 H        0.6100     6.6440     1.2460 H     1 <1>   0.0800 
 50 H       -1.2020    -5.3810    -1.9610 H     1 <1>   0.1500 
 51 H       -1.0910    -6.9820    -0.1460 H     1 <1>   0.1500 
 52 H        1.7680     9.9450     0.6620 H     1 <1>   0.0800 
 53 H        2.6720     8.5130     0.1890 H     1 <1>   0.0800 
 54 H        1.8870     8.5900     1.7750 H     1 <1>   0.0800 
@<TRIPOS>BOND
  1   1   2  2   
  2   2   3  am  
  3   2   4  1   
  4   3   5  1   
  5   3   6  1   
  6   4   7  1   
  7   4   8  1   
  8   4  26  1   
  9   5   9  1   
 10   5  27  1   
 11   5  28  1   
 12   6  10  1   
 13   6  29  1   
 14   6  30  1   
 15   7  11  1   
 16   7  31  1   
 17   7  32  1   
 18   8  12  1   
 19   8  33  1   
 20   8  34  1   
 21   9  10  1   
 22   9  13  1   
 23   9  35  1   
 24  10  14  1   
 25  10  36  1   
 26  11  15  1   
 27  11  37  1   
 28  11  38  1   
 29  12  15  1   
 30  12  39  1   
 31  12  40  1   
 32  13  41  1   
 33  14  16  1   
 34  14  42  1   
 35  14  43  1   
 36  15  17  1   
 37  15  44  1   
 38  16  18  ar  
 39  16  19  ar  
 40  17  20  1   
 41  17  45  1   
 42  17  46  1   
 43  18  21  ar  
 44  19  22  ar  
 45  19  47  1   
 46  20  23  1   
 47  20  48  1   
 48  20  49  1   
 49  21  24  ar  
 50  21  50  1   
 51  22  24  ar  
 52  23  25  1   
 53  24  51  1   
 54  25  52  1   
 55  25  53  1   
 56  25  54  1   
@<TRIPOS>SUBSTRUCTURE
  1 ****   2 GROUP 4 **** **** 0

# MOE 2024.06 (io_trps.svl 2023.06)
