@<TRIPOS>MOLECULE
NONAME
46 48 1 0 0 
SMALL
USER_CHARGES


@<TRIPOS>ATOM
  1 CL       2.8160     0.9120    -1.6880 Cl    1 <1>  -0.1770 
  2 C        1.8290     2.3230    -1.3750 C.ar  1 <1>   0.1770 
  3 C        1.9020     3.0110    -0.1660 C.ar  1 <1>  -0.1440 
  4 C        0.9740     2.7240    -2.3850 C.ar  1 <1>  -0.1500 
  5 C        1.0870     4.1250    -0.0020 C.ar  1 <1>  -0.1500 
  6 C        2.8270     2.6020     0.9790 C.3   1 <1>   0.3640 
  7 C        0.1690     3.8340    -2.2020 C.ar  1 <1>  -0.1500 
  8 C        0.2280     4.5330    -1.0090 C.ar  1 <1>  -0.1500 
  9 N        2.4440     1.2450     1.4380 N.am  1 <1>  -0.7300 
 10 C        4.3360     2.7210     0.6240 C.3   1 <1>   0.2610 
 11 C        3.3310     0.2480     1.6450 C.2   1 <1>   0.5690 
 12 O        5.1370     1.8840     1.4520 O.3   1 <1>  -0.5600 
 13 C        4.7750     4.1830     0.7550 C.2   1 <1>   0.5690 
 14 O        2.9640    -0.8350     2.0270 O.2   1 <1>  -0.5700 
 15 C        4.8130     0.5110     1.3730 C.3   1 <1>   0.1810 
 16 O        4.3020     5.0200     0.0220 O.2   1 <1>  -0.5700 
 17 N        5.6980     4.5210     1.6950 N.am  1 <1>  -0.7300 
 18 C        6.1940     5.8940     1.9450 C.3   1 <1>   0.1400 
 19 C        7.3030     6.2440     0.9530 C.3   1 <1>   0.0200 
 20 C        7.4920     7.7480     0.9060 C.2   1 <1>   0.0060 
 21 N        8.3640     8.3850     1.6090 N.2   1 <1>  -0.3380 
 22 N        6.7700     8.5780     0.1440 N.pl3 1 <1>   0.0480 
 23 N        8.2320     9.6790     1.3160 N.2   1 <1>  -0.3380 
 24 C        7.2860     9.7700     0.4480 C.2   1 <1>   0.0360 
 25 C        5.6680     8.2880    -0.8000 C.3   1 <1>   0.0960 
 26 C        6.2110     8.0710    -2.2150 C.3   1 <1>  -0.2400 
 27 H        0.9410     2.1710    -3.3060 H     1 <1>   0.1500 
 28 H        1.1140     4.6920     0.9130 H     1 <1>   0.1500 
 29 H        2.6490     3.2670     1.8060 H     1 <1>   0.0800 
 30 H       -0.4990     4.1530    -2.9840 H     1 <1>   0.1500 
 31 H       -0.3960     5.3980    -0.8660 H     1 <1>   0.1500 
 32 H        1.4500     1.0480     1.5680 H     1 <1>   0.3700 
 33 H        4.5060     2.4250    -0.3940 H     1 <1>   0.0800 
 34 H        5.0680     0.1530     0.3920 H     1 <1>   0.0800 
 35 H        5.4070    -0.0110     2.1000 H     1 <1>   0.0800 
 36 H        6.1140     3.7580     2.2430 H     1 <1>   0.3700 
 37 H        5.3740     6.5830     1.8270 H     1 <1>   0.0800 
 38 H        6.5590     5.9810     2.9540 H     1 <1>   0.0800 
 39 H        7.0550     5.8880    -0.0300 H     1 <1>   0.0800 
 40 H        8.2220     5.7780     1.2620 H     1 <1>   0.0800 
 41 H        6.9420    10.6890     0.0110 H     1 <1>   0.1500 
 42 H        5.1400     7.4110    -0.4700 H     1 <1>   0.0800 
 43 H        4.9800     9.1140    -0.7930 H     1 <1>   0.0800 
 44 H        6.8920     7.2380    -2.2330 H     1 <1>   0.0800 
 45 H        6.7190     8.9530    -2.5640 H     1 <1>   0.0800 
 46 H        5.3980     7.8570    -2.8860 H     1 <1>   0.0800 
@<TRIPOS>BOND
  1   1   2  1   
  2   2   3  ar  
  3   2   4  ar  
  4   3   5  ar  
  5   3   6  1   
  6   4   7  ar  
  7   4  27  1   
  8   5   8  ar  
  9   5  28  1   
 10   6   9  1   
 11   6  10  1   
 12   6  29  1   
 13   7   8  ar  
 14   7  30  1   
 15   8  31  1   
 16   9  11  am  
 17   9  32  1   
 18  10  12  1   
 19  10  13  1   
 20  10  33  1   
 21  11  14  2   
 22  11  15  1   
 23  12  15  1   
 24  13  16  2   
 25  13  17  am  
 26  15  34  1   
 27  15  35  1   
 28  17  18  1   
 29  17  36  1   
 30  18  19  1   
 31  18  37  1   
 32  18  38  1   
 33  19  20  1   
 34  19  39  1   
 35  19  40  1   
 36  20  21  2   
 37  20  22  1   
 38  21  23  1   
 39  22  24  1   
 40  22  25  1   
 41  23  24  2   
 42  24  41  1   
 43  25  26  1   
 44  25  42  1   
 45  25  43  1   
 46  26  44  1   
 47  26  45  1   
 48  26  46  1   
@<TRIPOS>SUBSTRUCTURE
  1 ****  16 GROUP 4 **** **** 0

# MOE 2024.06 (io_trps.svl 2023.06)
