@<TRIPOS>MOLECULE
NONAME
43 45 1 0 0 
SMALL
USER_CHARGES


@<TRIPOS>ATOM
  1 O       -1.4990     1.0000    -3.3220 O.2   1 <1>  -0.5700 
  2 C       -1.9450     1.4170    -2.2720 C.2   1 <1>   0.6160 
  3 N       -2.7990     0.6190    -1.5370 N.am  1 <1>  -0.6600 
  4 C       -1.5820     2.7470    -1.8410 C.2   1 <1>  -0.0140 
  5 C       -3.0800    -0.7980    -1.9290 C.3   1 <1>   0.1400 
  6 C       -3.5960     1.1040    -0.3750 C.3   1 <1>   0.1400 
  7 C       -0.7470     2.9350    -0.6750 C.ar  1 <1>   0.0280 
  8 C       -2.0210     3.8460    -2.5170 C.2   1 <1>  -0.1360 
  9 C       -2.8800    -1.7340    -0.7280 C.3   1 <1>   0.2000 
 10 C       -3.3740     0.1870     0.8330 C.3   1 <1>  -0.1600 
 11 C       -0.4760     4.2450    -0.2430 C.ar  1 <1>   0.1170 
 12 C       -0.1820     1.8780     0.0490 C.ar  1 <1>  -0.1500 
 13 C       -1.7240     5.1650    -2.0930 C.2   1 <1>   0.6160 
 14 O       -3.2580    -3.0210    -1.0840 O.3   1 <1>  -0.6800 
 15 C       -3.6890    -1.2900     0.5060 C.3   1 <1>  -0.0800 
 16 N       -0.9800     5.3180    -0.9680 N.am  1 <1>  -0.5470 
 17 C        0.2970     4.4610     0.8940 C.ar  1 <1>  -0.1500 
 18 C        0.5850     2.0990     1.1750 C.ar  1 <1>  -0.1430 
 19 O       -2.1140     6.1590    -2.6750 O.2   1 <1>  -0.5700 
 20 C       -3.4090    -2.2230     1.6970 C.3   1 <1>   0.1200 
 21 C        0.8200     3.4000     1.5990 C.ar  1 <1>  -0.1500 
 22 C        1.1830     0.9400     1.9530 C.3   1 <1>  -0.0970 
 23 O       -4.1750    -1.8400     2.7870 O.3   1 <1>  -0.6800 
 24 H       -4.0940    -0.8610    -2.2810 H     1 <1>   0.0800 
 25 H       -2.4220    -1.1080    -2.7230 H     1 <1>   0.0800 
 26 H       -3.3290     2.1130    -0.1140 H     1 <1>   0.0800 
 27 H       -4.6390     1.1000    -0.6450 H     1 <1>   0.0800 
 28 H       -2.6190     3.7600    -3.4050 H     1 <1>   0.1500 
 29 H       -1.8310    -1.7670    -0.4900 H     1 <1>   0.0800 
 30 H       -2.3560     0.2830     1.1650 H     1 <1>   0.0800 
 31 H       -4.0110     0.5290     1.6310 H     1 <1>   0.0800 
 32 H       -0.3450     0.8680    -0.2810 H     1 <1>   0.1500 
 33 H       -4.2180    -3.0660    -1.2540 H     1 <1>   0.4000 
 34 H       -4.7350    -1.3620     0.2610 H     1 <1>   0.0800 
 35 H       -0.7790     6.2820    -0.7060 H     1 <1>   0.3700 
 36 H        0.4890     5.4670     1.2210 H     1 <1>   0.1500 
 37 H       -2.3710    -2.1950     1.9830 H     1 <1>   0.0800 
 38 H       -3.6760    -3.2380     1.4560 H     1 <1>   0.0800 
 39 H        1.4170     3.5780     2.4770 H     1 <1>   0.1500 
 40 H        2.2550     1.0260     1.9680 H     1 <1>   0.0800 
 41 H        0.9240    -0.0020     1.5060 H     1 <1>   0.0800 
 42 H        0.8210     0.9520     2.9650 H     1 <1>   0.0800 
 43 H       -3.8660    -0.9860     3.1440 H     1 <1>   0.4000 
@<TRIPOS>BOND
  1   1   2  2   
  2   2   3  am  
  3   2   4  1   
  4   3   5  1   
  5   3   6  1   
  6   4   7  1   
  7   4   8  2   
  8   5   9  1   
  9   5  24  1   
 10   5  25  1   
 11   6  10  1   
 12   6  26  1   
 13   6  27  1   
 14   7  11  ar  
 15   7  12  ar  
 16   8  13  1   
 17   8  28  1   
 18   9  14  1   
 19   9  15  1   
 20   9  29  1   
 21  10  15  1   
 22  10  30  1   
 23  10  31  1   
 24  11  16  1   
 25  11  17  ar  
 26  12  18  ar  
 27  12  32  1   
 28  13  16  am  
 29  13  19  2   
 30  14  33  1   
 31  15  20  1   
 32  15  34  1   
 33  16  35  1   
 34  17  21  ar  
 35  17  36  1   
 36  18  21  ar  
 37  18  22  1   
 38  20  23  1   
 39  20  37  1   
 40  20  38  1   
 41  21  39  1   
 42  22  40  1   
 43  22  41  1   
 44  22  42  1   
 45  23  43  1   
@<TRIPOS>SUBSTRUCTURE
  1 ****  12 GROUP 4 **** **** 0

# MOE 2024.06 (io_trps.svl 2023.06)
