@<TRIPOS>MOLECULE
NONAME
53 56 1 0 0 
SMALL
USER_CHARGES


@<TRIPOS>ATOM
  1 O        0.0690     0.9800     0.8430 O.2   1 <1>  -0.5700 
  2 C        0.0420     2.1590     0.5440 C.2   1 <1>   0.5440 
  3 N        1.2290     2.8690     0.5370 N.am  1 <1>  -0.6600 
  4 C       -1.2270     2.7630     0.1700 C.ar  1 <1>   0.0860 
  5 C        1.3860     4.2580     0.0110 C.3   1 <1>   0.1400 
  6 C        2.5270     2.2730     0.9990 C.3   1 <1>   0.1400 
  7 C       -1.6470     3.9900     0.6820 C.ar  1 <1>  -0.1500 
  8 C       -2.0680     2.1310    -0.7430 C.ar  1 <1>  -0.1500 
  9 C        2.4400     4.3140    -1.0950 C.3   1 <1>   0.1400 
 10 C        3.6160     2.3720    -0.0860 C.3   1 <1>   0.1400 
 11 C       -2.8100     4.6080     0.2370 C.ar  1 <1>   0.0830 
 12 C       -3.2530     2.7120    -1.1570 C.ar  1 <1>  -0.1500 
 13 N        3.7390     3.7720    -0.6050 N.am  1 <1>  -0.6600 
 14 O       -3.1750     5.8560     0.6390 O.3   1 <1>  -0.3630 
 15 C       -3.6290     3.9550    -0.6780 C.ar  1 <1>  -0.1430 
 16 C        4.9120     4.4780    -0.5020 C.2   1 <1>   0.5690 
 17 C       -2.2200     6.7990     1.0920 C.3   1 <1>   0.1200 
 18 C       -4.9270     4.5910    -1.1550 C.3   1 <1>  -0.0970 
 19 O        5.9300     3.9640    -0.1060 O.2   1 <1>  -0.5700 
 20 C        4.9800     5.9570    -0.8630 C.3   1 <1>  -0.0990 
 21 C       -1.3180     7.2330    -0.0820 C.3   1 <1>   0.0960 
 22 C        4.5920     6.8590     0.3280 C.3   1 <1>  -0.1600 
 23 N        0.0970     7.4320     0.3100 N.pl3 1 <1>   0.3140 
 24 C        3.6600     8.0350    -0.0330 C.3   1 <1>   0.0210 
 25 N        0.5500     7.3330     1.5630 N.2   1 <1>  -0.4180 
 26 C        1.1270     7.6910    -0.5050 C.2   1 <1>  -0.3020 
 27 C        2.2020     7.7500     0.2980 C.2   1 <1>   0.0460 
 28 N        1.8200     7.5300     1.5600 N.2   1 <1>  -0.2270 
 29 H        1.6800     4.9060     0.8170 H     1 <1>   0.0800 
 30 H        0.4710     4.6270    -0.4050 H     1 <1>   0.0800 
 31 H        2.3960     1.2400     1.2710 H     1 <1>   0.0800 
 32 H        2.8590     2.8000     1.8760 H     1 <1>   0.0800 
 33 H       -1.0300     4.4470     1.4320 H     1 <1>   0.1500 
 34 H       -1.7810     1.1670    -1.1280 H     1 <1>   0.1500 
 35 H        2.5270     5.3290    -1.4260 H     1 <1>   0.0800 
 36 H        2.1070     3.7240    -1.9310 H     1 <1>   0.0800 
 37 H        3.3640     1.7150    -0.8990 H     1 <1>   0.0800 
 38 H        4.5520     2.0370     0.3260 H     1 <1>   0.0800 
 39 H       -3.8780     2.1890    -1.8600 H     1 <1>   0.1500 
 40 H       -1.6850     6.3640     1.9150 H     1 <1>   0.0800 
 41 H       -2.7640     7.6490     1.4630 H     1 <1>   0.0800 
 42 H       -5.5540     4.8140    -0.3100 H     1 <1>   0.0800 
 43 H       -5.4640     3.9330    -1.8140 H     1 <1>   0.0800 
 44 H       -4.7160     5.5060    -1.6780 H     1 <1>   0.0800 
 45 H        4.3840     6.1540    -1.7320 H     1 <1>   0.0800 
 46 H        5.9940     6.1790    -1.1440 H     1 <1>   0.0800 
 47 H       -1.6860     8.1560    -0.4880 H     1 <1>   0.0800 
 48 H       -1.3360     6.4890    -0.8560 H     1 <1>   0.0800 
 49 H        5.5000     7.2570     0.7480 H     1 <1>   0.0800 
 50 H        4.1380     6.2670     1.1050 H     1 <1>   0.0800 
 51 H        3.7620     8.3050    -1.0690 H     1 <1>   0.0800 
 52 H        3.9530     8.8920     0.5490 H     1 <1>   0.0800 
 53 H        1.0350     7.8210    -1.5670 H     1 <1>   0.1500 
@<TRIPOS>BOND
  1   1   2  2   
  2   2   3  am  
  3   2   4  1   
  4   3   5  1   
  5   3   6  1   
  6   4   7  ar  
  7   4   8  ar  
  8   5   9  1   
  9   5  29  1   
 10   5  30  1   
 11   6  10  1   
 12   6  31  1   
 13   6  32  1   
 14   7  11  ar  
 15   7  33  1   
 16   8  12  ar  
 17   8  34  1   
 18   9  13  1   
 19   9  35  1   
 20   9  36  1   
 21  10  13  1   
 22  10  37  1   
 23  10  38  1   
 24  11  14  1   
 25  11  15  ar  
 26  12  15  ar  
 27  12  39  1   
 28  13  16  am  
 29  14  17  1   
 30  15  18  1   
 31  16  19  2   
 32  16  20  1   
 33  17  21  1   
 34  17  40  1   
 35  17  41  1   
 36  18  42  1   
 37  18  43  1   
 38  18  44  1   
 39  20  22  1   
 40  20  45  1   
 41  20  46  1   
 42  21  23  1   
 43  21  47  1   
 44  21  48  1   
 45  22  24  1   
 46  22  49  1   
 47  22  50  1   
 48  23  25  1   
 49  23  26  1   
 50  24  27  1   
 51  24  51  1   
 52  24  52  1   
 53  25  28  2   
 54  26  27  2   
 55  26  53  1   
 56  27  28  1   
@<TRIPOS>SUBSTRUCTURE
  1 ****   5 GROUP 4 **** **** 0

# MOE 2024.06 (io_trps.svl 2023.06)
