@<TRIPOS>MOLECULE
NONAME
45 48 1 0 0 
SMALL
USER_CHARGES


@<TRIPOS>ATOM
  1 O       -0.4860     0.0460    -0.9330 O.3   1 <1>  -0.3400 
  2 C       -0.7410     1.2210    -0.3050 C.ar  1 <1>   0.0830 
  3 C       -1.4960    -0.5690    -1.7280 C.3   1 <1>   0.2580 
  4 C       -0.6470     1.2430     1.0850 C.ar  1 <1>  -0.1440 
  5 C       -1.1010     2.3710    -1.0110 C.ar  1 <1>  -0.1440 
  6 C       -2.9540    -0.3660    -1.2280 C.3   1 <1>   0.2450 
  7 C       -1.7120    -2.0360    -1.2810 C.3   1 <1>   0.2450 
  8 C       -0.9750     2.4010     1.7700 C.ar  1 <1>  -0.1500 
  9 C       -0.1670     0.0210     1.8570 C.3   1 <1>  -0.0960 
 10 C       -1.4320     3.5140    -0.3030 C.ar  1 <1>  -0.1500 
 11 C       -1.1160     2.4360    -2.5330 C.3   1 <1>  -0.0970 
 12 N       -2.7320    -1.5210    -0.2870 N.3   1 <1>  -0.5900 
 13 C       -1.3770     3.5290     1.0790 C.ar  1 <1>  -0.1500 
 14 C       -3.7570    -2.2400     0.2330 C.ar  1 <1>   0.7710 
 15 N       -4.4030    -1.6580     1.2860 N.ar  1 <1>  -0.1790 
 16 N       -4.0860    -3.4090    -0.2490 N.ar  1 <1>  -0.5670 
 17 C       -5.4380    -2.2280     1.9150 C.ar  1 <1>   0.4610 
 18 C       -5.1320    -4.0200     0.3640 C.ar  1 <1>   0.1050 
 19 N       -6.0370    -1.6090     2.9460 N.pl3 1 <1>  -0.9000 
 20 C       -5.8240    -3.4800     1.4230 C.ar  1 <1>   0.0000 
 21 N       -5.7030    -5.2210     0.0980 N.pl3 1 <1>   0.3140 
 22 C       -6.8010    -4.4440     1.7180 C.2   1 <1>   0.1390 
 23 N       -6.7350    -5.4710     0.9410 N.2   1 <1>  -0.7070 
 24 C       -5.3240    -6.1900    -0.9420 C.3   1 <1>   0.0160 
 25 H       -1.3220    -0.4220    -2.7780 H     1 <1>   0.0000 
 26 H       -3.6980    -0.6090    -1.9670 H     1 <1>   0.0000 
 27 H       -3.1560     0.5530    -0.7090 H     1 <1>   0.0000 
 28 H       -0.8580    -2.4800    -0.8030 H     1 <1>   0.0000 
 29 H       -2.1670    -2.6540    -2.0360 H     1 <1>   0.0000 
 30 H       -0.9100     2.4390     2.8430 H     1 <1>   0.1500 
 31 H       -0.8350    -0.8050     1.7060 H     1 <1>   0.0800 
 32 H       -0.1010     0.2270     2.9100 H     1 <1>   0.0800 
 33 H        0.8100    -0.2610     1.5070 H     1 <1>   0.0800 
 34 H       -1.7250     4.4100    -0.8240 H     1 <1>   0.1500 
 35 H       -0.3240     1.8330    -2.9410 H     1 <1>   0.0800 
 36 H       -0.9600     3.4460    -2.8670 H     1 <1>   0.0800 
 37 H       -2.0590     2.0920    -2.9150 H     1 <1>   0.0800 
 38 H       -1.6320     4.4270     1.6160 H     1 <1>   0.1500 
 39 H       -4.0270    -0.7640     1.5780 H     1 <1>   0.4570 
 40 H       -6.8330    -2.0280     3.4460 H     1 <1>   0.4000 
 41 H       -5.7930    -0.6940     3.3430 H     1 <1>   0.4000 
 42 H       -7.5300    -4.3470     2.5060 H     1 <1>   0.1500 
 43 H       -4.4860    -5.8180    -1.5010 H     1 <1>   0.0800 
 44 H       -6.1600    -6.3430    -1.5990 H     1 <1>   0.0800 
 45 H       -5.0630    -7.1210    -0.4740 H     1 <1>   0.0800 
@<TRIPOS>BOND
  1   1   2  1   
  2   1   3  1   
  3   2   4  ar  
  4   2   5  ar  
  5   3   6  1   
  6   3   7  1   
  7   3  25  1   
  8   4   8  ar  
  9   4   9  1   
 10   5  10  ar  
 11   5  11  1   
 12   6  12  1   
 13   6  26  1   
 14   6  27  1   
 15   7  12  1   
 16   7  28  1   
 17   7  29  1   
 18   8  13  ar  
 19   8  30  1   
 20   9  31  1   
 21   9  32  1   
 22   9  33  1   
 23  10  13  ar  
 24  10  34  1   
 25  11  35  1   
 26  11  36  1   
 27  11  37  1   
 28  12  14  1   
 29  13  38  1   
 30  14  15  ar  
 31  14  16  ar  
 32  15  17  ar  
 33  15  39  1   
 34  16  18  ar  
 35  17  19  1   
 36  17  20  ar  
 37  18  20  ar  
 38  18  21  1   
 39  19  40  1   
 40  19  41  1   
 41  20  22  1   
 42  21  23  1   
 43  21  24  1   
 44  22  23  2   
 45  22  42  1   
 46  24  43  1   
 47  24  44  1   
 48  24  45  1   
@<TRIPOS>SUBSTRUCTURE
  1 ****  12 GROUP 4 **** **** 0

# MOE 2024.06 (io_trps.svl 2023.06)
