@<TRIPOS>MOLECULE
NONAME
52 54 1 0 0 
SMALL
USER_CHARGES


@<TRIPOS>ATOM
  1 O       -1.0090     2.5940    -1.1510 O.2   1 <1>  -0.5700 
  2 C        0.1380     2.7540    -0.8290 C.2   1 <1>   0.5690 
  3 N        0.9470     3.7080    -1.3060 N.am  1 <1>  -0.7300 
  4 C        0.8490     1.9370     0.2120 C.3   1 <1>  -0.0990 
  5 C        2.2580     3.7790    -0.6260 C.3   1 <1>   0.2810 
  6 C        2.0720     2.8080     0.5590 C.3   1 <1>  -0.1600 
  7 C        2.6930     5.2040    -0.2010 C.2   1 <1>   0.5690 
  8 O        1.9200     6.1180    -0.3750 O.2   1 <1>  -0.5700 
  9 N        3.9370     5.4590     0.3400 N.am  1 <1>  -0.6600 
 10 C        5.1350     4.5680     0.2450 C.3   1 <1>   0.1400 
 11 C        4.1570     6.7240     1.0970 C.3   1 <1>   0.1400 
 12 C        6.1790     5.0730    -0.7830 C.3   1 <1>   0.3430 
 13 C        4.5870     7.8540     0.1570 C.3   1 <1>  -0.1600 
 14 N        6.5290     6.5330    -0.6610 N.4   1 <1>  -0.9590 
 15 C        5.3820     7.4050    -1.0670 C.3   1 <1>   0.3430 
 16 C        7.7620     6.8640    -1.4360 C.3   1 <1>   0.4860 
 17 C        8.2270     8.2550    -1.0580 C.ar  1 <1>  -0.1440 
 18 C        8.8920     8.4670     0.1420 C.ar  1 <1>   0.1600 
 19 C        8.0010     9.3350    -1.8930 C.ar  1 <1>  -0.1500 
 20 N        9.3100     9.6380     0.5790 N.ar  1 <1>  -0.6200 
 21 C        8.4410    10.5640    -1.4540 C.ar  1 <1>  -0.1500 
 22 C        9.0790    10.6700    -0.2280 C.ar  1 <1>   0.3930 
 23 O        9.4800    11.9010     0.1470 O.3   1 <1>  -0.3620 
 24 C       10.1710    12.1040     1.3610 C.3   1 <1>   0.1200 
 25 C       10.4850    13.5920     1.4870 C.3   1 <1>  -0.2400 
 26 H        0.5580     4.5410    -1.7560 H     1 <1>   0.3700 
 27 H        1.1400     0.9990    -0.2220 H     1 <1>   0.0800 
 28 H        0.2150     1.7710     1.0640 H     1 <1>   0.0800 
 29 H        2.9890     3.3830    -1.3080 H     1 <1>   0.0800 
 30 H        2.9490     2.2120     0.7370 H     1 <1>   0.0800 
 31 H        1.8550     3.3760     1.4480 H     1 <1>   0.0800 
 32 H        4.8400     3.5720    -0.0310 H     1 <1>   0.0800 
 33 H        5.5970     4.4960     1.2150 H     1 <1>   0.0800 
 34 H        4.9060     6.5660     1.8550 H     1 <1>   0.0800 
 35 H        3.2480     7.0090     1.6040 H     1 <1>   0.0800 
 36 H        5.7990     4.8830    -1.7740 H     1 <1>   0.0800 
 37 H        7.0710     4.4790    -0.6650 H     1 <1>   0.0800 
 38 H        5.1420     8.5920     0.7080 H     1 <1>   0.0800 
 39 H        3.6970     8.3450    -0.1970 H     1 <1>   0.0800 
 40 H        6.7240     6.7550     0.3230 H     1 <1>   0.4500 
 41 H        5.7330     8.2830    -1.5840 H     1 <1>   0.0800 
 42 H        4.7290     6.8660    -1.7350 H     1 <1>   0.0800 
 43 H        7.5630     6.8190    -2.4940 H     1 <1>   0.0800 
 44 H        8.5450     6.1590    -1.2080 H     1 <1>   0.0800 
 45 H        9.0960     7.6310     0.7900 H     1 <1>   0.1500 
 46 H        7.5090     9.2440    -2.8470 H     1 <1>   0.1500 
 47 H        8.3040    11.4510    -2.0450 H     1 <1>   0.1500 
 48 H       11.0760    11.5200     1.3400 H     1 <1>   0.0800 
 49 H        9.5420    11.7730     2.1700 H     1 <1>   0.0800 
 50 H       11.1030    13.9100     0.6670 H     1 <1>   0.0800 
 51 H       11.0120    13.7750     2.4060 H     1 <1>   0.0800 
 52 H        9.5740    14.1630     1.4950 H     1 <1>   0.0800 
@<TRIPOS>BOND
  1   1   2  2   
  2   2   3  am  
  3   2   4  1   
  4   3   5  1   
  5   3  26  1   
  6   4   6  1   
  7   4  27  1   
  8   4  28  1   
  9   5   6  1   
 10   5   7  1   
 11   5  29  1   
 12   6  30  1   
 13   6  31  1   
 14   7   8  2   
 15   7   9  am  
 16   9  10  1   
 17   9  11  1   
 18  10  12  1   
 19  10  32  1   
 20  10  33  1   
 21  11  13  1   
 22  11  34  1   
 23  11  35  1   
 24  12  14  1   
 25  12  36  1   
 26  12  37  1   
 27  13  15  1   
 28  13  38  1   
 29  13  39  1   
 30  14  15  1   
 31  14  16  1   
 32  14  40  1   
 33  15  41  1   
 34  15  42  1   
 35  16  17  1   
 36  16  43  1   
 37  16  44  1   
 38  17  18  ar  
 39  17  19  ar  
 40  18  20  ar  
 41  18  45  1   
 42  19  21  ar  
 43  19  46  1   
 44  20  22  ar  
 45  21  22  ar  
 46  21  47  1   
 47  22  23  1   
 48  23  24  1   
 49  24  25  1   
 50  24  48  1   
 51  24  49  1   
 52  25  50  1   
 53  25  51  1   
 54  25  52  1   
@<TRIPOS>SUBSTRUCTURE
  1 ****  15 GROUP 4 **** **** 0

# MOE 2024.06 (io_trps.svl 2023.06)
