@<TRIPOS>MOLECULE
NONAME
51 53 1 0 0 
SMALL
USER_CHARGES


@<TRIPOS>ATOM
  1 O       -0.2980    -0.2400    -3.0210 O.2   1 <1>  -0.5700 
  2 C       -0.6940     0.4880    -2.1420 C.2   1 <1>   0.5690 
  3 N       -1.3570     0.0160    -1.0610 N.am  1 <1>  -0.7300 
  4 C       -0.4380     1.9930    -2.2510 C.3   1 <1>   0.1710 
  5 C       -1.7520    -1.3720    -0.8270 C.3   1 <1>   0.3640 
  6 N       -0.5220     2.7190    -0.9500 N.3   1 <1>  -0.6890 
  7 C       -3.0430    -1.3740    -0.0170 C.ar  1 <1>  -0.1440 
  8 C       -0.6210    -2.0900    -0.0960 C.3   1 <1>  -0.2400 
  9 C       -0.1300     4.1540    -1.0810 C.3   1 <1>   0.2100 
 10 C        0.6800     2.4820    -0.0910 C.3   1 <1>   0.2100 
 11 C       -3.1090    -0.7920     1.2420 C.ar  1 <1>  -0.1500 
 12 C       -4.1850    -1.9630    -0.5420 C.ar  1 <1>  -0.1500 
 13 C        1.3060     3.7800    -0.6440 C.3   1 <1>   0.2580 
 14 C       -4.2910    -0.7990     1.9610 C.ar  1 <1>  -0.1500 
 15 C       -5.3670    -1.9700     0.1780 C.ar  1 <1>  -0.1500 
 16 O        1.7940     4.6050     0.3960 O.3   1 <1>  -0.3400 
 17 C       -5.4270    -1.3900     1.4340 C.ar  1 <1>  -0.1430 
 18 C        2.2190     5.8690     0.1490 C.ar  1 <1>   0.0830 
 19 C       -6.7250    -1.3970     2.2200 C.3   1 <1>  -0.0970 
 20 C        2.4910     6.6620     1.2520 C.ar  1 <1>  -0.1500 
 21 C        2.3880     6.3940    -1.1300 C.ar  1 <1>  -0.1500 
 22 C        2.9230     7.9680     1.0980 C.ar  1 <1>  -0.1430 
 23 C        2.8190     7.6990    -1.2870 C.ar  1 <1>  -0.1500 
 24 C        3.0840     8.4840    -0.1780 C.ar  1 <1>  -0.1500 
 25 C        3.2160     8.8330     2.3100 C.3   1 <1>  -0.0970 
 26 H       -1.6950     0.6930    -0.3730 H     1 <1>   0.3700 
 27 H       -1.1780     2.3970    -2.9190 H     1 <1>   0.0800 
 28 H        0.5270     2.1370    -2.7040 H     1 <1>   0.0800 
 29 H       -1.9150    -1.8540    -1.7780 H     1 <1>   0.0800 
 30 H       -0.3850    -1.5950     0.8280 H     1 <1>   0.0800 
 31 H        0.2540    -2.1170    -0.7190 H     1 <1>   0.0800 
 32 H       -0.9180    -3.1000     0.1200 H     1 <1>   0.0800 
 33 H       -0.6520     4.7590    -0.3610 H     1 <1>   0.0000 
 34 H       -0.2070     4.5100    -2.0930 H     1 <1>   0.0000 
 35 H        1.2100     1.5850    -0.3590 H     1 <1>   0.0000 
 36 H        0.4190     2.5430     0.9520 H     1 <1>   0.0000 
 37 H       -2.2390    -0.3270     1.6710 H     1 <1>   0.1500 
 38 H       -4.1620    -2.4170    -1.5170 H     1 <1>   0.1500 
 39 H        2.0260     3.6320    -1.4300 H     1 <1>   0.0000 
 40 H       -4.3220    -0.3410     2.9340 H     1 <1>   0.1500 
 41 H       -6.2430    -2.4300    -0.2460 H     1 <1>   0.1500 
 42 H       -6.5270    -1.3570     3.2760 H     1 <1>   0.0800 
 43 H       -7.2830    -2.2930     2.0130 H     1 <1>   0.0800 
 44 H       -7.3200    -0.5450     1.9450 H     1 <1>   0.0800 
 45 H        2.3570     6.2440     2.2330 H     1 <1>   0.1500 
 46 H        2.1960     5.8090    -2.0080 H     1 <1>   0.1500 
 47 H        2.9500     8.1090    -2.2740 H     1 <1>   0.1500 
 48 H        3.4180     9.4980    -0.3110 H     1 <1>   0.1500 
 49 H        3.3610     8.2250     3.1850 H     1 <1>   0.0800 
 50 H        2.3940     9.5030     2.4860 H     1 <1>   0.0800 
 51 H        4.1080     9.4110     2.1470 H     1 <1>   0.0800 
@<TRIPOS>BOND
  1   1   2  2   
  2   2   3  am  
  3   2   4  1   
  4   3   5  1   
  5   3  26  1   
  6   4   6  1   
  7   4  27  1   
  8   4  28  1   
  9   5   7  1   
 10   5   8  1   
 11   5  29  1   
 12   6   9  1   
 13   6  10  1   
 14   7  11  ar  
 15   7  12  ar  
 16   8  30  1   
 17   8  31  1   
 18   8  32  1   
 19   9  13  1   
 20   9  33  1   
 21   9  34  1   
 22  10  13  1   
 23  10  35  1   
 24  10  36  1   
 25  11  14  ar  
 26  11  37  1   
 27  12  15  ar  
 28  12  38  1   
 29  13  16  1   
 30  13  39  1   
 31  14  17  ar  
 32  14  40  1   
 33  15  17  ar  
 34  15  41  1   
 35  16  18  1   
 36  17  19  1   
 37  18  20  ar  
 38  18  21  ar  
 39  19  42  1   
 40  19  43  1   
 41  19  44  1   
 42  20  22  ar  
 43  20  45  1   
 44  21  23  ar  
 45  21  46  1   
 46  22  24  ar  
 47  22  25  1   
 48  23  24  ar  
 49  23  47  1   
 50  24  48  1   
 51  25  49  1   
 52  25  50  1   
 53  25  51  1   
@<TRIPOS>SUBSTRUCTURE
  1 ****   6 GROUP 4 **** **** 0

# MOE 2024.06 (io_trps.svl 2023.06)
