@<TRIPOS>MOLECULE
NONAME
48 49 1 0 0 
SMALL
USER_CHARGES


@<TRIPOS>ATOM
  1 O        0.0060    -0.7720    -0.1140 O.2   1 <1>  -0.5700 
  2 C       -0.7110     0.2020     0.0040 C.2   1 <1>   0.5690 
  3 N       -2.0490     0.0200     0.3090 N.am  1 <1>  -0.6600 
  4 C       -0.0710     1.6070    -0.2810 C.3   1 <1>   0.3410 
  5 C       -2.6680    -1.3320     0.0770 C.3   1 <1>   0.1400 
  6 C       -2.9660     1.0820     0.8340 C.3   1 <1>   0.1400 
  7 O       -0.3240     2.4900     0.8240 O.3   1 <1>  -0.3630 
  8 C       -0.6840     2.2070    -1.5580 C.3   1 <1>  -0.2400 
  9 C        1.4560     1.4910    -0.5050 C.3   1 <1>  -0.2400 
 10 C       -4.1490    -1.1760    -0.2570 C.3   1 <1>  -0.1860 
 11 C       -4.0990     0.4900     1.6800 C.3   1 <1>  -0.1600 
 12 C        0.2300     3.7260     0.9430 C.ar  1 <1>   0.0820 
 13 C       -4.7330    -2.4720    -0.7660 C.2   1 <1>   0.9060 
 14 C       -4.9090    -0.5860     0.9400 C.3   1 <1>   0.2000 
 15 C       -0.4610     4.8800     0.5650 C.ar  1 <1>  -0.1440 
 16 C        1.4930     3.8240     1.5090 C.ar  1 <1>  -0.1500 
 17 O       -4.9850    -2.5680    -1.9690 O.co2 1 <1>  -0.9000 
 18 O       -4.9570    -3.3880     0.0350 O.co2 1 <1>  -0.9000 
 19 O       -5.1820    -1.5760     1.8600 O.3   1 <1>  -0.6800 
 20 C        0.1700     6.1170     0.6830 C.ar  1 <1>  -0.1440 
 21 C       -1.8970     4.8080     0.0520 C.3   1 <1>  -0.0970 
 22 C        2.1070     5.0530     1.6370 C.ar  1 <1>  -0.1500 
 23 C        1.4490     6.1930     1.2150 C.ar  1 <1>  -0.1500 
 24 C       -0.5050     7.4130     0.2510 C.3   1 <1>  -0.0970 
 25 H       -2.1710    -1.8270    -0.7400 H     1 <1>   0.0800 
 26 H       -2.5530    -1.9400     0.9590 H     1 <1>   0.0800 
 27 H       -2.4260     1.7670     1.4590 H     1 <1>   0.0800 
 28 H       -3.3870     1.6240     0.0050 H     1 <1>   0.0800 
 29 H       -0.5090     1.5410    -2.3840 H     1 <1>   0.0800 
 30 H       -0.2350     3.1550    -1.7900 H     1 <1>   0.0800 
 31 H       -1.7450     2.3230    -1.4550 H     1 <1>   0.0800 
 32 H        1.6530     0.8100    -1.3140 H     1 <1>   0.0800 
 33 H        1.9290     1.0980     0.3750 H     1 <1>   0.0800 
 34 H        1.8900     2.4380    -0.7680 H     1 <1>   0.0800 
 35 H       -4.2200    -0.4860    -1.0750 H     1 <1>   0.0800 
 36 H       -4.7610     1.2770     1.9880 H     1 <1>   0.0800 
 37 H       -3.6520     0.0720     2.5660 H     1 <1>   0.0800 
 38 H       -5.8530    -0.1950     0.5990 H     1 <1>   0.0800 
 39 H        1.9940     2.9380     1.8500 H     1 <1>   0.1500 
 40 H       -5.2050    -2.4460     1.3500 H     1 <1>   0.4000 
 41 H       -2.4950     5.5820     0.4970 H     1 <1>   0.0800 
 42 H       -2.3550     3.8730     0.3060 H     1 <1>   0.0800 
 43 H       -1.9130     4.9270    -1.0160 H     1 <1>   0.0800 
 44 H        3.0910     5.1240     2.0650 H     1 <1>   0.1500 
 45 H        1.9410     7.1440     1.3120 H     1 <1>   0.1500 
 46 H        0.1960     8.2280     0.2410 H     1 <1>   0.0800 
 47 H       -1.2980     7.6580     0.9330 H     1 <1>   0.0800 
 48 H       -0.9080     7.3120    -0.7400 H     1 <1>   0.0800 
@<TRIPOS>BOND
  1   1   2  2   
  2   2   3  am  
  3   2   4  1   
  4   3   5  1   
  5   3   6  1   
  6   4   7  1   
  7   4   8  1   
  8   4   9  1   
  9   5  10  1   
 10   5  25  1   
 11   5  26  1   
 12   6  11  1   
 13   6  27  1   
 14   6  28  1   
 15   7  12  1   
 16   8  29  1   
 17   8  30  1   
 18   8  31  1   
 19   9  32  1   
 20   9  33  1   
 21   9  34  1   
 22  10  13  1   
 23  10  14  1   
 24  10  35  1   
 25  11  14  1   
 26  11  36  1   
 27  11  37  1   
 28  12  15  ar  
 29  12  16  ar  
 30  13  17  ar  
 31  13  18  ar  
 32  14  19  1   
 33  14  38  1   
 34  15  20  ar  
 35  15  21  1   
 36  16  22  ar  
 37  16  39  1   
 38  19  40  1   
 39  20  23  ar  
 40  20  24  1   
 41  21  41  1   
 42  21  42  1   
 43  21  43  1   
 44  22  23  ar  
 45  22  44  1   
 46  23  45  1   
 47  24  46  1   
 48  24  47  1   
 49  24  48  1   
@<TRIPOS>SUBSTRUCTURE
  1 ****   6 GROUP 4 **** **** 0

# MOE 2024.06 (io_trps.svl 2023.06)
