@<TRIPOS>MOLECULE
NONAME
52 53 1 0 0 
SMALL
USER_CHARGES


@<TRIPOS>ATOM
  1 O        3.3180     1.7100     1.9010 O.co2 1 <1>  -0.9000 
  2 C        2.6920     0.7580     1.4110 C.2   1 <1>   0.9060 
  3 O        2.5820    -0.3080     2.0140 O.co2 1 <1>  -0.9000 
  4 C        2.3200     0.7930    -0.0840 C.3   1 <1>  -0.1060 
  5 C        3.2570    -0.2700    -0.7030 C.3   1 <1>   0.2000 
  6 C        2.6510     2.1740    -0.7430 C.3   1 <1>  -0.1600 
  7 C        0.8250     0.4250    -0.2950 C.3   1 <1>  -0.1600 
  8 O        3.0950    -0.2970    -2.0900 O.3   1 <1>  -0.6800 
  9 C        4.7380     0.0610    -0.3770 C.3   1 <1>   0.3430 
 10 C        4.1330     2.3570    -1.1220 C.3   1 <1>   0.3430 
 11 C       -0.1490     1.4000     0.3860 C.3   1 <1>  -0.1600 
 12 N        4.9780     1.5390    -0.2150 N.4   1 <1>  -0.9590 
 13 C       -1.6010     0.9710     0.1590 C.3   1 <1>  -0.2400 
 14 C        6.4010     1.9190    -0.1410 C.3   1 <1>   0.4860 
 15 C        6.5200     3.4030     0.1540 C.ar  1 <1>  -0.1440 
 16 C        7.1870     4.2400    -0.7260 C.ar  1 <1>  -0.1500 
 17 C        5.9500     3.9400     1.2990 C.ar  1 <1>  -0.1500 
 18 C        7.2780     5.5960    -0.4660 C.ar  1 <1>  -0.1500 
 19 C        6.0430     5.2960     1.5550 C.ar  1 <1>  -0.1500 
 20 C        6.7070     6.1380     0.6760 C.ar  1 <1>  -0.1440 
 21 C        6.7910     7.6330     0.9750 C.3   1 <1>   0.0630 
 22 C        6.0600     8.4420    -0.1020 C.3   1 <1>  -0.2400 
 23 C        8.2480     8.0890     1.1050 C.3   1 <1>  -0.2400 
 24 H        3.0220    -1.2540    -0.3300 H     1 <1>   0.0800 
 25 H        2.3630     2.9700    -0.0780 H     1 <1>   0.0800 
 26 H        2.0750     2.3010    -1.6420 H     1 <1>   0.0800 
 27 H        0.5990     0.3900    -1.3460 H     1 <1>   0.0800 
 28 H        0.6550    -0.5590     0.1090 H     1 <1>   0.0800 
 29 H        2.1680    -0.5320    -2.2970 H     1 <1>   0.4000 
 30 H        5.3620    -0.3460    -1.1540 H     1 <1>   0.0800 
 31 H        4.9880    -0.4250     0.5530 H     1 <1>   0.0800 
 32 H        4.3920     3.4010    -1.0480 H     1 <1>   0.0800 
 33 H        4.2870     2.0310    -2.1370 H     1 <1>   0.0800 
 34 H        0.0440     1.4250     1.4460 H     1 <1>   0.0800 
 35 H       -0.0150     2.3960     0.0010 H     1 <1>   0.0800 
 36 H        4.5700     1.7650     0.7310 H     1 <1>   0.4500 
 37 H       -1.7680    -0.0110     0.5660 H     1 <1>   0.0800 
 38 H       -1.8320     0.9570    -0.8910 H     1 <1>   0.0800 
 39 H       -2.2670     1.6590     0.6480 H     1 <1>   0.0800 
 40 H        6.8840     1.3630     0.6450 H     1 <1>   0.0800 
 41 H        6.8880     1.6930    -1.0750 H     1 <1>   0.0800 
 42 H        7.6410     3.8500    -1.6210 H     1 <1>   0.1500 
 43 H        5.4200     3.3140     2.0020 H     1 <1>   0.1500 
 44 H        7.7980     6.2320    -1.1610 H     1 <1>   0.1500 
 45 H        5.5890     5.6890     2.4480 H     1 <1>   0.1500 
 46 H        6.3030     7.8260     1.9160 H     1 <1>   0.0800 
 47 H        6.5380     8.3280    -1.0580 H     1 <1>   0.0800 
 48 H        6.0540     9.4850     0.1570 H     1 <1>   0.0800 
 49 H        5.0420     8.1040    -0.1840 H     1 <1>   0.0800 
 50 H        8.7730     7.9700     0.1750 H     1 <1>   0.0800 
 51 H        8.7460     7.5040     1.8570 H     1 <1>   0.0800 
 52 H        8.2890     9.1240     1.3930 H     1 <1>   0.0800 
@<TRIPOS>BOND
  1   1   2  ar  
  2   2   3  ar  
  3   2   4  1   
  4   4   5  1   
  5   4   6  1   
  6   4   7  1   
  7   5   8  1   
  8   5   9  1   
  9   5  24  1   
 10   6  10  1   
 11   6  25  1   
 12   6  26  1   
 13   7  11  1   
 14   7  27  1   
 15   7  28  1   
 16   8  29  1   
 17   9  12  1   
 18   9  30  1   
 19   9  31  1   
 20  10  12  1   
 21  10  32  1   
 22  10  33  1   
 23  11  13  1   
 24  11  34  1   
 25  11  35  1   
 26  12  14  1   
 27  12  36  1   
 28  13  37  1   
 29  13  38  1   
 30  13  39  1   
 31  14  15  1   
 32  14  40  1   
 33  14  41  1   
 34  15  16  ar  
 35  15  17  ar  
 36  16  18  ar  
 37  16  42  1   
 38  17  19  ar  
 39  17  43  1   
 40  18  20  ar  
 41  18  44  1   
 42  19  20  ar  
 43  19  45  1   
 44  20  21  1   
 45  21  22  1   
 46  21  23  1   
 47  21  46  1   
 48  22  47  1   
 49  22  48  1   
 50  22  49  1   
 51  23  50  1   
 52  23  51  1   
 53  23  52  1   
@<TRIPOS>SUBSTRUCTURE
  1 ****  10 GROUP 4 **** **** 0

# MOE 2024.06 (io_trps.svl 2023.06)
