@<TRIPOS>MOLECULE
NONAME
26 27 1 0 0 
SMALL
USER_CHARGES


@<TRIPOS>ATOM
  1 BR      -0.0190     0.3390    -2.1240 Br    1 <1>  -0.1110 
  2 C       -1.5820     1.0950    -1.2960 C.ar  1 <1>   0.1110 
  3 C       -2.6720     0.2740    -1.0650 C.ar  1 <1>  -0.1500 
  4 C       -1.5710     2.4370    -0.9560 C.ar  1 <1>  -0.1500 
  5 C       -3.7880     0.8350    -0.4670 C.ar  1 <1>  -0.1440 
  6 C       -2.6970     2.9840    -0.3610 C.ar  1 <1>  -0.1500 
  7 C       -3.7940     2.1700    -0.1230 C.ar  1 <1>  -0.1430 
  8 C       -5.1010     0.1640    -0.1090 C.3   1 <1>   0.1430 
  9 C       -5.1090     2.5620     0.5010 C.3   1 <1>   0.3440 
 10 C       -5.7980     1.2210     0.7780 C.3   1 <1>  -0.1600 
 11 C       -4.8750    -1.1450     0.6580 C.3   1 <1>  -0.2400 
 12 C       -5.9080    -0.1050    -1.3850 C.3   1 <1>  -0.2400 
 13 O       -5.8200     3.2500    -0.4540 O.3   1 <1>  -0.6800 
 14 H       -2.6440    -0.7630    -1.3450 H     1 <1>   0.1500 
 15 H       -0.7020     3.0380    -1.1550 H     1 <1>   0.1500 
 16 H       -2.7240     4.0260    -0.0890 H     1 <1>   0.1500 
 17 H       -5.0090     3.1750     1.3810 H     1 <1>   0.0800 
 18 H       -5.6210     0.9830     1.8110 H     1 <1>   0.0800 
 19 H       -6.8610     1.2700     0.6230 H     1 <1>   0.0800 
 20 H       -4.2480    -0.9720     1.5150 H     1 <1>   0.0800 
 21 H       -4.3940    -1.8720     0.0290 H     1 <1>   0.0800 
 22 H       -5.8140    -1.5490     0.9920 H     1 <1>   0.0800 
 23 H       -6.0680     0.8060    -1.9310 H     1 <1>   0.0800 
 24 H       -6.8650    -0.5310    -1.1410 H     1 <1>   0.0800 
 25 H       -5.3800    -0.7920    -2.0220 H     1 <1>   0.0800 
 26 H       -5.5850     2.8720    -1.3220 H     1 <1>   0.4000 
@<TRIPOS>BOND
  1   1   2  1   
  2   2   3  ar  
  3   2   4  ar  
  4   3   5  ar  
  5   3  14  1   
  6   4   6  ar  
  7   4  15  1   
  8   5   7  ar  
  9   5   8  1   
 10   6   7  ar  
 11   6  16  1   
 12   7   9  1   
 13   8  10  1   
 14   8  11  1   
 15   8  12  1   
 16   9  10  1   
 17   9  13  1   
 18   9  17  1   
 19  10  18  1   
 20  10  19  1   
 21  11  20  1   
 22  11  21  1   
 23  11  22  1   
 24  12  23  1   
 25  12  24  1   
 26  12  25  1   
 27  13  26  1   
@<TRIPOS>SUBSTRUCTURE
  1 ****   5 GROUP 4 **** **** 0

# MOE 2024.06 (io_trps.svl 2023.06)
