@<TRIPOS>MOLECULE
NONAME
46 48 1 0 0 
SMALL
USER_CHARGES


@<TRIPOS>ATOM
  1 O        1.6290    -1.5270     2.5230 O.2   1 <1>  -0.5700 
  2 C        1.5000    -2.0240     1.4160 C.2   1 <1>   0.5440 
  3 N        1.3060    -1.1590     0.3550 N.am  1 <1>  -0.6600 
  4 C        1.5800    -3.4790     1.2810 C.ar  1 <1>   0.3960 
  5 C        1.1970     0.3070     0.5280 C.3   1 <1>   0.1400 
  6 C        1.2880    -1.5240    -1.0790 C.3   1 <1>   0.1400 
  7 N        0.8670    -4.1300     0.3440 N.ar  1 <1>  -0.6200 
  8 C        2.4110    -4.1680     2.1710 C.ar  1 <1>   0.1600 
  9 C        0.8820     0.8440    -0.8640 C.3   1 <1>  -0.1600 
 10 C        1.4500    -0.2020    -1.8190 C.3   1 <1>  -0.1600 
 11 C        1.0340    -5.4330     0.3700 C.ar  1 <1>   0.4100 
 12 N        2.6020    -5.4820     2.1960 N.ar  1 <1>  -0.6200 
 13 N        0.2720    -6.0940    -0.5530 N.pl3 1 <1>  -0.8690 
 14 C        1.8900    -6.0870     1.2680 C.ar  1 <1>   0.1600 
 15 C       -0.7870    -7.0250    -0.0760 C.3   1 <1>   0.2090 
 16 C       -1.9190    -6.2600     0.6360 C.3   1 <1>   0.2090 
 17 N       -2.9370    -7.1840     1.1990 N.pl3 1 <1>  -0.8690 
 18 C       -3.5750    -8.0360     0.3440 C.ar  1 <1>   0.4100 
 19 N       -3.0840    -9.2620     0.3900 N.ar  1 <1>  -0.6200 
 20 C       -4.6270    -7.6350    -0.4890 C.ar  1 <1>  -0.1440 
 21 C       -3.6460   -10.1340    -0.4280 C.ar  1 <1>   0.1600 
 22 C       -5.1890    -8.5620    -1.3370 C.ar  1 <1>  -0.1500 
 23 C       -5.1700    -6.2120    -0.4710 C.3   1 <1>  -0.0970 
 24 C       -4.6800    -9.8440    -1.3000 C.ar  1 <1>  -0.1500 
 25 H        2.1400     0.6890     0.8790 H     1 <1>   0.0800 
 26 H        0.4230     0.5510     1.2360 H     1 <1>   0.0800 
 27 H        0.3370    -1.9710    -1.3150 H     1 <1>   0.0800 
 28 H        2.0830    -2.2120    -1.3170 H     1 <1>   0.0800 
 29 H        2.9500    -3.5920     2.9050 H     1 <1>   0.1500 
 30 H        1.3070     1.8200    -1.0210 H     1 <1>   0.0800 
 31 H       -0.1860     0.9030    -0.9800 H     1 <1>   0.0800 
 32 H        0.9450    -0.2100    -2.7680 H     1 <1>   0.0800 
 33 H        2.4980    -0.0180    -1.9800 H     1 <1>   0.0800 
 34 H       -0.0940    -5.4330    -1.2440 H     1 <1>   0.4000 
 35 H        1.9690    -7.1550     1.1920 H     1 <1>   0.1500 
 36 H       -0.3590    -7.7430     0.6020 H     1 <1>   0.0800 
 37 H       -1.1890    -7.5570    -0.9210 H     1 <1>   0.0800 
 38 H       -2.3920    -5.5910    -0.0600 H     1 <1>   0.0800 
 39 H       -1.5080    -5.6760     1.4420 H     1 <1>   0.0800 
 40 H       -2.5330    -7.7450     1.9540 H     1 <1>   0.4000 
 41 H       -3.2610   -11.1380    -0.4040 H     1 <1>   0.1500 
 42 H       -5.9970    -8.3090    -2.0020 H     1 <1>   0.1500 
 43 H       -5.1890    -5.8340     0.5360 H     1 <1>   0.0800 
 44 H       -6.1730    -6.1830    -0.8580 H     1 <1>   0.0800 
 45 H       -4.5490    -5.5730    -1.0720 H     1 <1>   0.0800 
 46 H       -5.0830   -10.6100    -1.9370 H     1 <1>   0.1500 
@<TRIPOS>BOND
  1   1   2  2   
  2   2   3  am  
  3   2   4  1   
  4   3   5  1   
  5   3   6  1   
  6   4   7  ar  
  7   4   8  ar  
  8   5   9  1   
  9   5  25  1   
 10   5  26  1   
 11   6  10  1   
 12   6  27  1   
 13   6  28  1   
 14   7  11  ar  
 15   8  12  ar  
 16   8  29  1   
 17   9  10  1   
 18   9  30  1   
 19   9  31  1   
 20  10  32  1   
 21  10  33  1   
 22  11  13  1   
 23  11  14  ar  
 24  12  14  ar  
 25  13  15  1   
 26  13  34  1   
 27  14  35  1   
 28  15  16  1   
 29  15  36  1   
 30  15  37  1   
 31  16  17  1   
 32  16  38  1   
 33  16  39  1   
 34  17  18  1   
 35  17  40  1   
 36  18  19  ar  
 37  18  20  ar  
 38  19  21  ar  
 39  20  22  ar  
 40  20  23  1   
 41  21  24  ar  
 42  21  41  1   
 43  22  24  ar  
 44  22  42  1   
 45  23  43  1   
 46  23  44  1   
 47  23  45  1   
 48  24  46  1   
@<TRIPOS>SUBSTRUCTURE
  1 ****  13 GROUP 4 **** **** 0

# MOE 2024.06 (io_trps.svl 2023.06)
