@<TRIPOS>MOLECULE
NONAME
48 49 1 0 0 
SMALL
USER_CHARGES


@<TRIPOS>ATOM
  1 S       -0.2670    -0.2130     1.2440 S.o2  1 <1>   1.3330 
  2 O        0.3210    -1.2280     2.0880 O.2   1 <1>  -0.6500 
  3 O       -1.2720     0.6810     1.7700 O.2   1 <1>  -0.6500 
  4 N        0.9670     0.6970     0.5180 N.am  1 <1>  -0.8490 
  5 C       -0.9850    -1.0790    -0.1530 C.3   1 <1>  -0.0550 
  6 C        2.1530     0.8170     1.3740 C.3   1 <1>   0.1160 
  7 C        0.5320     2.0300     0.0840 C.3   1 <1>   0.1160 
  8 C       -2.1240    -2.0240     0.2750 C.3   1 <1>  -0.1600 
  9 C       -2.6720    -2.8260    -0.9030 C.3   1 <1>   0.3430 
 10 N       -3.6590    -3.8250    -0.4130 N.4   1 <1>  -0.9590 
 11 C       -3.9040    -4.8860    -1.4200 C.3   1 <1>   0.5230 
 12 C       -4.9530    -3.2040     0.0250 C.3   1 <1>   0.2630 
 13 C       -4.6400    -5.9960    -0.7110 C.2   1 <1>  -0.3320 
 14 N       -4.0100    -6.8730     0.1360 N.pl3 1 <1>   0.0330 
 15 C       -5.9590    -6.3110    -0.7760 C.2   1 <1>  -0.1810 
 16 C       -4.9470    -7.7370     0.6330 C.ar  1 <1>  -0.1520 
 17 C       -6.1790    -7.4140     0.0790 C.ar  1 <1>   0.0000 
 18 C       -7.0760    -5.6750    -1.5850 C.3   1 <1>  -0.0590 
 19 C       -4.8160    -8.7960     1.5350 C.ar  1 <1>  -0.1500 
 20 C       -7.3090    -8.1610     0.4310 C.ar  1 <1>  -0.1500 
 21 C       -5.9350    -9.5210     1.8720 C.ar  1 <1>  -0.1500 
 22 C       -7.1820    -9.2030     1.3200 C.ar  1 <1>  -0.1500 
 23 H       -0.2100    -1.6450    -0.6330 H     1 <1>   0.0800 
 24 H       -1.3560    -0.3590    -0.8560 H     1 <1>   0.0800 
 25 H        2.5500    -0.1600     1.5960 H     1 <1>   0.0800 
 26 H        1.9000     1.3050     2.3000 H     1 <1>   0.0800 
 27 H        2.9200     1.3830     0.8730 H     1 <1>   0.0800 
 28 H       -0.3160     1.9490    -0.5740 H     1 <1>   0.0800 
 29 H        1.3280     2.5240    -0.4470 H     1 <1>   0.0800 
 30 H        0.2520     2.6300     0.9350 H     1 <1>   0.0800 
 31 H       -2.9030    -1.4310     0.7210 H     1 <1>   0.0800 
 32 H       -1.7390    -2.6990     1.0200 H     1 <1>   0.0800 
 33 H       -1.8530    -3.3360    -1.3860 H     1 <1>   0.0800 
 34 H       -3.1330    -2.1670    -1.6220 H     1 <1>   0.0800 
 35 H       -3.2690    -4.3070     0.4060 H     1 <1>   0.4500 
 36 H       -2.9750    -5.2620    -1.8190 H     1 <1>   0.0800 
 37 H       -4.5010    -4.5020    -2.2320 H     1 <1>   0.0800 
 38 H       -5.4300    -2.7040    -0.8010 H     1 <1>   0.0800 
 39 H       -4.7820    -2.4890     0.8130 H     1 <1>   0.0800 
 40 H       -5.6220    -3.9630     0.4000 H     1 <1>   0.0800 
 41 H       -3.0100    -6.9500     0.3530 H     1 <1>   0.2700 
 42 H       -6.7130    -4.8650    -2.1890 H     1 <1>   0.0800 
 43 H       -7.8400    -5.3050    -0.9250 H     1 <1>   0.0800 
 44 H       -7.5150    -6.4130    -2.2330 H     1 <1>   0.0800 
 45 H       -3.8570    -9.0380     1.9550 H     1 <1>   0.1500 
 46 H       -8.2620    -7.9130     0.0010 H     1 <1>   0.1500 
 47 H       -5.8650   -10.3420     2.5640 H     1 <1>   0.1500 
 48 H       -8.0420    -9.7870     1.5990 H     1 <1>   0.1500 
@<TRIPOS>BOND
  1   1   2  2   
  2   1   3  2   
  3   1   4  am  
  4   1   5  1   
  5   4   6  1   
  6   4   7  1   
  7   5   8  1   
  8   5  23  1   
  9   5  24  1   
 10   6  25  1   
 11   6  26  1   
 12   6  27  1   
 13   7  28  1   
 14   7  29  1   
 15   7  30  1   
 16   8   9  1   
 17   8  31  1   
 18   8  32  1   
 19   9  10  1   
 20   9  33  1   
 21   9  34  1   
 22  10  11  1   
 23  10  12  1   
 24  10  35  1   
 25  11  13  1   
 26  11  36  1   
 27  11  37  1   
 28  12  38  1   
 29  12  39  1   
 30  12  40  1   
 31  13  14  1   
 32  13  15  2   
 33  14  16  1   
 34  14  41  1   
 35  15  17  1   
 36  15  18  1   
 37  16  17  ar  
 38  16  19  ar  
 39  17  20  ar  
 40  18  42  1   
 41  18  43  1   
 42  18  44  1   
 43  19  21  ar  
 44  19  45  1   
 45  20  22  ar  
 46  20  46  1   
 47  21  22  ar  
 48  21  47  1   
 49  22  48  1   
@<TRIPOS>SUBSTRUCTURE
  1 ****  10 GROUP 4 **** **** 0

# MOE 2024.06 (io_trps.svl 2023.06)
