@<TRIPOS>MOLECULE
NONAME
56 59 1 0 0 
SMALL
USER_CHARGES


@<TRIPOS>ATOM
  1 O       -2.4450     2.1400    -1.9880 O.2   1 <1>  -0.5700 
  2 C       -2.2470     2.4640    -0.8290 C.2   1 <1>   0.7150 
  3 N       -3.1300     2.0110     0.1380 N.am  1 <1>  -0.6600 
  4 C       -1.1230     3.3030    -0.4710 C.2   1 <1>   0.0550 
  5 C       -4.5210     1.6300    -0.2510 C.3   1 <1>   0.2200 
  6 C       -2.5830     1.4090     1.3910 C.3   1 <1>   0.0600 
  7 O       -0.0520     3.4010    -1.2630 O.3   1 <1>  -0.2800 
  8 C       -0.9210     4.0990     0.6210 C.2   1 <1>  -0.1500 
  9 C       -5.2340     2.7680    -0.9860 C.3   1 <1>  -0.1600 
 10 C       -5.4480     1.3590     0.9380 C.3   1 <1>  -0.1600 
 11 C        0.8080     4.2200    -0.7040 C.2   1 <1>   0.2030 
 12 C        0.3300     4.6930     0.4710 C.2   1 <1>  -0.1500 
 13 C       -6.7300     2.4730    -0.8280 C.3   1 <1>  -0.0800 
 14 C       -6.8650     1.5500     0.3840 C.3   1 <1>  -0.0800 
 15 O        1.9690     4.4570    -1.3520 O.3   1 <1>  -0.1460 
 16 C       -7.6110     3.6930    -0.5280 C.3   1 <1>  -0.1600 
 17 C       -7.8560     2.2440     1.3330 C.3   1 <1>  -0.1600 
 18 C        3.0230     4.9910    -0.6900 C.ar  1 <1>   0.0820 
 19 C       -8.6790     3.1870     0.4470 C.3   1 <1>   0.4230 
 20 C        3.6740     6.0810    -1.2480 C.ar  1 <1>  -0.1500 
 21 C        3.4670     4.4590     0.5140 C.ar  1 <1>  -0.1500 
 22 N       -9.7490     2.4310    -0.2820 N.4   1 <1>  -0.9590 
 23 C        4.7540     6.6500    -0.5970 C.ar  1 <1>  -0.1500 
 24 C        4.5470     5.0300     1.1650 C.ar  1 <1>  -0.1500 
 25 C      -10.4850     3.2810    -1.2740 C.3   1 <1>   0.2630 
 26 C      -10.7500     1.8090     0.6440 C.3   1 <1>   0.2630 
 27 C        5.1880     6.1260     0.6100 C.ar  1 <1>  -0.1500 
 28 H       -4.4870     0.7600    -0.8880 H     1 <1>   0.0800 
 29 H       -2.9490     1.9470     2.2480 H     1 <1>   0.0800 
 30 H       -1.5070     1.4430     1.3950 H     1 <1>   0.0800 
 31 H       -2.8810     0.3770     1.4640 H     1 <1>   0.0800 
 32 H       -1.5910     4.2580     1.4470 H     1 <1>   0.1500 
 33 H       -4.9750     3.7020    -0.5190 H     1 <1>   0.0800 
 34 H       -4.9560     2.8020    -2.0250 H     1 <1>   0.0800 
 35 H       -5.3140     0.3650     1.3280 H     1 <1>   0.0800 
 36 H       -5.2510     2.0830     1.7090 H     1 <1>   0.0800 
 37 H        0.7970     5.3840     1.1500 H     1 <1>   0.1500 
 38 H       -7.0870     1.9560    -1.7040 H     1 <1>   0.0800 
 39 H       -7.2560     0.6000     0.0580 H     1 <1>   0.0800 
 40 H       -7.9880     4.1560    -1.4200 H     1 <1>   0.0800 
 41 H       -7.0300     4.4340    -0.0070 H     1 <1>   0.0800 
 42 H       -7.3150     2.8590     2.0310 H     1 <1>   0.0800 
 43 H       -8.4310     1.5430     1.9080 H     1 <1>   0.0800 
 44 H       -9.1080     3.9950     1.0180 H     1 <1>   0.0800 
 45 H        3.3300     6.4780    -2.1870 H     1 <1>   0.1500 
 46 H        2.9760     3.6000     0.9360 H     1 <1>   0.1500 
 47 H       -9.2660     1.6790    -0.7940 H     1 <1>   0.4500 
 48 H        5.2570     7.4980    -1.0270 H     1 <1>   0.1500 
 49 H        4.8910     4.6220     2.0990 H     1 <1>   0.1500 
 50 H      -10.9230     4.1350    -0.7840 H     1 <1>   0.0800 
 51 H      -11.2720     2.7110    -1.7400 H     1 <1>   0.0800 
 52 H       -9.8210     3.6280    -2.0480 H     1 <1>   0.0800 
 53 H      -11.2090     2.5640     1.2620 H     1 <1>   0.0800 
 54 H      -10.2810     1.0780     1.2810 H     1 <1>   0.0800 
 55 H      -11.5220     1.3130     0.0780 H     1 <1>   0.0800 
 56 H        6.0280     6.5700     1.1170 H     1 <1>   0.1500 
@<TRIPOS>BOND
  1   1   2  2   
  2   2   3  am  
  3   2   4  1   
  4   3   5  1   
  5   3   6  1   
  6   4   7  1   
  7   4   8  2   
  8   5   9  1   
  9   5  10  1   
 10   5  28  1   
 11   6  29  1   
 12   6  30  1   
 13   6  31  1   
 14   7  11  1   
 15   8  12  1   
 16   8  32  1   
 17   9  13  1   
 18   9  33  1   
 19   9  34  1   
 20  10  14  1   
 21  10  35  1   
 22  10  36  1   
 23  11  12  2   
 24  11  15  1   
 25  12  37  1   
 26  13  14  1   
 27  13  16  1   
 28  13  38  1   
 29  14  17  1   
 30  14  39  1   
 31  15  18  1   
 32  16  19  1   
 33  16  40  1   
 34  16  41  1   
 35  17  19  1   
 36  17  42  1   
 37  17  43  1   
 38  18  20  ar  
 39  18  21  ar  
 40  19  22  1   
 41  19  44  1   
 42  20  23  ar  
 43  20  45  1   
 44  21  24  ar  
 45  21  46  1   
 46  22  25  1   
 47  22  26  1   
 48  22  47  1   
 49  23  27  ar  
 50  23  48  1   
 51  24  27  ar  
 52  24  49  1   
 53  25  50  1   
 54  25  51  1   
 55  25  52  1   
 56  26  53  1   
 57  26  54  1   
 58  26  55  1   
 59  27  56  1   
@<TRIPOS>SUBSTRUCTURE
  1 ****   2 GROUP 4 **** **** 0

# MOE 2024.06 (io_trps.svl 2023.06)
