@<TRIPOS>MOLECULE
NONAME
48 49 1 0 0 
SMALL
USER_CHARGES


@<TRIPOS>ATOM
  1 O       -2.2120     0.1750     2.1110 O.2   1 <1>  -0.5700 
  2 C       -2.2840     0.7800     1.0630 C.2   1 <1>   0.5690 
  3 N       -2.5570     0.0950    -0.1050 N.am  1 <1>  -0.6600 
  4 C       -2.0860     2.3150     1.1280 C.3   1 <1>   0.4050 
  5 C       -2.4700    -1.3920    -0.1270 C.3   1 <1>   0.3200 
  6 C       -2.8550     0.7340    -1.4280 C.3   1 <1>   0.1400 
  7 O       -3.2600     2.9970     0.7060 O.3   1 <1>  -0.5600 
  8 C       -0.8560     2.7720     0.3290 C.ar  1 <1>  -0.1440 
  9 C       -3.7980    -1.9420     0.3370 C.2   1 <1>  -0.3320 
 10 C       -4.3610     0.7730    -1.7660 C.3   1 <1>   0.3430 
 11 C       -3.4600     4.2220     1.3530 C.3   1 <1>   0.0400 
 12 C       -0.9190     3.6910    -0.7140 C.ar  1 <1>  -0.1500 
 13 C        0.3810     2.2370     0.6680 C.ar  1 <1>  -0.1500 
 14 N       -4.1440    -1.9640     1.6380 N.pl3 1 <1>   0.0330 
 15 C       -4.8370    -2.4690    -0.3460 C.2   1 <1>   0.0770 
 16 N       -5.1730     1.5490    -0.7720 N.4   1 <1>  -0.9590 
 17 C        0.2240     4.0570    -1.4040 C.ar  1 <1>  -0.1500 
 18 C        1.5240     2.6020    -0.0210 C.ar  1 <1>  -0.1500 
 19 C       -5.3920    -2.4750     1.6600 C.2   1 <1>   0.0360 
 20 N       -5.8500    -2.7720     0.4860 N.2   1 <1>  -0.5650 
 21 C       -5.7460     0.6570     0.2800 C.3   1 <1>   0.2630 
 22 C       -6.2540     2.3340    -1.4330 C.3   1 <1>   0.2630 
 23 C        1.4460     3.5120    -1.0590 C.ar  1 <1>  -0.1500 
 24 H       -1.9180     2.5570     2.1630 H     1 <1>   0.0800 
 25 H       -1.6810    -1.7280     0.5270 H     1 <1>   0.0800 
 26 H       -2.2470    -1.7430    -1.1190 H     1 <1>   0.0800 
 27 H       -2.3410     0.1910    -2.2020 H     1 <1>   0.0800 
 28 H       -2.4740     1.7350    -1.4600 H     1 <1>   0.0800 
 29 H       -4.7380    -0.2340    -1.8400 H     1 <1>   0.0800 
 30 H       -4.4640     1.2290    -2.7360 H     1 <1>   0.0800 
 31 H       -4.3190     4.7040     0.9180 H     1 <1>   0.0800 
 32 H       -2.5930     4.8490     1.2240 H     1 <1>   0.0800 
 33 H       -3.6370     4.0480     2.4010 H     1 <1>   0.0800 
 34 H       -1.8530     4.1370    -1.0060 H     1 <1>   0.1500 
 35 H        0.4680     1.5280     1.4750 H     1 <1>   0.1500 
 36 H       -3.5730    -1.6260     2.4270 H     1 <1>   0.2700 
 37 H       -4.9230    -2.6450    -1.4060 H     1 <1>   0.1500 
 38 H       -4.5230     2.2050    -0.2870 H     1 <1>   0.4500 
 39 H        0.1670     4.7700    -2.2080 H     1 <1>   0.1500 
 40 H        2.4760     2.1790     0.2520 H     1 <1>   0.1500 
 41 H       -5.9380    -2.6120     2.5780 H     1 <1>   0.1500 
 42 H       -6.3260    -0.1360    -0.1640 H     1 <1>   0.0800 
 43 H       -6.3770     1.2190     0.9480 H     1 <1>   0.0800 
 44 H       -4.9520     0.2160     0.8580 H     1 <1>   0.0800 
 45 H       -6.9440     1.6730    -1.9320 H     1 <1>   0.0800 
 46 H       -5.8340     3.0120    -2.1580 H     1 <1>   0.0800 
 47 H       -6.7960     2.9090    -0.7000 H     1 <1>   0.0800 
 48 H        2.3360     3.7960    -1.5940 H     1 <1>   0.1500 
@<TRIPOS>BOND
  1   1   2  2   
  2   2   3  am  
  3   2   4  1   
  4   3   5  1   
  5   3   6  1   
  6   4   7  1   
  7   4   8  1   
  8   4  24  1   
  9   5   9  1   
 10   5  25  1   
 11   5  26  1   
 12   6  10  1   
 13   6  27  1   
 14   6  28  1   
 15   7  11  1   
 16   8  12  ar  
 17   8  13  ar  
 18   9  14  1   
 19   9  15  2   
 20  10  16  1   
 21  10  29  1   
 22  10  30  1   
 23  11  31  1   
 24  11  32  1   
 25  11  33  1   
 26  12  17  ar  
 27  12  34  1   
 28  13  18  ar  
 29  13  35  1   
 30  14  19  1   
 31  14  36  1   
 32  15  20  1   
 33  15  37  1   
 34  16  21  1   
 35  16  22  1   
 36  16  38  1   
 37  17  23  ar  
 38  17  39  1   
 39  18  23  ar  
 40  18  40  1   
 41  19  20  2   
 42  19  41  1   
 43  21  42  1   
 44  21  43  1   
 45  21  44  1   
 46  22  45  1   
 47  22  46  1   
 48  22  47  1   
 49  23  48  1   
@<TRIPOS>SUBSTRUCTURE
  1 ****   3 GROUP 4 **** **** 0

# MOE 2024.06 (io_trps.svl 2023.06)
