@<TRIPOS>MOLECULE
NONAME
39 40 1 0 0 
SMALL
USER_CHARGES


@<TRIPOS>ATOM
  1 CL       1.3010     1.0010     2.5080 Cl    1 <1>  -0.1770 
  2 C        2.0420    -0.2420     1.5300 C.ar  1 <1>   0.1770 
  3 C        1.9190    -1.5620     1.9010 C.ar  1 <1>  -0.1500 
  4 C        2.7400     0.1210     0.3930 C.ar  1 <1>  -0.1500 
  5 C        2.4940    -2.5720     1.1300 C.ar  1 <1>   0.0860 
  6 C        3.3260    -0.8650    -0.3740 C.ar  1 <1>  -0.1500 
  7 C        3.2270    -2.2110    -0.0180 C.ar  1 <1>   0.1000 
  8 C        2.3350    -3.9500     1.5340 C.2   1 <1>   0.5440 
  9 N        3.8450    -3.1770    -0.8050 N.pl3 1 <1>  -0.8690 
 10 O        2.7500    -4.2950     2.6260 O.2   1 <1>  -0.5700 
 11 N        1.7180    -4.8980     0.7370 N.am  1 <1>  -0.6600 
 12 C        5.2210    -2.9690    -1.3240 C.3   1 <1>   0.1290 
 13 C        1.7130    -6.3440     1.1580 C.3   1 <1>   0.1400 
 14 C        0.9460    -4.5440    -0.4910 C.3   1 <1>   0.1400 
 15 C        0.5890    -7.1790     0.5170 C.3   1 <1>   0.2000 
 16 C       -0.5000    -5.0620    -0.4230 C.3   1 <1>  -0.1600 
 17 O        0.9750    -7.6010    -0.7470 O.3   1 <1>  -0.6800 
 18 C       -0.7030    -6.3530     0.4100 C.3   1 <1>  -0.0800 
 19 C       -1.8680    -7.2090    -0.1130 C.3   1 <1>   0.1200 
 20 O       -3.0320    -6.4570    -0.1230 O.3   1 <1>  -0.6800 
 21 H        1.3760    -1.8180     2.7920 H     1 <1>   0.1500 
 22 H        2.8170     1.1590     0.1210 H     1 <1>   0.1500 
 23 H        3.8640    -0.5950    -1.2630 H     1 <1>   0.1500 
 24 H        3.7030    -4.1420    -0.4660 H     1 <1>   0.4000 
 25 H        5.7830    -2.3470    -0.6480 H     1 <1>   0.0800 
 26 H        5.1780    -2.4950    -2.2900 H     1 <1>   0.0800 
 27 H        5.7220    -3.9170    -1.4230 H     1 <1>   0.0800 
 28 H        2.6680    -6.7890     0.9440 H     1 <1>   0.0800 
 29 H        1.5730    -6.3820     2.2240 H     1 <1>   0.0800 
 30 H        0.9250    -3.4800    -0.6450 H     1 <1>   0.0800 
 31 H        1.4470    -4.9750    -1.3400 H     1 <1>   0.0800 
 32 H        0.4250    -8.0650     1.1060 H     1 <1>   0.0800 
 33 H       -1.1250    -4.2880    -0.0130 H     1 <1>   0.0800 
 34 H       -0.8370    -5.2220    -1.4320 H     1 <1>   0.0800 
 35 H        1.1720    -6.8220    -1.2990 H     1 <1>   0.4000 
 36 H       -0.9460    -6.0580     1.4170 H     1 <1>   0.0800 
 37 H       -2.0280    -8.0700     0.5140 H     1 <1>   0.0800 
 38 H       -1.6790    -7.5410    -1.1200 H     1 <1>   0.0800 
 39 H       -3.2470    -6.1410     0.7750 H     1 <1>   0.4000 
@<TRIPOS>BOND
  1   1   2  1   
  2   2   3  ar  
  3   2   4  ar  
  4   3   5  ar  
  5   3  21  1   
  6   4   6  ar  
  7   4  22  1   
  8   5   7  ar  
  9   5   8  1   
 10   6   7  ar  
 11   6  23  1   
 12   7   9  1   
 13   8  10  2   
 14   8  11  am  
 15   9  12  1   
 16   9  24  1   
 17  11  13  1   
 18  11  14  1   
 19  12  25  1   
 20  12  26  1   
 21  12  27  1   
 22  13  15  1   
 23  13  28  1   
 24  13  29  1   
 25  14  16  1   
 26  14  30  1   
 27  14  31  1   
 28  15  17  1   
 29  15  18  1   
 30  15  32  1   
 31  16  18  1   
 32  16  33  1   
 33  16  34  1   
 34  17  35  1   
 35  18  19  1   
 36  18  36  1   
 37  19  20  1   
 38  19  37  1   
 39  19  38  1   
 40  20  39  1   
@<TRIPOS>SUBSTRUCTURE
  1 ****  11 GROUP 4 **** **** 0

# MOE 2024.06 (io_trps.svl 2023.06)
