@<TRIPOS>MOLECULE
NONAME
44 47 1 0 0 
SMALL
USER_CHARGES


@<TRIPOS>ATOM
  1 O       -0.4860     0.1070     1.2790 O.2   1 <1>  -0.5700 
  2 C       -1.5160     0.6910     0.9850 C.2   1 <1>   0.5440 
  3 N       -2.7010    -0.0210     1.0910 N.am  1 <1>  -0.6600 
  4 C       -1.4400     2.0900     0.5540 C.ar  1 <1>   0.3960 
  5 C       -2.7300    -1.5170     1.0610 C.3   1 <1>   0.1400 
  6 C       -4.0700     0.5600     0.9520 C.3   1 <1>   0.1400 
  7 N       -2.1710     2.5240    -0.4950 N.ar  1 <1>  -0.6200 
  8 C       -0.5820     2.9530     1.2410 C.ar  1 <1>  -0.1500 
  9 C       -3.5130    -2.0190    -0.1700 C.3   1 <1>   0.3440 
 10 C       -4.7590    -0.0180    -0.2970 C.3   1 <1>   0.2950 
 11 C       -2.0390     3.7940    -0.8340 C.ar  1 <1>   0.1600 
 12 C       -0.4560     4.2760     0.8810 C.ar  1 <1>  -0.1500 
 13 O       -4.7820    -1.4160    -0.2290 O.3   1 <1>  -0.5600 
 14 C       -3.6690    -3.5370    -0.1240 C.ar  1 <1>  -0.1430 
 15 C       -6.2080     0.4640    -0.4130 C.3   1 <1>  -0.1950 
 16 C       -1.2090     4.7040    -0.1890 C.ar  1 <1>   0.0830 
 17 C       -4.7450    -4.1360     0.5180 C.ar  1 <1>  -0.1500 
 18 C       -2.7110    -4.3420    -0.7240 C.ar  1 <1>  -0.1500 
 19 C       -6.9170     0.4760    -1.7310 C.3   1 <1>  -0.2000 
 20 C       -6.5330     1.7700    -1.0700 C.3   1 <1>  -0.2000 
 21 O       -1.1170     5.9860    -0.5770 O.3   1 <1>  -0.5330 
 22 C       -4.8600    -5.5150     0.5620 C.ar  1 <1>  -0.1500 
 23 C       -2.8250    -5.7220    -0.6820 C.ar  1 <1>  -0.1500 
 24 C       -3.8990    -6.3090    -0.0380 C.ar  1 <1>  -0.1500 
 25 H       -1.7330    -1.9200     1.0280 H     1 <1>   0.0800 
 26 H       -3.2010    -1.8840     1.9560 H     1 <1>   0.0800 
 27 H       -4.6500     0.3040     1.8210 H     1 <1>   0.0800 
 28 H       -4.0400     1.6310     0.8920 H     1 <1>   0.0800 
 29 H       -0.0080     2.5660     2.0650 H     1 <1>   0.1500 
 30 H       -2.9810    -1.7470    -1.0650 H     1 <1>   0.0800 
 31 H       -4.2110     0.2700    -1.1790 H     1 <1>   0.0800 
 32 H       -2.6200     4.1350    -1.6720 H     1 <1>   0.1500 
 33 H        0.1990     4.9540     1.4010 H     1 <1>   0.1500 
 34 H       -6.7910     0.1950     0.4510 H     1 <1>   0.1000 
 35 H       -5.4990    -3.5260     0.9850 H     1 <1>   0.1500 
 36 H       -1.8690    -3.9000    -1.2280 H     1 <1>   0.1500 
 37 H       -6.3800     0.1520    -2.6060 H     1 <1>   0.1000 
 38 H       -7.9530     0.1840    -1.7540 H     1 <1>   0.1000 
 39 H       -7.3110     2.3830    -0.6490 H     1 <1>   0.1000 
 40 H       -5.7410     2.3520    -1.5090 H     1 <1>   0.1000 
 41 H       -1.6580     6.2280    -1.3510 H     1 <1>   0.4500 
 42 H       -5.6980    -5.9670     1.0610 H     1 <1>   0.1500 
 43 H       -2.0770    -6.3380    -1.1500 H     1 <1>   0.1500 
 44 H       -3.9890    -7.3800    -0.0050 H     1 <1>   0.1500 
@<TRIPOS>BOND
  1   1   2  2   
  2   2   3  am  
  3   2   4  1   
  4   3   5  1   
  5   3   6  1   
  6   4   7  ar  
  7   4   8  ar  
  8   5   9  1   
  9   5  25  1   
 10   5  26  1   
 11   6  10  1   
 12   6  27  1   
 13   6  28  1   
 14   7  11  ar  
 15   8  12  ar  
 16   8  29  1   
 17   9  13  1   
 18   9  14  1   
 19   9  30  1   
 20  10  13  1   
 21  10  15  1   
 22  10  31  1   
 23  11  16  ar  
 24  11  32  1   
 25  12  16  ar  
 26  12  33  1   
 27  14  17  ar  
 28  14  18  ar  
 29  15  19  1   
 30  15  20  1   
 31  15  34  1   
 32  16  21  1   
 33  17  22  ar  
 34  17  35  1   
 35  18  23  ar  
 36  18  36  1   
 37  19  20  1   
 38  19  37  1   
 39  19  38  1   
 40  20  39  1   
 41  20  40  1   
 42  21  41  1   
 43  22  24  ar  
 44  22  42  1   
 45  23  24  ar  
 46  23  43  1   
 47  24  44  1   
@<TRIPOS>SUBSTRUCTURE
  1 ****   3 GROUP 4 **** **** 0

# MOE 2024.06 (io_trps.svl 2023.06)
