@<TRIPOS>MOLECULE
NONAME
53 55 1 0 0 
SMALL
USER_CHARGES


@<TRIPOS>ATOM
  1 O        0.9140     2.0610    -1.3920 O.2   1 <1>  -0.5700 
  2 C        0.1630     2.9930    -1.2200 C.2   1 <1>   0.5690 
  3 N       -0.8840     2.9370    -0.3410 N.am  1 <1>  -0.6600 
  4 C        0.4300     4.2750    -2.0110 C.3   1 <1>   0.1810 
  5 C       -1.8290     4.0860    -0.1830 C.3   1 <1>   0.3640 
  6 C       -1.2010     1.7210     0.4580 C.3   1 <1>   0.0600 
  7 O       -0.6610     5.1740    -2.0600 O.3   1 <1>  -0.5600 
  8 C       -3.2030     3.7310    -0.7690 C.ar  1 <1>  -0.1430 
  9 C       -1.3110     5.4040    -0.8160 C.3   1 <1>   0.2610 
 10 C       -4.3860     3.9930    -0.0760 C.ar  1 <1>  -0.1430 
 11 C       -3.2770     3.1490    -2.0300 C.ar  1 <1>  -0.1500 
 12 C       -0.4460     6.2310     0.1440 C.2   1 <1>   0.5690 
 13 C       -5.6040     3.6580    -0.6500 C.ar  1 <1>  -0.1500 
 14 C       -4.3990     4.6440     1.3020 C.3   1 <1>  -0.0960 
 15 C       -4.4950     2.8200    -2.5940 C.ar  1 <1>  -0.1500 
 16 O       -0.6040     6.1190     1.3390 O.2   1 <1>  -0.5700 
 17 N        0.4570     7.0980    -0.3980 N.am  1 <1>  -0.5790 
 18 C       -5.6620     3.0740    -1.9010 C.ar  1 <1>  -0.1500 
 19 C        1.3900     8.0030     0.3070 C.3   1 <1>   0.0540 
 20 C        2.8280     7.4020     0.4530 C.3   1 <1>   0.0950 
 21 C        1.1680     9.4490    -0.0150 C.3   1 <1>  -0.2000 
 22 C        0.7760     8.9110     1.3290 C.3   1 <1>  -0.2000 
 23 C        2.7710     6.0610     1.2040 C.3   1 <1>  -0.2400 
 24 C        3.7950     8.3170     1.2300 C.3   1 <1>  -0.2400 
 25 C        3.4360     7.1670    -0.9410 C.3   1 <1>  -0.2400 
 26 H        0.6780     4.0140    -3.0240 H     1 <1>   0.0800 
 27 H        1.2720     4.7780    -1.5760 H     1 <1>   0.0800 
 28 H       -1.9500     4.2390     0.8720 H     1 <1>   0.0800 
 29 H       -1.2140     1.9660     1.5050 H     1 <1>   0.0800 
 30 H       -0.4630     0.9540     0.2940 H     1 <1>   0.0800 
 31 H       -2.1640     1.3370     0.1710 H     1 <1>   0.0800 
 32 H       -2.1690     6.0140    -1.0340 H     1 <1>   0.0800 
 33 H       -2.3780     2.9450    -2.5850 H     1 <1>   0.1500 
 34 H       -6.5230     3.8510    -0.1250 H     1 <1>   0.1500 
 35 H       -5.4040     4.8550     1.6200 H     1 <1>   0.0800 
 36 H       -3.8550     5.5710     1.2870 H     1 <1>   0.0800 
 37 H       -3.9520     3.9850     2.0250 H     1 <1>   0.0800 
 38 H       -4.5320     2.3670    -3.5690 H     1 <1>   0.1500 
 39 H        0.5310     7.1200    -1.4170 H     1 <1>   0.3700 
 40 H       -6.6130     2.8200    -2.3350 H     1 <1>   0.1500 
 41 H        1.9900    10.1390    -0.0500 H     1 <1>   0.1000 
 42 H        0.3830     9.7190    -0.6980 H     1 <1>   0.1000 
 43 H       -0.2680     8.7900     1.5600 H     1 <1>   0.1000 
 44 H        1.3380     9.2350     2.1840 H     1 <1>   0.1000 
 45 H        3.7600     5.6720     1.3700 H     1 <1>   0.0800 
 46 H        2.2160     5.3270     0.6510 H     1 <1>   0.0800 
 47 H        2.2900     6.1940     2.1570 H     1 <1>   0.0800 
 48 H        4.7710     7.8700     1.2850 H     1 <1>   0.0800 
 49 H        3.4520     8.4710     2.2360 H     1 <1>   0.0800 
 50 H        3.9020     9.2720     0.7490 H     1 <1>   0.0800 
 51 H        4.4300     6.7670    -0.8570 H     1 <1>   0.0800 
 52 H        3.4880     8.0940    -1.4840 H     1 <1>   0.0800 
 53 H        2.8460     6.4730    -1.5090 H     1 <1>   0.0800 
@<TRIPOS>BOND
  1   1   2  2   
  2   2   3  am  
  3   2   4  1   
  4   3   5  1   
  5   3   6  1   
  6   4   7  1   
  7   4  26  1   
  8   4  27  1   
  9   5   8  1   
 10   5   9  1   
 11   5  28  1   
 12   6  29  1   
 13   6  30  1   
 14   6  31  1   
 15   7   9  1   
 16   8  10  ar  
 17   8  11  ar  
 18   9  12  1   
 19   9  32  1   
 20  10  13  ar  
 21  10  14  1   
 22  11  15  ar  
 23  11  33  1   
 24  12  16  2   
 25  12  17  am  
 26  13  18  ar  
 27  13  34  1   
 28  14  35  1   
 29  14  36  1   
 30  14  37  1   
 31  15  18  ar  
 32  15  38  1   
 33  17  19  1   
 34  17  39  1   
 35  18  40  1   
 36  19  20  1   
 37  19  21  1   
 38  19  22  1   
 39  20  23  1   
 40  20  24  1   
 41  20  25  1   
 42  21  22  1   
 43  21  41  1   
 44  21  42  1   
 45  22  43  1   
 46  22  44  1   
 47  23  45  1   
 48  23  46  1   
 49  23  47  1   
 50  24  48  1   
 51  24  49  1   
 52  24  50  1   
 53  25  51  1   
 54  25  52  1   
 55  25  53  1   
@<TRIPOS>SUBSTRUCTURE
  1 ****   9 GROUP 4 **** **** 0

# MOE 2024.06 (io_trps.svl 2023.06)
