@<TRIPOS>MOLECULE
NONAME
44 46 1 0 0 
SMALL
USER_CHARGES


@<TRIPOS>ATOM
  1 S        0.8670    -0.4770     0.2480 S.o2  1 <1>   1.3330 
  2 O       -0.1840     0.3020     0.8650 O.2   1 <1>  -0.6500 
  3 O        1.5860    -1.4680     1.0130 O.2   1 <1>  -0.6500 
  4 N        2.0410     0.6670    -0.2110 N.am  1 <1>  -0.8490 
  5 C        0.2450    -1.1700    -1.2950 C.3   1 <1>   0.0890 
  6 C        2.3860     1.5030     0.9730 C.3   1 <1>   0.1960 
  7 C        3.2610     0.0380    -0.7490 C.3   1 <1>   0.1960 
  8 C       -0.8630    -2.1960    -1.1070 C.ar  1 <1>  -0.1440 
  9 C        3.2640     2.7610     0.7100 C.3   1 <1>   0.4230 
 10 C        4.1920     1.0600    -1.4390 C.3   1 <1>  -0.0800 
 11 C       -2.1590    -1.7810    -0.8410 C.ar  1 <1>  -0.1500 
 12 C       -0.5870    -3.5530    -1.1940 C.ar  1 <1>  -0.1500 
 13 N        3.1780     3.3220    -0.6980 N.4   1 <1>  -0.9590 
 14 C        4.7270     2.5600     1.1610 C.3   1 <1>   0.1200 
 15 C        5.5120     1.2920    -0.6880 C.3   1 <1>   0.1200 
 16 C        3.4700     2.3620    -1.8200 C.3   1 <1>   0.3430 
 17 C       -3.1700    -2.7110    -0.6730 C.ar  1 <1>  -0.1500 
 18 C       -1.5980    -4.4830    -1.0260 C.ar  1 <1>  -0.1500 
 19 C        1.8200     3.9130    -0.9150 C.3   1 <1>   0.2630 
 20 O        5.2910     1.3820     0.6790 O.3   1 <1>  -0.5600 
 21 C       -2.8900    -4.0620    -0.7670 C.ar  1 <1>  -0.1500 
 22 H       -0.1340    -0.3760    -1.9070 H     1 <1>   0.0800 
 23 H        1.0470    -1.6360    -1.8300 H     1 <1>   0.0800 
 24 H        1.4780     1.8730     1.4160 H     1 <1>   0.0800 
 25 H        2.8530     0.8870     1.7260 H     1 <1>   0.0800 
 26 H        3.7840    -0.4970     0.0310 H     1 <1>   0.0800 
 27 H        2.9810    -0.6940    -1.4860 H     1 <1>   0.0800 
 28 H        2.8850     3.5220     1.3710 H     1 <1>   0.0800 
 29 H        4.4790     0.6110    -2.3730 H     1 <1>   0.0800 
 30 H       -2.3920    -0.7330    -0.7550 H     1 <1>   0.1500 
 31 H        0.4130    -3.9000    -1.3880 H     1 <1>   0.1500 
 32 H        3.8700     4.0800    -0.7580 H     1 <1>   0.4500 
 33 H        4.7500     2.4840     2.2350 H     1 <1>   0.0800 
 34 H        5.3490     3.3900     0.8770 H     1 <1>   0.0800 
 35 H        6.0330     2.1720    -1.0280 H     1 <1>   0.0800 
 36 H        6.1590     0.4430    -0.8340 H     1 <1>   0.0800 
 37 H        2.5390     2.0800    -2.2860 H     1 <1>   0.0800 
 38 H        4.0540     2.8730    -2.5680 H     1 <1>   0.0800 
 39 H       -4.1740    -2.3830    -0.4650 H     1 <1>   0.1500 
 40 H       -1.3800    -5.5340    -1.0940 H     1 <1>   0.1500 
 41 H        1.0680     3.1420    -0.8550 H     1 <1>   0.0800 
 42 H        1.7620     4.3760    -1.8870 H     1 <1>   0.0800 
 43 H        1.6080     4.6590    -0.1670 H     1 <1>   0.0800 
 44 H       -3.6760    -4.7850    -0.6350 H     1 <1>   0.1500 
@<TRIPOS>BOND
  1   1   2  2   
  2   1   3  2   
  3   1   4  am  
  4   1   5  1   
  5   4   6  1   
  6   4   7  1   
  7   5   8  1   
  8   5  22  1   
  9   5  23  1   
 10   6   9  1   
 11   6  24  1   
 12   6  25  1   
 13   7  10  1   
 14   7  26  1   
 15   7  27  1   
 16   8  11  ar  
 17   8  12  ar  
 18   9  13  1   
 19   9  14  1   
 20   9  28  1   
 21  10  15  1   
 22  10  16  1   
 23  10  29  1   
 24  11  17  ar  
 25  11  30  1   
 26  12  18  ar  
 27  12  31  1   
 28  13  16  1   
 29  13  19  1   
 30  13  32  1   
 31  14  20  1   
 32  14  33  1   
 33  14  34  1   
 34  15  20  1   
 35  15  35  1   
 36  15  36  1   
 37  16  37  1   
 38  16  38  1   
 39  17  21  ar  
 40  17  39  1   
 41  18  21  ar  
 42  18  40  1   
 43  19  41  1   
 44  19  42  1   
 45  19  43  1   
 46  21  44  1   
@<TRIPOS>SUBSTRUCTURE
  1 ****   4 GROUP 4 **** **** 0

# MOE 2024.06 (io_trps.svl 2023.06)
