@<TRIPOS>MOLECULE
NONAME
48 50 1 0 0 
SMALL
USER_CHARGES


@<TRIPOS>ATOM
  1 CL      -1.7440    -1.4240     2.3780 Cl    1 <1>  -0.1770 
  2 C       -2.2520    -0.0880     1.3760 C.ar  1 <1>   0.1770 
  3 C       -2.1630     1.1990     1.8730 C.ar  1 <1>  -0.1500 
  4 C       -2.7310    -0.3380     0.1060 C.ar  1 <1>  -0.1500 
  5 C       -2.5580     2.2790     1.0940 C.ar  1 <1>  -0.1440 
  6 C       -3.1270     0.7290    -0.6790 C.ar  1 <1>  -0.1500 
  7 C       -3.0460     2.0260    -0.1930 C.ar  1 <1>   0.0830 
  8 C       -2.4410     3.6690     1.7140 C.3   1 <1>   0.4870 
  9 O       -3.4090     3.0080    -1.0440 O.3   1 <1>  -0.3630 
 10 N       -1.6830     4.6390     0.8790 N.4   1 <1>  -0.9590 
 11 C       -4.6660     3.6650    -0.8580 C.3   1 <1>   0.0140 
 12 C       -0.4460     4.1060     0.2660 C.3   1 <1>   0.3430 
 13 C       -1.5380     5.9300     1.5900 C.3   1 <1>   0.3430 
 14 C       -4.4760     5.0040    -0.1740 C.2   1 <1>   0.9060 
 15 C        0.1310     5.1430    -0.6920 C.3   1 <1>  -0.1600 
 16 C       -0.9090     6.9780     0.6720 C.3   1 <1>  -0.1600 
 17 O       -4.9480     5.1860     0.9500 O.co2 1 <1>  -0.9000 
 18 O       -3.6500     5.7970    -0.6430 O.co2 1 <1>  -0.9000 
 19 C        0.3940     6.4890     0.0100 C.3   1 <1>  -0.0800 
 20 C        0.9510     7.5430    -0.9690 C.3   1 <1>   0.3800 
 21 O        2.1460     7.0890    -1.4870 O.3   1 <1>  -0.6800 
 22 C        1.2220     8.8930    -0.3240 C.2   1 <1>  -0.1400 
 23 S        2.4010     8.9820     0.9820 S.3   1 <1>  -0.0800 
 24 C        0.7040    10.1120    -0.5670 C.2   1 <1>  -0.1500 
 25 C        2.1450    10.7080     1.1580 C.2   1 <1>  -0.1100 
 26 C        1.2280    11.1440     0.2760 C.2   1 <1>  -0.1500 
 27 H       -1.7860     1.3350     2.8710 H     1 <1>   0.1500 
 28 H       -2.7920    -1.3480    -0.2590 H     1 <1>   0.1500 
 29 H       -3.4980     0.5650    -1.6760 H     1 <1>   0.1500 
 30 H       -1.9430     3.5730     2.6620 H     1 <1>   0.0800 
 31 H       -3.4260     4.0490     1.9190 H     1 <1>   0.0800 
 32 H       -2.3340     4.8920     0.0920 H     1 <1>   0.4500 
 33 H       -5.3140     3.0400    -0.2710 H     1 <1>   0.0800 
 34 H       -5.0980     3.8300    -1.8250 H     1 <1>   0.0800 
 35 H       -0.6690     3.2050    -0.2820 H     1 <1>   0.0800 
 36 H        0.2730     3.8760     1.0340 H     1 <1>   0.0800 
 37 H       -0.9230     5.7990     2.4640 H     1 <1>   0.0800 
 38 H       -2.5140     6.2760     1.8970 H     1 <1>   0.0800 
 39 H       -0.5570     5.2790    -1.5100 H     1 <1>   0.0800 
 40 H        1.0480     4.7550    -1.0990 H     1 <1>   0.0800 
 41 H       -0.7220     7.8630     1.2550 H     1 <1>   0.0800 
 42 H       -1.6280     7.2450    -0.0840 H     1 <1>   0.0800 
 43 H        1.1250     6.3370     0.7850 H     1 <1>   0.0800 
 44 H        0.2690     7.6740    -1.7930 H     1 <1>   0.0800 
 45 H        2.6820     7.8670    -1.7340 H     1 <1>   0.4000 
 46 H       -0.0400    10.3400    -1.3120 H     1 <1>   0.1500 
 47 H        2.7150    11.2190     1.9130 H     1 <1>   0.1500 
 48 H        0.8900    12.1620     0.1770 H     1 <1>   0.1500 
@<TRIPOS>BOND
  1   1   2  1   
  2   2   3  ar  
  3   2   4  ar  
  4   3   5  ar  
  5   3  27  1   
  6   4   6  ar  
  7   4  28  1   
  8   5   7  ar  
  9   5   8  1   
 10   6   7  ar  
 11   6  29  1   
 12   7   9  1   
 13   8  10  1   
 14   8  30  1   
 15   8  31  1   
 16   9  11  1   
 17  10  12  1   
 18  10  13  1   
 19  10  32  1   
 20  11  14  1   
 21  11  33  1   
 22  11  34  1   
 23  12  15  1   
 24  12  35  1   
 25  12  36  1   
 26  13  16  1   
 27  13  37  1   
 28  13  38  1   
 29  14  17  ar  
 30  14  18  ar  
 31  15  19  1   
 32  15  39  1   
 33  15  40  1   
 34  16  19  1   
 35  16  41  1   
 36  16  42  1   
 37  19  20  1   
 38  19  43  1   
 39  20  21  1   
 40  20  22  1   
 41  20  44  1   
 42  21  45  1   
 43  22  23  1   
 44  22  24  2   
 45  23  25  1   
 46  24  26  1   
 47  24  46  1   
 48  25  26  2   
 49  25  47  1   
 50  26  48  1   
@<TRIPOS>SUBSTRUCTURE
  1 ****  10 GROUP 4 **** **** 0

# MOE 2024.06 (io_trps.svl 2023.06)
