@<TRIPOS>MOLECULE
NONAME
51 54 1 0 0 
SMALL
USER_CHARGES


@<TRIPOS>ATOM
  1 O        0.3680    -1.0290     2.0860 O.2   1 <1>  -0.5700 
  2 C        0.1080    -1.9950     1.3820 C.2   1 <1>   0.6160 
  3 N        0.9480    -3.0990     1.3530 N.am  1 <1>  -0.4690 
  4 C       -1.0580    -2.0310     0.5700 C.2   1 <1>  -0.1360 
  5 C        0.6390    -4.1880     0.5720 C.2   1 <1>  -0.0410 
  6 C        2.1920    -3.0850     2.1640 C.3   1 <1>   0.0600 
  7 C       -1.3540    -3.1130    -0.1970 C.2   1 <1>  -0.1500 
  8 C       -0.4940    -4.2530    -0.2000 C.2   1 <1>   0.0140 
  9 C       -0.8000    -5.4150    -1.0020 C.2   1 <1>   0.6160 
 10 O        0.0920    -5.9370    -1.6480 O.2   1 <1>  -0.5700 
 11 N       -2.0680    -5.9610    -1.0510 N.am  1 <1>  -0.6600 
 12 C       -2.4520    -6.9520    -2.0960 C.3   1 <1>   0.1400 
 13 C       -3.0620    -5.8390     0.0520 C.3   1 <1>   0.1400 
 14 C       -2.6380    -8.3290    -1.4550 C.3   1 <1>  -0.1600 
 15 C       -3.2490    -7.2020     0.7210 C.3   1 <1>  -0.1600 
 16 C       -3.6450    -8.2950    -0.2910 C.3   1 <1>   0.4240 
 17 O       -4.8470    -7.8670    -0.8970 O.3   1 <1>  -0.5600 
 18 C       -3.8020    -9.6960     0.3690 C.ar  1 <1>  -0.1430 
 19 C       -6.0420    -8.1530    -0.2480 C.3   1 <1>   0.1200 
 20 C       -2.7290   -10.3540     0.9870 C.ar  1 <1>   0.0830 
 21 C       -5.0410   -10.3350     0.3560 C.ar  1 <1>  -0.1430 
 22 C       -6.2420    -9.6600    -0.2730 C.3   1 <1>  -0.0170 
 23 O       -1.5170    -9.7430     1.0320 O.3   1 <1>  -0.3630 
 24 C       -2.9100   -11.6150     1.5520 C.ar  1 <1>  -0.1500 
 25 C       -5.2080   -11.5900     0.9180 C.ar  1 <1>  -0.1500 
 26 C       -0.3300   -10.4330     1.3550 C.3   1 <1>   0.0400 
 27 C       -4.1430   -12.2320     1.5150 C.ar  1 <1>  -0.1500 
 28 H       -1.6800    -1.1570     0.5990 H     1 <1>   0.1500 
 29 H        1.3270    -5.0190     0.5750 H     1 <1>   0.1500 
 30 H        2.8130    -2.2630     1.8510 H     1 <1>   0.0800 
 31 H        2.7360    -4.0040     2.0420 H     1 <1>   0.0800 
 32 H        1.9430    -2.9560     3.2030 H     1 <1>   0.0800 
 33 H       -2.2310    -3.1400    -0.8220 H     1 <1>   0.1500 
 34 H       -1.6980    -7.0080    -2.8630 H     1 <1>   0.0800 
 35 H       -3.3700    -6.6350    -2.5600 H     1 <1>   0.0800 
 36 H       -3.9980    -5.4940    -0.3550 H     1 <1>   0.0800 
 37 H       -2.7330    -5.1310     0.7910 H     1 <1>   0.0800 
 38 H       -1.6750    -8.6600    -1.1210 H     1 <1>   0.0800 
 39 H       -2.9780    -9.0320    -2.1920 H     1 <1>   0.0800 
 40 H       -3.9880    -7.1360     1.4960 H     1 <1>   0.0800 
 41 H       -2.3240    -7.4570     1.1980 H     1 <1>   0.0800 
 42 H       -6.8350    -7.6580    -0.7800 H     1 <1>   0.0800 
 43 H       -6.0010    -7.7810     0.7600 H     1 <1>   0.0800 
 44 H       -6.3570    -9.9920    -1.2890 H     1 <1>   0.0800 
 45 H       -7.1370    -9.9060     0.2700 H     1 <1>   0.0800 
 46 H       -2.1030   -12.1330     2.0320 H     1 <1>   0.1500 
 47 H       -6.1690   -12.0730     0.8930 H     1 <1>   0.1500 
 48 H        0.4980    -9.7670     1.1880 H     1 <1>   0.0800 
 49 H       -0.2410   -11.2930     0.7150 H     1 <1>   0.0800 
 50 H       -0.3630   -10.7210     2.3900 H     1 <1>   0.0800 
 51 H       -4.2760   -13.2060     1.9510 H     1 <1>   0.1500 
@<TRIPOS>BOND
  1   1   2  2   
  2   2   3  am  
  3   2   4  1   
  4   3   5  1   
  5   3   6  1   
  6   4   7  2   
  7   4  28  1   
  8   5   8  2   
  9   5  29  1   
 10   6  30  1   
 11   6  31  1   
 12   6  32  1   
 13   7   8  1   
 14   7  33  1   
 15   8   9  1   
 16   9  10  2   
 17   9  11  am  
 18  11  12  1   
 19  11  13  1   
 20  12  14  1   
 21  12  34  1   
 22  12  35  1   
 23  13  15  1   
 24  13  36  1   
 25  13  37  1   
 26  14  16  1   
 27  14  38  1   
 28  14  39  1   
 29  15  16  1   
 30  15  40  1   
 31  15  41  1   
 32  16  17  1   
 33  16  18  1   
 34  17  19  1   
 35  18  20  ar  
 36  18  21  ar  
 37  19  22  1   
 38  19  42  1   
 39  19  43  1   
 40  20  23  1   
 41  20  24  ar  
 42  21  22  1   
 43  21  25  ar  
 44  22  44  1   
 45  22  45  1   
 46  23  26  1   
 47  24  27  ar  
 48  24  46  1   
 49  25  27  ar  
 50  25  47  1   
 51  26  48  1   
 52  26  49  1   
 53  26  50  1   
 54  27  51  1   
@<TRIPOS>SUBSTRUCTURE
  1 ****  15 GROUP 4 **** **** 0

# MOE 2024.06 (io_trps.svl 2023.06)
