@<TRIPOS>MOLECULE
NONAME
50 52 1 0 0 
SMALL
USER_CHARGES


@<TRIPOS>ATOM
  1 O       -0.5650    -0.3410     0.2700 O.3   1 <1>  -0.3630 
  2 C       -0.1850     0.7160    -0.4990 C.ar  1 <1>   0.0820 
  3 C       -1.6710    -1.1420    -0.0600 C.3   1 <1>   0.1200 
  4 C        0.8530     1.5270    -0.0370 C.ar  1 <1>  -0.1440 
  5 C       -0.8030     1.0040    -1.7140 C.ar  1 <1>  -0.1500 
  6 C       -1.8280    -2.1780     1.0540 C.3   1 <1>   0.3430 
  7 C        1.2460     2.6330    -0.7880 C.ar  1 <1>  -0.1440 
  8 C        1.5520     1.2150     1.2880 C.3   1 <1>  -0.0970 
  9 C       -0.4000     2.0960    -2.4560 C.ar  1 <1>  -0.1500 
 10 N       -2.9710    -3.1080     0.7990 N.4   1 <1>  -0.9590 
 11 C        0.6180     2.9050    -1.9930 C.ar  1 <1>  -0.1500 
 12 C        2.3550     3.5710    -0.3280 C.3   1 <1>  -0.0970 
 13 C       -4.3390    -2.4900     0.8550 C.3   1 <1>   0.3430 
 14 C       -2.9990    -4.2840     1.7040 C.3   1 <1>   0.3430 
 15 C       -5.2330    -3.4950     1.6030 C.3   1 <1>   0.2000 
 16 C       -4.4350    -4.8010     1.5980 C.3   1 <1>  -0.0800 
 17 O       -5.4080    -3.0790     2.9180 O.3   1 <1>  -0.6800 
 18 C       -4.7310    -5.6150     0.3060 C.3   1 <1>  -0.0170 
 19 C       -3.5030    -6.1130    -0.4470 C.ar  1 <1>   0.1670 
 20 N       -2.8550    -5.2140    -1.1800 N.ar  1 <1>  -0.6200 
 21 C       -3.1200    -7.4500    -0.3490 C.ar  1 <1>   0.1600 
 22 C       -1.8270    -5.7520    -1.8240 C.ar  1 <1>   0.1600 
 23 N       -2.0760    -7.9710    -0.9660 N.ar  1 <1>  -0.6200 
 24 C       -1.4480    -7.0840    -1.7180 C.ar  1 <1>   0.1600 
 25 H       -2.5350    -0.5040    -0.1250 H     1 <1>   0.0800 
 26 H       -1.4680    -1.6200    -1.0020 H     1 <1>   0.0800 
 27 H       -1.5970     0.4000    -2.1070 H     1 <1>   0.1500 
 28 H       -1.9770    -1.6660     1.9900 H     1 <1>   0.0800 
 29 H       -0.9140    -2.7450     1.1150 H     1 <1>   0.0800 
 30 H        2.6100     1.3810     1.2100 H     1 <1>   0.0800 
 31 H        1.4170     0.1910     1.5820 H     1 <1>   0.0800 
 32 H        1.1560     1.8470     2.0620 H     1 <1>   0.0800 
 33 H       -0.8750     2.3200    -3.3950 H     1 <1>   0.1500 
 34 H       -2.8570    -3.5370    -0.1460 H     1 <1>   0.4500 
 35 H        0.9190     3.7540    -2.5810 H     1 <1>   0.1500 
 36 H        2.3990     4.4490    -0.9460 H     1 <1>   0.0800 
 37 H        3.3050     3.0700    -0.3850 H     1 <1>   0.0800 
 38 H        2.1810     3.8850     0.6850 H     1 <1>   0.0800 
 39 H       -4.3320    -1.5470     1.3760 H     1 <1>   0.0800 
 40 H       -4.7100    -2.3430    -0.1460 H     1 <1>   0.0800 
 41 H       -2.2740    -5.0280     1.4110 H     1 <1>   0.0800 
 42 H       -2.7980    -3.9740     2.7160 H     1 <1>   0.0800 
 43 H       -6.2110    -3.5820     1.1600 H     1 <1>   0.0800 
 44 H       -4.6760    -5.4120     2.4520 H     1 <1>   0.0800 
 45 H       -4.5770    -3.0040     3.4240 H     1 <1>   0.4000 
 46 H       -5.3060    -5.0280    -0.3900 H     1 <1>   0.0800 
 47 H       -5.3540    -6.4540     0.5650 H     1 <1>   0.0800 
 48 H       -3.6970    -8.1210     0.2640 H     1 <1>   0.1500 
 49 H       -1.2500    -5.1120    -2.4700 H     1 <1>   0.1500 
 50 H       -0.5950    -7.4300    -2.2760 H     1 <1>   0.1500 
@<TRIPOS>BOND
  1   1   2  1   
  2   1   3  1   
  3   2   4  ar  
  4   2   5  ar  
  5   3   6  1   
  6   3  25  1   
  7   3  26  1   
  8   4   7  ar  
  9   4   8  1   
 10   5   9  ar  
 11   5  27  1   
 12   6  10  1   
 13   6  28  1   
 14   6  29  1   
 15   7  11  ar  
 16   7  12  1   
 17   8  30  1   
 18   8  31  1   
 19   8  32  1   
 20   9  11  ar  
 21   9  33  1   
 22  10  13  1   
 23  10  14  1   
 24  10  34  1   
 25  11  35  1   
 26  12  36  1   
 27  12  37  1   
 28  12  38  1   
 29  13  15  1   
 30  13  39  1   
 31  13  40  1   
 32  14  16  1   
 33  14  41  1   
 34  14  42  1   
 35  15  16  1   
 36  15  17  1   
 37  15  43  1   
 38  16  18  1   
 39  16  44  1   
 40  17  45  1   
 41  18  19  1   
 42  18  46  1   
 43  18  47  1   
 44  19  20  ar  
 45  19  21  ar  
 46  20  22  ar  
 47  21  23  ar  
 48  21  48  1   
 49  22  24  ar  
 50  22  49  1   
 51  23  24  ar  
 52  24  50  1   
@<TRIPOS>SUBSTRUCTURE
  1 ****   3 GROUP 4 **** **** 0

# MOE 2024.06 (io_trps.svl 2023.06)
