@<TRIPOS>MOLECULE
NONAME
50 52 1 0 0 
SMALL
USER_CHARGES


@<TRIPOS>ATOM
  1 O        3.1340     2.4710     1.5610 O.co2 1 <1>  -0.9000 
  2 C        2.5040     1.4140     1.3970 C.2   1 <1>   0.9060 
  3 O        2.2510     0.6710     2.3440 O.co2 1 <1>  -0.9000 
  4 C        2.2920     0.8690    -0.0240 C.3   1 <1>  -0.1060 
  5 C        3.2500    -0.3440    -0.0980 C.3   1 <1>   0.2000 
  6 C        2.7200     1.8970    -1.1240 C.3   1 <1>  -0.1600 
  7 C        0.8090     0.4510    -0.2020 C.3   1 <1>  -0.0160 
  8 O        3.2010    -0.9110    -1.3740 O.3   1 <1>  -0.6800 
  9 C        4.7140     0.0920     0.1880 C.3   1 <1>   0.3430 
 10 C        4.2370     1.9540    -1.3810 C.3   1 <1>   0.3430 
 11 C       -0.1430     1.6380    -0.2890 C.ar  1 <1>  -0.1440 
 12 N        4.9600     1.5370    -0.1570 N.4   1 <1>  -0.9590 
 13 C       -0.5090     2.3260     0.8580 C.ar  1 <1>  -0.1500 
 14 C       -0.6570     2.0430    -1.5130 C.ar  1 <1>  -0.1500 
 15 C        6.3770     1.9590    -0.0750 C.3   1 <1>   0.3430 
 16 C       -1.3680     3.4080     0.7840 C.ar  1 <1>  -0.1500 
 17 C       -1.5180     3.1240    -1.5890 C.ar  1 <1>  -0.1500 
 18 C        6.4550     3.3920     0.4540 C.3   1 <1>   0.0200 
 19 C       -1.8730     3.8090    -0.4400 C.ar  1 <1>  -0.1500 
 20 C        7.9000     3.8430     0.5250 C.2   1 <1>   0.0060 
 21 N        8.8580     3.2480    -0.1110 N.2   1 <1>  -0.5650 
 22 N        8.3090     4.9110     1.2540 N.pl3 1 <1>   0.0480 
 23 C        9.9520     3.9600     0.2180 C.2   1 <1>   0.0770 
 24 C        9.6350     4.9760     1.0490 C.2   1 <1>  -0.3020 
 25 C        7.5060     5.8140     2.1000 C.3   1 <1>   0.0160 
 26 H        2.9630    -1.1070     0.6080 H     1 <1>   0.0800 
 27 H        2.3700     2.8780    -0.8520 H     1 <1>   0.0800 
 28 H        2.2490     1.6520    -2.0580 H     1 <1>   0.0800 
 29 H        0.6970    -0.1360    -1.0950 H     1 <1>   0.0800 
 30 H        0.5080    -0.1740     0.6220 H     1 <1>   0.0800 
 31 H        2.3160    -1.2990    -1.5280 H     1 <1>   0.4000 
 32 H        5.3830    -0.5490    -0.3600 H     1 <1>   0.0800 
 33 H        4.9000    -0.0390     1.2420 H     1 <1>   0.0800 
 34 H        4.5160     2.9550    -1.6660 H     1 <1>   0.0800 
 35 H        4.4900     1.2810    -2.1850 H     1 <1>   0.0800 
 36 H        4.4500     2.0560     0.6060 H     1 <1>   0.4500 
 37 H       -0.1210     2.0230     1.8180 H     1 <1>   0.1500 
 38 H       -0.3910     1.5200    -2.4130 H     1 <1>   0.1500 
 39 H        6.9140     1.3190     0.6050 H     1 <1>   0.0800 
 40 H        6.8480     1.8940    -1.0410 H     1 <1>   0.0800 
 41 H       -1.6380     3.9350     1.6820 H     1 <1>   0.1500 
 42 H       -1.9130     3.4330    -2.5410 H     1 <1>   0.1500 
 43 H        6.0170     3.4260     1.4360 H     1 <1>   0.0800 
 44 H        5.9180     4.0570    -0.1960 H     1 <1>   0.0800 
 45 H       -2.5400     4.6510    -0.4960 H     1 <1>   0.1500 
 46 H       10.9260     3.7020    -0.1660 H     1 <1>   0.1500 
 47 H       10.2710     5.7210     1.4910 H     1 <1>   0.1500 
 48 H        8.1160     6.6320     2.4350 H     1 <1>   0.0800 
 49 H        7.1380     5.2710     2.9520 H     1 <1>   0.0800 
 50 H        6.6780     6.1960     1.5310 H     1 <1>   0.0800 
@<TRIPOS>BOND
  1   1   2  ar  
  2   2   3  ar  
  3   2   4  1   
  4   4   5  1   
  5   4   6  1   
  6   4   7  1   
  7   5   8  1   
  8   5   9  1   
  9   5  26  1   
 10   6  10  1   
 11   6  27  1   
 12   6  28  1   
 13   7  11  1   
 14   7  29  1   
 15   7  30  1   
 16   8  31  1   
 17   9  12  1   
 18   9  32  1   
 19   9  33  1   
 20  10  12  1   
 21  10  34  1   
 22  10  35  1   
 23  11  13  ar  
 24  11  14  ar  
 25  12  15  1   
 26  12  36  1   
 27  13  16  ar  
 28  13  37  1   
 29  14  17  ar  
 30  14  38  1   
 31  15  18  1   
 32  15  39  1   
 33  15  40  1   
 34  16  19  ar  
 35  16  41  1   
 36  17  19  ar  
 37  17  42  1   
 38  18  20  1   
 39  18  43  1   
 40  18  44  1   
 41  19  45  1   
 42  20  21  2   
 43  20  22  1   
 44  21  23  1   
 45  22  24  1   
 46  22  25  1   
 47  23  24  2   
 48  23  46  1   
 49  24  47  1   
 50  25  48  1   
 51  25  49  1   
 52  25  50  1   
@<TRIPOS>SUBSTRUCTURE
  1 ****   1 GROUP 4 **** **** 0

# MOE 2024.06 (io_trps.svl 2023.06)
