@<TRIPOS>MOLECULE
NONAME
53 57 1 0 0 
SMALL
USER_CHARGES


@<TRIPOS>ATOM
  1 N        0.4670     0.2830     0.2310 N.ar  1 <1>  -0.6200 
  2 C       -0.5210     1.1440     0.5210 C.ar  1 <1>   0.6200 
  3 C        1.4260     0.7610    -0.5210 C.ar  1 <1>   0.1660 
  4 N       -0.5760     2.4190     0.1100 N.ar  1 <1>  -0.6200 
  5 C       -1.6100     0.6570     1.3530 C.ar  1 <1>   0.0000 
  6 C        1.4540     2.0390    -0.9810 C.ar  1 <1>  -0.1430 
  7 C        2.6370    -0.0250    -0.9620 C.3   1 <1>   0.1440 
  8 C        0.4100     2.8590    -0.6390 C.ar  1 <1>   0.1600 
  9 C       -2.2620     1.4920     2.2650 C.ar  1 <1>  -0.1500 
 10 C       -2.0520    -0.6670     1.2800 C.ar  1 <1>  -0.1500 
 11 C        2.6890     2.3080    -1.8040 C.3   1 <1>  -0.0160 
 12 C        3.1930    -0.7820     0.2600 C.3   1 <1>   0.3430 
 13 C        2.2520    -1.0170    -2.0780 C.3   1 <1>  -0.1600 
 14 C        3.5800     1.0920    -1.4840 C.3   1 <1>  -0.1600 
 15 C       -3.2930     1.0310     3.0640 C.ar  1 <1>  -0.1500 
 16 C       -3.0820    -1.1350     2.0760 C.ar  1 <1>  -0.1500 
 17 N        4.3200    -1.7160    -0.0990 N.4   1 <1>  -0.9590 
 18 C        3.3930    -2.0030    -2.3830 C.3   1 <1>  -0.1600 
 19 C       -3.7050    -0.2860     2.9720 C.ar  1 <1>  -0.1500 
 20 C        3.8870    -2.7150    -1.1220 C.3   1 <1>   0.3430 
 21 C        4.9090    -2.4050     1.1020 C.3   1 <1>   0.3430 
 22 C        5.6800    -1.4560     2.0380 C.3   1 <1>   0.0960 
 23 N        6.4570    -0.4910     1.2420 N.pl3 1 <1>   0.0480 
 24 C        6.2210     0.8340     1.1200 C.2   1 <1>   0.0360 
 25 C        7.3890    -0.7610     0.3090 C.2   1 <1>  -0.3020 
 26 N        6.8990     1.3980     0.1780 N.2   1 <1>  -0.5650 
 27 C        7.6520     0.4030    -0.3230 C.2   1 <1>   0.0770 
 28 H        0.3800     3.8810    -0.9780 H     1 <1>   0.1500 
 29 H       -1.9570     2.5200     2.3480 H     1 <1>   0.1500 
 30 H       -1.5830    -1.3400     0.5850 H     1 <1>   0.1500 
 31 H        3.1650     3.2330    -1.5260 H     1 <1>   0.0800 
 32 H        2.4310     2.3300    -2.8490 H     1 <1>   0.0800 
 33 H        2.3860    -1.3480     0.6980 H     1 <1>   0.0800 
 34 H        3.5210    -0.0610     0.9890 H     1 <1>   0.0800 
 35 H        1.9750    -0.4820    -2.9710 H     1 <1>   0.0800 
 36 H        1.3860    -1.5770    -1.7630 H     1 <1>   0.0800 
 37 H        4.1610     0.8000    -2.3410 H     1 <1>   0.0800 
 38 H        4.2580     1.3890    -0.7050 H     1 <1>   0.0800 
 39 H       -3.7750     1.6980     3.7580 H     1 <1>   0.1500 
 40 H       -3.4020    -2.1590     1.9990 H     1 <1>   0.1500 
 41 H        5.0670    -1.1380    -0.5260 H     1 <1>   0.4500 
 42 H        4.2170    -1.4940    -2.8530 H     1 <1>   0.0800 
 43 H        3.0400    -2.7410    -3.0820 H     1 <1>   0.0800 
 44 H       -4.5070    -0.6460     3.5930 H     1 <1>   0.1500 
 45 H        3.0900    -3.3230    -0.7220 H     1 <1>   0.0800 
 46 H        4.7110    -3.3630    -1.3790 H     1 <1>   0.0800 
 47 H        5.6000    -3.1610     0.7640 H     1 <1>   0.0800 
 48 H        4.1340    -2.9070     1.6580 H     1 <1>   0.0800 
 49 H        6.3480    -2.0170     2.6670 H     1 <1>   0.0800 
 50 H        4.9930    -0.9220     2.6700 H     1 <1>   0.0800 
 51 H        5.5180     1.3580     1.7450 H     1 <1>   0.1500 
 52 H        7.8220    -1.7320     0.1440 H     1 <1>   0.1500 
 53 H        8.3560     0.5840    -1.1220 H     1 <1>   0.1500 
@<TRIPOS>BOND
  1   1   2  ar  
  2   1   3  ar  
  3   2   4  ar  
  4   2   5  1   
  5   3   6  ar  
  6   3   7  1   
  7   4   8  ar  
  8   5   9  ar  
  9   5  10  ar  
 10   6   8  ar  
 11   6  11  1   
 12   7  12  1   
 13   7  13  1   
 14   7  14  1   
 15   8  28  1   
 16   9  15  ar  
 17   9  29  1   
 18  10  16  ar  
 19  10  30  1   
 20  11  14  1   
 21  11  31  1   
 22  11  32  1   
 23  12  17  1   
 24  12  33  1   
 25  12  34  1   
 26  13  18  1   
 27  13  35  1   
 28  13  36  1   
 29  14  37  1   
 30  14  38  1   
 31  15  19  ar  
 32  15  39  1   
 33  16  19  ar  
 34  16  40  1   
 35  17  20  1   
 36  17  21  1   
 37  17  41  1   
 38  18  20  1   
 39  18  42  1   
 40  18  43  1   
 41  19  44  1   
 42  20  45  1   
 43  20  46  1   
 44  21  22  1   
 45  21  47  1   
 46  21  48  1   
 47  22  23  1   
 48  22  49  1   
 49  22  50  1   
 50  23  24  1   
 51  23  25  1   
 52  24  26  2   
 53  24  51  1   
 54  25  27  2   
 55  25  52  1   
 56  26  27  1   
 57  27  53  1   
@<TRIPOS>SUBSTRUCTURE
  1 ****   3 GROUP 4 **** **** 0

# MOE 2024.06 (io_trps.svl 2023.06)
