@<TRIPOS>MOLECULE
NONAME
66 69 1 0 0 
SMALL
USER_CHARGES


@<TRIPOS>ATOM
  1 O       -1.3090    -0.1230     0.6900 O.2   1 <1>  -0.5700 
  2 C       -2.0080     0.7120     0.1520 C.2   1 <1>   0.7160 
  3 N       -3.2430     0.3250    -0.2880 N.am  1 <1>  -0.7300 
  4 C       -1.5760     2.0670    -0.0010 C.2   1 <1>  -0.0860 
  5 C       -4.0450    -0.9480    -0.2660 C.3   1 <1>   0.1400 
  6 C       -2.2930     3.1100    -0.6020 C.2   1 <1>   0.3720 
  7 C       -0.4330     2.6810     0.4130 C.2   1 <1>   0.0870 
  8 C       -3.3780    -2.2940     0.2000 C.3   1 <1>   0.5030 
  9 N       -1.6470     4.2190    -0.5380 N.2   1 <1>  -0.4100 
 10 N       -3.5550     2.9940    -1.2040 N.pl3 1 <1>  -0.8210 
 11 O       -0.5310     3.9410     0.0780 O.3   1 <1>  -0.0190 
 12 C        0.7410     2.2150     1.1010 C.ar  1 <1>   0.0530 
 13 N       -2.8320    -2.1570     1.6020 N.4   1 <1>  -0.9590 
 14 C       -2.2320    -2.6460    -0.7850 C.3   1 <1>  -0.1600 
 15 C       -4.4540    -3.4070     0.1950 C.3   1 <1>  -0.1600 
 16 C       -4.5680     3.9030    -0.5710 C.3   1 <1>   0.2090 
 17 C       -3.5010     3.3050    -2.6710 C.3   1 <1>   0.2090 
 18 C        1.4710     1.1170     0.6460 C.ar  1 <1>  -0.1500 
 19 C        1.1940     2.8620     2.2490 C.ar  1 <1>  -0.1500 
 20 C       -2.0330    -3.2940     2.1660 C.3   1 <1>   0.2630 
 21 C       -3.8060    -1.6710     2.6350 C.3   1 <1>   0.2630 
 22 C       -2.2110    -4.1130    -1.2050 C.3   1 <1>   0.3430 
 23 C       -4.7420    -3.9320    -1.2160 C.3   1 <1>   0.3430 
 24 C       -5.9320     3.7940    -1.2780 C.3   1 <1>   0.1200 
 25 C       -4.8980     3.2160    -3.3120 C.3   1 <1>   0.1200 
 26 C        2.5970     0.6760     1.3160 C.ar  1 <1>  -0.1500 
 27 C        2.3190     2.4260     2.9240 C.ar  1 <1>  -0.1500 
 28 N       -3.5030    -4.4680    -1.8690 N.4   1 <1>  -0.9590 
 29 O       -5.8080     4.0470    -2.6480 O.3   1 <1>  -0.5600 
 30 C        3.0220     1.3290     2.4590 C.ar  1 <1>  -0.1500 
 31 C       -3.5990    -5.9560    -2.0450 C.3   1 <1>   0.2630 
 32 H       -3.7370     1.1280    -0.7250 H     1 <1>   0.3700 
 33 H       -4.4110    -1.0930    -1.2680 H     1 <1>   0.0800 
 34 H       -4.9180    -0.7650     0.3360 H     1 <1>   0.0800 
 35 H       -2.1470    -1.3730     1.4980 H     1 <1>   0.4500 
 36 H       -1.2740    -2.3950    -0.3680 H     1 <1>   0.0800 
 37 H       -2.3200    -2.0610    -1.6840 H     1 <1>   0.0800 
 38 H       -5.3740    -3.0350     0.6090 H     1 <1>   0.0800 
 39 H       -4.1550    -4.2450     0.7960 H     1 <1>   0.0800 
 40 H       -4.2310     4.9250    -0.6240 H     1 <1>   0.0800 
 41 H       -4.6820     3.6470     0.4680 H     1 <1>   0.0800 
 42 H       -2.8380     2.6140    -3.1620 H     1 <1>   0.0800 
 43 H       -3.1120     4.2990    -2.8220 H     1 <1>   0.0800 
 44 H        1.1540     0.6090    -0.2450 H     1 <1>   0.1500 
 45 H        0.6550     3.7190     2.6150 H     1 <1>   0.1500 
 46 H       -2.6580    -4.1560     2.3290 H     1 <1>   0.0800 
 47 H       -1.6000    -3.0060     3.1110 H     1 <1>   0.0800 
 48 H       -1.2280    -3.5610     1.5020 H     1 <1>   0.0800 
 49 H       -4.5900    -2.3940     2.7900 H     1 <1>   0.0800 
 50 H       -4.2460    -0.7350     2.3310 H     1 <1>   0.0800 
 51 H       -3.3000    -1.5090     3.5740 H     1 <1>   0.0800 
 52 H       -2.0660    -4.7330    -0.3350 H     1 <1>   0.0800 
 53 H       -1.3890    -4.2900    -1.8820 H     1 <1>   0.0800 
 54 H       -5.1420    -3.1310    -1.8180 H     1 <1>   0.0800 
 55 H       -5.4960    -4.7030    -1.1660 H     1 <1>   0.0800 
 56 H       -6.6160     4.5200    -0.8740 H     1 <1>   0.0800 
 57 H       -6.3520     2.8130    -1.1460 H     1 <1>   0.0800 
 58 H       -5.2680     2.2070    -3.2770 H     1 <1>   0.0800 
 59 H       -4.8550     3.5340    -4.3380 H     1 <1>   0.0800 
 60 H        3.1480    -0.1720     0.9480 H     1 <1>   0.1500 
 61 H        2.6500     2.9390     3.8100 H     1 <1>   0.1500 
 62 H       -3.4710    -4.0780    -2.8270 H     1 <1>   0.4500 
 63 H        3.9000     0.9900     2.9820 H     1 <1>   0.1500 
 64 H       -3.6440    -6.4490    -1.0880 H     1 <1>   0.0800 
 65 H       -2.7410    -6.3280    -2.5830 H     1 <1>   0.0800 
 66 H       -4.4850    -6.2130    -2.6050 H     1 <1>   0.0800 
@<TRIPOS>BOND
  1   1   2  2   
  2   2   3  am  
  3   2   4  1   
  4   3   5  1   
  5   3  32  1   
  6   4   6  1   
  7   4   7  2   
  8   5   8  1   
  9   5  33  1   
 10   5  34  1   
 11   6   9  2   
 12   6  10  1   
 13   7  11  1   
 14   7  12  1   
 15   8  13  1   
 16   8  14  1   
 17   8  15  1   
 18   9  11  1   
 19  10  16  1   
 20  10  17  1   
 21  12  18  ar  
 22  12  19  ar  
 23  13  20  1   
 24  13  21  1   
 25  13  35  1   
 26  14  22  1   
 27  14  36  1   
 28  14  37  1   
 29  15  23  1   
 30  15  38  1   
 31  15  39  1   
 32  16  24  1   
 33  16  40  1   
 34  16  41  1   
 35  17  25  1   
 36  17  42  1   
 37  17  43  1   
 38  18  26  ar  
 39  18  44  1   
 40  19  27  ar  
 41  19  45  1   
 42  20  46  1   
 43  20  47  1   
 44  20  48  1   
 45  21  49  1   
 46  21  50  1   
 47  21  51  1   
 48  22  28  1   
 49  22  52  1   
 50  22  53  1   
 51  23  28  1   
 52  23  54  1   
 53  23  55  1   
 54  24  29  1   
 55  24  56  1   
 56  24  57  1   
 57  25  29  1   
 58  25  58  1   
 59  25  59  1   
 60  26  30  ar  
 61  26  60  1   
 62  27  30  ar  
 63  27  61  1   
 64  28  31  1   
 65  28  62  1   
 66  30  63  1   
 67  31  64  1   
 68  31  65  1   
 69  31  66  1   
@<TRIPOS>SUBSTRUCTURE
  1 ****   2 GROUP 4 **** **** 0

# MOE 2024.06 (io_trps.svl 2023.06)
