@<TRIPOS>MOLECULE
NONAME
46 48 1 0 0 
SMALL
USER_CHARGES


@<TRIPOS>ATOM
  1 F        3.4660     1.2130    -1.5720 F     1 <1>  -0.1900 
  2 C        3.2430     0.1690    -0.8180 C.ar  1 <1>   0.1900 
  3 C        3.5830     0.2290     0.5300 C.ar  1 <1>   0.0860 
  4 C        2.6980    -0.9510    -1.4100 C.ar  1 <1>  -0.1500 
  5 C        4.1550     1.4180     1.1100 C.2   1 <1>   0.5440 
  6 C        3.3490    -0.9190     1.2870 C.ar  1 <1>  -0.1500 
  7 C        2.4750    -2.0790    -0.6400 C.ar  1 <1>   0.0830 
  8 O        3.4370     2.3320     1.4710 O.2   1 <1>  -0.5700 
  9 N        5.5140     1.6020     1.2170 N.am  1 <1>  -0.6600 
 10 C        2.8040    -2.0570     0.7160 C.ar  1 <1>  -0.1500 
 11 O        1.9430    -3.1510    -1.2670 O.3   1 <1>  -0.3620 
 12 C        6.0740     2.6360     2.1670 C.3   1 <1>   0.1400 
 13 C        6.4420     1.1560     0.1340 C.3   1 <1>   0.1400 
 14 C        1.6370    -4.3440    -0.5800 C.3   1 <1>   0.0400 
 15 C        6.3150     4.0120     1.4910 C.3   1 <1>   0.4230 
 16 C        6.8840     2.2990    -0.8180 C.3   1 <1>  -0.0800 
 17 N        5.4100     4.1080     0.2870 N.4   1 <1>  -0.9590 
 18 C        7.8260     4.2510     1.2310 C.3   1 <1>   0.1200 
 19 C        8.3150     2.7790    -0.5380 C.3   1 <1>   0.1200 
 20 C        5.9370     3.5080    -0.9790 C.3   1 <1>   0.3430 
 21 C        4.9630     5.5430     0.0430 C.3   1 <1>   0.2370 
 22 O        8.4830     3.0910     0.8020 O.3   1 <1>  -0.5600 
 23 C        6.0960     6.5330    -0.2320 C.2   1 <1>   0.9060 
 24 O        6.5750     7.1360     0.7320 O.co2 1 <1>  -0.9000 
 25 O        6.5870     6.5550    -1.3650 O.co2 1 <1>  -0.9000 
 26 H        2.4470    -0.9560    -2.4550 H     1 <1>   0.1500 
 27 H        3.5960    -0.9120     2.3350 H     1 <1>   0.1500 
 28 H        2.6400    -2.9190     1.3370 H     1 <1>   0.1500 
 29 H        5.3780     2.7800     2.9750 H     1 <1>   0.0800 
 30 H        6.9830     2.2670     2.6090 H     1 <1>   0.0800 
 31 H        7.3090     0.7030     0.5860 H     1 <1>   0.0800 
 32 H        5.9670     0.3900    -0.4520 H     1 <1>   0.0800 
 33 H        1.2140    -5.0360    -1.2860 H     1 <1>   0.0800 
 34 H        0.9210    -4.1290     0.1930 H     1 <1>   0.0800 
 35 H        2.5420    -4.7530    -0.1670 H     1 <1>   0.0800 
 36 H        6.0110     4.7750     2.1890 H     1 <1>   0.0800 
 37 H        6.9430     1.8610    -1.7980 H     1 <1>   0.0800 
 38 H        4.5830     3.5450     0.5660 H     1 <1>   0.4500 
 39 H        8.2860     4.5310     2.1620 H     1 <1>   0.0800 
 40 H        8.0100     5.0480     0.5330 H     1 <1>   0.0800 
 41 H        8.5760     3.6390    -1.1340 H     1 <1>   0.0800 
 42 H        9.0140     1.9910    -0.7610 H     1 <1>   0.0800 
 43 H        5.0970     3.2080    -1.5830 H     1 <1>   0.0800 
 44 H        6.4650     4.2680    -1.5330 H     1 <1>   0.0800 
 45 H        4.2970     5.5780    -0.8000 H     1 <1>   0.0800 
 46 H        4.4330     5.9060     0.9040 H     1 <1>   0.0800 
@<TRIPOS>BOND
  1   1   2  1   
  2   2   3  ar  
  3   2   4  ar  
  4   3   5  1   
  5   3   6  ar  
  6   4   7  ar  
  7   4  26  1   
  8   5   8  2   
  9   5   9  am  
 10   6  10  ar  
 11   6  27  1   
 12   7  10  ar  
 13   7  11  1   
 14   9  12  1   
 15   9  13  1   
 16  10  28  1   
 17  11  14  1   
 18  12  15  1   
 19  12  29  1   
 20  12  30  1   
 21  13  16  1   
 22  13  31  1   
 23  13  32  1   
 24  14  33  1   
 25  14  34  1   
 26  14  35  1   
 27  15  17  1   
 28  15  18  1   
 29  15  36  1   
 30  16  19  1   
 31  16  20  1   
 32  16  37  1   
 33  17  20  1   
 34  17  21  1   
 35  17  38  1   
 36  18  22  1   
 37  18  39  1   
 38  18  40  1   
 39  19  22  1   
 40  19  41  1   
 41  19  42  1   
 42  20  43  1   
 43  20  44  1   
 44  21  23  1   
 45  21  45  1   
 46  21  46  1   
 47  23  24  ar  
 48  23  25  ar  
@<TRIPOS>SUBSTRUCTURE
  1 ****   9 GROUP 4 **** **** 0

# MOE 2024.06 (io_trps.svl 2023.06)
