@<TRIPOS>MOLECULE
NONAME
46 49 1 0 0 
SMALL
USER_CHARGES


@<TRIPOS>ATOM
  1 CL       0.3420     0.7100    -1.1640 Cl    1 <1>  -0.1770 
  2 C        0.6000     2.3770    -0.7070 C.ar  1 <1>   0.1770 
  3 C        1.7970     2.7410    -0.0480 C.ar  1 <1>   0.0000 
  4 C       -0.3780     3.2820    -1.0070 C.ar  1 <1>  -0.1500 
  5 C        1.9790     4.1040     0.2910 C.ar  1 <1>   0.0000 
  6 C        2.8090     1.8170     0.2910 C.ar  1 <1>  -0.1500 
  7 C       -0.2050     4.6220    -0.6540 C.ar  1 <1>  -0.1500 
  8 C        3.1870     4.5070     0.9290 C.ar  1 <1>   0.0860 
  9 C        0.9420     5.0150    -0.0200 C.ar  1 <1>  -0.1500 
 10 C        3.9500     2.2140     0.9260 C.ar  1 <1>  -0.1500 
 11 C        3.4500     5.8970     1.2250 C.2   1 <1>   0.5440 
 12 C        4.1350     3.5590     1.2420 C.ar  1 <1>  -0.1500 
 13 O        3.3790     6.2840     2.3770 O.2   1 <1>  -0.5700 
 14 N        3.8170     6.8060     0.2430 N.am  1 <1>  -0.6600 
 15 C        4.1650     8.2070     0.6450 C.3   1 <1>   0.1400 
 16 C        4.2040     6.3580    -1.1330 C.3   1 <1>   0.1400 
 17 C        5.6910     8.4540     0.7920 C.3   1 <1>   0.4230 
 18 C        5.6570     6.7000    -1.5340 C.3   1 <1>  -0.0800 
 19 N        6.3490     8.9020    -0.4910 N.4   1 <1>  -0.9590 
 20 C        6.4870     7.2710     1.4100 C.3   1 <1>   0.1200 
 21 C        6.7620     6.0370    -0.6810 C.3   1 <1>   0.1200 
 22 C        5.8500     8.2080    -1.7150 C.3   1 <1>   0.3430 
 23 C        6.2690    10.3860    -0.6600 C.3   1 <1>   0.2630 
 24 O        6.4840     6.0660     0.6830 O.3   1 <1>  -0.5600 
 25 H       -1.2770     2.9710    -1.5080 H     1 <1>   0.1500 
 26 H        2.6740     0.7780     0.0470 H     1 <1>   0.1500 
 27 H       -0.9840     5.3300    -0.8830 H     1 <1>   0.1500 
 28 H        1.0530     6.0490     0.2550 H     1 <1>   0.1500 
 29 H        4.7150     1.5020     1.1880 H     1 <1>   0.1500 
 30 H        5.0440     3.8590     1.7380 H     1 <1>   0.1500 
 31 H        3.7370     8.8990    -0.0570 H     1 <1>   0.0800 
 32 H        3.7080     8.4300     1.5930 H     1 <1>   0.0800 
 33 H        4.0830     5.2930    -1.2250 H     1 <1>   0.0800 
 34 H        3.5220     6.8050    -1.8360 H     1 <1>   0.0800 
 35 H        5.7890     9.2650     1.4930 H     1 <1>   0.0800 
 36 H        5.7720     6.2920    -2.5220 H     1 <1>   0.0800 
 37 H        7.3390     8.6430    -0.3880 H     1 <1>   0.4500 
 38 H        6.0610     7.0410     2.3730 H     1 <1>   0.0800 
 39 H        7.5110     7.5560     1.5710 H     1 <1>   0.0800 
 40 H        7.7300     6.4760    -0.8520 H     1 <1>   0.0800 
 41 H        6.8250     4.9940    -0.9460 H     1 <1>   0.0800 
 42 H        4.9110     8.6390    -2.0230 H     1 <1>   0.0800 
 43 H        6.5560     8.3700    -2.5140 H     1 <1>   0.0800 
 44 H        5.2420    10.6980    -0.7620 H     1 <1>   0.0800 
 45 H        6.8110    10.6930    -1.5400 H     1 <1>   0.0800 
 46 H        6.6970    10.8850     0.1950 H     1 <1>   0.0800 
@<TRIPOS>BOND
  1   1   2  1   
  2   2   3  ar  
  3   2   4  ar  
  4   3   5  ar  
  5   3   6  ar  
  6   4   7  ar  
  7   4  25  1   
  8   5   8  ar  
  9   5   9  ar  
 10   6  10  ar  
 11   6  26  1   
 12   7   9  ar  
 13   7  27  1   
 14   8  11  1   
 15   8  12  ar  
 16   9  28  1   
 17  10  12  ar  
 18  10  29  1   
 19  11  13  2   
 20  11  14  am  
 21  12  30  1   
 22  14  15  1   
 23  14  16  1   
 24  15  17  1   
 25  15  31  1   
 26  15  32  1   
 27  16  18  1   
 28  16  33  1   
 29  16  34  1   
 30  17  19  1   
 31  17  20  1   
 32  17  35  1   
 33  18  21  1   
 34  18  22  1   
 35  18  36  1   
 36  19  22  1   
 37  19  23  1   
 38  19  37  1   
 39  20  24  1   
 40  20  38  1   
 41  20  39  1   
 42  21  24  1   
 43  21  40  1   
 44  21  41  1   
 45  22  42  1   
 46  22  43  1   
 47  23  44  1   
 48  23  45  1   
 49  23  46  1   
@<TRIPOS>SUBSTRUCTURE
  1 ****  11 GROUP 4 **** **** 0

# MOE 2024.06 (io_trps.svl 2023.06)
