@<TRIPOS>MOLECULE
NONAME
50 52 1 0 0 
SMALL
USER_CHARGES


@<TRIPOS>ATOM
  1 O       -2.5060     0.0680     1.9520 O.2   1 <1>  -0.5700 
  2 C       -2.2410     0.6050     0.9050 C.2   1 <1>   0.5690 
  3 N       -2.3160    -0.0600    -0.2780 N.am  1 <1>  -0.7300 
  4 C       -1.8310     2.0760     0.9110 C.3   1 <1>  -0.0190 
  5 C       -2.6690    -1.4930    -0.4130 C.3   1 <1>   0.1400 
  6 C       -2.8000     2.9470     0.0880 C.3   1 <1>  -0.1600 
  7 C       -0.3650     2.2720     0.4530 C.3   1 <1>  -0.1600 
  8 C       -4.1850    -1.6540    -0.5190 C.3   1 <1>   0.0210 
  9 C       -2.4840     4.4520     0.2190 C.3   1 <1>   0.2000 
 10 C       -0.0640     3.6890    -0.0740 C.3   1 <1>  -0.1600 
 11 C       -4.5470    -3.1110    -0.7360 C.2   1 <1>  -0.1810 
 12 O       -2.8100     5.0670    -1.0030 O.3   1 <1>  -0.5600 
 13 C       -0.9940     4.7310     0.5510 C.3   1 <1>   0.2000 
 14 C       -4.4720    -3.8220    -1.9280 C.2   1 <1>   0.1390 
 15 C       -5.0010    -4.0080     0.1610 C.2   1 <1>  -0.3020 
 16 C       -4.1550     5.4020    -1.1550 C.3   1 <1>   0.0400 
 17 O       -0.6430     5.9690     0.0530 O.3   1 <1>  -0.6800 
 18 N       -4.8430    -5.0540    -1.7880 N.2   1 <1>  -0.7070 
 19 N       -5.1870    -5.1910    -0.4790 N.pl3 1 <1>   0.5930 
 20 C       -5.6520    -6.4120     0.0930 C.ar  1 <1>  -0.0230 
 21 C       -5.2180    -7.6380    -0.4060 C.ar  1 <1>  -0.1500 
 22 C       -6.5490    -6.4140     1.1600 C.ar  1 <1>  -0.1500 
 23 C       -5.6560    -8.8280     0.1480 C.ar  1 <1>  -0.1500 
 24 C       -6.9890    -7.6020     1.7150 C.ar  1 <1>  -0.1500 
 25 C       -6.5420    -8.8110     1.2110 C.ar  1 <1>  -0.1500 
 26 H       -2.0970     0.4380    -1.1430 H     1 <1>   0.3700 
 27 H       -1.8990     2.4070     1.9330 H     1 <1>   0.0800 
 28 H       -2.1890    -1.8990    -1.2870 H     1 <1>   0.0800 
 29 H       -2.3140    -2.0340     0.4490 H     1 <1>   0.0800 
 30 H       -3.8080     2.7690     0.4190 H     1 <1>   0.0800 
 31 H       -2.7280     2.6600    -0.9470 H     1 <1>   0.0800 
 32 H        0.2780     2.0600     1.2910 H     1 <1>   0.0800 
 33 H       -0.1140     1.5670    -0.3200 H     1 <1>   0.0800 
 34 H       -4.6400    -1.3080     0.3920 H     1 <1>   0.0800 
 35 H       -4.5630    -1.0690    -1.3380 H     1 <1>   0.0800 
 36 H       -3.0800     4.8900     1.0020 H     1 <1>   0.0800 
 37 H       -0.2050     3.7040    -1.1410 H     1 <1>   0.0800 
 38 H        0.9620     3.9420     0.1350 H     1 <1>   0.0800 
 39 H       -0.8450     4.7490     1.6170 H     1 <1>   0.0800 
 40 H       -4.1440    -3.4080    -2.8680 H     1 <1>   0.1500 
 41 H       -5.1960    -3.8850     1.2090 H     1 <1>   0.1500 
 42 H       -4.2790     5.8570    -2.1220 H     1 <1>   0.0800 
 43 H       -4.4350     6.1030    -0.3880 H     1 <1>   0.0800 
 44 H       -4.7580     4.5130    -1.0950 H     1 <1>   0.0800 
 45 H       -1.2040     6.1060    -0.7440 H     1 <1>   0.4000 
 46 H       -4.5310    -7.6590    -1.2360 H     1 <1>   0.1500 
 47 H       -6.9130    -5.4840     1.5600 H     1 <1>   0.1500 
 48 H       -5.3100    -9.7660    -0.2490 H     1 <1>   0.1500 
 49 H       -7.6810    -7.5890     2.5400 H     1 <1>   0.1500 
 50 H       -6.8830    -9.7350     1.6430 H     1 <1>   0.1500 
@<TRIPOS>BOND
  1   1   2  2   
  2   2   3  am  
  3   2   4  1   
  4   3   5  1   
  5   3  26  1   
  6   4   6  1   
  7   4   7  1   
  8   4  27  1   
  9   5   8  1   
 10   5  28  1   
 11   5  29  1   
 12   6   9  1   
 13   6  30  1   
 14   6  31  1   
 15   7  10  1   
 16   7  32  1   
 17   7  33  1   
 18   8  11  1   
 19   8  34  1   
 20   8  35  1   
 21   9  12  1   
 22   9  13  1   
 23   9  36  1   
 24  10  13  1   
 25  10  37  1   
 26  10  38  1   
 27  11  14  1   
 28  11  15  2   
 29  12  16  1   
 30  13  17  1   
 31  13  39  1   
 32  14  18  2   
 33  14  40  1   
 34  15  19  1   
 35  15  41  1   
 36  16  42  1   
 37  16  43  1   
 38  16  44  1   
 39  17  45  1   
 40  18  19  1   
 41  19  20  1   
 42  20  21  ar  
 43  20  22  ar  
 44  21  23  ar  
 45  21  46  1   
 46  22  24  ar  
 47  22  47  1   
 48  23  25  ar  
 49  23  48  1   
 50  24  25  ar  
 51  24  49  1   
 52  25  50  1   
@<TRIPOS>SUBSTRUCTURE
  1 ****   8 GROUP 4 **** **** 0

# MOE 2024.06 (io_trps.svl 2023.06)
