@<TRIPOS>MOLECULE
NONAME
48 50 1 0 0 
SMALL
USER_CHARGES


@<TRIPOS>ATOM
  1 CL      -0.0420    -0.4800    -0.4740 Cl    1 <1>  -0.1770 
  2 C       -1.6770    -0.9370    -0.0450 C.ar  1 <1>   0.1770 
  3 C       -2.7350    -0.0260    -0.0090 C.ar  1 <1>   0.0830 
  4 C       -1.8860    -2.2760     0.2340 C.ar  1 <1>  -0.1500 
  5 O       -2.6390     1.3040    -0.2630 O.3   1 <1>  -0.3630 
  6 C       -4.0030    -0.4960     0.2980 C.ar  1 <1>  -0.1500 
  7 C       -3.1590    -2.7360     0.5390 C.ar  1 <1>  -0.1430 
  8 C       -1.5790     2.0640     0.2760 C.3   1 <1>   0.0400 
  9 C       -4.2150    -1.8360     0.5740 C.ar  1 <1>  -0.1500 
 10 C       -3.4060    -4.2060     0.8250 C.3   1 <1>   0.4870 
 11 N       -3.3300    -4.9710    -0.4530 N.4   1 <1>  -0.9590 
 12 C       -4.4300    -4.5690    -1.3890 C.3   1 <1>   0.3430 
 13 C       -3.5190    -6.4300    -0.1860 C.3   1 <1>   0.3430 
 14 C       -5.5670    -5.5560    -1.1310 C.3   1 <1>   0.2000 
 15 C       -4.8080    -6.8620    -0.8980 C.3   1 <1>  -0.0800 
 16 O       -6.2040    -5.1750     0.0560 O.3   1 <1>  -0.5600 
 17 C       -5.5890    -7.9520    -0.1370 C.3   1 <1>   0.0200 
 18 C       -7.5970    -5.1140    -0.0090 C.3   1 <1>   0.0400 
 19 C       -4.7420    -9.1980     0.0420 C.2   1 <1>  -0.0400 
 20 O       -3.6830    -9.1600     0.8050 O.3   1 <1>  -0.0190 
 21 C       -4.8450   -10.4390    -0.4560 C.2   1 <1>  -0.1500 
 22 N       -3.0610   -10.2990     0.8300 N.2   1 <1>  -0.4100 
 23 C       -3.7420   -11.0940     0.0850 C.2   1 <1>   0.1080 
 24 C       -3.3850   -12.5430    -0.1630 C.3   1 <1>  -0.0590 
 25 H       -1.0410    -2.9410     0.2050 H     1 <1>   0.1500 
 26 H       -4.8220     0.2030     0.3230 H     1 <1>   0.1500 
 27 H       -1.9260     3.0730     0.4060 H     1 <1>   0.0800 
 28 H       -0.7560     2.0560    -0.4150 H     1 <1>   0.0800 
 29 H       -1.2890     1.6520     1.2270 H     1 <1>   0.0800 
 30 H       -5.2130    -2.1660     0.8160 H     1 <1>   0.1500 
 31 H       -4.3780    -4.3330     1.2760 H     1 <1>   0.0800 
 32 H       -2.6620    -4.5660     1.5170 H     1 <1>   0.0800 
 33 H       -2.4160    -4.7820    -0.8830 H     1 <1>   0.4500 
 34 H       -4.7530    -3.5520    -1.2390 H     1 <1>   0.0800 
 35 H       -4.0930    -4.6820    -2.4060 H     1 <1>   0.0800 
 36 H       -2.6820    -7.0080    -0.5450 H     1 <1>   0.0800 
 37 H       -3.6230    -6.6020     0.8740 H     1 <1>   0.0800 
 38 H       -6.2690    -5.6010    -1.9480 H     1 <1>   0.0800 
 39 H       -4.5260    -7.2640    -1.8560 H     1 <1>   0.0800 
 40 H       -6.4780    -8.2090    -0.6850 H     1 <1>   0.0800 
 41 H       -5.8890    -7.6010     0.8360 H     1 <1>   0.0800 
 42 H       -7.9690    -4.8370     0.9630 H     1 <1>   0.0800 
 43 H       -7.9890    -6.0800    -0.2800 H     1 <1>   0.0800 
 44 H       -7.8910    -4.3710    -0.7310 H     1 <1>   0.0800 
 45 H       -5.5790   -10.8660    -1.1150 H     1 <1>   0.1500 
 46 H       -4.1870   -13.1780     0.1670 H     1 <1>   0.0800 
 47 H       -2.4930   -12.8000     0.3790 H     1 <1>   0.0800 
 48 H       -3.2140   -12.7040    -1.2110 H     1 <1>   0.0800 
@<TRIPOS>BOND
  1   1   2  1   
  2   2   3  ar  
  3   2   4  ar  
  4   3   5  1   
  5   3   6  ar  
  6   4   7  ar  
  7   4  25  1   
  8   5   8  1   
  9   6   9  ar  
 10   6  26  1   
 11   7   9  ar  
 12   7  10  1   
 13   8  27  1   
 14   8  28  1   
 15   8  29  1   
 16   9  30  1   
 17  10  11  1   
 18  10  31  1   
 19  10  32  1   
 20  11  12  1   
 21  11  13  1   
 22  11  33  1   
 23  12  14  1   
 24  12  34  1   
 25  12  35  1   
 26  13  15  1   
 27  13  36  1   
 28  13  37  1   
 29  14  15  1   
 30  14  16  1   
 31  14  38  1   
 32  15  17  1   
 33  15  39  1   
 34  16  18  1   
 35  17  19  1   
 36  17  40  1   
 37  17  41  1   
 38  18  42  1   
 39  18  43  1   
 40  18  44  1   
 41  19  20  1   
 42  19  21  2   
 43  20  22  1   
 44  21  23  1   
 45  21  45  1   
 46  22  23  2   
 47  23  24  1   
 48  24  46  1   
 49  24  47  1   
 50  24  48  1   
@<TRIPOS>SUBSTRUCTURE
  1 ****  11 GROUP 4 **** **** 0

# MOE 2024.06 (io_trps.svl 2023.06)
