@<TRIPOS>MOLECULE
NONAME
49 51 1 0 0 
SMALL
USER_CHARGES


@<TRIPOS>ATOM
  1 S       -2.8940     0.2000     1.2770 S.3   1 <1>  -0.0800 
  2 C       -1.6720    -0.0160     0.0390 C.2   1 <1>   0.1980 
  3 C       -1.6300     0.3780     2.4580 C.2   1 <1>  -0.1100 
  4 N       -0.4740     0.0380     0.4720 N.2   1 <1>  -0.5650 
  5 C       -2.1550    -0.2440    -1.3870 C.3   1 <1>   0.3200 
  6 C       -0.4450     0.2630     1.8400 C.2   1 <1>   0.0770 
  7 N       -2.8060    -1.5840    -1.5350 N.am  1 <1>  -0.6600 
  8 C       -4.1570    -1.6770    -1.7930 C.2   1 <1>   0.5690 
  9 C       -1.8550    -2.7360    -1.4770 C.3   1 <1>   0.0600 
 10 O       -4.8330    -0.6790    -1.8930 O.2   1 <1>  -0.5700 
 11 C       -4.8860    -3.0210    -1.9320 C.3   1 <1>   0.2610 
 12 O       -4.2290    -3.8890    -2.8380 O.3   1 <1>  -0.5600 
 13 C       -5.0740    -3.6420    -0.5230 C.3   1 <1>   0.3640 
 14 C       -4.8690    -5.1290    -2.9840 C.3   1 <1>   0.1810 
 15 N       -5.0960    -5.1450    -0.4900 N.am  1 <1>  -0.6600 
 16 C       -6.3500    -3.0870     0.1110 C.ar  1 <1>  -0.1430 
 17 C       -4.9910    -5.8700    -1.6530 C.2   1 <1>   0.5690 
 18 C       -5.0870    -5.7380     0.8770 C.3   1 <1>   0.2200 
 19 C       -7.5990    -3.5910    -0.2270 C.ar  1 <1>  -0.1500 
 20 C       -6.2690    -2.0540     1.0340 C.ar  1 <1>  -0.1500 
 21 O       -4.9900    -7.0780    -1.6910 O.2   1 <1>  -0.5700 
 22 C       -3.7470    -6.4210     1.1460 C.3   1 <1>  -0.2400 
 23 C       -6.2670    -6.6900     1.0840 C.3   1 <1>  -0.2400 
 24 C       -8.7460    -3.0760     0.3510 C.ar  1 <1>  -0.1500 
 25 C       -7.4150    -1.5370     1.6120 C.ar  1 <1>  -0.1500 
 26 C       -8.6550    -2.0480     1.2720 C.ar  1 <1>  -0.1500 
 27 H       -1.9090     0.5510     3.4810 H     1 <1>   0.1500 
 28 H       -1.3120    -0.1880    -2.0520 H     1 <1>   0.0800 
 29 H       -2.8310     0.5490    -1.6540 H     1 <1>   0.0800 
 30 H        0.5190     0.3300     2.3150 H     1 <1>   0.1500 
 31 H       -1.0880    -2.5510    -0.7440 H     1 <1>   0.0800 
 32 H       -1.3910    -2.8660    -2.4400 H     1 <1>   0.0800 
 33 H       -2.3550    -3.6480    -1.2110 H     1 <1>   0.0800 
 34 H       -5.8550    -2.8160    -2.3510 H     1 <1>   0.0800 
 35 H       -4.2430    -3.3300     0.0840 H     1 <1>   0.0800 
 36 H       -5.8450    -4.9700    -3.4050 H     1 <1>   0.0800 
 37 H       -4.2860    -5.7190    -3.6670 H     1 <1>   0.0800 
 38 H       -5.1940    -4.9440     1.5990 H     1 <1>   0.0800 
 39 H       -7.6860    -4.3930    -0.9400 H     1 <1>   0.1500 
 40 H       -5.3150    -1.6370     1.3070 H     1 <1>   0.1500 
 41 H       -3.6150    -7.2710     0.5000 H     1 <1>   0.0800 
 42 H       -3.7120    -6.7650     2.1630 H     1 <1>   0.0800 
 43 H       -2.9390    -5.7290     0.9920 H     1 <1>   0.0800 
 44 H       -6.1790    -7.5620     0.4630 H     1 <1>   0.0800 
 45 H       -7.1920    -6.1890     0.8670 H     1 <1>   0.0800 
 46 H       -6.2930    -7.0140     2.1080 H     1 <1>   0.0800 
 47 H       -9.7100    -3.4740     0.0850 H     1 <1>   0.1500 
 48 H       -7.3430    -0.7340     2.3250 H     1 <1>   0.1500 
 49 H       -9.5460    -1.6450     1.7210 H     1 <1>   0.1500 
@<TRIPOS>BOND
  1   1   2  1   
  2   1   3  1   
  3   2   4  2   
  4   2   5  1   
  5   3   6  2   
  6   3  27  1   
  7   4   6  1   
  8   5   7  1   
  9   5  28  1   
 10   5  29  1   
 11   6  30  1   
 12   7   8  am  
 13   7   9  1   
 14   8  10  2   
 15   8  11  1   
 16   9  31  1   
 17   9  32  1   
 18   9  33  1   
 19  11  12  1   
 20  11  13  1   
 21  11  34  1   
 22  12  14  1   
 23  13  15  1   
 24  13  16  1   
 25  13  35  1   
 26  14  17  1   
 27  14  36  1   
 28  14  37  1   
 29  15  17  am  
 30  15  18  1   
 31  16  19  ar  
 32  16  20  ar  
 33  17  21  2   
 34  18  22  1   
 35  18  23  1   
 36  18  38  1   
 37  19  24  ar  
 38  19  39  1   
 39  20  25  ar  
 40  20  40  1   
 41  22  41  1   
 42  22  42  1   
 43  22  43  1   
 44  23  44  1   
 45  23  45  1   
 46  23  46  1   
 47  24  26  ar  
 48  24  47  1   
 49  25  26  ar  
 50  25  48  1   
 51  26  49  1   
@<TRIPOS>SUBSTRUCTURE
  1 ****  13 GROUP 4 **** **** 0

# MOE 2024.06 (io_trps.svl 2023.06)
