@<TRIPOS>MOLECULE
NONAME
54 58 1 0 0 
SMALL
USER_CHARGES


@<TRIPOS>ATOM
  1 O        0.0940     0.7760    -0.1550 O.2   1 <1>  -0.5700 
  2 C       -0.6360     1.7540    -0.2340 C.2   1 <1>   0.7160 
  3 N       -1.9730     1.5720     0.1010 N.am  1 <1>  -0.6600 
  4 C       -0.0580     3.0220    -0.6840 C.2   1 <1>   0.2030 
  5 C       -3.0770     2.5070    -0.2800 C.3   1 <1>   0.1400 
  6 C       -2.4500     0.3490     0.8080 C.3   1 <1>   0.1400 
  7 N       -0.4890     4.2550    -0.4590 N.2   1 <1>  -0.7070 
  8 C        1.1180     3.0740    -1.4440 C.2   1 <1>  -0.1500 
  9 C       -3.8710     2.9600     0.9600 C.3   1 <1>   0.1430 
 10 C       -3.2500     0.7450     2.0570 C.3   1 <1>  -0.1600 
 11 N        0.3850     5.0670    -1.0640 N.pl3 1 <1>   0.3140 
 12 C        1.3710     4.3760    -1.6710 C.2   1 <1>  -0.3320 
 13 C       -4.9910     3.8770     0.5050 C.ar  1 <1>   0.1670 
 14 C       -4.3910     1.7220     1.7220 C.3   1 <1>  -0.1600 
 15 C       -3.0330     3.8940     1.8740 C.3   1 <1>  -0.1600 
 16 C        0.2300     6.5260    -1.0290 C.3   1 <1>   0.0160 
 17 C        2.5250     4.9930    -2.4430 C.3   1 <1>  -0.0600 
 18 N       -6.0910     3.4980    -0.1010 N.ar  1 <1>  -0.6200 
 19 C       -4.7160     5.1790     0.7900 C.ar  1 <1>  -0.1440 
 20 C       -3.3790     5.3350     1.4690 C.3   1 <1>  -0.0160 
 21 C       -6.9500     4.4750    -0.4190 C.ar  1 <1>   0.6200 
 22 C       -5.6450     6.1210     0.4310 C.ar  1 <1>   0.1600 
 23 N       -6.7630     5.7790    -0.1700 N.ar  1 <1>  -0.6200 
 24 C       -8.1850     4.0880    -1.0900 C.ar  1 <1>   0.0000 
 25 C       -9.3560     4.8420    -0.9630 C.ar  1 <1>  -0.1500 
 26 C       -8.2580     2.9450    -1.8920 C.ar  1 <1>  -0.1500 
 27 C      -10.5300     4.4780    -1.5970 C.ar  1 <1>  -0.1500 
 28 C       -9.4290     2.5740    -2.5290 C.ar  1 <1>  -0.1500 
 29 C      -10.5690     3.3420    -2.3830 C.ar  1 <1>  -0.1500 
 30 H       -3.7460     1.9880    -0.9450 H     1 <1>   0.0800 
 31 H       -2.7100     3.3620    -0.8150 H     1 <1>   0.0800 
 32 H       -1.6220    -0.2750     1.1010 H     1 <1>   0.0800 
 33 H       -3.0730    -0.2190     0.1390 H     1 <1>   0.0800 
 34 H        1.6790     2.2120    -1.7600 H     1 <1>   0.1500 
 35 H       -2.5780     1.1910     2.7690 H     1 <1>   0.0800 
 36 H       -3.6570    -0.1420     2.5090 H     1 <1>   0.0800 
 37 H       -5.1110     1.2120     1.1050 H     1 <1>   0.0800 
 38 H       -4.8980     2.0250     2.6210 H     1 <1>   0.0800 
 39 H       -1.9760     3.7040     1.8050 H     1 <1>   0.0800 
 40 H       -3.3310     3.7550     2.8980 H     1 <1>   0.0800 
 41 H       -0.6520     6.7750    -0.4690 H     1 <1>   0.0800 
 42 H        0.1370     6.8950    -2.0320 H     1 <1>   0.0800 
 43 H        1.0910     6.9600    -0.5560 H     1 <1>   0.0800 
 44 H        3.1690     4.2200    -2.8230 H     1 <1>   0.0800 
 45 H        3.1030     5.6340    -1.8020 H     1 <1>   0.0800 
 46 H        2.1540     5.5660    -3.2740 H     1 <1>   0.0800 
 47 H       -2.6560     5.7100     0.7650 H     1 <1>   0.0800 
 48 H       -3.4320     5.9860     2.3240 H     1 <1>   0.0800 
 49 H       -5.4710     7.1630     0.6360 H     1 <1>   0.1500 
 50 H       -9.3450     5.7300    -0.3550 H     1 <1>   0.1500 
 51 H       -7.3810     2.3350    -2.0180 H     1 <1>   0.1500 
 52 H      -11.4140     5.0810    -1.4790 H     1 <1>   0.1500 
 53 H       -9.4520     1.6880    -3.1390 H     1 <1>   0.1500 
 54 H      -11.4820     3.0560    -2.8770 H     1 <1>   0.1500 
@<TRIPOS>BOND
  1   1   2  2   
  2   2   3  am  
  3   2   4  1   
  4   3   5  1   
  5   3   6  1   
  6   4   7  2   
  7   4   8  1   
  8   5   9  1   
  9   5  30  1   
 10   5  31  1   
 11   6  10  1   
 12   6  32  1   
 13   6  33  1   
 14   7  11  1   
 15   8  12  2   
 16   8  34  1   
 17   9  13  1   
 18   9  14  1   
 19   9  15  1   
 20  10  14  1   
 21  10  35  1   
 22  10  36  1   
 23  11  12  1   
 24  11  16  1   
 25  12  17  1   
 26  13  18  ar  
 27  13  19  ar  
 28  14  37  1   
 29  14  38  1   
 30  15  20  1   
 31  15  39  1   
 32  15  40  1   
 33  16  41  1   
 34  16  42  1   
 35  16  43  1   
 36  17  44  1   
 37  17  45  1   
 38  17  46  1   
 39  18  21  ar  
 40  19  20  1   
 41  19  22  ar  
 42  20  47  1   
 43  20  48  1   
 44  21  23  ar  
 45  21  24  1   
 46  22  23  ar  
 47  22  49  1   
 48  24  25  ar  
 49  24  26  ar  
 50  25  27  ar  
 51  25  50  1   
 52  26  28  ar  
 53  26  51  1   
 54  27  29  ar  
 55  27  52  1   
 56  28  29  ar  
 57  28  53  1   
 58  29  54  1   
@<TRIPOS>SUBSTRUCTURE
  1 ****   5 GROUP 4 **** **** 0

# MOE 2024.06 (io_trps.svl 2023.06)
