@<TRIPOS>MOLECULE
NONAME
48 50 1 0 0 
SMALL
USER_CHARGES


@<TRIPOS>ATOM
  1 S        0.0650     0.0380     1.6140 S.o2  1 <1>   1.4470 
  2 O       -1.3050     0.1290     2.0570 O.2   1 <1>  -0.6500 
  3 O        1.1340     0.0870     2.5860 O.2   1 <1>  -0.6500 
  4 N        0.2620     1.3960     0.6550 N.am  1 <1>  -0.9140 
  5 C        0.3340    -1.3390     0.4480 C.ar  1 <1>  -0.0090 
  6 C        0.4420     2.6130     1.4680 C.3   1 <1>   0.2570 
  7 C       -0.6250    -1.7680    -0.4830 C.ar  1 <1>  -0.1430 
  8 C        1.5720    -1.9840     0.4600 C.ar  1 <1>  -0.1500 
  9 C        0.4880     3.9000     0.6340 C.2   1 <1>   0.5690 
 10 C       -0.3370    -2.8090    -1.3560 C.ar  1 <1>  -0.1500 
 11 C       -2.0070    -1.1330    -0.5810 C.3   1 <1>  -0.0960 
 12 C        1.8670    -3.0210    -0.4060 C.ar  1 <1>  -0.1500 
 13 O       -0.5100     4.5820     0.6030 O.2   1 <1>  -0.5700 
 14 N        1.6190     4.2480    -0.0600 N.am  1 <1>  -0.6600 
 15 C        0.9000    -3.4160    -1.3030 C.ar  1 <1>   0.1900 
 16 C        1.7090     5.5400    -0.8110 C.3   1 <1>   0.1400 
 17 C        2.8420     3.3930    -0.1370 C.3   1 <1>   0.1400 
 18 F        1.1630    -4.3920    -2.1280 F     1 <1>  -0.1900 
 19 C        3.1210     6.1710    -0.7000 C.3   1 <1>   0.2800 
 20 C        3.8330     3.9170    -1.1900 C.3   1 <1>   0.1200 
 21 O        4.1660     5.2580    -0.9590 O.3   1 <1>  -0.5600 
 22 C        3.3990     6.7770     0.6770 C.3   1 <1>  -0.1600 
 23 C        3.3210     7.3600    -1.6380 C.3   1 <1>  -0.1600 
 24 C        4.5020     7.8190     0.4620 C.3   1 <1>  -0.1600 
 25 C        4.4590     8.1860    -1.0270 C.3   1 <1>  -0.1600 
 26 H       -0.6420     1.5100     0.1990 H     1 <1>   0.4200 
 27 H        1.3520     2.5410     2.0360 H     1 <1>   0.0800 
 28 H       -0.3720     2.7010     2.1690 H     1 <1>   0.0800 
 29 H        2.3260    -1.6690     1.1640 H     1 <1>   0.1500 
 30 H       -1.0570    -3.1580    -2.0750 H     1 <1>   0.1500 
 31 H       -1.9320    -0.0670    -0.6980 H     1 <1>   0.0800 
 32 H       -2.5780    -1.3490     0.3060 H     1 <1>   0.0800 
 33 H       -2.5520    -1.5170    -1.4250 H     1 <1>   0.0800 
 34 H        2.8230    -3.5140    -0.3880 H     1 <1>   0.1500 
 35 H        0.9780     6.2360    -0.4400 H     1 <1>   0.0800 
 36 H        1.4840     5.3580    -1.8460 H     1 <1>   0.0800 
 37 H        2.5640     2.3850    -0.3890 H     1 <1>   0.0800 
 38 H        3.3300     3.3800     0.8220 H     1 <1>   0.0800 
 39 H        3.4120     3.8370    -2.1770 H     1 <1>   0.0800 
 40 H        4.7440     3.3460    -1.1610 H     1 <1>   0.0800 
 41 H        3.6770     6.0250     1.3940 H     1 <1>   0.0800 
 42 H        2.5140     7.2780     1.0290 H     1 <1>   0.0800 
 43 H        2.4280     7.9590    -1.6470 H     1 <1>   0.0800 
 44 H        3.5390     7.0440    -2.6430 H     1 <1>   0.0800 
 45 H        5.4590     7.3820     0.6930 H     1 <1>   0.0800 
 46 H        4.3490     8.6800     1.0890 H     1 <1>   0.0800 
 47 H        4.2970     9.2400    -1.1730 H     1 <1>   0.0800 
 48 H        5.3920     7.9070    -1.4880 H     1 <1>   0.0800 
@<TRIPOS>BOND
  1   1   2  2   
  2   1   3  2   
  3   1   4  am  
  4   1   5  1   
  5   4   6  1   
  6   4  26  1   
  7   5   7  ar  
  8   5   8  ar  
  9   6   9  1   
 10   6  27  1   
 11   6  28  1   
 12   7  10  ar  
 13   7  11  1   
 14   8  12  ar  
 15   8  29  1   
 16   9  13  2   
 17   9  14  am  
 18  10  15  ar  
 19  10  30  1   
 20  11  31  1   
 21  11  32  1   
 22  11  33  1   
 23  12  15  ar  
 24  12  34  1   
 25  14  16  1   
 26  14  17  1   
 27  15  18  1   
 28  16  19  1   
 29  16  35  1   
 30  16  36  1   
 31  17  20  1   
 32  17  37  1   
 33  17  38  1   
 34  19  21  1   
 35  19  22  1   
 36  19  23  1   
 37  20  21  1   
 38  20  39  1   
 39  20  40  1   
 40  22  24  1   
 41  22  41  1   
 42  22  42  1   
 43  23  25  1   
 44  23  43  1   
 45  23  44  1   
 46  24  25  1   
 47  24  45  1   
 48  24  46  1   
 49  25  47  1   
 50  25  48  1   
@<TRIPOS>SUBSTRUCTURE
  1 ****   4 GROUP 4 **** **** 0

# MOE 2024.06 (io_trps.svl 2023.06)
