@<TRIPOS>MOLECULE
NONAME
45 48 1 0 0 
SMALL
USER_CHARGES


@<TRIPOS>ATOM
  1 S       -0.9280    -1.1660     0.9910 S.3   1 <1>  -0.0800 
  2 C       -2.1580    -1.8530    -0.0540 C.2   1 <1>  -0.1100 
  3 C       -2.0730    -0.0060     1.6390 C.2   1 <1>  -0.1100 
  4 C       -3.3400    -1.2270     0.1110 C.2   1 <1>  -0.1810 
  5 C       -3.2850    -0.1680     1.0770 C.2   1 <1>  -0.1500 
  6 C       -4.6470    -1.5360    -0.6150 C.3   1 <1>   0.0820 
  7 C       -4.7030    -2.9220    -1.2370 C.2   1 <1>   0.5690 
  8 O       -5.0250    -3.0390    -2.3940 O.2   1 <1>  -0.5700 
  9 N       -4.4250    -4.0060    -0.4680 N.am  1 <1>  -0.7300 
 10 C       -4.3790    -5.4090    -0.9440 C.3   1 <1>   0.2200 
 11 C       -5.5990    -6.1950    -0.4820 C.3   1 <1>  -0.0800 
 12 C       -3.2770    -6.1410    -0.1920 C.3   1 <1>   0.1200 
 13 C       -5.2170    -6.5820     0.9530 C.3   1 <1>   0.1200 
 14 C       -6.9450    -5.4520    -0.6130 C.3   1 <1>  -0.0160 
 15 O       -3.8280    -6.4480     1.0530 O.3   1 <1>  -0.5600 
 16 C       -8.2100    -6.2480    -0.2680 C.ar  1 <1>  -0.1430 
 17 C       -9.4580    -5.5800    -0.1990 C.ar  1 <1>   0.0000 
 18 C       -8.2150    -7.5930    -0.0220 C.ar  1 <1>  -0.1500 
 19 C      -10.6010    -6.3390     0.1520 C.ar  1 <1>   0.3100 
 20 C       -9.6400    -4.2020    -0.4660 C.ar  1 <1>  -0.1500 
 21 C       -9.4060    -8.2510     0.3070 C.ar  1 <1>   0.1600 
 22 N      -10.5580    -7.6710     0.4020 N.ar  1 <1>  -0.6200 
 23 C      -11.8460    -5.6950     0.2430 C.ar  1 <1>  -0.1500 
 24 C      -10.8680    -3.6050    -0.3720 C.ar  1 <1>  -0.1500 
 25 C      -11.9870    -4.3580    -0.0100 C.ar  1 <1>  -0.1500 
 26 H       -1.8560    -2.6650    -0.6930 H     1 <1>   0.1500 
 27 H       -1.7100     0.6840     2.3800 H     1 <1>   0.1500 
 28 H       -4.1530     0.4250     1.3070 H     1 <1>   0.1500 
 29 H       -4.7990    -0.8020    -1.3850 H     1 <1>   0.0800 
 30 H       -5.4640    -1.4590     0.0780 H     1 <1>   0.0800 
 31 H       -4.1370    -3.8850     0.5080 H     1 <1>   0.3700 
 32 H       -4.2410    -5.4440    -2.0120 H     1 <1>   0.0800 
 33 H       -5.6410    -7.0910    -1.0750 H     1 <1>   0.0800 
 34 H       -2.3910    -5.5450    -0.0610 H     1 <1>   0.0800 
 35 H       -3.0300    -7.0660    -0.6820 H     1 <1>   0.0800 
 36 H       -5.4840    -7.5980     1.1870 H     1 <1>   0.0800 
 37 H       -5.6610    -5.9160     1.6740 H     1 <1>   0.0800 
 38 H       -7.0380    -5.0980    -1.6260 H     1 <1>   0.0800 
 39 H       -6.9160    -4.5910     0.0300 H     1 <1>   0.0800 
 40 H       -7.3310    -8.1980    -0.0690 H     1 <1>   0.1500 
 41 H       -8.7990    -3.6010    -0.7560 H     1 <1>   0.1500 
 42 H       -9.3600    -9.3100     0.4950 H     1 <1>   0.1500 
 43 H      -12.6920    -6.2960     0.5200 H     1 <1>   0.1500 
 44 H      -10.9900    -2.5560    -0.5770 H     1 <1>   0.1500 
 45 H      -12.9480    -3.8790     0.0630 H     1 <1>   0.1500 
@<TRIPOS>BOND
  1   1   2  1   
  2   1   3  1   
  3   2   4  2   
  4   2  26  1   
  5   3   5  2   
  6   3  27  1   
  7   4   5  1   
  8   4   6  1   
  9   5  28  1   
 10   6   7  1   
 11   6  29  1   
 12   6  30  1   
 13   7   8  2   
 14   7   9  am  
 15   9  10  1   
 16   9  31  1   
 17  10  11  1   
 18  10  12  1   
 19  10  32  1   
 20  11  13  1   
 21  11  14  1   
 22  11  33  1   
 23  12  15  1   
 24  12  34  1   
 25  12  35  1   
 26  13  15  1   
 27  13  36  1   
 28  13  37  1   
 29  14  16  1   
 30  14  38  1   
 31  14  39  1   
 32  16  17  ar  
 33  16  18  ar  
 34  17  19  ar  
 35  17  20  ar  
 36  18  21  ar  
 37  18  40  1   
 38  19  22  ar  
 39  19  23  ar  
 40  20  24  ar  
 41  20  41  1   
 42  21  22  ar  
 43  21  42  1   
 44  23  25  ar  
 45  23  43  1   
 46  24  25  ar  
 47  24  44  1   
 48  25  45  1   
@<TRIPOS>SUBSTRUCTURE
  1 ****  14 GROUP 4 **** **** 0

# MOE 2024.06 (io_trps.svl 2023.06)
