@<TRIPOS>MOLECULE
NONAME
49 51 1 0 0 
SMALL
USER_CHARGES


@<TRIPOS>ATOM
  1 O       -0.9720     0.4750    -0.5460 O.2   1 <1>  -0.5700 
  2 C       -1.5050     1.4660    -0.0650 C.2   1 <1>   0.7150 
  3 N       -2.8340     1.3530     0.3110 N.am  1 <1>  -0.6600 
  4 C       -0.7040     2.6740     0.0650 C.2   1 <1>   0.1010 
  5 C       -3.4340     0.0030     0.5280 C.3   1 <1>   0.1400 
  6 C       -3.7130     2.5430     0.5140 C.3   1 <1>   0.1400 
  7 N       -0.9790     3.8060     0.6840 N.2   1 <1>  -0.5650 
  8 N        0.5330     2.7140    -0.4950 N.pl3 1 <1>   0.0330 
  9 C       -4.0760    -0.5330    -0.7600 C.3   1 <1>   0.1400 
 10 C       -5.1660     2.3330     0.0650 C.3   1 <1>  -0.1600 
 11 C        0.1070     4.5690     0.5020 C.2   1 <1>   0.0770 
 12 C        1.0450     3.9200    -0.2180 C.2   1 <1>  -0.3020 
 13 N       -5.3830     0.1360    -1.0610 N.am  1 <1>  -0.6600 
 14 C       -5.3010     1.6100    -1.2790 C.3   1 <1>   0.1400 
 15 C       -6.5950    -0.5050    -1.1320 C.2   1 <1>   0.5690 
 16 O       -7.6270     0.1010    -1.3010 O.2   1 <1>  -0.5700 
 17 C       -6.6810    -2.0150    -0.9860 C.3   1 <1>  -0.0990 
 18 C       -8.1030    -2.5500    -1.1990 C.3   1 <1>   0.0960 
 19 N       -8.1250    -4.0140    -1.0070 N.pl3 1 <1>   0.0480 
 20 C       -8.3910    -4.7310     0.1160 C.2   1 <1>   0.0070 
 21 C       -7.8270    -4.9360    -1.9390 C.2   1 <1>  -0.3020 
 22 N       -8.2760    -6.0090    -0.0490 N.2   1 <1>  -0.5650 
 23 C       -8.7840    -4.1120     1.4480 C.3   1 <1>   0.0200 
 24 C       -7.9250    -6.1410    -1.3400 C.2   1 <1>   0.0770 
 25 C      -10.2790    -3.7800     1.4870 C.3   1 <1>  -0.2400 
 26 H       -4.1600     0.0370     1.3210 H     1 <1>   0.0800 
 27 H       -2.6580    -0.6780     0.8330 H     1 <1>   0.0800 
 28 H       -3.3210     3.3650    -0.0590 H     1 <1>   0.0800 
 29 H       -3.6880     2.8280     1.5520 H     1 <1>   0.0800 
 30 H        0.9540     1.9330    -1.0090 H     1 <1>   0.2700 
 31 H       -4.2100    -1.5920    -0.6450 H     1 <1>   0.0800 
 32 H       -3.3980    -0.3860    -1.5830 H     1 <1>   0.0800 
 33 H       -5.6100     3.3070    -0.0330 H     1 <1>   0.0800 
 34 H       -5.7260     1.8160     0.8220 H     1 <1>   0.0800 
 35 H        0.1660     5.5680     0.9060 H     1 <1>   0.1500 
 36 H        2.0200     4.2440    -0.5340 H     1 <1>   0.1500 
 37 H       -4.4690     1.8420    -1.9220 H     1 <1>   0.0800 
 38 H       -6.1940     1.9530    -1.7730 H     1 <1>   0.0800 
 39 H       -6.3500    -2.2790     0.0000 H     1 <1>   0.0800 
 40 H       -6.0310    -2.4650    -1.7130 H     1 <1>   0.0800 
 41 H       -8.4390    -2.3250    -2.1960 H     1 <1>   0.0800 
 42 H       -8.7820    -2.0900    -0.5050 H     1 <1>   0.0800 
 43 H       -7.5670    -4.6940    -2.9530 H     1 <1>   0.1500 
 44 H       -8.2020    -3.2280     1.6310 H     1 <1>   0.0800 
 45 H       -8.5620    -4.8170     2.2300 H     1 <1>   0.0800 
 46 H       -7.7590    -7.1120    -1.7750 H     1 <1>   0.1500 
 47 H      -10.5320    -3.0670     0.7240 H     1 <1>   0.0800 
 48 H      -10.5430    -3.3730     2.4460 H     1 <1>   0.0800 
 49 H      -10.8520    -4.6760     1.3220 H     1 <1>   0.0800 
@<TRIPOS>BOND
  1   1   2  2   
  2   2   3  am  
  3   2   4  1   
  4   3   5  1   
  5   3   6  1   
  6   4   7  2   
  7   4   8  1   
  8   5   9  1   
  9   5  26  1   
 10   5  27  1   
 11   6  10  1   
 12   6  28  1   
 13   6  29  1   
 14   7  11  1   
 15   8  12  1   
 16   8  30  1   
 17   9  13  1   
 18   9  31  1   
 19   9  32  1   
 20  10  14  1   
 21  10  33  1   
 22  10  34  1   
 23  11  12  2   
 24  11  35  1   
 25  12  36  1   
 26  13  14  1   
 27  13  15  am  
 28  14  37  1   
 29  14  38  1   
 30  15  16  2   
 31  15  17  1   
 32  17  18  1   
 33  17  39  1   
 34  17  40  1   
 35  18  19  1   
 36  18  41  1   
 37  18  42  1   
 38  19  20  1   
 39  19  21  1   
 40  20  22  2   
 41  20  23  1   
 42  21  24  2   
 43  21  43  1   
 44  22  24  1   
 45  23  25  1   
 46  23  44  1   
 47  23  45  1   
 48  24  46  1   
 49  25  47  1   
 50  25  48  1   
 51  25  49  1   
@<TRIPOS>SUBSTRUCTURE
  1 ****   9 GROUP 4 **** **** 0

# MOE 2024.06 (io_trps.svl 2023.06)
