@<TRIPOS>MOLECULE
NONAME
60 64 1 0 0 
SMALL
USER_CHARGES


@<TRIPOS>ATOM
  1 O       -1.5690    -0.1750    -1.0920 O.2   1 <1>  -0.5700 
  2 C       -1.9760     0.5630    -0.2150 C.2   1 <1>   0.5440 
  3 N       -2.7380     0.0060     0.7920 N.am  1 <1>  -0.6600 
  4 C       -1.7000     1.9890    -0.2740 C.ar  1 <1>   0.0860 
  5 C       -3.9470     0.6710     1.3220 C.3   1 <1>   0.1400 
  6 C       -2.6640    -1.4410     1.0850 C.3   1 <1>   0.1400 
  7 C       -1.4140     2.7280     0.8750 C.ar  1 <1>  -0.1500 
  8 C       -1.7120     2.6720    -1.4900 C.ar  1 <1>  -0.1500 
  9 C       -5.1630     0.0390     0.6420 C.3   1 <1>  -0.1600 
 10 C       -3.8410    -2.1280     0.3940 C.3   1 <1>  -0.1600 
 11 C       -1.1740     4.0890     0.8160 C.ar  1 <1>  -0.1500 
 12 C       -1.4740     4.0320    -1.5560 C.ar  1 <1>  -0.1500 
 13 C       -5.1880    -1.4960     0.7900 C.3   1 <1>   0.4230 
 14 C       -1.2070     4.7450    -0.4010 C.ar  1 <1>  -0.1500 
 15 N       -6.2770    -2.0710    -0.0640 N.4   1 <1>  -0.9590 
 16 C       -6.3630    -3.5840     0.0390 C.3   1 <1>   0.3430 
 17 C       -7.6400    -1.4760     0.2260 C.3   1 <1>   0.3430 
 18 C       -7.5800    -4.1970    -0.6920 C.3   1 <1>   0.3430 
 19 C       -8.7910    -2.1800    -0.5280 C.3   1 <1>   0.2950 
 20 O       -8.7530    -3.5520    -0.2810 O.3   1 <1>  -0.5600 
 21 C       -7.6660    -5.6790    -0.3620 C.ar  1 <1>  -0.1430 
 22 C      -10.1500    -1.6660    -0.0530 C.3   1 <1>  -0.1950 
 23 C       -8.2980    -6.1260     0.7920 C.ar  1 <1>  -0.1500 
 24 C       -7.0840    -6.6080    -1.2150 C.ar  1 <1>  -0.1500 
 25 C      -11.3660    -1.7880    -0.9150 C.3   1 <1>  -0.2000 
 26 C      -10.7640    -0.4360    -0.6490 C.3   1 <1>  -0.2000 
 27 C       -8.3380    -7.4760     1.0930 C.ar  1 <1>  -0.1500 
 28 C       -7.1250    -7.9580    -0.9140 C.ar  1 <1>  -0.1500 
 29 C       -7.7500    -8.3930     0.2410 C.ar  1 <1>  -0.1500 
 30 H       -3.9890     0.5380     2.3900 H     1 <1>   0.0800 
 31 H       -3.9240     1.7280     1.1150 H     1 <1>   0.0800 
 32 H       -1.7330    -1.8460     0.7210 H     1 <1>   0.0800 
 33 H       -2.6990    -1.5940     2.1500 H     1 <1>   0.0800 
 34 H       -1.3740     2.2260     1.8250 H     1 <1>   0.1500 
 35 H       -1.9080     2.1220    -2.3950 H     1 <1>   0.1500 
 36 H       -5.1340     0.3080    -0.4000 H     1 <1>   0.0800 
 37 H       -6.0380     0.4760     1.0860 H     1 <1>   0.0800 
 38 H       -3.8080    -3.1650     0.6710 H     1 <1>   0.0800 
 39 H       -3.6870    -2.0490    -0.6680 H     1 <1>   0.0800 
 40 H       -0.9580     4.6400     1.7160 H     1 <1>   0.1500 
 41 H       -1.4910     4.5370    -2.5070 H     1 <1>   0.1500 
 42 H       -5.3790    -1.7320     1.8250 H     1 <1>   0.0800 
 43 H       -1.0200     5.8040    -0.4510 H     1 <1>   0.1500 
 44 H       -6.0310    -1.8390    -1.0350 H     1 <1>   0.4500 
 45 H       -5.4710    -4.0340    -0.3610 H     1 <1>   0.0800 
 46 H       -6.4320    -3.8710     1.0750 H     1 <1>   0.0800 
 47 H       -7.8470    -1.5470     1.2810 H     1 <1>   0.0800 
 48 H       -7.6520    -0.4320    -0.0380 H     1 <1>   0.0800 
 49 H       -7.4850    -4.0720    -1.7570 H     1 <1>   0.0800 
 50 H       -8.7000    -2.0230    -1.5890 H     1 <1>   0.0800 
 51 H      -10.2990    -1.8230     1.0030 H     1 <1>   0.1000 
 52 H       -8.7710    -5.4290     1.4620 H     1 <1>   0.1500 
 53 H       -6.5960    -6.2980    -2.1230 H     1 <1>   0.1500 
 54 H      -11.2710    -2.2190    -1.8970 H     1 <1>   0.1000 
 55 H      -12.3030    -2.0410    -0.4490 H     1 <1>   0.1000 
 56 H      -11.3110     0.2410    -0.0140 H     1 <1>   0.1000 
 57 H      -10.3000     0.0680    -1.4790 H     1 <1>   0.1000 
 58 H       -8.8320    -7.8150     1.9870 H     1 <1>   0.1500 
 59 H       -6.6750    -8.6760    -1.5790 H     1 <1>   0.1500 
 60 H       -7.7830    -9.4430     0.4750 H     1 <1>   0.1500 
@<TRIPOS>BOND
  1   1   2  2   
  2   2   3  am  
  3   2   4  1   
  4   3   5  1   
  5   3   6  1   
  6   4   7  ar  
  7   4   8  ar  
  8   5   9  1   
  9   5  30  1   
 10   5  31  1   
 11   6  10  1   
 12   6  32  1   
 13   6  33  1   
 14   7  11  ar  
 15   7  34  1   
 16   8  12  ar  
 17   8  35  1   
 18   9  13  1   
 19   9  36  1   
 20   9  37  1   
 21  10  13  1   
 22  10  38  1   
 23  10  39  1   
 24  11  14  ar  
 25  11  40  1   
 26  12  14  ar  
 27  12  41  1   
 28  13  15  1   
 29  13  42  1   
 30  14  43  1   
 31  15  16  1   
 32  15  17  1   
 33  15  44  1   
 34  16  18  1   
 35  16  45  1   
 36  16  46  1   
 37  17  19  1   
 38  17  47  1   
 39  17  48  1   
 40  18  20  1   
 41  18  21  1   
 42  18  49  1   
 43  19  20  1   
 44  19  22  1   
 45  19  50  1   
 46  21  23  ar  
 47  21  24  ar  
 48  22  25  1   
 49  22  26  1   
 50  22  51  1   
 51  23  27  ar  
 52  23  52  1   
 53  24  28  ar  
 54  24  53  1   
 55  25  26  1   
 56  25  54  1   
 57  25  55  1   
 58  26  56  1   
 59  26  57  1   
 60  27  29  ar  
 61  27  58  1   
 62  28  29  ar  
 63  28  59  1   
 64  29  60  1   
@<TRIPOS>SUBSTRUCTURE
  1 ****  15 GROUP 4 **** **** 0

# MOE 2024.06 (io_trps.svl 2023.06)
