@<TRIPOS>MOLECULE
NONAME
47 49 1 0 0 
SMALL
USER_CHARGES


@<TRIPOS>ATOM
  1 O        0.9320     0.1690     3.2770 O.2   1 <1>  -0.5700 
  2 C        1.4560    -0.7040     2.6270 C.2   1 <1>   0.5690 
  3 N        2.7240    -0.6080     2.1650 N.am  1 <1>  -0.7300 
  4 C        0.6570    -1.9560     2.2510 C.3   1 <1>   0.1710 
  5 C        3.4890     0.6410     2.0530 C.3   1 <1>   0.2840 
  6 N        1.0940    -2.5890     0.9690 N.3   1 <1>  -0.8100 
  7 C        3.5370     1.0050     0.5810 C.ar  1 <1>  -0.1440 
  8 C        0.8960    -1.7250    -0.2210 C.3   1 <1>   0.1100 
  9 C        0.4310    -3.8780     0.7140 C.3   1 <1>   0.1100 
 10 C        4.6450     0.6950    -0.1930 C.ar  1 <1>  -0.1500 
 11 C        2.4520     1.6400    -0.0060 C.ar  1 <1>  -0.1500 
 12 C       -0.0740    -2.4580    -1.1460 C.3   1 <1>   0.2000 
 13 C        0.1640    -3.9220    -0.7910 C.3   1 <1>  -0.0800 
 14 C        4.6680     1.0180    -1.5390 C.ar  1 <1>  -0.1500 
 15 C        2.4740     1.9620    -1.3520 C.ar  1 <1>  -0.1500 
 16 O       -1.3670    -2.0920    -0.7990 O.3   1 <1>  -0.6800 
 17 C       -0.9530    -4.9000    -1.2030 C.3   1 <1>  -0.0170 
 18 C        3.5830     1.6510    -2.1190 C.ar  1 <1>  -0.1500 
 19 C       -0.6260    -6.3170    -0.7570 C.ar  1 <1>  -0.1440 
 20 C       -1.2700    -6.9160     0.3070 C.ar  1 <1>  -0.1500 
 21 C        0.3370    -7.0760    -1.3910 C.ar  1 <1>  -0.1500 
 22 C       -0.9250    -8.2040     0.6800 C.ar  1 <1>   0.1600 
 23 C        0.6080    -8.3560    -0.9380 C.ar  1 <1>   0.1600 
 24 N        0.0020    -8.9370     0.0850 N.ar  1 <1>  -0.6200 
 25 H        3.0020    -1.3480     1.5140 H     1 <1>   0.3700 
 26 H       -0.3830    -1.6880     2.1890 H     1 <1>   0.0800 
 27 H        0.7730    -2.6650     3.0500 H     1 <1>   0.0800 
 28 H        3.0110     1.4240     2.6170 H     1 <1>   0.0800 
 29 H        4.4800     0.4930     2.4440 H     1 <1>   0.0800 
 30 H        0.5370    -0.7410     0.0290 H     1 <1>   0.0800 
 31 H        1.8440    -1.6210    -0.7210 H     1 <1>   0.0800 
 32 H        1.0590    -4.6960     1.0250 H     1 <1>   0.0800 
 33 H       -0.5030    -3.9300     1.2480 H     1 <1>   0.0800 
 34 H        5.4930     0.2010     0.2470 H     1 <1>   0.1500 
 35 H        1.5860     1.8800     0.5870 H     1 <1>   0.1500 
 36 H        0.0810    -2.2340    -2.1870 H     1 <1>   0.0800 
 37 H        1.0780    -4.2310    -1.2670 H     1 <1>   0.0800 
 38 H        5.5310     0.7770    -2.1360 H     1 <1>   0.1500 
 39 H        1.6290     2.4550    -1.8000 H     1 <1>   0.1500 
 40 H       -1.4450    -2.1200     0.1730 H     1 <1>   0.4000 
 41 H       -1.0670    -4.8800    -2.2730 H     1 <1>   0.0800 
 42 H       -1.8920    -4.6000    -0.7740 H     1 <1>   0.0800 
 43 H        3.6010     1.9030    -3.1660 H     1 <1>   0.1500 
 44 H       -2.0370    -6.3950     0.8500 H     1 <1>   0.1500 
 45 H        0.8800    -6.6830    -2.2300 H     1 <1>   0.1500 
 46 H       -1.4380    -8.6560     1.5110 H     1 <1>   0.1500 
 47 H        1.3640    -8.9330    -1.4430 H     1 <1>   0.1500 
@<TRIPOS>BOND
  1   1   2  2   
  2   2   3  am  
  3   2   4  1   
  4   3   5  1   
  5   3  25  1   
  6   4   6  1   
  7   4  26  1   
  8   4  27  1   
  9   5   7  1   
 10   5  28  1   
 11   5  29  1   
 12   6   8  1   
 13   6   9  1   
 14   7  10  ar  
 15   7  11  ar  
 16   8  12  1   
 17   8  30  1   
 18   8  31  1   
 19   9  13  1   
 20   9  32  1   
 21   9  33  1   
 22  10  14  ar  
 23  10  34  1   
 24  11  15  ar  
 25  11  35  1   
 26  12  13  1   
 27  12  16  1   
 28  12  36  1   
 29  13  17  1   
 30  13  37  1   
 31  14  18  ar  
 32  14  38  1   
 33  15  18  ar  
 34  15  39  1   
 35  16  40  1   
 36  17  19  1   
 37  17  41  1   
 38  17  42  1   
 39  18  43  1   
 40  19  20  ar  
 41  19  21  ar  
 42  20  22  ar  
 43  20  44  1   
 44  21  23  ar  
 45  21  45  1   
 46  22  24  ar  
 47  22  46  1   
 48  23  24  ar  
 49  23  47  1   
@<TRIPOS>SUBSTRUCTURE
  1 ****   6 GROUP 4 **** **** 0

# MOE 2024.06 (io_trps.svl 2023.06)
