@<TRIPOS>MOLECULE
NONAME
57 61 1 0 0 
SMALL
USER_CHARGES


@<TRIPOS>ATOM
  1 O       -0.0190     0.4930     0.5250 O.2   1 <1>  -0.5700 
  2 C       -0.5150     1.4580    -0.0080 C.2   1 <1>   0.5690 
  3 N       -1.8670     1.5350    -0.2370 N.am  1 <1>  -0.6600 
  4 C        0.3970     2.6100    -0.4250 C.3   1 <1>  -0.0990 
  5 C       -2.5820     2.7060    -0.8410 C.3   1 <1>   0.1400 
  6 C       -2.7740     0.4030     0.1100 C.3   1 <1>   0.1400 
  7 C        1.8910     2.3820    -0.1280 C.3   1 <1>  -0.1600 
  8 C       -3.6710     3.2390     0.1100 C.3   1 <1>   0.1440 
  9 C       -3.8790     0.8840     1.0600 C.3   1 <1>  -0.1600 
 10 C        2.7520     3.5680    -0.5830 C.3   1 <1>   0.0210 
 11 C       -4.3790     4.3940    -0.5730 C.ar  1 <1>   0.1660 
 12 C       -4.6370     2.0950     0.4860 C.3   1 <1>  -0.1600 
 13 C       -3.0610     3.9170     1.3680 C.3   1 <1>  -0.1600 
 14 C        4.2290     3.3640    -0.2860 C.2   1 <1>  -0.1810 
 15 N       -5.2080     4.2860    -1.5880 N.ar  1 <1>  -0.6200 
 16 C       -4.0400     5.5920    -0.0200 C.ar  1 <1>  -0.1440 
 17 C       -3.0540     5.4340     1.1100 C.3   1 <1>  -0.0170 
 18 C        5.2250     4.3110    -0.6170 C.ar  1 <1>   0.0000 
 19 C        4.8480     2.3160     0.3100 C.2   1 <1>  -0.3020 
 20 C       -5.7000     5.4390    -2.0190 C.ar  1 <1>   0.4770 
 21 C       -4.6090     6.7250    -0.5460 C.ar  1 <1>   0.1600 
 22 C        6.4370     3.7760    -0.1910 C.ar  1 <1>  -0.1520 
 23 C        5.2090     5.5670    -1.2350 C.ar  1 <1>  -0.1500 
 24 N        6.1900     2.5520     0.3740 N.pl3 1 <1>   0.0330 
 25 N       -5.4500     6.6570    -1.5570 N.ar  1 <1>  -0.6200 
 26 C       -6.6670     5.3590    -3.1750 C.3   1 <1>  -0.0970 
 27 C        7.6350     4.4710    -0.3710 C.ar  1 <1>  -0.1500 
 28 C        6.3890     6.2520    -1.4120 C.ar  1 <1>  -0.1500 
 29 C        7.6030     5.7050    -0.9800 C.ar  1 <1>  -0.1500 
 30 H        0.0750     3.4950     0.0900 H     1 <1>   0.0800 
 31 H        0.2740     2.7630    -1.4820 H     1 <1>   0.0800 
 32 H       -3.0460     2.3890    -1.7590 H     1 <1>   0.0800 
 33 H       -1.9030     3.5030    -1.0830 H     1 <1>   0.0800 
 34 H       -2.2270    -0.3990     0.5760 H     1 <1>   0.0800 
 35 H       -3.2130     0.0190    -0.7950 H     1 <1>   0.0800 
 36 H        2.2220     1.4910    -0.6330 H     1 <1>   0.0800 
 37 H        2.0230     2.2330     0.9300 H     1 <1>   0.0800 
 38 H       -3.4350     1.1370     2.0060 H     1 <1>   0.0800 
 39 H       -4.5700     0.0770     1.2320 H     1 <1>   0.0800 
 40 H        2.4260     4.4630    -0.0840 H     1 <1>   0.0800 
 41 H        2.6350     3.7120    -1.6430 H     1 <1>   0.0800 
 42 H       -5.1670     1.7830    -0.3980 H     1 <1>   0.0800 
 43 H       -5.3700     2.4440     1.1920 H     1 <1>   0.0800 
 44 H       -2.0780     3.5480     1.6020 H     1 <1>   0.0800 
 45 H       -3.6940     3.7300     2.2180 H     1 <1>   0.0800 
 46 H       -2.0800     5.7620     0.7910 H     1 <1>   0.0800 
 47 H       -3.3590     5.9840     1.9840 H     1 <1>   0.0800 
 48 H        4.4160     1.4090     0.6960 H     1 <1>   0.1500 
 49 H       -4.3760     7.6940    -0.1410 H     1 <1>   0.1500 
 50 H        4.2730     5.9770    -1.5620 H     1 <1>   0.1500 
 51 H        6.8990     1.9300     0.7740 H     1 <1>   0.2700 
 52 H       -6.5490     4.4290    -3.6990 H     1 <1>   0.0800 
 53 H       -6.4860     6.1690    -3.8580 H     1 <1>   0.0800 
 54 H       -7.6710     5.4300    -2.8020 H     1 <1>   0.0800 
 55 H        8.5620     4.0430    -0.0360 H     1 <1>   0.1500 
 56 H        6.3900     7.2180    -1.8850 H     1 <1>   0.1500 
 57 H        8.5110     6.2610    -1.1300 H     1 <1>   0.1500 
@<TRIPOS>BOND
  1   1   2  2   
  2   2   3  am  
  3   2   4  1   
  4   3   5  1   
  5   3   6  1   
  6   4   7  1   
  7   4  30  1   
  8   4  31  1   
  9   5   8  1   
 10   5  32  1   
 11   5  33  1   
 12   6   9  1   
 13   6  34  1   
 14   6  35  1   
 15   7  10  1   
 16   7  36  1   
 17   7  37  1   
 18   8  11  1   
 19   8  12  1   
 20   8  13  1   
 21   9  12  1   
 22   9  38  1   
 23   9  39  1   
 24  10  14  1   
 25  10  40  1   
 26  10  41  1   
 27  11  15  ar  
 28  11  16  ar  
 29  12  42  1   
 30  12  43  1   
 31  13  17  1   
 32  13  44  1   
 33  13  45  1   
 34  14  18  1   
 35  14  19  2   
 36  15  20  ar  
 37  16  17  1   
 38  16  21  ar  
 39  17  46  1   
 40  17  47  1   
 41  18  22  ar  
 42  18  23  ar  
 43  19  24  1   
 44  19  48  1   
 45  20  25  ar  
 46  20  26  1   
 47  21  25  ar  
 48  21  49  1   
 49  22  24  1   
 50  22  27  ar  
 51  23  28  ar  
 52  23  50  1   
 53  24  51  1   
 54  26  52  1   
 55  26  53  1   
 56  26  54  1   
 57  27  29  ar  
 58  27  55  1   
 59  28  29  ar  
 60  28  56  1   
 61  29  57  1   
@<TRIPOS>SUBSTRUCTURE
  1 ****   4 GROUP 4 **** **** 0

# MOE 2024.06 (io_trps.svl 2023.06)
