@<TRIPOS>MOLECULE
NONAME
48 49 1 0 0 
SMALL
USER_CHARGES


@<TRIPOS>ATOM
  1 S        2.5550     1.5060     0.0860 S.o2  1 <1>   1.3330 
  2 O        3.2400     0.3520     0.6200 O.2   1 <1>  -0.6500 
  3 O        2.7180     1.8340    -1.3130 O.2   1 <1>  -0.6500 
  4 N        3.0290     2.8440     1.0140 N.am  1 <1>  -0.8490 
  5 C        0.7960     1.3100     0.4220 C.3   1 <1>  -0.0550 
  6 C        3.2810     2.5310     2.4230 C.3   1 <1>   0.1160 
  7 C        4.1890     3.5390     0.4490 C.3   1 <1>   0.1160 
  8 C       -0.1880     2.4600     0.0820 C.3   1 <1>  -0.0800 
  9 C       -0.0730     3.0030    -1.3490 C.3   1 <1>   0.2000 
 10 C       -0.0590     3.6920     0.9910 C.3   1 <1>   0.1400 
 11 O       -1.3520     3.3330    -1.7690 O.3   1 <1>  -0.6800 
 12 C        0.7280     4.3000    -1.2300 C.3   1 <1>   0.1400 
 13 N        0.4350     4.7950     0.1360 N.am  1 <1>  -0.6600 
 14 C        0.7600     6.0210     0.6510 C.2   1 <1>   0.5690 
 15 O        0.5420     6.2870     1.8110 O.2   1 <1>  -0.5700 
 16 C        1.3820     7.1010    -0.2240 C.3   1 <1>   0.0440 
 17 C        2.8880     6.9270    -0.3780 C.ar  1 <1>  -0.1430 
 18 C        3.7180     7.1630     0.7070 C.ar  1 <1>  -0.1500 
 19 C        3.4450     6.5420    -1.5890 C.ar  1 <1>  -0.1500 
 20 C        5.0890     7.0180     0.5900 C.ar  1 <1>  -0.1500 
 21 C        4.8150     6.3900    -1.7060 C.ar  1 <1>  -0.1500 
 22 C        5.6460     6.6240    -0.6230 C.ar  1 <1>   0.0820 
 23 O        6.9750     6.4440    -0.8210 O.3   1 <1>  -0.3630 
 24 C        7.9120     6.7270     0.1950 C.3   1 <1>   0.0400 
 25 H        0.4680     0.4470    -0.1240 H     1 <1>   0.0800 
 26 H        0.6770     1.0700     1.4600 H     1 <1>   0.0800 
 27 H        3.4710     3.4380     2.9720 H     1 <1>   0.0800 
 28 H        4.1320     1.8770     2.5170 H     1 <1>   0.0800 
 29 H        2.4230     2.0470     2.8570 H     1 <1>   0.0800 
 30 H        4.4420     4.3920     1.0540 H     1 <1>   0.0800 
 31 H        3.9660     3.8900    -0.5440 H     1 <1>   0.0800 
 32 H        5.0370     2.8770     0.3980 H     1 <1>   0.0800 
 33 H       -1.1710     2.0460     0.2260 H     1 <1>   0.0800 
 34 H        0.3420     2.3070    -2.0580 H     1 <1>   0.0800 
 35 H        0.6180     3.5300     1.8110 H     1 <1>   0.0800 
 36 H       -1.0200     3.9680     1.3900 H     1 <1>   0.0800 
 37 H       -1.6900     4.0590    -1.2080 H     1 <1>   0.4000 
 38 H        0.4400     5.0060    -1.9890 H     1 <1>   0.0800 
 39 H        1.7810     4.1040    -1.3110 H     1 <1>   0.0800 
 40 H        0.9010     7.1090    -1.1820 H     1 <1>   0.0800 
 41 H        1.1890     8.0550     0.2320 H     1 <1>   0.0800 
 42 H        3.2920     7.4610     1.6510 H     1 <1>   0.1500 
 43 H        2.8210     6.3590    -2.4450 H     1 <1>   0.1500 
 44 H        5.7010     7.2130     1.4500 H     1 <1>   0.1500 
 45 H        5.2510     6.0880    -2.6420 H     1 <1>   0.1500 
 46 H        8.8950     6.5390    -0.1970 H     1 <1>   0.0800 
 47 H        7.7230     6.0830     1.0340 H     1 <1>   0.0800 
 48 H        7.8210     7.7620     0.4740 H     1 <1>   0.0800 
@<TRIPOS>BOND
  1   1   2  2   
  2   1   3  2   
  3   1   4  am  
  4   1   5  1   
  5   4   6  1   
  6   4   7  1   
  7   5   8  1   
  8   5  25  1   
  9   5  26  1   
 10   6  27  1   
 11   6  28  1   
 12   6  29  1   
 13   7  30  1   
 14   7  31  1   
 15   7  32  1   
 16   8   9  1   
 17   8  10  1   
 18   8  33  1   
 19   9  11  1   
 20   9  12  1   
 21   9  34  1   
 22  10  13  1   
 23  10  35  1   
 24  10  36  1   
 25  11  37  1   
 26  12  13  1   
 27  12  38  1   
 28  12  39  1   
 29  13  14  am  
 30  14  15  2   
 31  14  16  1   
 32  16  17  1   
 33  16  40  1   
 34  16  41  1   
 35  17  18  ar  
 36  17  19  ar  
 37  18  20  ar  
 38  18  42  1   
 39  19  21  ar  
 40  19  43  1   
 41  20  22  ar  
 42  20  44  1   
 43  21  22  ar  
 44  21  45  1   
 45  22  23  1   
 46  23  24  1   
 47  24  46  1   
 48  24  47  1   
 49  24  48  1   
@<TRIPOS>SUBSTRUCTURE
  1 ****   7 GROUP 4 **** **** 0

# MOE 2024.06 (io_trps.svl 2023.06)
