@<TRIPOS>MOLECULE
NONAME
53 56 1 0 0 
SMALL
USER_CHARGES


@<TRIPOS>ATOM
  1 O        0.1200     1.2440    -0.5140 O.2   1 <1>  -0.5700 
  2 C       -0.0560     2.4390    -0.5020 C.2   1 <1>   0.5690 
  3 N       -0.8550     3.0550     0.4240 N.am  1 <1>  -0.6600 
  4 C        0.6290     3.2810    -1.5790 C.3   1 <1>   0.1810 
  5 C       -1.0880     4.5350     0.3910 C.3   1 <1>   0.3640 
  6 C       -1.5120     2.3070     1.5360 C.3   1 <1>   0.0600 
  7 O        0.8180     4.6150    -1.1790 O.3   1 <1>  -0.5600 
  8 C       -2.5870     4.8740     0.4150 C.ar  1 <1>  -0.1430 
  9 C       -0.3640     5.2750    -0.7640 C.3   1 <1>   0.2610 
 10 C       -3.5420     4.3320    -0.4520 C.ar  1 <1>  -0.1430 
 11 C       -2.9990     5.7930     1.3740 C.ar  1 <1>  -0.1500 
 12 C       -0.0930     6.7290    -0.3430 C.2   1 <1>   0.5690 
 13 C       -4.8700     4.7130    -0.3270 C.ar  1 <1>  -0.1500 
 14 C       -3.2160     3.3220    -1.5470 C.3   1 <1>  -0.0960 
 15 C       -4.3250     6.1670     1.4860 C.ar  1 <1>  -0.1500 
 16 O       -0.8820     7.5470    -0.7590 O.2   1 <1>  -0.5700 
 17 N        0.9490     7.1010     0.4890 N.am  1 <1>  -0.5090 
 18 C       -5.2640     5.6240     0.6340 C.ar  1 <1>  -0.1500 
 19 C        1.0320     8.4940     1.0090 C.3   1 <1>   0.0490 
 20 C        1.9440     6.1600     1.0850 C.3   1 <1>   0.2840 
 21 C        1.1900     9.6130     0.0280 C.3   1 <1>  -0.2000 
 22 C        2.3130     9.2740     0.9500 C.3   1 <1>  -0.2000 
 23 C        3.2950     6.2080     0.3780 C.ar  1 <1>  -0.1430 
 24 C        4.4740     6.0640     1.0850 C.ar  1 <1>  -0.1500 
 25 C        3.4300     6.3930    -0.9850 C.ar  1 <1>  -0.1500 
 26 C        5.6870     6.1110     0.4180 C.ar  1 <1>   0.1600 
 27 C        4.6910     6.4250    -1.5550 C.ar  1 <1>   0.1600 
 28 N        5.8240     6.2890    -0.8860 N.ar  1 <1>  -0.6200 
 29 H        0.0430     3.2700    -2.4790 H     1 <1>   0.0800 
 30 H        1.5970     2.8650    -1.7910 H     1 <1>   0.0800 
 31 H       -0.6680     4.9110     1.3060 H     1 <1>   0.0800 
 32 H       -1.2480     2.7480     2.4810 H     1 <1>   0.0800 
 33 H       -1.2000     1.2770     1.5390 H     1 <1>   0.0800 
 34 H       -2.5810     2.3390     1.4200 H     1 <1>   0.0800 
 35 H       -1.0150     5.3140    -1.6170 H     1 <1>   0.0800 
 36 H       -2.2900     6.2380     2.0490 H     1 <1>   0.1500 
 37 H       -5.6180     4.3020    -0.9830 H     1 <1>   0.1500 
 38 H       -4.0430     3.2090    -2.2240 H     1 <1>   0.0800 
 39 H       -3.0120     2.3590    -1.1130 H     1 <1>   0.0800 
 40 H       -2.3690     3.6350    -2.1240 H     1 <1>   0.0800 
 41 H       -4.6240     6.8810     2.2330 H     1 <1>   0.1500 
 42 H       -6.2980     5.9110     0.7160 H     1 <1>   0.1500 
 43 H        0.3690     8.6570     1.8430 H     1 <1>   0.1000 
 44 H        2.0790     6.4220     2.1200 H     1 <1>   0.0800 
 45 H        1.5810     5.1500     1.0640 H     1 <1>   0.0800 
 46 H        1.2760     9.3670    -1.0160 H     1 <1>   0.1000 
 47 H        0.6390    10.5220     0.1940 H     1 <1>   0.1000 
 48 H        2.5370     9.9660     1.7420 H     1 <1>   0.1000 
 49 H        3.2000     8.8640     0.5030 H     1 <1>   0.1000 
 50 H        4.4650     5.9150     2.1490 H     1 <1>   0.1500 
 51 H        2.5670     6.5160    -1.6130 H     1 <1>   0.1500 
 52 H        6.5930     5.9960     0.9870 H     1 <1>   0.1500 
 53 H        4.7700     6.5720    -2.6190 H     1 <1>   0.1500 
@<TRIPOS>BOND
  1   1   2  2   
  2   2   3  am  
  3   2   4  1   
  4   3   5  1   
  5   3   6  1   
  6   4   7  1   
  7   4  29  1   
  8   4  30  1   
  9   5   8  1   
 10   5   9  1   
 11   5  31  1   
 12   6  32  1   
 13   6  33  1   
 14   6  34  1   
 15   7   9  1   
 16   8  10  ar  
 17   8  11  ar  
 18   9  12  1   
 19   9  35  1   
 20  10  13  ar  
 21  10  14  1   
 22  11  15  ar  
 23  11  36  1   
 24  12  16  2   
 25  12  17  am  
 26  13  18  ar  
 27  13  37  1   
 28  14  38  1   
 29  14  39  1   
 30  14  40  1   
 31  15  18  ar  
 32  15  41  1   
 33  17  19  1   
 34  17  20  1   
 35  18  42  1   
 36  19  21  1   
 37  19  22  1   
 38  19  43  1   
 39  20  23  1   
 40  20  44  1   
 41  20  45  1   
 42  21  22  1   
 43  21  46  1   
 44  21  47  1   
 45  22  48  1   
 46  22  49  1   
 47  23  24  ar  
 48  23  25  ar  
 49  24  26  ar  
 50  24  50  1   
 51  25  27  ar  
 52  25  51  1   
 53  26  28  ar  
 54  26  52  1   
 55  27  28  ar  
 56  27  53  1   
@<TRIPOS>SUBSTRUCTURE
  1 ****   9 GROUP 4 **** **** 0

# MOE 2024.06 (io_trps.svl 2023.06)
