@<TRIPOS>MOLECULE
NONAME
46 48 1 0 0 
SMALL
USER_CHARGES


@<TRIPOS>ATOM
  1 S       -0.5910    -1.1370     0.0470 S.3   1 <1>  -0.0800 
  2 C        1.1030    -0.6830    -0.0650 C.2   1 <1>   0.1980 
  3 C       -1.0330     0.4840    -0.4010 C.2   1 <1>  -0.1100 
  4 N        1.2890     0.5400    -0.3830 N.2   1 <1>  -0.5650 
  5 C        2.1600    -1.7480     0.2470 C.3   1 <1>   0.4000 
  6 C        0.0860     1.1990    -0.5810 C.2   1 <1>   0.0770 
  7 N        1.7710    -3.1250    -0.1570 N.am  1 <1>  -0.6600 
  8 C        2.4180    -1.8470     1.7550 C.3   1 <1>  -0.1600 
  9 C        1.6020    -3.4740    -1.4670 C.2   1 <1>   0.5690 
 10 C        1.7400    -4.0360     1.0110 C.3   1 <1>   0.1400 
 11 C        2.6040    -3.3350     2.0500 C.3   1 <1>  -0.1600 
 12 O        1.8240    -2.7010    -2.3660 O.2   1 <1>  -0.5700 
 13 C        1.1010    -4.8530    -1.8320 C.3   1 <1>  -0.0990 
 14 C       -0.3900    -4.9580    -1.5170 C.3   1 <1>   0.1400 
 15 N       -0.7880    -6.3840    -1.4620 N.am  1 <1>  -0.7300 
 16 C       -0.6390    -7.1820    -0.3600 C.2   1 <1>   0.5440 
 17 O       -0.0960    -6.7130     0.6220 O.2   1 <1>  -0.5700 
 18 C       -1.1220    -8.5520    -0.3650 C.ar  1 <1>   0.0860 
 19 C       -1.5670    -9.1540     0.8100 C.ar  1 <1>  -0.1500 
 20 C       -1.1620    -9.3180    -1.5320 C.ar  1 <1>  -0.1500 
 21 C       -2.0440   -10.4530     0.8320 C.ar  1 <1>   0.0820 
 22 C       -1.6360   -10.6180    -1.5260 C.ar  1 <1>  -0.1500 
 23 O       -2.4550   -10.9320     2.0320 O.3   1 <1>  -0.3620 
 24 C       -2.0800   -11.1900    -0.3480 C.ar  1 <1>  -0.1500 
 25 C       -2.9320   -12.2520     2.1730 C.3   1 <1>   0.0400 
 26 H       -2.0770     0.7230    -0.4830 H     1 <1>   0.1500 
 27 H        3.0730    -1.4890    -0.2610 H     1 <1>   0.0800 
 28 H        0.1280     2.2360    -0.8670 H     1 <1>   0.1500 
 29 H        1.5600    -1.4810     2.2910 H     1 <1>   0.0800 
 30 H        3.2740    -1.2630     2.0420 H     1 <1>   0.0800 
 31 H        2.1300    -5.0120     0.7780 H     1 <1>   0.0800 
 32 H        0.7270    -4.1300     1.3650 H     1 <1>   0.0800 
 33 H        2.3130    -3.5970     3.0520 H     1 <1>   0.0800 
 34 H        3.6320    -3.6150     1.8970 H     1 <1>   0.0800 
 35 H        1.6590    -5.5880    -1.2870 H     1 <1>   0.0800 
 36 H        1.2590    -5.0200    -2.8810 H     1 <1>   0.0800 
 37 H       -0.9660    -4.4390    -2.2630 H     1 <1>   0.0800 
 38 H       -0.5990    -4.5050    -0.5620 H     1 <1>   0.0800 
 39 H       -1.3160    -6.7320    -2.2640 H     1 <1>   0.3700 
 40 H       -1.5420    -8.5970     1.7300 H     1 <1>   0.1500 
 41 H       -0.8090    -8.8970    -2.4560 H     1 <1>   0.1500 
 42 H       -1.6570   -11.1890    -2.4390 H     1 <1>   0.1500 
 43 H       -2.4440   -12.1990    -0.3660 H     1 <1>   0.1500 
 44 H       -3.1850   -12.4050     3.2070 H     1 <1>   0.0800 
 45 H       -2.1560   -12.9370     1.8820 H     1 <1>   0.0800 
 46 H       -3.8070   -12.3740     1.5610 H     1 <1>   0.0800 
@<TRIPOS>BOND
  1   1   2  1   
  2   1   3  1   
  3   2   4  2   
  4   2   5  1   
  5   3   6  2   
  6   3  26  1   
  7   4   6  1   
  8   5   7  1   
  9   5   8  1   
 10   5  27  1   
 11   6  28  1   
 12   7   9  am  
 13   7  10  1   
 14   8  11  1   
 15   8  29  1   
 16   8  30  1   
 17   9  12  2   
 18   9  13  1   
 19  10  11  1   
 20  10  31  1   
 21  10  32  1   
 22  11  33  1   
 23  11  34  1   
 24  13  14  1   
 25  13  35  1   
 26  13  36  1   
 27  14  15  1   
 28  14  37  1   
 29  14  38  1   
 30  15  16  am  
 31  15  39  1   
 32  16  17  2   
 33  16  18  1   
 34  18  19  ar  
 35  18  20  ar  
 36  19  21  ar  
 37  19  40  1   
 38  20  22  ar  
 39  20  41  1   
 40  21  23  1   
 41  21  24  ar  
 42  22  24  ar  
 43  22  42  1   
 44  23  25  1   
 45  24  43  1   
 46  25  44  1   
 47  25  45  1   
 48  25  46  1   
@<TRIPOS>SUBSTRUCTURE
  1 ****  14 GROUP 4 **** **** 0

# MOE 2024.06 (io_trps.svl 2023.06)
