@<TRIPOS>MOLECULE
NONAME
60 64 1 0 0 
SMALL
USER_CHARGES


@<TRIPOS>ATOM
  1 O        0.7500    -0.2160    -0.7510 O.3   1 <1>  -0.5600 
  2 C        1.2670    -0.7620     0.4100 C.3   1 <1>   0.2800 
  3 C       -0.4800     0.1990    -0.3050 C.3   1 <1>   0.2000 
  4 C        1.1960     0.4340     1.3550 C.3   1 <1>  -0.0800 
  5 C        2.7370    -1.1330     0.2610 C.3   1 <1>   0.2090 
  6 C        0.2190    -1.8200     0.7450 C.3   1 <1>  -0.1600 
  7 C       -0.0340     1.1910     0.7790 C.3   1 <1>  -0.0800 
  8 C       -1.0510    -1.0980     0.2880 C.3   1 <1>  -0.1600 
  9 C        2.6150     1.0460     1.3220 C.3   1 <1>   0.2090 
 10 N        3.4890     0.1410     0.5100 N.pl3 1 <1>  -0.8380 
 11 C        0.2930     2.5550     0.1450 C.3   1 <1>   0.3430 
 12 C        4.7140     0.4750     0.0300 C.ar  1 <1>   0.4610 
 13 N       -0.9050     3.2220    -0.4580 N.4   1 <1>  -0.9590 
 14 N        5.3330    -0.3470    -0.8320 N.ar  1 <1>  -0.1790 
 15 C        5.4310     1.6530     0.3430 C.ar  1 <1>   0.0000 
 16 C       -1.8780     3.7010     0.5710 C.3   1 <1>   0.3430 
 17 C       -0.4660     4.3410    -1.3540 C.3   1 <1>   0.2630 
 18 C        6.5470    -0.0620    -1.4100 C.ar  1 <1>   0.5270 
 19 C        6.6350     1.8820    -0.2780 C.ar  1 <1>   0.1050 
 20 C        5.2860     2.7700     1.1800 C.2   1 <1>   0.1390 
 21 C       -3.2470     3.9160    -0.0670 C.3   1 <1>  -0.1600 
 22 N        7.2060     1.0160    -1.1690 N.ar  1 <1>  -0.5670 
 23 C        7.1150    -1.0780    -2.3810 C.3   1 <1>  -0.0970 
 24 N        7.1020     3.0690     0.1730 N.pl3 1 <1>   0.3140 
 25 N        6.2570     3.6130     1.0740 N.2   1 <1>  -0.7070 
 26 C       -4.2880     4.2260     1.0060 C.3   1 <1>   0.1200 
 27 C        8.3570     3.7420    -0.1960 C.3   1 <1>   0.0160 
 28 O       -5.5270     4.1910     0.4080 O.3   1 <1>  -0.6800 
 29 H       -1.0670     0.6010    -1.1130 H     1 <1>   0.0800 
 30 H        0.9980     0.0970     2.3580 H     1 <1>   0.0800 
 31 H        2.9110    -1.5460    -0.7160 H     1 <1>   0.0800 
 32 H        2.9990    -1.8540     1.0180 H     1 <1>   0.0800 
 33 H        0.3840    -2.7100     0.1640 H     1 <1>   0.0800 
 34 H        0.2050    -2.0700     1.7920 H     1 <1>   0.0800 
 35 H       -0.7880     1.2970     1.5380 H     1 <1>   0.0800 
 36 H       -1.7350    -0.9070     1.0980 H     1 <1>   0.0800 
 37 H       -1.5580    -1.6650    -0.4740 H     1 <1>   0.0800 
 38 H        3.0020     1.1040     2.3270 H     1 <1>   0.0800 
 39 H        2.6250     2.0300     0.8930 H     1 <1>   0.0800 
 40 H        1.0300     2.3920    -0.6260 H     1 <1>   0.0800 
 41 H        0.7270     3.2040     0.8890 H     1 <1>   0.0800 
 42 H       -1.3900     2.5310    -1.0480 H     1 <1>   0.4500 
 43 H        4.8630    -1.2070    -1.0830 H     1 <1>   0.4570 
 44 H       -1.9810     2.9630     1.3490 H     1 <1>   0.0800 
 45 H       -1.5280     4.6160     1.0220 H     1 <1>   0.0800 
 46 H        0.0350     5.1070    -0.7840 H     1 <1>   0.0800 
 47 H       -1.3150     4.7810    -1.8520 H     1 <1>   0.0800 
 48 H        0.2130     3.9720    -2.1070 H     1 <1>   0.0800 
 49 H        4.4670     2.9320     1.8580 H     1 <1>   0.1500 
 50 H       -3.5460     3.0160    -0.5760 H     1 <1>   0.0800 
 51 H       -3.2140     4.7330    -0.7660 H     1 <1>   0.0800 
 52 H        8.0610    -0.7330    -2.7620 H     1 <1>   0.0800 
 53 H        6.4490    -1.2150    -3.2130 H     1 <1>   0.0800 
 54 H        7.2750    -2.0200    -1.8890 H     1 <1>   0.0800 
 55 H       -4.1460     5.1980     1.4510 H     1 <1>   0.0800 
 56 H       -4.2860     3.4740     1.7790 H     1 <1>   0.0800 
 57 H        8.8690     3.1740    -0.9510 H     1 <1>   0.0800 
 58 H        8.9780     3.8280     0.6760 H     1 <1>   0.0800 
 59 H        8.1310     4.7230    -0.5710 H     1 <1>   0.0800 
 60 H       -5.7080     5.0010    -0.1110 H     1 <1>   0.4000 
@<TRIPOS>BOND
  1   1   2  1   
  2   1   3  1   
  3   2   4  1   
  4   2   5  1   
  5   2   6  1   
  6   3   7  1   
  7   3   8  1   
  8   3  29  1   
  9   4   7  1   
 10   4   9  1   
 11   4  30  1   
 12   5  10  1   
 13   5  31  1   
 14   5  32  1   
 15   6   8  1   
 16   6  33  1   
 17   6  34  1   
 18   7  11  1   
 19   7  35  1   
 20   8  36  1   
 21   8  37  1   
 22   9  10  1   
 23   9  38  1   
 24   9  39  1   
 25  10  12  1   
 26  11  13  1   
 27  11  40  1   
 28  11  41  1   
 29  12  14  ar  
 30  12  15  ar  
 31  13  16  1   
 32  13  17  1   
 33  13  42  1   
 34  14  18  ar  
 35  14  43  1   
 36  15  19  ar  
 37  15  20  1   
 38  16  21  1   
 39  16  44  1   
 40  16  45  1   
 41  17  46  1   
 42  17  47  1   
 43  17  48  1   
 44  18  22  ar  
 45  18  23  1   
 46  19  22  ar  
 47  19  24  1   
 48  20  25  2   
 49  20  49  1   
 50  21  26  1   
 51  21  50  1   
 52  21  51  1   
 53  23  52  1   
 54  23  53  1   
 55  23  54  1   
 56  24  25  1   
 57  24  27  1   
 58  26  28  1   
 59  26  55  1   
 60  26  56  1   
 61  27  57  1   
 62  27  58  1   
 63  27  59  1   
 64  28  60  1   
@<TRIPOS>SUBSTRUCTURE
  1 ****   9 GROUP 4 **** **** 0

# MOE 2024.06 (io_trps.svl 2023.06)
