@<TRIPOS>MOLECULE
NONAME
52 54 1 0 0 
SMALL
USER_CHARGES


@<TRIPOS>ATOM
  1 CL       4.3160     0.9240     2.2110 Cl    1 <1>  -0.1770 
  2 C        3.9810    -0.3980     1.1220 C.ar  1 <1>   0.1770 
  3 C        3.3800    -1.5400     1.6080 C.ar  1 <1>  -0.1500 
  4 C        4.3190    -0.2760    -0.2120 C.ar  1 <1>  -0.1500 
  5 C        3.0910    -2.6090     0.7600 C.ar  1 <1>   0.0860 
  6 C        4.0550    -1.3300    -1.0660 C.ar  1 <1>  -0.1500 
  7 C        3.4620    -2.4920    -0.5920 C.ar  1 <1>   0.0830 
  8 C        2.4110    -3.7610     1.3090 C.2   1 <1>   0.5440 
  9 O        3.2600    -3.4640    -1.5110 O.3   1 <1>  -0.3630 
 10 O        3.0480    -4.5310     2.0030 O.2   1 <1>  -0.5700 
 11 N        1.0680    -4.0130     1.0840 N.am  1 <1>  -0.6600 
 12 C        3.6160    -4.8030    -1.2290 C.3   1 <1>   0.0400 
 13 C        0.2470    -3.1630     0.1680 C.3   1 <1>   0.2200 
 14 C        0.4260    -5.2050     1.7240 C.3   1 <1>   0.0600 
 15 C       -0.8190    -2.3570     0.8990 C.3   1 <1>  -0.1600 
 16 C       -0.5350    -3.9460    -0.8820 C.3   1 <1>  -0.1600 
 17 C       -1.8150    -1.9580    -0.2000 C.3   1 <1>  -0.0800 
 18 C       -1.6260    -2.9680    -1.3450 C.3   1 <1>  -0.0800 
 19 C       -3.2850    -2.0490     0.2290 C.3   1 <1>  -0.1600 
 20 C       -2.9910    -3.6270    -1.5780 C.3   1 <1>  -0.1600 
 21 C       -3.7470    -3.4190    -0.2690 C.3   1 <1>   0.4230 
 22 N       -5.2290    -3.5640    -0.4190 N.4   1 <1>  -0.9590 
 23 C       -5.8880    -2.5570    -1.3170 C.3   1 <1>   0.2630 
 24 C       -5.8970    -3.5680     0.9190 C.3   1 <1>   0.2630 
 25 H        3.1280    -1.6070     2.6510 H     1 <1>   0.1500 
 26 H        4.7820     0.6270    -0.5690 H     1 <1>   0.1500 
 27 H        4.3140    -1.2610    -2.1080 H     1 <1>   0.1500 
 28 H        3.8640    -5.2870    -2.1560 H     1 <1>   0.0800 
 29 H        2.7800    -5.3020    -0.7740 H     1 <1>   0.0800 
 30 H        4.4680    -4.8160    -0.5710 H     1 <1>   0.0800 
 31 H        0.8720    -2.4660    -0.3600 H     1 <1>   0.0800 
 32 H       -0.6190    -5.0350     1.8990 H     1 <1>   0.0800 
 33 H        0.8940    -5.4180     2.6710 H     1 <1>   0.0800 
 34 H        0.5460    -6.0620     1.0840 H     1 <1>   0.0800 
 35 H       -1.2980    -2.9640     1.6440 H     1 <1>   0.0800 
 36 H       -0.3880    -1.4920     1.3720 H     1 <1>   0.0800 
 37 H        0.1060    -4.2360    -1.6970 H     1 <1>   0.0800 
 38 H       -0.9810    -4.8210    -0.4500 H     1 <1>   0.0800 
 39 H       -1.5820    -0.9630    -0.5460 H     1 <1>   0.0800 
 40 H       -1.2910    -2.4590    -2.2350 H     1 <1>   0.0800 
 41 H       -3.8190    -1.2570    -0.2620 H     1 <1>   0.0800 
 42 H       -3.3980    -1.9460     1.2940 H     1 <1>   0.0800 
 43 H       -2.8970    -4.6690    -1.8280 H     1 <1>   0.0800 
 44 H       -3.4700    -3.1110    -2.3890 H     1 <1>   0.0800 
 45 H       -3.3870    -4.1580     0.4300 H     1 <1>   0.0800 
 46 H       -5.3790    -4.4920    -0.8420 H     1 <1>   0.4500 
 47 H       -5.7840    -1.5640    -0.9130 H     1 <1>   0.0800 
 48 H       -6.9390    -2.7770    -1.4140 H     1 <1>   0.0800 
 49 H       -5.4470    -2.5780    -2.3000 H     1 <1>   0.0800 
 50 H       -5.7730    -2.6120     1.4020 H     1 <1>   0.0800 
 51 H       -5.4700    -4.3310     1.5500 H     1 <1>   0.0800 
 52 H       -6.9520    -3.7640     0.8110 H     1 <1>   0.0800 
@<TRIPOS>BOND
  1   1   2  1   
  2   2   3  ar  
  3   2   4  ar  
  4   3   5  ar  
  5   3  25  1   
  6   4   6  ar  
  7   4  26  1   
  8   5   7  ar  
  9   5   8  1   
 10   6   7  ar  
 11   6  27  1   
 12   7   9  1   
 13   8  10  2   
 14   8  11  am  
 15   9  12  1   
 16  11  13  1   
 17  11  14  1   
 18  12  28  1   
 19  12  29  1   
 20  12  30  1   
 21  13  15  1   
 22  13  16  1   
 23  13  31  1   
 24  14  32  1   
 25  14  33  1   
 26  14  34  1   
 27  15  17  1   
 28  15  35  1   
 29  15  36  1   
 30  16  18  1   
 31  16  37  1   
 32  16  38  1   
 33  17  18  1   
 34  17  19  1   
 35  17  39  1   
 36  18  20  1   
 37  18  40  1   
 38  19  21  1   
 39  19  41  1   
 40  19  42  1   
 41  20  21  1   
 42  20  43  1   
 43  20  44  1   
 44  21  22  1   
 45  21  45  1   
 46  22  23  1   
 47  22  24  1   
 48  22  46  1   
 49  23  47  1   
 50  23  48  1   
 51  23  49  1   
 52  24  50  1   
 53  24  51  1   
 54  24  52  1   
@<TRIPOS>SUBSTRUCTURE
  1 ****  13 GROUP 4 **** **** 0

# MOE 2024.06 (io_trps.svl 2023.06)
