@<TRIPOS>MOLECULE
NONAME
56 59 1 0 0 
SMALL
USER_CHARGES


@<TRIPOS>ATOM
  1 CL       2.2710    -4.4780    -2.2000 Cl    1 <1>  -0.1770 
  2 C        2.5380    -3.1650    -1.0790 C.ar  1 <1>   0.1770 
  3 C        1.4620    -2.5680    -0.4270 C.ar  1 <1>   0.0860 
  4 C        3.8410    -2.7510    -0.8730 C.ar  1 <1>  -0.1500 
  5 C        0.1040    -3.0150    -0.6300 C.2   1 <1>   0.5440 
  6 C        1.7460    -1.5120     0.4390 C.ar  1 <1>  -0.1500 
  7 C        4.0970    -1.7080     0.0000 C.ar  1 <1>  -0.1500 
  8 O       -0.6500    -2.3150    -1.2790 O.2   1 <1>  -0.5700 
  9 N       -0.3710    -4.1860    -0.0740 N.am  1 <1>  -0.6600 
 10 C        3.0460    -1.0880     0.6540 C.ar  1 <1>  -0.1500 
 11 C       -1.7050    -4.7340    -0.4460 C.3   1 <1>   0.1400 
 12 C        0.3680    -4.9710     0.9550 C.3   1 <1>   0.1400 
 13 C       -1.5580    -6.1880    -0.9060 C.3   1 <1>  -0.1600 
 14 C        0.5090    -6.4270     0.5030 C.3   1 <1>  -0.1600 
 15 C       -0.8580    -7.0520     0.1580 C.3   1 <1>  -0.0190 
 16 C       -0.7440    -8.5100    -0.3040 C.2   1 <1>   0.5690 
 17 O        0.2560    -8.8670    -0.8820 O.2   1 <1>  -0.5700 
 18 N       -1.7650    -9.3940    -0.0700 N.am  1 <1>  -0.6600 
 19 C       -3.0450    -9.1290     0.6330 C.3   1 <1>   0.1400 
 20 C       -1.7030   -10.8010    -0.5290 C.3   1 <1>   0.1400 
 21 C       -3.8290   -10.4380     0.5310 C.3   1 <1>   0.2000 
 22 C       -2.7890   -11.5260     0.2670 C.3   1 <1>  -0.0800 
 23 O       -4.5200   -10.7080     1.7010 O.3   1 <1>  -0.6800 
 24 C       -3.3820   -12.7450    -0.4580 C.3   1 <1>   0.0200 
 25 C       -2.3710   -13.8530    -0.6990 C.2   1 <1>  -0.0400 
 26 O       -2.7140   -14.8580    -1.4600 O.3   1 <1>  -0.0190 
 27 C       -1.1120   -14.0690    -0.2820 C.2   1 <1>  -0.1500 
 28 N       -1.7550   -15.7290    -1.5810 N.2   1 <1>  -0.4100 
 29 C       -0.7760   -15.2800    -0.8810 C.2   1 <1>   0.1080 
 30 C        0.5570   -15.9790    -0.7360 C.3   1 <1>  -0.0590 
 31 H        4.6450    -3.2410    -1.3940 H     1 <1>   0.1500 
 32 H        0.9290    -1.0230     0.9430 H     1 <1>   0.1500 
 33 H        5.1090    -1.3770     0.1680 H     1 <1>   0.1500 
 34 H        3.2400    -0.2710     1.3290 H     1 <1>   0.1500 
 35 H       -2.3570    -4.6780     0.4080 H     1 <1>   0.0800 
 36 H       -2.1460    -4.1560    -1.2400 H     1 <1>   0.0800 
 37 H        1.3440    -4.5570     1.1330 H     1 <1>   0.0800 
 38 H       -0.1820    -4.9310     1.8800 H     1 <1>   0.0800 
 39 H       -2.5320    -6.5870    -1.1240 H     1 <1>   0.0800 
 40 H       -0.9870    -6.2060    -1.8190 H     1 <1>   0.0800 
 41 H        1.1540    -6.4620    -0.3580 H     1 <1>   0.0800 
 42 H        0.9810    -6.9980     1.2830 H     1 <1>   0.0800 
 43 H       -1.4480    -7.0300     1.0550 H     1 <1>   0.0800 
 44 H       -2.8430    -8.8840     1.6620 H     1 <1>   0.0800 
 45 H       -3.5810    -8.3290     0.1550 H     1 <1>   0.0800 
 46 H       -1.9110   -10.8310    -1.5850 H     1 <1>   0.0800 
 47 H       -0.7270   -11.2180    -0.3490 H     1 <1>   0.0800 
 48 H       -4.5410   -10.3710    -0.2750 H     1 <1>   0.0800 
 49 H       -2.3540   -11.8380     1.2000 H     1 <1>   0.0800 
 50 H       -3.9020   -10.8600     2.4410 H     1 <1>   0.4000 
 51 H       -3.7850   -12.4380    -1.4070 H     1 <1>   0.0800 
 52 H       -4.1930   -13.1480     0.1240 H     1 <1>   0.0800 
 53 H       -0.4760   -13.4860     0.3560 H     1 <1>   0.1500 
 54 H        0.7480   -16.1900     0.3000 H     1 <1>   0.0800 
 55 H        1.3400   -15.3540    -1.1230 H     1 <1>   0.0800 
 56 H        0.5470   -16.9050    -1.2830 H     1 <1>   0.0800 
@<TRIPOS>BOND
  1   1   2  1   
  2   2   3  ar  
  3   2   4  ar  
  4   3   5  1   
  5   3   6  ar  
  6   4   7  ar  
  7   4  31  1   
  8   5   8  2   
  9   5   9  am  
 10   6  10  ar  
 11   6  32  1   
 12   7  10  ar  
 13   7  33  1   
 14   9  11  1   
 15   9  12  1   
 16  10  34  1   
 17  11  13  1   
 18  11  35  1   
 19  11  36  1   
 20  12  14  1   
 21  12  37  1   
 22  12  38  1   
 23  13  15  1   
 24  13  39  1   
 25  13  40  1   
 26  14  15  1   
 27  14  41  1   
 28  14  42  1   
 29  15  16  1   
 30  15  43  1   
 31  16  17  2   
 32  16  18  am  
 33  18  19  1   
 34  18  20  1   
 35  19  21  1   
 36  19  44  1   
 37  19  45  1   
 38  20  22  1   
 39  20  46  1   
 40  20  47  1   
 41  21  22  1   
 42  21  23  1   
 43  21  48  1   
 44  22  24  1   
 45  22  49  1   
 46  23  50  1   
 47  24  25  1   
 48  24  51  1   
 49  24  52  1   
 50  25  26  1   
 51  25  27  2   
 52  26  28  1   
 53  27  29  1   
 54  27  53  1   
 55  28  29  2   
 56  29  30  1   
 57  30  54  1   
 58  30  55  1   
 59  30  56  1   
@<TRIPOS>SUBSTRUCTURE
  1 ****  16 GROUP 4 **** **** 0

# MOE 2024.06 (io_trps.svl 2023.06)
