@<TRIPOS>MOLECULE
NONAME
34 35 1 0 0 
SMALL
USER_CHARGES


@<TRIPOS>ATOM
  1 N       -0.1930     0.0270    -0.4740 N.4   1 <1>  -0.9590 
  2 C        0.0850     1.5070    -0.5870 C.3   1 <1>   0.4230 
  3 C       -0.5920    -0.5130     0.8600 C.3   1 <1>   0.3430 
  4 C        0.8030    -0.9020    -1.0920 C.3   1 <1>   0.3430 
  5 C        1.0220     2.1480     0.5080 C.3   1 <1>   0.4230 
  6 C       -1.2710     2.2240    -0.6030 C.3   1 <1>  -0.1600 
  7 C       -0.4270    -2.0120     0.7030 C.3   1 <1>  -0.1600 
  8 C        0.7470    -2.1790    -0.2610 C.3   1 <1>  -0.1600 
  9 N        2.3940     1.5630     0.6240 N.4   1 <1>  -0.8530 
 10 C        1.1890     3.6520     0.2620 C.3   1 <1>  -0.1600 
 11 C       -1.1020     3.7330    -0.8290 C.3   1 <1>  -0.1600 
 12 C       -0.1720     4.3610     0.2150 C.3   1 <1>  -0.1600 
 13 H       -1.0380    -0.1240    -1.0510 H     1 <1>   0.4500 
 14 H        0.5360     1.6940    -1.5490 H     1 <1>   0.0800 
 15 H        0.0720    -0.1590     1.6300 H     1 <1>   0.0800 
 16 H       -1.6090    -0.2540     1.1130 H     1 <1>   0.0800 
 17 H        0.5330    -1.1110    -2.1170 H     1 <1>   0.0800 
 18 H        1.7980    -0.4910    -1.0720 H     1 <1>   0.0800 
 19 H        0.5200     2.0390     1.4560 H     1 <1>   0.0800 
 20 H       -1.8870     1.8360    -1.3970 H     1 <1>   0.0800 
 21 H       -1.7890     2.0750     0.3300 H     1 <1>   0.0800 
 22 H       -0.2520    -2.4970     1.6490 H     1 <1>   0.0800 
 23 H       -1.3230    -2.4250     0.2720 H     1 <1>   0.0800 
 24 H        0.6220    -3.0470    -0.8880 H     1 <1>   0.0800 
 25 H        1.6670    -2.2940     0.2850 H     1 <1>   0.0800 
 26 H        2.9530     1.7180    -0.2250 H     1 <1>   0.4500 
 27 H        2.3920     0.5650     0.8560 H     1 <1>   0.4500 
 28 H        2.9040     2.0410     1.3820 H     1 <1>   0.4500 
 29 H        1.7700     4.0990     1.0530 H     1 <1>   0.0800 
 30 H        1.6970     3.8270    -0.6720 H     1 <1>   0.0800 
 31 H       -0.7090     3.9160    -1.8160 H     1 <1>   0.0800 
 32 H       -2.0660     4.2150    -0.7790 H     1 <1>   0.0800 
 33 H       -0.6420     4.3220     1.1850 H     1 <1>   0.0800 
 34 H       -0.0270     5.4040    -0.0220 H     1 <1>   0.0800 
@<TRIPOS>BOND
  1   1   2  1   
  2   1   3  1   
  3   1   4  1   
  4   1  13  1   
  5   2   5  1   
  6   2   6  1   
  7   2  14  1   
  8   3   7  1   
  9   3  15  1   
 10   3  16  1   
 11   4   8  1   
 12   4  17  1   
 13   4  18  1   
 14   5   9  1   
 15   5  10  1   
 16   5  19  1   
 17   6  11  1   
 18   6  20  1   
 19   6  21  1   
 20   7   8  1   
 21   7  22  1   
 22   7  23  1   
 23   8  24  1   
 24   8  25  1   
 25   9  26  1   
 26   9  27  1   
 27   9  28  1   
 28  10  12  1   
 29  10  29  1   
 30  10  30  1   
 31  11  12  1   
 32  11  31  1   
 33  11  32  1   
 34  12  33  1   
 35  12  34  1   
@<TRIPOS>SUBSTRUCTURE
  1 ****   2 GROUP 4 **** **** 0

# MOE 2024.06 (io_trps.svl 2023.06)
