@<TRIPOS>MOLECULE
NONAME
53 56 1 0 0 
SMALL
USER_CHARGES


@<TRIPOS>ATOM
  1 O       -2.8650     2.7060    -2.0030 O.2   1 <1>  -0.5700 
  2 C       -2.7420     2.8820    -0.8050 C.2   1 <1>   0.5440 
  3 N       -3.5970     2.2240     0.0600 N.am  1 <1>  -0.6600 
  4 C       -1.6980     3.7690    -0.3220 C.ar  1 <1>   0.0860 
  5 C       -4.8780     1.6560    -0.4650 C.3   1 <1>   0.2200 
  6 C       -3.0730     1.6770     1.3490 C.3   1 <1>   0.0600 
  7 C       -0.4380     3.7880    -0.9190 C.ar  1 <1>  -0.1500 
  8 C       -1.9080     4.6420     0.7460 C.ar  1 <1>  -0.1500 
  9 C       -5.7630     2.7450    -1.0760 C.3   1 <1>  -0.1600 
 10 C       -5.7910     1.0330     0.5970 C.3   1 <1>  -0.1600 
 11 C        0.5650     4.6260    -0.4690 C.ar  1 <1>  -0.1500 
 12 C       -0.9100     5.4840     1.2020 C.ar  1 <1>  -0.1500 
 13 C       -7.1750     2.1500    -1.0880 C.3   1 <1>  -0.0800 
 14 C       -7.1860     1.0350    -0.0400 C.3   1 <1>  -0.0800 
 15 C        0.3450     5.4910     0.5990 C.ar  1 <1>  -0.0230 
 16 C       -8.2980     3.1150    -0.6840 C.3   1 <1>  -0.1600 
 17 C       -8.3470     1.3630     0.9120 C.3   1 <1>  -0.1600 
 18 N        1.3780     6.3600     1.0540 N.pl3 1 <1>   0.5930 
 19 C       -9.2930     2.2620     0.1080 C.3   1 <1>   0.4230 
 20 N        2.6660     6.0550     1.0960 N.2   1 <1>  -0.4180 
 21 C        1.2820     7.6030     1.5070 C.2   1 <1>   0.0360 
 22 N      -10.1430     1.4430    -0.8170 N.4   1 <1>  -0.9590 
 23 N        3.2830     7.0800     1.5610 N.2   1 <1>   0.0000 
 24 N        2.4290     8.0630     1.8250 N.2   1 <1>  -0.3380 
 25 C      -10.9780     2.2840    -1.7340 C.3   1 <1>   0.2630 
 26 C      -11.0470     0.4970    -0.0860 C.3   1 <1>   0.2630 
 27 H       -4.6540     0.9180    -1.2190 H     1 <1>   0.0800 
 28 H       -3.6090     2.1080     2.1760 H     1 <1>   0.0800 
 29 H       -2.0270     1.8980     1.4640 H     1 <1>   0.0800 
 30 H       -3.1870     0.6070     1.3680 H     1 <1>   0.0800 
 31 H       -0.2530     3.1300    -1.7520 H     1 <1>   0.1500 
 32 H       -2.8750     4.6560     1.2190 H     1 <1>   0.1500 
 33 H       -5.7170     3.6210    -0.4530 H     1 <1>   0.0800 
 34 H       -5.4420     3.0000    -2.0710 H     1 <1>   0.0800 
 35 H       -5.4790     0.0360     0.8520 H     1 <1>   0.0800 
 36 H       -5.7880     1.6540     1.4750 H     1 <1>   0.0800 
 37 H        1.5270     4.6070    -0.9550 H     1 <1>   0.1500 
 38 H       -1.1180     6.1350     2.0350 H     1 <1>   0.1500 
 39 H       -7.3750     1.7230    -2.0570 H     1 <1>   0.0800 
 40 H       -7.3570     0.0930    -0.5350 H     1 <1>   0.0800 
 41 H       -8.7110     3.6390    -1.5250 H     1 <1>   0.0800 
 42 H       -7.9060     3.8570    -0.0090 H     1 <1>   0.0800 
 43 H       -7.9800     1.9490     1.7370 H     1 <1>   0.0800 
 44 H       -8.7980     0.4820     1.3250 H     1 <1>   0.0800 
 45 H       -9.9100     2.8680     0.7530 H     1 <1>   0.0800 
 46 H        0.3520     8.1310     1.5820 H     1 <1>   0.1500 
 47 H       -9.4870     0.8930    -1.3890 H     1 <1>   0.4500 
 48 H      -11.6090     2.9480    -1.1640 H     1 <1>   0.0800 
 49 H      -11.6040     1.6570    -2.3480 H     1 <1>   0.0800 
 50 H      -10.3550     2.8740    -2.3860 H     1 <1>   0.0800 
 51 H      -11.6850     1.0380     0.5940 H     1 <1>   0.0800 
 52 H      -10.4750    -0.2230     0.4740 H     1 <1>   0.0800 
 53 H      -11.6670    -0.0410    -0.7850 H     1 <1>   0.0800 
@<TRIPOS>BOND
  1   1   2  2   
  2   2   3  am  
  3   2   4  1   
  4   3   5  1   
  5   3   6  1   
  6   4   7  ar  
  7   4   8  ar  
  8   5   9  1   
  9   5  10  1   
 10   5  27  1   
 11   6  28  1   
 12   6  29  1   
 13   6  30  1   
 14   7  11  ar  
 15   7  31  1   
 16   8  12  ar  
 17   8  32  1   
 18   9  13  1   
 19   9  33  1   
 20   9  34  1   
 21  10  14  1   
 22  10  35  1   
 23  10  36  1   
 24  11  15  ar  
 25  11  37  1   
 26  12  15  ar  
 27  12  38  1   
 28  13  14  1   
 29  13  16  1   
 30  13  39  1   
 31  14  17  1   
 32  14  40  1   
 33  15  18  1   
 34  16  19  1   
 35  16  41  1   
 36  16  42  1   
 37  17  19  1   
 38  17  43  1   
 39  17  44  1   
 40  18  20  1   
 41  18  21  1   
 42  19  22  1   
 43  19  45  1   
 44  20  23  2   
 45  21  24  2   
 46  21  46  1   
 47  22  25  1   
 48  22  26  1   
 49  22  47  1   
 50  23  24  1   
 51  25  48  1   
 52  25  49  1   
 53  25  50  1   
 54  26  51  1   
 55  26  52  1   
 56  26  53  1   
@<TRIPOS>SUBSTRUCTURE
  1 ****   3 GROUP 4 **** **** 0

# MOE 2024.06 (io_trps.svl 2023.06)
