@<TRIPOS>MOLECULE
NONAME
47 50 1 0 0 
SMALL
USER_CHARGES


@<TRIPOS>ATOM
  1 O       -2.1370    -1.0500    -2.9660 O.2   1 <1>  -0.5700 
  2 C       -2.2710    -1.2900    -1.7980 C.2   1 <1>   0.5690 
  3 N       -2.1520    -0.3120    -0.8850 N.am  1 <1>  -0.7300 
  4 C       -2.6170    -2.6870    -1.3600 C.3   1 <1>  -0.0190 
  5 C       -2.3050    -0.4720     0.5800 C.3   1 <1>   0.2200 
  6 C       -1.5300    -3.2820    -0.4370 C.3   1 <1>   0.1200 
  7 C       -4.0550    -2.6860    -0.8230 C.3   1 <1>   0.3430 
  8 C       -1.2600    -1.4800     1.1230 C.3   1 <1>   0.1200 
  9 C       -3.7730    -0.8430     0.9360 C.3   1 <1>   0.3430 
 10 O       -1.6130    -2.8200     0.8860 O.3   1 <1>  -0.5600 
 11 N       -4.1720    -2.2620     0.6160 N.4   1 <1>  -0.9590 
 12 C       -5.4740    -2.6460     1.2220 C.3   1 <1>   0.4860 
 13 C       -5.6260    -4.1520     1.1250 C.ar  1 <1>  -0.1440 
 14 C       -6.5860    -4.7130     0.3230 C.ar  1 <1>  -0.1500 
 15 C       -4.7620    -4.9860     1.8530 C.ar  1 <1>  -0.1500 
 16 C       -6.7180    -6.1090     0.1980 C.ar  1 <1>   0.0000 
 17 C       -4.8710    -6.3440     1.7490 C.ar  1 <1>  -0.1500 
 18 C       -5.8410    -6.9420     0.9210 C.ar  1 <1>   0.0000 
 19 C       -7.6930    -6.7080    -0.6270 C.ar  1 <1>  -0.1500 
 20 C       -5.9680    -8.3380     0.7900 C.ar  1 <1>  -0.1500 
 21 C       -7.7950    -8.0680    -0.7380 C.ar  1 <1>  -0.1500 
 22 C       -6.9180    -8.9010    -0.0180 C.ar  1 <1>   0.0820 
 23 O       -6.9640   -10.2540    -0.0820 O.3   1 <1>  -0.3620 
 24 C       -7.9270   -10.9310    -0.8580 C.3   1 <1>   0.0400 
 25 H       -1.8600     0.6050    -1.2440 H     1 <1>   0.3700 
 26 H       -2.6210    -3.2820    -2.2560 H     1 <1>   0.0800 
 27 H       -2.0920     0.4860     1.0210 H     1 <1>   0.0800 
 28 H       -0.5440    -3.0690    -0.8180 H     1 <1>   0.0800 
 29 H       -1.6440    -4.3520    -0.3980 H     1 <1>   0.0800 
 30 H       -4.4300    -3.6930    -0.9190 H     1 <1>   0.0800 
 31 H       -4.6680    -2.0530    -1.4450 H     1 <1>   0.0800 
 32 H       -1.1840    -1.3680     2.1910 H     1 <1>   0.0800 
 33 H       -0.2860    -1.2910     0.7030 H     1 <1>   0.0800 
 34 H       -4.4330    -0.1560     0.4310 H     1 <1>   0.0800 
 35 H       -3.8950    -0.6880     1.9950 H     1 <1>   0.0800 
 36 H       -3.4470    -2.8440     1.0810 H     1 <1>   0.4500 
 37 H       -5.5050    -2.3540     2.2590 H     1 <1>   0.0800 
 38 H       -6.2840    -2.1590     0.7040 H     1 <1>   0.0800 
 39 H       -7.2700    -4.1020    -0.2400 H     1 <1>   0.1500 
 40 H       -4.0110    -4.5620     2.4990 H     1 <1>   0.1500 
 41 H       -4.2120    -6.9900     2.3050 H     1 <1>   0.1500 
 42 H       -8.3640    -6.0730    -1.1760 H     1 <1>   0.1500 
 43 H       -5.3030    -8.9770     1.3400 H     1 <1>   0.1500 
 44 H       -8.5480    -8.4910    -1.3750 H     1 <1>   0.1500 
 45 H       -7.7700   -11.9880    -0.7360 H     1 <1>   0.0800 
 46 H       -7.7970   -10.6600    -1.8910 H     1 <1>   0.0800 
 47 H       -8.9080   -10.6650    -0.5070 H     1 <1>   0.0800 
@<TRIPOS>BOND
  1   1   2  2   
  2   2   3  am  
  3   2   4  1   
  4   3   5  1   
  5   3  25  1   
  6   4   6  1   
  7   4   7  1   
  8   4  26  1   
  9   5   8  1   
 10   5   9  1   
 11   5  27  1   
 12   6  10  1   
 13   6  28  1   
 14   6  29  1   
 15   7  11  1   
 16   7  30  1   
 17   7  31  1   
 18   8  10  1   
 19   8  32  1   
 20   8  33  1   
 21   9  11  1   
 22   9  34  1   
 23   9  35  1   
 24  11  12  1   
 25  11  36  1   
 26  12  13  1   
 27  12  37  1   
 28  12  38  1   
 29  13  14  ar  
 30  13  15  ar  
 31  14  16  ar  
 32  14  39  1   
 33  15  17  ar  
 34  15  40  1   
 35  16  18  ar  
 36  16  19  ar  
 37  17  18  ar  
 38  17  41  1   
 39  18  20  ar  
 40  19  21  ar  
 41  19  42  1   
 42  20  22  ar  
 43  20  43  1   
 44  21  22  ar  
 45  21  44  1   
 46  22  23  1   
 47  23  24  1   
 48  24  45  1   
 49  24  46  1   
 50  24  47  1   
@<TRIPOS>SUBSTRUCTURE
  1 ****  13 GROUP 4 **** **** 0

# MOE 2024.06 (io_trps.svl 2023.06)
