@<TRIPOS>MOLECULE
NONAME
57 60 1 0 0 
SMALL
USER_CHARGES


@<TRIPOS>ATOM
  1 F       -2.6050     3.8090    -3.7540 F     1 <1>  -0.3400 
  2 C       -2.5500     2.5400    -3.3600 C.3   1 <1>   1.1640 
  3 F       -1.3060     2.3330    -2.9390 F     1 <1>  -0.3400 
  4 F       -2.6780     1.8150    -4.4700 F     1 <1>  -0.3400 
  5 C       -3.6180     2.1990    -2.2880 C.ar  1 <1>   0.1660 
  6 N       -3.5980     2.8240    -1.1160 N.ar  1 <1>  -0.6200 
  7 C       -4.5840     1.2560    -2.5390 C.ar  1 <1>  -0.1500 
  8 C       -4.5400     2.5020    -0.2390 C.ar  1 <1>   0.7200 
  9 C       -5.5070     0.9820    -1.5550 C.ar  1 <1>   0.4100 
 10 N       -5.4980     1.6030    -0.4010 N.ar  1 <1>  -0.6200 
 11 N       -4.5250     3.1620     0.9670 N.pl3 1 <1>  -0.8380 
 12 N       -6.4840     0.0330    -1.7550 N.pl3 1 <1>  -0.8380 
 13 C       -5.7740     3.5080     1.6790 C.3   1 <1>   0.2090 
 14 C       -3.4390     4.1030     1.3360 C.3   1 <1>   0.2090 
 15 C       -6.7920    -0.8790    -0.6220 C.3   1 <1>   0.2090 
 16 C       -7.6660     0.4270    -2.5680 C.3   1 <1>   0.2090 
 17 C       -5.4790     4.8250     2.3880 C.3   1 <1>  -0.1600 
 18 C       -3.9640     4.8370     2.5620 C.3   1 <1>  -0.1600 
 19 C       -7.8500    -0.2390     0.3130 C.3   1 <1>   0.4230 
 20 C       -8.7090     1.0790    -1.6520 C.3   1 <1>  -0.1600 
 21 N       -8.1140    -1.0280     1.5910 N.4   1 <1>  -0.9590 
 22 C       -9.1380     0.1830    -0.4540 C.3   1 <1>   0.0000 
 23 C       -9.3830    -0.6480     2.2910 C.3   1 <1>   0.3430 
 24 C       -8.0270    -2.5190     1.4600 C.3   1 <1>   0.2630 
 25 C      -10.0480     1.0230     0.4910 C.3   1 <1>  -0.1600 
 26 C       -9.8940    -1.0770    -0.9630 C.3   1 <1>   0.1200 
 27 C       -9.7630     0.8000     1.9890 C.3   1 <1>  -0.1600 
 28 O      -10.9240    -0.7420    -1.8270 O.3   1 <1>  -0.6800 
 29 H       -4.6460     0.7170    -3.4660 H     1 <1>   0.1500 
 30 H       -6.5990     3.6110     0.9930 H     1 <1>   0.0800 
 31 H       -5.9890     2.7360     2.3970 H     1 <1>   0.0800 
 32 H       -2.5270     3.5710     1.5480 H     1 <1>   0.0800 
 33 H       -3.2740     4.8000     0.5320 H     1 <1>   0.0800 
 34 H       -7.1350    -1.8150    -1.0220 H     1 <1>   0.0800 
 35 H       -5.8860    -1.0560    -0.0680 H     1 <1>   0.0800 
 36 H       -7.3670     1.1270    -3.3310 H     1 <1>   0.0800 
 37 H       -8.0770    -0.4390    -3.0590 H     1 <1>   0.0800 
 38 H       -5.7780     5.6380     1.7500 H     1 <1>   0.0800 
 39 H       -6.0010     4.9030     3.3250 H     1 <1>   0.0800 
 40 H       -3.6890     4.2830     3.4430 H     1 <1>   0.0800 
 41 H       -3.5650     5.8320     2.6320 H     1 <1>   0.0800 
 42 H       -7.4070     0.6900     0.6290 H     1 <1>   0.0800 
 43 H       -8.2800     1.9960    -1.2860 H     1 <1>   0.0800 
 44 H       -9.5620     1.3560    -2.2460 H     1 <1>   0.0800 
 45 H       -7.3470    -0.7390     2.2170 H     1 <1>   0.4500 
 46 H      -10.1860    -1.2860     1.9610 H     1 <1>   0.0800 
 47 H       -9.2680    -0.7820     3.3550 H     1 <1>   0.0800 
 48 H       -8.7750    -2.8830     0.7750 H     1 <1>   0.0800 
 49 H       -8.1820    -2.9870     2.4180 H     1 <1>   0.0800 
 50 H       -7.0540    -2.8110     1.0970 H     1 <1>   0.0800 
 51 H       -9.9280     2.0760     0.2960 H     1 <1>   0.0800 
 52 H      -11.0840     0.8030     0.2980 H     1 <1>   0.0800 
 53 H      -10.3260    -1.6320    -0.1500 H     1 <1>   0.0800 
 54 H       -9.2410    -1.7310    -1.5120 H     1 <1>   0.0800 
 55 H      -10.6390     1.0630     2.5570 H     1 <1>   0.0800 
 56 H       -8.9690     1.4500     2.3170 H     1 <1>   0.0800 
 57 H      -11.5820    -0.1550    -1.4060 H     1 <1>   0.4000 
@<TRIPOS>BOND
  1   1   2  1   
  2   2   3  1   
  3   2   4  1   
  4   2   5  1   
  5   5   6  ar  
  6   5   7  ar  
  7   6   8  ar  
  8   7   9  ar  
  9   7  29  1   
 10   8  10  ar  
 11   8  11  1   
 12   9  10  ar  
 13   9  12  1   
 14  11  13  1   
 15  11  14  1   
 16  12  15  1   
 17  12  16  1   
 18  13  17  1   
 19  13  30  1   
 20  13  31  1   
 21  14  18  1   
 22  14  32  1   
 23  14  33  1   
 24  15  19  1   
 25  15  34  1   
 26  15  35  1   
 27  16  20  1   
 28  16  36  1   
 29  16  37  1   
 30  17  18  1   
 31  17  38  1   
 32  17  39  1   
 33  18  40  1   
 34  18  41  1   
 35  19  21  1   
 36  19  22  1   
 37  19  42  1   
 38  20  22  1   
 39  20  43  1   
 40  20  44  1   
 41  21  23  1   
 42  21  24  1   
 43  21  45  1   
 44  22  25  1   
 45  22  26  1   
 46  23  27  1   
 47  23  46  1   
 48  23  47  1   
 49  24  48  1   
 50  24  49  1   
 51  24  50  1   
 52  25  27  1   
 53  25  51  1   
 54  25  52  1   
 55  26  28  1   
 56  26  53  1   
 57  26  54  1   
 58  27  55  1   
 59  27  56  1   
 60  28  57  1   
@<TRIPOS>SUBSTRUCTURE
  1 ****  10 GROUP 4 **** **** 0

# MOE 2024.06 (io_trps.svl 2023.06)
