@<TRIPOS>MOLECULE
NONAME
49 52 1 0 0 
SMALL
USER_CHARGES


@<TRIPOS>ATOM
  1 O        0.7440     0.1070    -0.5030 O.3   1 <1>  -0.0190 
  2 N       -0.2210    -0.6030    -0.0330 N.2   1 <1>  -0.4100 
  3 C        1.7900    -0.6470    -0.6970 C.2   1 <1>   0.5620 
  4 C        0.2720    -1.7920     0.0460 C.2   1 <1>   0.4620 
  5 N        1.5570    -1.8590    -0.3700 N.2   1 <1>  -0.5650 
  6 N        2.9800    -0.1370    -1.1910 N.pl3 1 <1>  -0.8220 
  7 C       -0.4460    -2.9620     0.5270 C.ar  1 <1>   0.0540 
  8 C        3.1950     1.3280    -1.3750 C.3   1 <1>   0.2090 
  9 C        4.1990    -0.9830    -1.2930 C.3   1 <1>   0.2090 
 10 C       -1.7660    -2.8700     0.9750 C.ar  1 <1>  -0.1500 
 11 C        0.1480    -4.2260     0.5650 C.ar  1 <1>  -0.1500 
 12 C        4.2350     1.8380    -0.3690 C.3   1 <1>   0.1000 
 13 C        5.2400    -0.4920    -0.2800 C.3   1 <1>  -0.1600 
 14 C       -2.4570    -3.9760     1.4350 C.ar  1 <1>  -0.1500 
 15 C       -0.5360    -5.3370     1.0240 C.ar  1 <1>  -0.1500 
 16 C        4.5000     3.3140    -0.6100 C.2   1 <1>   0.2980 
 17 C        5.5340     1.0100    -0.4380 C.3   1 <1>  -0.1600 
 18 C       -1.8420    -5.2140     1.4610 C.ar  1 <1>  -0.1500 
 19 O        5.0140     3.6900    -1.7560 O.3   1 <1>  -0.0190 
 20 N        4.2580     4.2520     0.2150 N.2   1 <1>  -0.5650 
 21 N        5.1090     4.9790    -1.6490 N.2   1 <1>  -0.4100 
 22 C        4.6710     5.2930    -0.4950 C.2   1 <1>   0.3350 
 23 C        4.6030     6.7070     0.0530 C.3   1 <1>   0.0210 
 24 C        5.9400     7.1830     0.6560 C.3   1 <1>  -0.0800 
 25 C        6.3540     6.3430     1.8730 C.3   1 <1>  -0.2400 
 26 C        5.8490     8.6600     1.0590 C.3   1 <1>  -0.2400 
 27 H        2.2740     1.8700    -1.2450 H     1 <1>   0.0800 
 28 H        3.5410     1.5020    -2.3790 H     1 <1>   0.0800 
 29 H        4.5930    -0.9100    -2.2920 H     1 <1>   0.0800 
 30 H        3.9640    -2.0170    -1.1030 H     1 <1>   0.0800 
 31 H       -2.2620    -1.9140     0.9620 H     1 <1>   0.1500 
 32 H        1.1640    -4.3420     0.2290 H     1 <1>   0.1500 
 33 H        3.8140     1.7380     0.6160 H     1 <1>   0.0800 
 34 H        6.1480    -1.0540    -0.4080 H     1 <1>   0.0800 
 35 H        4.8710    -0.6890     0.7120 H     1 <1>   0.0800 
 36 H       -3.4730    -3.8740     1.7740 H     1 <1>   0.1500 
 37 H       -0.0520    -6.2980     1.0410 H     1 <1>   0.1500 
 38 H        6.2070     1.3320     0.3380 H     1 <1>   0.0800 
 39 H        6.0170     1.1760    -1.3860 H     1 <1>   0.0800 
 40 H       -2.3760    -6.0770     1.8190 H     1 <1>   0.1500 
 41 H        3.8260     6.7580     0.7940 H     1 <1>   0.0800 
 42 H        4.3280     7.3600    -0.7560 H     1 <1>   0.0800 
 43 H        6.7040     7.0860    -0.0990 H     1 <1>   0.0800 
 44 H        5.5990     6.3840     2.6380 H     1 <1>   0.0800 
 45 H        7.2790     6.7090     2.2830 H     1 <1>   0.0800 
 46 H        6.5000     5.3150     1.5930 H     1 <1>   0.0800 
 47 H        5.0970     8.8020     1.8160 H     1 <1>   0.0800 
 48 H        5.5990     9.2680     0.2070 H     1 <1>   0.0800 
 49 H        6.7930     9.0000     1.4470 H     1 <1>   0.0800 
@<TRIPOS>BOND
  1   1   2  1   
  2   1   3  1   
  3   2   4  2   
  4   3   5  2   
  5   3   6  1   
  6   4   5  1   
  7   4   7  1   
  8   6   8  1   
  9   6   9  1   
 10   7  10  ar  
 11   7  11  ar  
 12   8  12  1   
 13   8  27  1   
 14   8  28  1   
 15   9  13  1   
 16   9  29  1   
 17   9  30  1   
 18  10  14  ar  
 19  10  31  1   
 20  11  15  ar  
 21  11  32  1   
 22  12  16  1   
 23  12  17  1   
 24  12  33  1   
 25  13  17  1   
 26  13  34  1   
 27  13  35  1   
 28  14  18  ar  
 29  14  36  1   
 30  15  18  ar  
 31  15  37  1   
 32  16  19  1   
 33  16  20  2   
 34  17  38  1   
 35  17  39  1   
 36  18  40  1   
 37  19  21  1   
 38  20  22  1   
 39  21  22  2   
 40  22  23  1   
 41  23  24  1   
 42  23  41  1   
 43  23  42  1   
 44  24  25  1   
 45  24  26  1   
 46  24  43  1   
 47  25  44  1   
 48  25  45  1   
 49  25  46  1   
 50  26  47  1   
 51  26  48  1   
 52  26  49  1   
@<TRIPOS>SUBSTRUCTURE
  1 ****   8 GROUP 4 **** **** 0

# MOE 2024.06 (io_trps.svl 2023.06)
