@<TRIPOS>MOLECULE
NONAME
50 51 1 0 0 
SMALL
USER_CHARGES


@<TRIPOS>ATOM
  1 S        0.2360    -0.2320     0.2850 S.o2  1 <1>   1.3330 
  2 O        0.6610    -1.2790     1.1850 O.2   1 <1>  -0.6500 
  3 O       -0.4640     0.9190     0.8080 O.2   1 <1>  -0.6500 
  4 N       -0.7270    -0.9410    -0.9210 N.am  1 <1>  -0.8490 
  5 C        1.6450     0.3710    -0.6470 C.3   1 <1>  -0.0550 
  6 C       -2.1570    -0.8630    -0.6100 C.3   1 <1>   0.1160 
  7 C       -0.3560    -2.3280    -1.2210 C.3   1 <1>   0.1160 
  8 C        2.6520     1.1690     0.2070 C.3   1 <1>  -0.0800 
  9 C        3.7040     1.8360    -0.6650 C.3   1 <1>   0.2200 
 10 C        3.4930     0.2570     1.1140 C.3   1 <1>   0.1200 
 11 N        4.2310     3.0260     0.0390 N.am  1 <1>  -0.7300 
 12 C        4.7820     0.7640    -0.7220 C.3   1 <1>   0.1200 
 13 O        4.7590     0.1510     0.5290 O.3   1 <1>  -0.5600 
 14 C        4.1050     4.3020    -0.3930 C.2   1 <1>   0.5690 
 15 O        3.5460     4.5740    -1.4260 O.2   1 <1>  -0.5700 
 16 C        4.6860     5.4140     0.4490 C.3   1 <1>  -0.0990 
 17 C        5.3140     6.5010    -0.4310 C.3   1 <1>   0.0960 
 18 N        6.0120     7.4960     0.4080 N.pl3 1 <1>   0.0480 
 19 C        7.3430     7.7130     0.5710 C.2   1 <1>   0.0070 
 20 C        5.4180     8.3960     1.2130 C.2   1 <1>  -0.3020 
 21 N        7.6130     8.6630     1.4080 N.2   1 <1>  -0.5650 
 22 C        8.4350     6.9380    -0.1520 C.3   1 <1>   0.0200 
 23 C        6.4050     9.0940     1.8120 C.2   1 <1>   0.0770 
 24 C        8.6310     5.5380     0.4400 C.3   1 <1>  -0.2400 
 25 H        2.1430    -0.4540    -1.1180 H     1 <1>   0.0800 
 26 H        1.2730     1.0140    -1.4220 H     1 <1>   0.0800 
 27 H       -2.7370    -1.3070    -1.4000 H     1 <1>   0.0800 
 28 H       -2.4580     0.1670    -0.5120 H     1 <1>   0.0800 
 29 H       -2.3680    -1.3730     0.3160 H     1 <1>   0.0800 
 30 H       -0.9330    -2.6930    -2.0530 H     1 <1>   0.0800 
 31 H       -0.5350    -2.9600    -0.3660 H     1 <1>   0.0800 
 32 H        0.6870    -2.3870    -1.4800 H     1 <1>   0.0800 
 33 H        2.1090     1.8990     0.7840 H     1 <1>   0.0800 
 34 H        3.3430     2.1040    -1.6440 H     1 <1>   0.0800 
 35 H        3.0850    -0.7330     1.2210 H     1 <1>   0.0800 
 36 H        3.6200     0.6940     2.0900 H     1 <1>   0.0800 
 37 H        4.7260     2.8070     0.9070 H     1 <1>   0.3700 
 38 H        5.7610     1.1670    -0.9110 H     1 <1>   0.0800 
 39 H        4.5440     0.0180    -1.4590 H     1 <1>   0.0800 
 40 H        3.8940     5.8370     1.0380 H     1 <1>   0.0800 
 41 H        5.4310     5.0080     1.1090 H     1 <1>   0.0800 
 42 H        4.5510     7.0030    -1.0010 H     1 <1>   0.0800 
 43 H        6.0120     6.0620    -1.1190 H     1 <1>   0.0800 
 44 H        4.3530     8.4920     1.3150 H     1 <1>   0.1500 
 45 H        8.2060     6.8740    -1.2000 H     1 <1>   0.0800 
 46 H        9.3570     7.4860    -0.0570 H     1 <1>   0.0800 
 47 H        6.3110     9.8980     2.5230 H     1 <1>   0.1500 
 48 H        7.7520     4.9370     0.3020 H     1 <1>   0.0800 
 49 H        8.8380     5.6160     1.4930 H     1 <1>   0.0800 
 50 H        9.4600     5.0500    -0.0390 H     1 <1>   0.0800 
@<TRIPOS>BOND
  1   1   2  2   
  2   1   3  2   
  3   1   4  am  
  4   1   5  1   
  5   4   6  1   
  6   4   7  1   
  7   5   8  1   
  8   5  25  1   
  9   5  26  1   
 10   6  27  1   
 11   6  28  1   
 12   6  29  1   
 13   7  30  1   
 14   7  31  1   
 15   7  32  1   
 16   8   9  1   
 17   8  10  1   
 18   8  33  1   
 19   9  11  1   
 20   9  12  1   
 21   9  34  1   
 22  10  13  1   
 23  10  35  1   
 24  10  36  1   
 25  11  14  am  
 26  11  37  1   
 27  12  13  1   
 28  12  38  1   
 29  12  39  1   
 30  14  15  2   
 31  14  16  1   
 32  16  17  1   
 33  16  40  1   
 34  16  41  1   
 35  17  18  1   
 36  17  42  1   
 37  17  43  1   
 38  18  19  1   
 39  18  20  1   
 40  19  21  2   
 41  19  22  1   
 42  20  23  2   
 43  20  44  1   
 44  21  23  1   
 45  22  24  1   
 46  22  45  1   
 47  22  46  1   
 48  23  47  1   
 49  24  48  1   
 50  24  49  1   
 51  24  50  1   
@<TRIPOS>SUBSTRUCTURE
  1 ****  11 GROUP 4 **** **** 0

# MOE 2024.06 (io_trps.svl 2023.06)
