@<TRIPOS>MOLECULE
NONAME
47 49 1 0 0 
SMALL
USER_CHARGES


@<TRIPOS>ATOM
  1 CL       1.3290     3.5080     2.8390 Cl    1 <1>  -0.1770 
  2 C        0.8180     3.1130     1.2150 C.ar  1 <1>   0.1770 
  3 C        1.6480     2.4140     0.3450 C.ar  1 <1>  -0.1440 
  4 C       -0.4520     3.5110     0.8400 C.ar  1 <1>  -0.1500 
  5 C        1.1520     2.0960    -0.9150 C.ar  1 <1>  -0.1500 
  6 C        3.0630     1.9960     0.7460 C.3   1 <1>   0.3640 
  7 C       -0.9230     3.2010    -0.4230 C.ar  1 <1>  -0.1500 
  8 C       -0.1200     2.4890    -1.2970 C.ar  1 <1>  -0.1500 
  9 N        3.1210     0.5160     0.7030 N.am  1 <1>  -0.7300 
 10 C        4.1350     2.6230    -0.1870 C.3   1 <1>   0.2610 
 11 C        4.1780    -0.1770     0.2270 C.2   1 <1>   0.5690 
 12 O        5.3810     1.9550    -0.0490 O.3   1 <1>  -0.5600 
 13 C        4.2840     4.1360     0.0470 C.2   1 <1>   0.5690 
 14 O        4.1860    -1.3820     0.2530 O.2   1 <1>  -0.5700 
 15 C        5.3600     0.5830    -0.3850 C.3   1 <1>   0.1810 
 16 O        3.9120     4.6000     1.1020 O.2   1 <1>  -0.5700 
 17 N        4.8040     4.9570    -0.9330 N.am  1 <1>  -0.6600 
 18 C        4.7990     6.4330    -0.7560 C.3   1 <1>   0.1400 
 19 C        5.4300     4.4700    -2.1950 C.3   1 <1>   0.0600 
 20 C        6.1060     6.8830    -0.0990 C.3   1 <1>  -0.1600 
 21 C        6.1010     8.4000     0.1290 C.3   1 <1>   0.0960 
 22 N        7.3730     8.8580     0.7230 N.pl3 1 <1>   0.3140 
 23 N        7.4390     9.3380     1.9770 N.2   1 <1>  -0.7070 
 24 C        8.5820     8.8870     0.1260 C.2   1 <1>  -0.3020 
 25 C        8.6860     9.6520     2.1500 C.2   1 <1>   0.1390 
 26 C        9.4540     9.3920     1.0220 C.2   1 <1>  -0.1500 
 27 H       -1.0650     4.0570     1.5350 H     1 <1>   0.1500 
 28 H        1.7500     1.5320    -1.6110 H     1 <1>   0.1500 
 29 H        3.2780     2.3000     1.7550 H     1 <1>   0.0800 
 30 H       -1.9100     3.5080    -0.7230 H     1 <1>   0.1500 
 31 H       -0.4880     2.2390    -2.2770 H     1 <1>   0.1500 
 32 H        2.3520     0.0040     1.1380 H     1 <1>   0.3700 
 33 H        3.8200     2.4900    -1.2040 H     1 <1>   0.0800 
 34 H        5.3210     0.4970    -1.4550 H     1 <1>   0.0800 
 35 H        6.2790     0.1470    -0.0370 H     1 <1>   0.0800 
 36 H        4.6730     6.9100    -1.7130 H     1 <1>   0.0800 
 37 H        3.9660     6.7180    -0.1330 H     1 <1>   0.0800 
 38 H        6.2640     5.0950    -2.4590 H     1 <1>   0.0800 
 39 H        4.7070     4.4970    -2.9920 H     1 <1>   0.0800 
 40 H        5.7950     3.4650    -2.0810 H     1 <1>   0.0800 
 41 H        6.9350     6.6140    -0.7280 H     1 <1>   0.0800 
 42 H        6.2080     6.3890     0.8520 H     1 <1>   0.0800 
 43 H        5.3040     8.6680     0.7990 H     1 <1>   0.0800 
 44 H        5.9590     8.9210    -0.7990 H     1 <1>   0.0800 
 45 H        8.7510     8.5530    -0.8810 H     1 <1>   0.1500 
 46 H        9.0690    10.0670     3.0670 H     1 <1>   0.1500 
 47 H       10.5100     9.5680     0.9190 H     1 <1>   0.1500 
@<TRIPOS>BOND
  1   1   2  1   
  2   2   3  ar  
  3   2   4  ar  
  4   3   5  ar  
  5   3   6  1   
  6   4   7  ar  
  7   4  27  1   
  8   5   8  ar  
  9   5  28  1   
 10   6   9  1   
 11   6  10  1   
 12   6  29  1   
 13   7   8  ar  
 14   7  30  1   
 15   8  31  1   
 16   9  11  am  
 17   9  32  1   
 18  10  12  1   
 19  10  13  1   
 20  10  33  1   
 21  11  14  2   
 22  11  15  1   
 23  12  15  1   
 24  13  16  2   
 25  13  17  am  
 26  15  34  1   
 27  15  35  1   
 28  17  18  1   
 29  17  19  1   
 30  18  20  1   
 31  18  36  1   
 32  18  37  1   
 33  19  38  1   
 34  19  39  1   
 35  19  40  1   
 36  20  21  1   
 37  20  41  1   
 38  20  42  1   
 39  21  22  1   
 40  21  43  1   
 41  21  44  1   
 42  22  23  1   
 43  22  24  1   
 44  23  25  2   
 45  24  26  2   
 46  24  45  1   
 47  25  26  1   
 48  25  46  1   
 49  26  47  1   
@<TRIPOS>SUBSTRUCTURE
  1 ****  13 GROUP 4 **** **** 0

# MOE 2024.06 (io_trps.svl 2023.06)
