@<TRIPOS>MOLECULE
NONAME
47 49 1 0 0 
SMALL
USER_CHARGES


@<TRIPOS>ATOM
  1 O        1.7200    -0.6750    -2.6330 O.2   1 <1>  -0.5700 
  2 C        2.2110    -1.2110    -1.6680 C.2   1 <1>   0.5690 
  3 N        2.9880    -0.4920    -0.7860 N.am  1 <1>  -0.6600 
  4 C        1.8580    -2.6860    -1.4200 C.3   1 <1>   0.1710 
  5 C        3.4070    -1.0000     0.5530 C.3   1 <1>   0.1400 
  6 C        3.0560     0.9950    -0.8840 C.3   1 <1>   0.1400 
  7 N        1.0920    -2.9110    -0.1590 N.3   1 <1>  -0.8100 
  8 C        2.4650    -0.4190     1.6270 C.3   1 <1>   0.3430 
  9 C        2.1140     1.6090     0.1700 C.3   1 <1>   0.3430 
 10 C       -0.1900    -2.1930    -0.1490 C.3   1 <1>   0.1100 
 11 C        0.7320    -4.3230     0.0520 C.3   1 <1>   0.1100 
 12 N        2.3940     1.0870     1.5590 N.4   1 <1>  -0.9060 
 13 C       -0.9430    -2.8410     1.0030 C.3   1 <1>   0.2000 
 14 C       -0.6060    -4.3230     0.8240 C.3   1 <1>  -0.0800 
 15 O       -0.3440    -2.4130     2.1780 O.3   1 <1>  -0.6800 
 16 C       -1.7200    -5.0580     0.0550 C.3   1 <1>  -0.0170 
 17 C       -1.3500    -6.5090    -0.2150 C.ar  1 <1>  -0.1440 
 18 C       -1.2770    -7.4420     0.8000 C.ar  1 <1>  -0.1500 
 19 C       -1.0660    -6.9680    -1.4850 C.ar  1 <1>  -0.1500 
 20 C       -0.9230    -8.7490     0.5050 C.ar  1 <1>   0.1600 
 21 C       -0.7220    -8.2970    -1.6730 C.ar  1 <1>   0.1600 
 22 N       -0.6390    -9.1960    -0.7070 N.ar  1 <1>  -0.6200 
 23 H        2.7710    -3.2530    -1.3890 H     1 <1>   0.0800 
 24 H        1.2830    -3.0390    -2.2590 H     1 <1>   0.0800 
 25 H        3.3810    -2.0740     0.5880 H     1 <1>   0.0800 
 26 H        4.4210    -0.7000     0.7500 H     1 <1>   0.0800 
 27 H        4.0680     1.3240    -0.7220 H     1 <1>   0.0800 
 28 H        2.7620     1.3270    -1.8660 H     1 <1>   0.0800 
 29 H        2.8000    -0.7290     2.6040 H     1 <1>   0.0800 
 30 H        1.4830    -0.8350     1.4720 H     1 <1>   0.0800 
 31 H        1.1020     1.3640    -0.1090 H     1 <1>   0.0800 
 32 H        2.2090     2.6820     0.1520 H     1 <1>   0.0800 
 33 H       -0.0660    -1.1350    -0.0020 H     1 <1>   0.0800 
 34 H       -0.7200    -2.3620    -1.0720 H     1 <1>   0.0800 
 35 H        0.6220    -4.8240    -0.8960 H     1 <1>   0.0800 
 36 H        1.5030    -4.8230     0.6150 H     1 <1>   0.0800 
 37 H        3.2830     1.4790     1.8900 H     1 <1>   0.4500 
 38 H        1.6610     1.4160     2.2020 H     1 <1>   0.4500 
 39 H       -1.9940    -2.6080     1.0330 H     1 <1>   0.0800 
 40 H       -0.4870    -4.8040     1.7800 H     1 <1>   0.0800 
 41 H        0.5540    -2.7990     2.1740 H     1 <1>   0.4000 
 42 H       -1.9160    -4.5580    -0.8780 H     1 <1>   0.0800 
 43 H       -2.6290    -5.0340     0.6310 H     1 <1>   0.0800 
 44 H       -1.4910    -7.1680     1.8170 H     1 <1>   0.1500 
 45 H       -1.1080    -6.3100    -2.3340 H     1 <1>   0.1500 
 46 H       -0.8700    -9.4630     1.3090 H     1 <1>   0.1500 
 47 H       -0.5020    -8.6370    -2.6700 H     1 <1>   0.1500 
@<TRIPOS>BOND
  1   1   2  2   
  2   2   3  am  
  3   2   4  1   
  4   3   5  1   
  5   3   6  1   
  6   4   7  1   
  7   4  23  1   
  8   4  24  1   
  9   5   8  1   
 10   5  25  1   
 11   5  26  1   
 12   6   9  1   
 13   6  27  1   
 14   6  28  1   
 15   7  10  1   
 16   7  11  1   
 17   8  12  1   
 18   8  29  1   
 19   8  30  1   
 20   9  12  1   
 21   9  31  1   
 22   9  32  1   
 23  10  13  1   
 24  10  33  1   
 25  10  34  1   
 26  11  14  1   
 27  11  35  1   
 28  11  36  1   
 29  12  37  1   
 30  12  38  1   
 31  13  14  1   
 32  13  15  1   
 33  13  39  1   
 34  14  16  1   
 35  14  40  1   
 36  15  41  1   
 37  16  17  1   
 38  16  42  1   
 39  16  43  1   
 40  17  18  ar  
 41  17  19  ar  
 42  18  20  ar  
 43  18  44  1   
 44  19  21  ar  
 45  19  45  1   
 46  20  22  ar  
 47  20  46  1   
 48  21  22  ar  
 49  21  47  1   
@<TRIPOS>SUBSTRUCTURE
  1 ****   7 GROUP 4 **** **** 0

# MOE 2024.06 (io_trps.svl 2023.06)
