@<TRIPOS>MOLECULE
NONAME
48 51 1 0 0 
SMALL
USER_CHARGES


@<TRIPOS>ATOM
  1 F       -0.7730    -1.3120     0.5010 F     1 <1>  -0.1900 
  2 C        0.1230    -2.2430     0.3090 C.ar  1 <1>   0.1900 
  3 C        1.4320    -1.9930     0.6670 C.ar  1 <1>  -0.1500 
  4 C       -0.2710    -3.4430    -0.2490 C.ar  1 <1>  -0.1500 
  5 C        2.3770    -2.9850     0.4620 C.ar  1 <1>  -0.1500 
  6 C        0.6840    -4.4260    -0.4480 C.ar  1 <1>  -0.1500 
  7 C        2.0120    -4.2120    -0.0880 C.ar  1 <1>  -0.1080 
  8 C        3.0710    -5.2960    -0.3110 C.3   1 <1>   0.3330 
  9 N        2.5910    -6.7010    -0.0440 N.am  1 <1>  -0.5100 
 10 C        4.0520    -5.4770     0.8710 C.3   1 <1>   0.0000 
 11 C        2.1040    -7.5380    -1.0100 C.2   1 <1>   0.5440 
 12 C        3.8750    -6.9910     0.6740 C.3   1 <1>   0.2250 
 13 O        1.9050    -7.0970    -2.1270 O.2   1 <1>  -0.5700 
 14 C        1.8330    -8.9340    -0.7140 C.ar  1 <1>   0.0860 
 15 C        1.9200    -9.9100    -1.7070 C.ar  1 <1>  -0.1500 
 16 C        1.4730    -9.3630     0.5650 C.ar  1 <1>  -0.1500 
 17 C        1.6650   -11.2410    -1.4370 C.ar  1 <1>  -0.1500 
 18 C        1.2180   -10.6940     0.8340 C.ar  1 <1>  -0.1500 
 19 C        1.2980   -11.6660    -0.1620 C.ar  1 <1>   0.0860 
 20 C        1.0150   -13.0620     0.1090 C.2   1 <1>   0.5440 
 21 O        1.8230   -13.9060    -0.2270 O.2   1 <1>  -0.5700 
 22 N       -0.1520   -13.4590     0.7280 N.am  1 <1>  -0.6600 
 23 C       -0.3690   -14.8650     1.1870 C.3   1 <1>   0.1400 
 24 C       -1.3960   -12.6320     0.7730 C.3   1 <1>   0.1400 
 25 C       -1.5960   -15.4770     0.4940 C.3   1 <1>   0.1200 
 26 C       -2.5640   -13.3760     0.1060 C.3   1 <1>   0.1200 
 27 O       -2.7170   -14.6530     0.6570 O.3   1 <1>  -0.5600 
 28 H        1.7020    -1.0440     1.0940 H     1 <1>   0.1500 
 29 H       -1.2980    -3.6020    -0.5220 H     1 <1>   0.1500 
 30 H        3.4000    -2.7920     0.7320 H     1 <1>   0.1500 
 31 H        0.3860    -5.3590    -0.8920 H     1 <1>   0.1500 
 32 H        3.5710    -5.2280    -1.2620 H     1 <1>   0.0000 
 33 H        3.6650    -5.1400     1.8170 H     1 <1>   0.0000 
 34 H        5.0480    -5.1240     0.6710 H     1 <1>   0.0000 
 35 H        4.6040    -7.4330     0.0160 H     1 <1>   0.0000 
 36 H        3.7160    -7.5320     1.5900 H     1 <1>   0.0000 
 37 H        2.1940    -9.6130    -2.7050 H     1 <1>   0.1500 
 38 H        1.3900    -8.6410     1.3590 H     1 <1>   0.1500 
 39 H        1.7480   -11.9750    -2.2210 H     1 <1>   0.1500 
 40 H        0.9510   -10.9970     1.8320 H     1 <1>   0.1500 
 41 H       -0.5270   -14.8670     2.2510 H     1 <1>   0.0800 
 42 H        0.4950   -15.4730     0.9830 H     1 <1>   0.0800 
 43 H       -1.2520   -11.6940     0.2680 H     1 <1>   0.0800 
 44 H       -1.6480   -12.4270     1.7990 H     1 <1>   0.0800 
 45 H       -1.8260   -16.4350     0.9260 H     1 <1>   0.0800 
 46 H       -1.4090   -15.6070    -0.5580 H     1 <1>   0.0800 
 47 H       -2.3950   -13.4750    -0.9520 H     1 <1>   0.0800 
 48 H       -3.4840   -12.8400     0.2600 H     1 <1>   0.0800 
@<TRIPOS>BOND
  1   1   2  1   
  2   2   3  ar  
  3   2   4  ar  
  4   3   5  ar  
  5   3  28  1   
  6   4   6  ar  
  7   4  29  1   
  8   5   7  ar  
  9   5  30  1   
 10   6   7  ar  
 11   6  31  1   
 12   7   8  1   
 13   8   9  1   
 14   8  10  1   
 15   8  32  1   
 16   9  11  am  
 17   9  12  1   
 18  10  12  1   
 19  10  33  1   
 20  10  34  1   
 21  11  13  2   
 22  11  14  1   
 23  12  35  1   
 24  12  36  1   
 25  14  15  ar  
 26  14  16  ar  
 27  15  17  ar  
 28  15  37  1   
 29  16  18  ar  
 30  16  38  1   
 31  17  19  ar  
 32  17  39  1   
 33  18  19  ar  
 34  18  40  1   
 35  19  20  1   
 36  20  21  2   
 37  20  22  am  
 38  22  23  1   
 39  22  24  1   
 40  23  25  1   
 41  23  41  1   
 42  23  42  1   
 43  24  26  1   
 44  24  43  1   
 45  24  44  1   
 46  25  27  1   
 47  25  45  1   
 48  25  46  1   
 49  26  27  1   
 50  26  47  1   
 51  26  48  1   
@<TRIPOS>SUBSTRUCTURE
  1 ****  16 GROUP 4 **** **** 0

# MOE 2024.06 (io_trps.svl 2023.06)
