@<TRIPOS>MOLECULE
NONAME
44 46 1 0 0 
SMALL
USER_CHARGES


@<TRIPOS>ATOM
  1 F       -0.2830    -0.6020     0.6320 F     1 <1>  -0.3400 
  2 C       -0.2440    -1.8070     0.0830 C.3   1 <1>   0.8800 
  3 F       -0.5900    -1.6390    -1.1870 F     1 <1>  -0.3400 
  4 O       -1.2190    -2.6040     0.7140 O.3   1 <1>  -0.3630 
  5 C       -1.2240    -3.9480     0.5720 C.ar  1 <1>   0.0830 
  6 C       -0.4640    -4.6390    -0.3680 C.ar  1 <1>  -0.1500 
  7 C       -2.0410    -4.6630     1.4340 C.ar  1 <1>  -0.1500 
  8 C       -0.5270    -6.0190    -0.4270 C.ar  1 <1>  -0.1500 
  9 C       -2.0970    -6.0420     1.3670 C.ar  1 <1>  -0.1500 
 10 C       -1.3470    -6.7550     0.4300 C.ar  1 <1>   0.0860 
 11 C       -1.3990    -8.2020     0.3430 C.2   1 <1>   0.5440 
 12 O       -0.3650    -8.8360     0.2410 O.2   1 <1>  -0.5700 
 13 N       -2.5920    -8.8890     0.3550 N.am  1 <1>  -0.6600 
 14 C       -3.9040    -8.3090    -0.0300 C.3   1 <1>   0.1400 
 15 C       -2.6450   -10.3730     0.2960 C.3   1 <1>   0.1400 
 16 C       -4.6940    -9.4820    -0.6060 C.3   1 <1>   0.2000 
 17 C       -4.1170   -10.7210     0.0730 C.3   1 <1>  -0.0800 
 18 O       -6.0480    -9.3700    -0.3340 O.3   1 <1>  -0.6800 
 19 C       -4.3280   -12.0100    -0.7350 C.3   1 <1>   0.0210 
 20 C       -3.6580   -13.1880    -0.0560 C.2   1 <1>   0.1080 
 21 N       -4.0210   -13.6270     1.1090 N.2   1 <1>  -0.7070 
 22 C       -2.5920   -13.9100    -0.5820 C.2   1 <1>  -0.1500 
 23 N       -3.1890   -14.6560     1.3580 N.pl3 1 <1>   0.3000 
 24 C       -2.3130   -14.8450     0.3500 C.2   1 <1>  -0.3320 
 25 C       -1.2460   -15.9240     0.3380 C.3   1 <1>  -0.0600 
 26 H        0.7490    -2.2130     0.1540 H     1 <1>   0.0800 
 27 H        0.1750    -4.1300    -1.0660 H     1 <1>   0.1500 
 28 H       -2.6280    -4.1300     2.1610 H     1 <1>   0.1500 
 29 H        0.0670    -6.5540    -1.1490 H     1 <1>   0.1500 
 30 H       -2.7240    -6.5830     2.0540 H     1 <1>   0.1500 
 31 H       -4.3890    -7.9210     0.8480 H     1 <1>   0.0800 
 32 H       -3.7810    -7.5320    -0.7650 H     1 <1>   0.0800 
 33 H       -2.0380   -10.7140    -0.5260 H     1 <1>   0.0800 
 34 H       -2.2740   -10.8040     1.2100 H     1 <1>   0.0800 
 35 H       -4.5620    -9.5190    -1.6740 H     1 <1>   0.0800 
 36 H       -4.5620   -10.8400     1.0460 H     1 <1>   0.0800 
 37 H       -6.2150    -9.5160     0.6170 H     1 <1>   0.4000 
 38 H       -3.9300   -11.8960    -1.7270 H     1 <1>   0.0800 
 39 H       -5.3810   -12.2130    -0.8170 H     1 <1>   0.0800 
 40 H       -2.1120   -13.7370    -1.5280 H     1 <1>   0.1500 
 41 H       -3.2450   -15.2060     2.2240 H     1 <1>   0.2700 
 42 H       -0.6750   -15.8700    -0.5720 H     1 <1>   0.0800 
 43 H       -1.6990   -16.8970     0.4010 H     1 <1>   0.0800 
 44 H       -0.5760   -15.7930     1.1700 H     1 <1>   0.0800 
@<TRIPOS>BOND
  1   1   2  1   
  2   2   3  1   
  3   2   4  1   
  4   2  26  1   
  5   4   5  1   
  6   5   6  ar  
  7   5   7  ar  
  8   6   8  ar  
  9   6  27  1   
 10   7   9  ar  
 11   7  28  1   
 12   8  10  ar  
 13   8  29  1   
 14   9  10  ar  
 15   9  30  1   
 16  10  11  1   
 17  11  12  2   
 18  11  13  am  
 19  13  14  1   
 20  13  15  1   
 21  14  16  1   
 22  14  31  1   
 23  14  32  1   
 24  15  17  1   
 25  15  33  1   
 26  15  34  1   
 27  16  17  1   
 28  16  18  1   
 29  16  35  1   
 30  17  19  1   
 31  17  36  1   
 32  18  37  1   
 33  19  20  1   
 34  19  38  1   
 35  19  39  1   
 36  20  21  2   
 37  20  22  1   
 38  21  23  1   
 39  22  24  2   
 40  22  40  1   
 41  23  24  1   
 42  23  41  1   
 43  24  25  1   
 44  25  42  1   
 45  25  43  1   
 46  25  44  1   
@<TRIPOS>SUBSTRUCTURE
  1 ****  13 GROUP 4 **** **** 0

# MOE 2024.06 (io_trps.svl 2023.06)
