@<TRIPOS>MOLECULE
NONAME
51 53 1 0 0 
SMALL
USER_CHARGES


@<TRIPOS>ATOM
  1 O        0.9930    -0.0320    -2.1030 O.2   1 <1>  -0.5700 
  2 C        1.8210    -0.3190    -1.2590 C.2   1 <1>   0.5440 
  3 N        2.6870     0.6790    -0.8640 N.am  1 <1>  -0.6600 
  4 C        1.9070    -1.6780    -0.7260 C.ar  1 <1>   0.3960 
  5 C        2.9130     1.0020     0.5920 C.3   1 <1>   0.2200 
  6 C        3.4310     1.4220    -1.9170 C.3   1 <1>   0.1400 
  7 N        3.0700    -2.1190    -0.2600 N.ar  1 <1>  -0.6200 
  8 C        0.8000    -2.5070    -0.7170 C.ar  1 <1>  -0.1500 
  9 C        2.8710     2.5170     0.8510 C.3   1 <1>   0.1200 
 10 C        4.2330     0.4060     1.1390 C.3   1 <1>   0.3430 
 11 C        4.7510     2.0510    -1.4400 C.3   1 <1>  -0.0800 
 12 C        3.0850    -3.3600     0.1740 C.ar  1 <1>   0.7200 
 13 C        0.9280    -3.7790    -0.2140 C.ar  1 <1>   0.1660 
 14 O        4.1370     3.0840     0.6820 O.3   1 <1>  -0.5600 
 15 N        5.1580    -0.0100     0.0500 N.4   1 <1>  -0.9590 
 16 C        4.5250     3.3390    -0.6290 C.3   1 <1>   0.1200 
 17 C        5.7570     1.0790    -0.7860 C.3   1 <1>   0.3430 
 18 N        2.0800    -4.2100     0.2440 N.ar  1 <1>  -0.6200 
 19 N        4.2590    -3.8230     0.6010 N.pl3 1 <1>  -0.9000 
 20 C       -0.2760    -4.7240    -0.1810 C.3   1 <1>   0.0630 
 21 C        6.2350    -0.9610     0.5390 C.3   1 <1>   0.2370 
 22 C       -0.6260    -5.1240     1.2580 C.3   1 <1>  -0.2400 
 23 C       -0.0210    -5.9730    -1.0350 C.3   1 <1>  -0.2400 
 24 C        6.9050    -1.7800    -0.5690 C.2   1 <1>   0.9060 
 25 O        7.6720    -1.1960    -1.3400 O.co2 1 <1>  -0.9000 
 26 O        6.5710    -2.9610    -0.7000 O.co2 1 <1>  -0.9000 
 27 H        2.1020     0.5720     1.1530 H     1 <1>   0.0800 
 28 H        3.6440     0.7400    -2.7240 H     1 <1>   0.0800 
 29 H        2.7860     2.1880    -2.3150 H     1 <1>   0.0800 
 30 H       -0.1370    -2.1510    -1.1040 H     1 <1>   0.1500 
 31 H        2.5950     2.6910     1.8760 H     1 <1>   0.0800 
 32 H        2.1530     3.0120     0.2190 H     1 <1>   0.0800 
 33 H        3.9840    -0.4610     1.7280 H     1 <1>   0.0800 
 34 H        4.7190     1.1150     1.7900 H     1 <1>   0.0800 
 35 H        5.2380     2.3910    -2.3370 H     1 <1>   0.0800 
 36 H        4.5680    -0.5860    -0.5810 H     1 <1>   0.4500 
 37 H        3.7830     3.9690    -1.0920 H     1 <1>   0.0800 
 38 H        5.4450     3.8960    -0.5740 H     1 <1>   0.0800 
 39 H        6.4530     1.6450    -0.1890 H     1 <1>   0.0800 
 40 H        6.3260     0.6150    -1.5770 H     1 <1>   0.0800 
 41 H        5.0850    -3.5450     0.0320 H     1 <1>   0.4000 
 42 H        4.2610    -4.8280     0.7500 H     1 <1>   0.4000 
 43 H       -1.1280    -4.2130    -0.5960 H     1 <1>   0.0800 
 44 H        7.0030    -0.4150     1.0550 H     1 <1>   0.0800 
 45 H        5.8020    -1.6710     1.2210 H     1 <1>   0.0800 
 46 H        0.1900    -5.6650     1.7050 H     1 <1>   0.0800 
 47 H       -1.5020    -5.7470     1.2730 H     1 <1>   0.0800 
 48 H       -0.8180    -4.2470     1.8500 H     1 <1>   0.0800 
 49 H        0.8070    -6.5340    -0.6390 H     1 <1>   0.0800 
 50 H        0.2150    -5.6870    -2.0450 H     1 <1>   0.0800 
 51 H       -0.8910    -6.6040    -1.0490 H     1 <1>   0.0800 
@<TRIPOS>BOND
  1   1   2  2   
  2   2   3  am  
  3   2   4  1   
  4   3   5  1   
  5   3   6  1   
  6   4   7  ar  
  7   4   8  ar  
  8   5   9  1   
  9   5  10  1   
 10   5  27  1   
 11   6  11  1   
 12   6  28  1   
 13   6  29  1   
 14   7  12  ar  
 15   8  13  ar  
 16   8  30  1   
 17   9  14  1   
 18   9  31  1   
 19   9  32  1   
 20  10  15  1   
 21  10  33  1   
 22  10  34  1   
 23  11  16  1   
 24  11  17  1   
 25  11  35  1   
 26  12  18  ar  
 27  12  19  1   
 28  13  18  ar  
 29  13  20  1   
 30  14  16  1   
 31  15  17  1   
 32  15  21  1   
 33  15  36  1   
 34  16  37  1   
 35  16  38  1   
 36  17  39  1   
 37  17  40  1   
 38  19  41  1   
 39  19  42  1   
 40  20  22  1   
 41  20  23  1   
 42  20  43  1   
 43  21  24  1   
 44  21  44  1   
 45  21  45  1   
 46  22  46  1   
 47  22  47  1   
 48  22  48  1   
 49  23  49  1   
 50  23  50  1   
 51  23  51  1   
 52  24  25  ar  
 53  24  26  ar  
@<TRIPOS>SUBSTRUCTURE
  1 ****   7 GROUP 4 **** **** 0

# MOE 2024.06 (io_trps.svl 2023.06)
