@<TRIPOS>MOLECULE
NONAME
33 34 1 0 0 
SMALL
USER_CHARGES


@<TRIPOS>ATOM
  1 O       -1.3630    -0.1600     0.3520 O.2   1 <1>  -0.5700 
  2 C       -2.1220     0.7910     0.4820 C.2   1 <1>   0.7150 
  3 N       -3.4210     0.5030     0.8470 N.am  1 <1>  -0.6600 
  4 C       -1.6470     2.1480     0.2480 C.2   1 <1>   0.1010 
  5 C       -3.7140    -0.6840     1.7020 C.3   1 <1>   0.3200 
  6 C       -4.5830     1.3830     0.5070 C.3   1 <1>   0.1400 
  7 N       -2.1000     3.2360     0.8390 N.2   1 <1>  -0.5650 
  8 N       -0.6380     2.4440    -0.6290 N.pl3 1 <1>   0.0480 
  9 C       -4.0260    -1.9040     0.8530 C.2   1 <1>   0.0060 
 10 C       -5.6240     0.6460    -0.3450 C.3   1 <1>   0.1200 
 11 C       -1.3710     4.2330     0.3300 C.2   1 <1>   0.0770 
 12 C       -0.4760     3.7720    -0.5670 C.2   1 <1>  -0.3020 
 13 C        0.1390     1.5380    -1.4990 C.3   1 <1>   0.0160 
 14 N       -5.1310    -2.5800     0.8950 N.2   1 <1>  -0.5650 
 15 N       -3.1350    -2.3810    -0.0410 N.pl3 1 <1>   0.0330 
 16 O       -6.6080     1.5410    -0.7430 O.3   1 <1>  -0.6800 
 17 C       -4.9480    -3.5490    -0.0230 C.2   1 <1>   0.0770 
 18 C       -3.7340    -3.4440    -0.6060 C.2   1 <1>  -0.3020 
 19 H       -4.5490    -0.4730     2.3460 H     1 <1>   0.0800 
 20 H       -2.8640    -0.8990     2.3270 H     1 <1>   0.0800 
 21 H       -4.2450     2.2340    -0.0570 H     1 <1>   0.0800 
 22 H       -5.0340     1.7370     1.4180 H     1 <1>   0.0800 
 23 H       -6.0980    -0.1490     0.2040 H     1 <1>   0.0800 
 24 H       -5.1650     0.2480    -1.2330 H     1 <1>   0.0800 
 25 H       -1.5250     5.2560     0.6350 H     1 <1>   0.1500 
 26 H        0.2490     4.3160    -1.1450 H     1 <1>   0.1500 
 27 H       -0.5340     0.9230    -2.0670 H     1 <1>   0.0800 
 28 H        0.7670     0.9130    -0.8890 H     1 <1>   0.0800 
 29 H        0.7500     2.1130    -2.1690 H     1 <1>   0.0800 
 30 H       -2.2100    -1.9670    -0.2230 H     1 <1>   0.2700 
 31 H       -7.1770     1.7910     0.0110 H     1 <1>   0.4000 
 32 H       -5.7120    -4.2830    -0.2190 H     1 <1>   0.1500 
 33 H       -3.2770    -4.0480    -1.3680 H     1 <1>   0.1500 
@<TRIPOS>BOND
  1   1   2  2   
  2   2   3  am  
  3   2   4  1   
  4   3   5  1   
  5   3   6  1   
  6   4   7  2   
  7   4   8  1   
  8   5   9  1   
  9   5  19  1   
 10   5  20  1   
 11   6  10  1   
 12   6  21  1   
 13   6  22  1   
 14   7  11  1   
 15   8  12  1   
 16   8  13  1   
 17   9  14  2   
 18   9  15  1   
 19  10  16  1   
 20  10  23  1   
 21  10  24  1   
 22  11  12  2   
 23  11  25  1   
 24  12  26  1   
 25  13  27  1   
 26  13  28  1   
 27  13  29  1   
 28  14  17  1   
 29  15  18  1   
 30  15  30  1   
 31  16  31  1   
 32  17  18  2   
 33  17  32  1   
 34  18  33  1   
@<TRIPOS>SUBSTRUCTURE
  1 ****   3 GROUP 4 **** **** 0

# MOE 2024.06 (io_trps.svl 2023.06)
