@<TRIPOS>MOLECULE
NONAME
41 41 1 0 0 
SMALL
USER_CHARGES


@<TRIPOS>ATOM
  1 S        0.5400     1.6070     0.0110 S.3   1 <1>  -0.4600 
  2 C        1.2990     3.0400     0.8530 C.3   1 <1>   0.1310 
  3 C       -0.5210     0.8760     1.2870 C.3   1 <1>  -0.0100 
  4 C        2.0570     3.9330    -0.1300 C.2   1 <1>   0.5690 
  5 O        1.7130     5.0910    -0.2120 O.2   1 <1>  -0.5700 
  6 N        3.1290     3.4830    -0.8670 N.am  1 <1>  -0.6600 
  7 C        3.4390     4.0870    -2.1990 C.3   1 <1>   0.1400 
  8 C        3.7290     2.1280    -0.6700 C.3   1 <1>   0.0600 
  9 C        4.7860     4.8400    -2.2110 C.3   1 <1>  -0.0800 
 10 C        4.6510     6.3130    -1.7810 C.3   1 <1>   0.3430 
 11 C        5.3820     4.7990    -3.6280 C.3   1 <1>  -0.2400 
 12 N        4.1320     6.4530    -0.4010 N.4   1 <1>  -0.9590 
 13 C        3.7430     7.8280    -0.0290 C.3   1 <1>   0.3430 
 14 C        5.0220     5.9560     0.6680 C.3   1 <1>   0.3430 
 15 C        3.6140     7.7740     1.4870 C.3   1 <1>  -0.1600 
 16 C        4.4740     6.5890     1.9400 C.3   1 <1>  -0.1600 
 17 H        1.9520     2.6610     1.6160 H     1 <1>   0.0800 
 18 H        0.4960     3.5930     1.3050 H     1 <1>   0.0800 
 19 H       -1.0020     0.0160     0.8580 H     1 <1>   0.0800 
 20 H       -1.2490     1.6120     1.5790 H     1 <1>   0.0800 
 21 H        0.0990     0.5910     2.1180 H     1 <1>   0.0800 
 22 H        2.6420     4.7470    -2.5040 H     1 <1>   0.0800 
 23 H        3.4660     3.2890    -2.9230 H     1 <1>   0.0800 
 24 H        3.6510     1.8180     0.3560 H     1 <1>   0.0800 
 25 H        4.7700     2.1370    -0.9430 H     1 <1>   0.0800 
 26 H        3.2150     1.4110    -1.2880 H     1 <1>   0.0800 
 27 H        5.4850     4.3380    -1.5670 H     1 <1>   0.0800 
 28 H        3.9770     6.8070    -2.4630 H     1 <1>   0.0800 
 29 H        5.6110     6.7970    -1.8550 H     1 <1>   0.0800 
 30 H        4.7230     5.2680    -4.3390 H     1 <1>   0.0800 
 31 H        5.5430     3.7800    -3.9380 H     1 <1>   0.0800 
 32 H        6.3320     5.3040    -3.6570 H     1 <1>   0.0800 
 33 H        3.2570     5.8880    -0.3460 H     1 <1>   0.4500 
 34 H        2.8150     8.1180    -0.4970 H     1 <1>   0.0800 
 35 H        4.5230     8.5180    -0.3050 H     1 <1>   0.0800 
 36 H        6.0290     6.2990     0.4950 H     1 <1>   0.0800 
 37 H        5.0080     4.8780     0.7200 H     1 <1>   0.0800 
 38 H        2.5830     7.6070     1.7500 H     1 <1>   0.0800 
 39 H        3.9360     8.7010     1.9290 H     1 <1>   0.0800 
 40 H        5.2820     6.9030     2.5780 H     1 <1>   0.0800 
 41 H        3.8730     5.8740     2.4740 H     1 <1>   0.0800 
@<TRIPOS>BOND
  1   1   2  1   
  2   1   3  1   
  3   2   4  1   
  4   2  17  1   
  5   2  18  1   
  6   3  19  1   
  7   3  20  1   
  8   3  21  1   
  9   4   5  2   
 10   4   6  am  
 11   6   7  1   
 12   6   8  1   
 13   7   9  1   
 14   7  22  1   
 15   7  23  1   
 16   8  24  1   
 17   8  25  1   
 18   8  26  1   
 19   9  10  1   
 20   9  11  1   
 21   9  27  1   
 22  10  12  1   
 23  10  28  1   
 24  10  29  1   
 25  11  30  1   
 26  11  31  1   
 27  11  32  1   
 28  12  13  1   
 29  12  14  1   
 30  12  33  1   
 31  13  15  1   
 32  13  34  1   
 33  13  35  1   
 34  14  16  1   
 35  14  36  1   
 36  14  37  1   
 37  15  16  1   
 38  15  38  1   
 39  15  39  1   
 40  16  40  1   
 41  16  41  1   
@<TRIPOS>SUBSTRUCTURE
  1 ****   6 GROUP 4 **** **** 0

# MOE 2024.06 (io_trps.svl 2023.06)
