@<TRIPOS>MOLECULE
NONAME
50 52 1 0 0 
SMALL
USER_CHARGES


@<TRIPOS>ATOM
  1 S        0.9770    -1.1340     0.9070 S.o2  1 <1>   1.5760 
  2 O        1.3640    -0.8750     2.2720 O.2   1 <1>  -0.6500 
  3 O        1.9250    -1.6300    -0.0620 O.2   1 <1>  -0.6500 
  4 N        0.1750     0.2190     0.2930 N.am  1 <1>  -0.8490 
  5 N       -0.2990    -2.2040     0.9480 N.am  1 <1>  -0.9140 
  6 C        1.1160     1.1880    -0.2730 C.3   1 <1>   0.1960 
  7 C       -0.7040     0.8220     1.2950 C.3   1 <1>   0.1960 
  8 C       -0.6970    -2.6800    -0.3680 C.3   1 <1>   0.2760 
  9 C        1.1210     1.0300    -1.7900 C.3   1 <1>  -0.2400 
 10 C       -1.7910     1.6470     0.6080 C.3   1 <1>  -0.2400 
 11 C       -2.1230    -3.2090    -0.3140 C.3   1 <1>  -0.0800 
 12 C        0.0510    -3.9670    -0.7140 C.3   1 <1>   0.1200 
 13 C       -1.9420    -4.6490     0.1800 C.3   1 <1>   0.1200 
 14 C       -3.1130    -2.3760     0.5240 C.3   1 <1>  -0.0170 
 15 O       -0.5890    -4.9630     0.0230 O.3   1 <1>  -0.5600 
 16 C       -4.5280    -2.9320     0.4110 C.ar  1 <1>  -0.1430 
 17 C       -5.3440    -2.7040    -0.7220 C.ar  1 <1>   0.0000 
 18 C       -5.0460    -3.6870     1.4220 C.ar  1 <1>  -0.1500 
 19 C       -6.6300    -3.2960    -0.7340 C.ar  1 <1>   0.3100 
 20 C       -4.9620    -1.9260    -1.8410 C.ar  1 <1>  -0.1500 
 21 C       -6.3360    -4.2180     1.3140 C.ar  1 <1>   0.1600 
 22 N       -7.1090    -4.0470     0.2890 N.ar  1 <1>  -0.6200 
 23 C       -7.4580    -3.1010    -1.8510 C.ar  1 <1>  -0.1500 
 24 C       -5.7940    -1.7540    -2.9130 C.ar  1 <1>  -0.1500 
 25 C       -7.0580    -2.3500    -2.9220 C.ar  1 <1>  -0.1500 
 26 H        0.0700    -3.0180     1.4340 H     1 <1>   0.4200 
 27 H        0.8230     2.1960    -0.0360 H     1 <1>   0.0800 
 28 H        2.1080     1.0390     0.1220 H     1 <1>   0.0800 
 29 H       -1.1900     0.0470     1.8660 H     1 <1>   0.0800 
 30 H       -0.1340     1.4260     1.9830 H     1 <1>   0.0800 
 31 H       -0.5820    -1.9130    -1.1170 H     1 <1>   0.0800 
 32 H        0.1330     1.1890    -2.1820 H     1 <1>   0.0800 
 33 H        1.4620     0.0490    -2.0660 H     1 <1>   0.0800 
 34 H        1.7850     1.7540    -2.2260 H     1 <1>   0.0800 
 35 H       -2.3270     1.0370    -0.0960 H     1 <1>   0.0800 
 36 H       -1.3760     2.4960     0.0980 H     1 <1>   0.0800 
 37 H       -2.4860     2.0070     1.3440 H     1 <1>   0.0800 
 38 H       -2.4880    -3.2650    -1.3240 H     1 <1>   0.0800 
 39 H        1.0960    -3.9440    -0.4620 H     1 <1>   0.0800 
 40 H       -0.0630    -4.2030    -1.7580 H     1 <1>   0.0800 
 41 H       -2.5330    -5.3440    -0.3910 H     1 <1>   0.0800 
 42 H       -2.1780    -4.7440     1.2260 H     1 <1>   0.0800 
 43 H       -3.0950    -1.3490     0.2060 H     1 <1>   0.0800 
 44 H       -2.8120    -2.3840     1.5570 H     1 <1>   0.0800 
 45 H       -4.4870    -3.8950     2.3150 H     1 <1>   0.1500 
 46 H       -3.9980    -1.4550    -1.8530 H     1 <1>   0.1500 
 47 H       -6.7080    -4.8080     2.1350 H     1 <1>   0.1500 
 48 H       -8.4260    -3.5660    -1.8340 H     1 <1>   0.1500 
 49 H       -5.4920    -1.1610    -3.7590 H     1 <1>   0.1500 
 50 H       -7.7030    -2.2090    -3.7720 H     1 <1>   0.1500 
@<TRIPOS>BOND
  1   1   2  2   
  2   1   3  2   
  3   1   4  am  
  4   1   5  am  
  5   4   6  1   
  6   4   7  1   
  7   5   8  1   
  8   5  26  1   
  9   6   9  1   
 10   6  27  1   
 11   6  28  1   
 12   7  10  1   
 13   7  29  1   
 14   7  30  1   
 15   8  11  1   
 16   8  12  1   
 17   8  31  1   
 18   9  32  1   
 19   9  33  1   
 20   9  34  1   
 21  10  35  1   
 22  10  36  1   
 23  10  37  1   
 24  11  13  1   
 25  11  14  1   
 26  11  38  1   
 27  12  15  1   
 28  12  39  1   
 29  12  40  1   
 30  13  15  1   
 31  13  41  1   
 32  13  42  1   
 33  14  16  1   
 34  14  43  1   
 35  14  44  1   
 36  16  17  ar  
 37  16  18  ar  
 38  17  19  ar  
 39  17  20  ar  
 40  18  21  ar  
 41  18  45  1   
 42  19  22  ar  
 43  19  23  ar  
 44  20  24  ar  
 45  20  46  1   
 46  21  22  ar  
 47  21  47  1   
 48  23  25  ar  
 49  23  48  1   
 50  24  25  ar  
 51  24  49  1   
 52  25  50  1   
@<TRIPOS>SUBSTRUCTURE
  1 ****  14 GROUP 4 **** **** 0

# MOE 2024.06 (io_trps.svl 2023.06)
