@<TRIPOS>MOLECULE
NONAME
49 52 1 0 0 
SMALL
USER_CHARGES


@<TRIPOS>ATOM
  1 S        0.1750    -0.8850     0.8310 S.3   1 <1>  -0.4600 
  2 C       -1.1770     0.2850     0.4790 C.3   1 <1>   0.2510 
  3 C       -0.7430    -2.4420     0.6420 C.3   1 <1>   0.2510 
  4 C       -2.3470    -0.6230     0.1820 C.2   1 <1>   0.1080 
  5 C       -2.1300    -1.9820     0.2600 C.2   1 <1>  -0.1810 
  6 N       -3.5620    -0.3210    -0.1470 N.2   1 <1>  -0.7070 
  7 C       -3.3160    -2.5580    -0.0420 C.2   1 <1>  -0.0880 
  8 N       -4.1780    -1.5230    -0.2840 N.pl3 1 <1>   0.3140 
  9 N       -3.5740    -3.9490    -0.1130 N.am  1 <1>  -0.4940 
 10 C       -5.5750    -1.5740    -0.7360 C.3   1 <1>   0.0160 
 11 C       -4.6750    -4.6870     0.2580 C.2   1 <1>   0.5440 
 12 O       -5.6840    -4.1240     0.6380 O.2   1 <1>  -0.5700 
 13 C       -4.6270    -6.1310     0.1830 C.ar  1 <1>   0.0860 
 14 C       -5.7780    -6.8730    -0.0910 C.ar  1 <1>  -0.1500 
 15 C       -3.4430    -6.8490     0.3770 C.ar  1 <1>  -0.1500 
 16 C       -5.7490    -8.2490    -0.1830 C.ar  1 <1>  -0.1500 
 17 C       -3.4120    -8.2260     0.2850 C.ar  1 <1>  -0.1500 
 18 C       -4.5630    -8.9510     0.0020 C.ar  1 <1>   0.1000 
 19 N       -4.5130   -10.3330    -0.0810 N.pl3 1 <1>  -0.8380 
 20 C       -3.7270   -10.9810    -1.1700 C.3   1 <1>   0.2090 
 21 C       -5.5860   -11.1680     0.5360 C.3   1 <1>   0.2090 
 22 C       -3.2000   -12.3600    -0.7160 C.3   1 <1>   0.3430 
 23 C       -5.0250   -12.5400     0.9660 C.3   1 <1>   0.3430 
 24 N       -4.2870   -13.2450    -0.1500 N.4   1 <1>  -0.9590 
 25 C       -3.7300   -14.5500     0.3160 C.3   1 <1>   0.2630 
 26 H       -0.9030     0.8820    -0.3710 H     1 <1>   0.0800 
 27 H       -1.3460     0.8870     1.3530 H     1 <1>   0.0800 
 28 H       -0.7290    -2.9560     1.5860 H     1 <1>   0.0800 
 29 H       -0.2710    -3.0160    -0.1340 H     1 <1>   0.0800 
 30 H       -2.7850    -4.5070    -0.4330 H     1 <1>   0.3700 
 31 H       -5.8080    -0.6710    -1.2660 H     1 <1>   0.0800 
 32 H       -6.2150    -1.6640     0.1220 H     1 <1>   0.0800 
 33 H       -5.7110    -2.4200    -1.3820 H     1 <1>   0.0800 
 34 H       -6.7090    -6.3490    -0.2340 H     1 <1>   0.1500 
 35 H       -2.5350    -6.3270     0.6200 H     1 <1>   0.1500 
 36 H       -6.6540    -8.7820    -0.4060 H     1 <1>   0.1500 
 37 H       -2.4910    -8.7530     0.4480 H     1 <1>   0.1500 
 38 H       -2.8970   -10.3530    -1.4440 H     1 <1>   0.0800 
 39 H       -4.3510   -11.0960    -2.0400 H     1 <1>   0.0800 
 40 H       -6.3870   -11.3040    -0.1700 H     1 <1>   0.0800 
 41 H       -5.9830   -10.6590     1.3980 H     1 <1>   0.0800 
 42 H       -2.4460   -12.1950     0.0360 H     1 <1>   0.0800 
 43 H       -2.7280   -12.8480    -1.5530 H     1 <1>   0.0800 
 44 H       -5.8370   -13.1550     1.3170 H     1 <1>   0.0800 
 45 H       -4.3530   -12.3770     1.7930 H     1 <1>   0.0800 
 46 H       -4.9660   -13.4220    -0.9050 H     1 <1>   0.4500 
 47 H       -3.0150   -14.3910     1.1080 H     1 <1>   0.0800 
 48 H       -3.2360   -15.0590    -0.4960 H     1 <1>   0.0800 
 49 H       -4.5190   -15.1850     0.6870 H     1 <1>   0.0800 
@<TRIPOS>BOND
  1   1   2  1   
  2   1   3  1   
  3   2   4  1   
  4   2  26  1   
  5   2  27  1   
  6   3   5  1   
  7   3  28  1   
  8   3  29  1   
  9   4   5  1   
 10   4   6  2   
 11   5   7  2   
 12   6   8  1   
 13   7   8  1   
 14   7   9  1   
 15   8  10  1   
 16   9  11  am  
 17   9  30  1   
 18  10  31  1   
 19  10  32  1   
 20  10  33  1   
 21  11  12  2   
 22  11  13  1   
 23  13  14  ar  
 24  13  15  ar  
 25  14  16  ar  
 26  14  34  1   
 27  15  17  ar  
 28  15  35  1   
 29  16  18  ar  
 30  16  36  1   
 31  17  18  ar  
 32  17  37  1   
 33  18  19  1   
 34  19  20  1   
 35  19  21  1   
 36  20  22  1   
 37  20  38  1   
 38  20  39  1   
 39  21  23  1   
 40  21  40  1   
 41  21  41  1   
 42  22  24  1   
 43  22  42  1   
 44  22  43  1   
 45  23  24  1   
 46  23  44  1   
 47  23  45  1   
 48  24  25  1   
 49  24  46  1   
 50  25  47  1   
 51  25  48  1   
 52  25  49  1   
@<TRIPOS>SUBSTRUCTURE
  1 ****  15 GROUP 4 **** **** 0

# MOE 2024.06 (io_trps.svl 2023.06)
