@<TRIPOS>MOLECULE
NONAME
51 55 1 0 0 
SMALL
USER_CHARGES


@<TRIPOS>ATOM
  1 S        0.3170     0.1640     0.9270 S.3   1 <1>  -0.0800 
  2 C       -0.9540     1.3300     0.5920 C.2   1 <1>  -0.1400 
  3 C       -0.8440    -0.9400     1.6530 C.2   1 <1>  -0.1100 
  4 C       -2.1390     0.8770     1.0230 C.2   1 <1>  -0.1810 
  5 C       -0.6870     2.6590    -0.1070 C.3   1 <1>   0.4600 
  6 C       -2.0860    -0.4200     1.6250 C.2   1 <1>  -0.1500 
  7 C       -3.3730     1.7300     0.8410 C.3   1 <1>   0.0210 
  8 O       -1.9250     3.3010    -0.3460 O.3   1 <1>  -0.5600 
  9 C        0.1710     3.5850     0.7720 C.3   1 <1>  -0.1600 
 10 C       -0.0690     2.4300    -1.5000 C.3   1 <1>  -0.1600 
 11 C       -2.9420     3.1940     0.6250 C.3   1 <1>   0.1200 
 12 C        0.7820     4.7100    -0.0600 C.3   1 <1>   0.1400 
 13 C        1.4290     2.7380    -1.5420 C.3   1 <1>   0.1400 
 14 N        1.6850     4.1430    -1.1070 N.am  1 <1>  -0.6600 
 15 C        2.8300     4.7950    -1.5170 C.2   1 <1>   0.7160 
 16 O        3.7110     4.1540    -2.0600 O.2   1 <1>  -0.5700 
 17 C        3.0090     6.2100    -1.3060 C.2   1 <1>  -0.0860 
 18 C        2.0580     7.2100    -1.5210 C.2   1 <1>   0.1390 
 19 C        4.0960     6.9090    -0.8780 C.2   1 <1>  -0.3020 
 20 N        2.4950     8.3970    -1.2380 N.2   1 <1>  -0.7070 
 21 N        3.7680     8.2100    -0.8380 N.pl3 1 <1>   0.3140 
 22 C        4.6380     9.3390    -0.4460 C.3   1 <1>   0.2390 
 23 C        5.3250     9.0690     0.8860 C.ar  1 <1>  -0.1440 
 24 C        6.6820     8.7850     0.9370 C.ar  1 <1>  -0.1500 
 25 C        4.5910     9.1030     2.0630 C.ar  1 <1>  -0.1500 
 26 C        7.2970     8.5380     2.1520 C.ar  1 <1>  -0.1500 
 27 C        5.2070     8.8560     3.2770 C.ar  1 <1>  -0.1500 
 28 C        6.5600     8.5740     3.3230 C.ar  1 <1>  -0.1500 
 29 H       -0.4670    -1.8740     2.0290 H     1 <1>   0.1500 
 30 H       -2.9740    -0.8960     2.0050 H     1 <1>   0.1500 
 31 H       -3.9990     1.6670     1.7120 H     1 <1>   0.0800 
 32 H       -3.9330     1.3840    -0.0090 H     1 <1>   0.0800 
 33 H        0.9720     3.0250     1.2200 H     1 <1>   0.0800 
 34 H       -0.4130     3.9920     1.5750 H     1 <1>   0.0800 
 35 H       -0.5520     3.0620    -2.2240 H     1 <1>   0.0800 
 36 H       -0.2270     1.4130    -1.8060 H     1 <1>   0.0800 
 37 H       -2.5810     3.6130     1.5470 H     1 <1>   0.0800 
 38 H       -3.7790     3.7800     0.2880 H     1 <1>   0.0800 
 39 H        1.3370     5.3690     0.5860 H     1 <1>   0.0800 
 40 H       -0.0030     5.2740    -0.5340 H     1 <1>   0.0800 
 41 H        1.7970     2.5960    -2.5450 H     1 <1>   0.0800 
 42 H        1.9650     2.0650    -0.8930 H     1 <1>   0.0800 
 43 H        1.0640     7.0190    -1.8870 H     1 <1>   0.1500 
 44 H        5.0650     6.5320    -0.6030 H     1 <1>   0.1500 
 45 H        4.0310    10.2230    -0.3700 H     1 <1>   0.0800 
 46 H        5.3620     9.4910    -1.2240 H     1 <1>   0.0800 
 47 H        7.2690     8.7510     0.0360 H     1 <1>   0.1500 
 48 H        3.5360     9.3170     2.0360 H     1 <1>   0.1500 
 49 H        8.3500     8.3160     2.1880 H     1 <1>   0.1500 
 50 H        4.6320     8.8830     4.1870 H     1 <1>   0.1500 
 51 H        7.0390     8.3810     4.2670 H     1 <1>   0.1500 
@<TRIPOS>BOND
  1   1   2  1   
  2   1   3  1   
  3   2   4  2   
  4   2   5  1   
  5   3   6  2   
  6   3  29  1   
  7   4   6  1   
  8   4   7  1   
  9   5   8  1   
 10   5   9  1   
 11   5  10  1   
 12   6  30  1   
 13   7  11  1   
 14   7  31  1   
 15   7  32  1   
 16   8  11  1   
 17   9  12  1   
 18   9  33  1   
 19   9  34  1   
 20  10  13  1   
 21  10  35  1   
 22  10  36  1   
 23  11  37  1   
 24  11  38  1   
 25  12  14  1   
 26  12  39  1   
 27  12  40  1   
 28  13  14  1   
 29  13  41  1   
 30  13  42  1   
 31  14  15  am  
 32  15  16  2   
 33  15  17  1   
 34  17  18  1   
 35  17  19  2   
 36  18  20  2   
 37  18  43  1   
 38  19  21  1   
 39  19  44  1   
 40  20  21  1   
 41  21  22  1   
 42  22  23  1   
 43  22  45  1   
 44  22  46  1   
 45  23  24  ar  
 46  23  25  ar  
 47  24  26  ar  
 48  24  47  1   
 49  25  27  ar  
 50  25  48  1   
 51  26  28  ar  
 52  26  49  1   
 53  27  28  ar  
 54  27  50  1   
 55  28  51  1   
@<TRIPOS>SUBSTRUCTURE
  1 ****  12 GROUP 4 **** **** 0

# MOE 2024.06 (io_trps.svl 2023.06)
