@<TRIPOS>MOLECULE
NONAME
53 55 1 0 0 
SMALL
USER_CHARGES


@<TRIPOS>ATOM
  1 O       -0.9730    -0.5010    -1.1470 O.2   1 <1>  -0.5700 
  2 C       -1.4070     0.5250    -0.6520 C.2   1 <1>   0.5440 
  3 N       -2.5260     0.4390     0.1460 N.am  1 <1>  -0.6600 
  4 C       -0.7900     1.8060    -0.9470 C.ar  1 <1>   0.0860 
  5 C       -2.9030    -0.8840     0.7400 C.3   1 <1>   0.1400 
  6 C       -3.6570     1.3980    -0.0990 C.3   1 <1>   0.1400 
  7 C       -0.6930     2.8070     0.0210 C.ar  1 <1>  -0.1500 
  8 C       -0.2750     2.0830    -2.2120 C.ar  1 <1>  -0.1500 
  9 C       -4.1360    -1.3620    -0.0400 C.3   1 <1>   0.4230 
 10 C       -4.9760     0.9630     0.5690 C.3   1 <1>  -0.1600 
 11 C       -0.1330     4.0440    -0.2540 C.ar  1 <1>  -0.1440 
 12 C        0.2880     3.3100    -2.5030 C.ar  1 <1>  -0.1500 
 13 N       -4.4340    -2.8290    -0.0540 N.4   1 <1>  -0.9590 
 14 C       -5.3540    -0.5490     0.4330 C.3   1 <1>  -0.1060 
 15 C        0.3550     4.2890    -1.5290 C.ar  1 <1>  -0.1500 
 16 C       -0.0650     5.1070     0.8420 C.3   1 <1>   0.0630 
 17 C       -5.5260    -3.1350    -1.0180 C.3   1 <1>   0.3430 
 18 C       -3.2420    -3.6960    -0.2470 C.3   1 <1>   0.2630 
 19 C       -5.8280    -1.0510     1.8090 C.2   1 <1>   0.9060 
 20 C       -6.4660    -0.7710    -0.6180 C.3   1 <1>  -0.1600 
 21 C       -0.9260     6.3180     0.4730 C.3   1 <1>  -0.2400 
 22 C        1.3820     5.5280     1.1130 C.3   1 <1>  -0.2400 
 23 C       -6.7730    -2.2750    -0.7600 C.3   1 <1>  -0.1600 
 24 O       -5.3110    -2.0660     2.3040 O.co2 1 <1>  -0.9000 
 25 O       -6.7450    -0.4550     2.3700 O.co2 1 <1>  -0.9000 
 26 H       -2.0830    -1.5710     0.6520 H     1 <1>   0.0800 
 27 H       -3.1270    -0.7630     1.7870 H     1 <1>   0.0800 
 28 H       -3.3870     2.3740     0.2670 H     1 <1>   0.0800 
 29 H       -3.8150     1.4790    -1.1610 H     1 <1>   0.0800 
 30 H       -1.0660     2.5990     1.0080 H     1 <1>   0.1500 
 31 H       -0.3210     1.3220    -2.9720 H     1 <1>   0.1500 
 32 H       -3.9400    -1.0840    -1.0610 H     1 <1>   0.0800 
 33 H       -4.8730     1.2020     1.6150 H     1 <1>   0.0800 
 34 H       -5.7820     1.5800     0.2130 H     1 <1>   0.0800 
 35 H        0.6770     3.5050    -3.4880 H     1 <1>   0.1500 
 36 H       -4.8120    -2.9650     0.9230 H     1 <1>   0.4500 
 37 H        0.7940     5.2420    -1.7690 H     1 <1>   0.1500 
 38 H       -0.4590     4.6900     1.7540 H     1 <1>   0.0800 
 39 H       -5.1740    -2.9480    -2.0190 H     1 <1>   0.0800 
 40 H       -5.7950    -4.1760    -0.9430 H     1 <1>   0.0800 
 41 H       -2.7470    -3.4510    -1.1730 H     1 <1>   0.0800 
 42 H       -3.5370    -4.7320    -0.2670 H     1 <1>   0.0800 
 43 H       -2.5480    -3.5580     0.5660 H     1 <1>   0.0800 
 44 H       -7.3600    -0.2550    -0.3080 H     1 <1>   0.0800 
 45 H       -6.1610    -0.3670    -1.5680 H     1 <1>   0.0800 
 46 H       -0.5510     6.7990    -0.4120 H     1 <1>   0.0800 
 47 H       -0.9290     7.0320     1.2770 H     1 <1>   0.0800 
 48 H       -1.9390     6.0050     0.2900 H     1 <1>   0.0800 
 49 H        1.8120     6.0080     0.2530 H     1 <1>   0.0800 
 50 H        1.9750     4.6640     1.3550 H     1 <1>   0.0800 
 51 H        1.4210     6.2120     1.9420 H     1 <1>   0.0800 
 52 H       -7.4720    -2.4210    -1.5640 H     1 <1>   0.0800 
 53 H       -7.2530    -2.6280     0.1380 H     1 <1>   0.0800 
@<TRIPOS>BOND
  1   1   2  2   
  2   2   3  am  
  3   2   4  1   
  4   3   5  1   
  5   3   6  1   
  6   4   7  ar  
  7   4   8  ar  
  8   5   9  1   
  9   5  26  1   
 10   5  27  1   
 11   6  10  1   
 12   6  28  1   
 13   6  29  1   
 14   7  11  ar  
 15   7  30  1   
 16   8  12  ar  
 17   8  31  1   
 18   9  13  1   
 19   9  14  1   
 20   9  32  1   
 21  10  14  1   
 22  10  33  1   
 23  10  34  1   
 24  11  15  ar  
 25  11  16  1   
 26  12  15  ar  
 27  12  35  1   
 28  13  17  1   
 29  13  18  1   
 30  13  36  1   
 31  14  19  1   
 32  14  20  1   
 33  15  37  1   
 34  16  21  1   
 35  16  22  1   
 36  16  38  1   
 37  17  23  1   
 38  17  39  1   
 39  17  40  1   
 40  18  41  1   
 41  18  42  1   
 42  18  43  1   
 43  19  24  ar  
 44  19  25  ar  
 45  20  23  1   
 46  20  44  1   
 47  20  45  1   
 48  21  46  1   
 49  21  47  1   
 50  21  48  1   
 51  22  49  1   
 52  22  50  1   
 53  22  51  1   
 54  23  52  1   
 55  23  53  1   
@<TRIPOS>SUBSTRUCTURE
  1 ****   3 GROUP 4 **** **** 0

# MOE 2024.06 (io_trps.svl 2023.06)
