@<TRIPOS>MOLECULE
NONAME
48 50 1 0 0 
SMALL
USER_CHARGES


@<TRIPOS>ATOM
  1 O       -0.3840     0.6870    -0.2330 O.2   1 <1>  -0.5700 
  2 C       -0.4370     1.8310    -0.6190 C.2   1 <1>   0.5690 
  3 N       -0.8870     2.8530     0.1760 N.am  1 <1>  -0.6600 
  4 C        0.0040     2.1300    -2.0540 C.3   1 <1>   0.1810 
  5 C       -0.9610     4.2590    -0.3380 C.3   1 <1>   0.3640 
  6 C       -1.2400     2.6540     1.6120 C.3   1 <1>   0.0600 
  7 O        0.4020     3.4680    -2.2310 O.3   1 <1>  -0.5600 
  8 C       -2.3230     4.9070    -0.0470 C.ar  1 <1>  -0.1430 
  9 C       -0.5800     4.4100    -1.8320 C.3   1 <1>   0.2610 
 10 C       -3.5620     4.3320    -0.3510 C.ar  1 <1>  -0.1430 
 11 C       -2.2950     6.1610     0.5540 C.ar  1 <1>  -0.1500 
 12 C       -0.1430     5.8550    -2.1150 C.2   1 <1>   0.5690 
 13 C       -4.7260     5.0180    -0.0350 C.ar  1 <1>  -0.1500 
 14 C       -3.7230     2.9690    -1.0150 C.3   1 <1>  -0.0960 
 15 C       -3.4620     6.8340     0.8620 C.ar  1 <1>  -0.1500 
 16 O       -0.8960     6.5170    -2.7940 O.2   1 <1>  -0.5700 
 17 N        1.0220     6.4070    -1.6140 N.am  1 <1>  -0.6600 
 18 C       -4.6810     6.2600     0.5680 C.ar  1 <1>  -0.1500 
 19 C        1.3590     7.8370    -1.8810 C.3   1 <1>   0.1400 
 20 C        2.1120     5.6540    -0.9230 C.3   1 <1>   0.1400 
 21 C        1.6860     8.5450    -0.5650 C.3   1 <1>  -0.1600 
 22 C        2.4490     6.3360     0.4050 C.3   1 <1>  -0.1600 
 23 C        2.8000     7.8060     0.1750 C.3   1 <1>   0.2000 
 24 O        2.9870     8.4070     1.3990 O.3   1 <1>  -0.6800 
 25 H       -0.8020     1.9180    -2.7320 H     1 <1>   0.0800 
 26 H        0.8410     1.5050    -2.3050 H     1 <1>   0.0800 
 27 H       -0.2280     4.8070     0.2230 H     1 <1>   0.0800 
 28 H       -0.6430     3.3030     2.2290 H     1 <1>   0.0800 
 29 H       -1.0610     1.6350     1.9110 H     1 <1>   0.0800 
 30 H       -2.2800     2.8780     1.7710 H     1 <1>   0.0800 
 31 H       -1.4500     4.2280    -2.4350 H     1 <1>   0.0800 
 32 H       -1.3580     6.6350     0.7870 H     1 <1>   0.1500 
 33 H       -5.6860     4.5870    -0.2570 H     1 <1>   0.1500 
 34 H       -4.7250     2.8370    -1.3810 H     1 <1>   0.0800 
 35 H       -3.5240     2.1860    -0.3050 H     1 <1>   0.0800 
 36 H       -3.0590     2.8600    -1.8500 H     1 <1>   0.0800 
 37 H       -3.4210     7.8040     1.3250 H     1 <1>   0.1500 
 38 H       -5.5940     6.7790     0.8040 H     1 <1>   0.1500 
 39 H        2.2070     7.8780    -2.5430 H     1 <1>   0.0800 
 40 H        0.5400     8.3440    -2.3620 H     1 <1>   0.0800 
 41 H        1.8360     4.6340    -0.7330 H     1 <1>   0.0800 
 42 H        2.9810     5.6420    -1.5590 H     1 <1>   0.0800 
 43 H        0.7930     8.5810     0.0340 H     1 <1>   0.0800 
 44 H        2.0000     9.5510    -0.7760 H     1 <1>   0.0800 
 45 H        3.2880     5.8350     0.8540 H     1 <1>   0.0800 
 46 H        1.6040     6.2520     1.0640 H     1 <1>   0.0800 
 47 H        3.7250     7.8850    -0.3730 H     1 <1>   0.0800 
 48 H        2.1560     8.3970     1.9090 H     1 <1>   0.4000 
@<TRIPOS>BOND
  1   1   2  2   
  2   2   3  am  
  3   2   4  1   
  4   3   5  1   
  5   3   6  1   
  6   4   7  1   
  7   4  25  1   
  8   4  26  1   
  9   5   8  1   
 10   5   9  1   
 11   5  27  1   
 12   6  28  1   
 13   6  29  1   
 14   6  30  1   
 15   7   9  1   
 16   8  10  ar  
 17   8  11  ar  
 18   9  12  1   
 19   9  31  1   
 20  10  13  ar  
 21  10  14  1   
 22  11  15  ar  
 23  11  32  1   
 24  12  16  2   
 25  12  17  am  
 26  13  18  ar  
 27  13  33  1   
 28  14  34  1   
 29  14  35  1   
 30  14  36  1   
 31  15  18  ar  
 32  15  37  1   
 33  17  19  1   
 34  17  20  1   
 35  18  38  1   
 36  19  21  1   
 37  19  39  1   
 38  19  40  1   
 39  20  22  1   
 40  20  41  1   
 41  20  42  1   
 42  21  23  1   
 43  21  43  1   
 44  21  44  1   
 45  22  23  1   
 46  22  45  1   
 47  22  46  1   
 48  23  24  1   
 49  23  47  1   
 50  24  48  1   
@<TRIPOS>SUBSTRUCTURE
  1 ****   5 GROUP 4 **** **** 0

# MOE 2024.06 (io_trps.svl 2023.06)
