@<TRIPOS>MOLECULE
NONAME
61 63 1 0 0 
SMALL
USER_CHARGES


@<TRIPOS>ATOM
  1 O       -0.2000     0.1130    -0.3160 O.2   1 <1>  -0.5700 
  2 C       -1.2230    -0.5270    -0.3890 C.2   1 <1>   0.5690 
  3 N       -1.2090    -1.8760    -0.6740 N.am  1 <1>  -0.6600 
  4 C       -2.5390     0.2020    -0.1560 C.3   1 <1>  -0.0990 
  5 C        0.0890    -2.6560    -0.7880 C.3   1 <1>   0.2200 
  6 C       -2.4440    -2.5570    -1.1830 C.3   1 <1>   0.1400 
  7 C       -2.3900     1.4970     0.6520 C.3   1 <1>   0.0210 
  8 C       -0.1220    -4.1990    -0.6780 C.3   1 <1>   0.0000 
  9 C        1.1910    -2.1540     0.1850 C.3   1 <1>   0.3430 
 10 C       -2.0980    -3.5810    -2.2630 C.3   1 <1>  -0.1600 
 11 C       -3.7600     2.1000     0.8990 C.2   1 <1>  -0.1810 
 12 C        1.2440    -4.9370    -0.8720 C.3   1 <1>  -0.1600 
 13 C       -1.1000    -4.6580    -1.8020 C.3   1 <1>  -0.1600 
 14 C       -0.7560    -4.6110     0.6930 C.3   1 <1>   0.1200 
 15 N        2.2090    -3.1910     0.5630 N.4   1 <1>  -0.9590 
 16 C       -4.5870     1.8610     1.9940 C.2   1 <1>   0.1080 
 17 C       -4.4560     2.9640     0.1270 C.2   1 <1>  -0.3320 
 18 C        2.4980    -4.1090    -0.5550 C.3   1 <1>   0.3430 
 19 O        0.1210    -4.5040     1.7710 O.3   1 <1>  -0.6800 
 20 C        3.4270    -2.6160     1.1810 C.3   1 <1>   0.3430 
 21 N       -5.7020     2.5120     1.9160 N.2   1 <1>  -0.7070 
 22 C       -4.2710     0.9620     3.1680 C.3   1 <1>  -0.0590 
 23 N       -5.6240     3.1980     0.7670 N.pl3 1 <1>   0.3140 
 24 C       -4.0770     3.5930    -1.2050 C.3   1 <1>  -0.0600 
 25 C        3.0760    -2.0020     2.5310 C.3   1 <1>  -0.2400 
 26 C       -6.7190     4.0730     0.3330 C.3   1 <1>   0.0160 
 27 H       -2.9740     0.4400    -1.1080 H     1 <1>   0.0800 
 28 H       -3.2130    -0.4460     0.3720 H     1 <1>   0.0800 
 29 H        0.4640    -2.4630    -1.7790 H     1 <1>   0.0800 
 30 H       -2.9620    -3.0340    -0.3700 H     1 <1>   0.0800 
 31 H       -3.1160    -1.8370    -1.6180 H     1 <1>   0.0800 
 32 H       -1.7790     2.2000     0.1130 H     1 <1>   0.0800 
 33 H       -1.9050     1.2970     1.5900 H     1 <1>   0.0800 
 34 H        0.7080    -1.8060     1.0830 H     1 <1>   0.0800 
 35 H        1.6830    -1.3110    -0.2710 H     1 <1>   0.0800 
 36 H       -3.0020    -4.0550    -2.6070 H     1 <1>   0.0800 
 37 H       -1.6870    -3.0490    -3.1030 H     1 <1>   0.0800 
 38 H        1.3680    -5.2690    -1.8870 H     1 <1>   0.0800 
 39 H        1.2620    -5.8320    -0.2740 H     1 <1>   0.0800 
 40 H       -0.5660    -4.9600    -2.6860 H     1 <1>   0.0800 
 41 H       -1.6490    -5.5280    -1.4800 H     1 <1>   0.0800 
 42 H       -1.0680    -5.6420     0.6540 H     1 <1>   0.0800 
 43 H       -1.6190    -4.0130     0.9230 H     1 <1>   0.0800 
 44 H        1.7170    -3.7730     1.2720 H     1 <1>   0.4500 
 45 H        2.7880    -3.5370    -1.4220 H     1 <1>   0.0800 
 46 H        3.3090    -4.7720    -0.2990 H     1 <1>   0.0800 
 47 H       -0.3190    -4.8270     2.5880 H     1 <1>   0.4000 
 48 H        4.1570    -3.3960     1.3320 H     1 <1>   0.0800 
 49 H        3.8570    -1.8690     0.5330 H     1 <1>   0.0800 
 50 H       -3.9830    -0.0110     2.8200 H     1 <1>   0.0800 
 51 H       -5.1380     0.8650     3.7940 H     1 <1>   0.0800 
 52 H       -3.4720     1.3900     3.7440 H     1 <1>   0.0800 
 53 H       -3.1180     3.2390    -1.5350 H     1 <1>   0.0800 
 54 H       -4.0280     4.6630    -1.1070 H     1 <1>   0.0800 
 55 H       -4.8060     3.3430    -1.9540 H     1 <1>   0.0800 
 56 H        2.6120    -2.7300     3.1720 H     1 <1>   0.0800 
 57 H        2.4280    -1.1510     2.4180 H     1 <1>   0.0800 
 58 H        3.9780    -1.6630     3.0090 H     1 <1>   0.0800 
 59 H       -6.3460     5.0730     0.2220 H     1 <1>   0.0800 
 60 H       -7.4950     4.0570     1.0750 H     1 <1>   0.0800 
 61 H       -7.1050     3.7150    -0.6020 H     1 <1>   0.0800 
@<TRIPOS>BOND
  1   1   2  2   
  2   2   3  am  
  3   2   4  1   
  4   3   5  1   
  5   3   6  1   
  6   4   7  1   
  7   4  27  1   
  8   4  28  1   
  9   5   8  1   
 10   5   9  1   
 11   5  29  1   
 12   6  10  1   
 13   6  30  1   
 14   6  31  1   
 15   7  11  1   
 16   7  32  1   
 17   7  33  1   
 18   8  12  1   
 19   8  13  1   
 20   8  14  1   
 21   9  15  1   
 22   9  34  1   
 23   9  35  1   
 24  10  13  1   
 25  10  36  1   
 26  10  37  1   
 27  11  16  1   
 28  11  17  2   
 29  12  18  1   
 30  12  38  1   
 31  12  39  1   
 32  13  40  1   
 33  13  41  1   
 34  14  19  1   
 35  14  42  1   
 36  14  43  1   
 37  15  18  1   
 38  15  20  1   
 39  15  44  1   
 40  16  21  2   
 41  16  22  1   
 42  17  23  1   
 43  17  24  1   
 44  18  45  1   
 45  18  46  1   
 46  19  47  1   
 47  20  25  1   
 48  20  48  1   
 49  20  49  1   
 50  21  23  1   
 51  22  50  1   
 52  22  51  1   
 53  22  52  1   
 54  23  26  1   
 55  24  53  1   
 56  24  54  1   
 57  24  55  1   
 58  25  56  1   
 59  25  57  1   
 60  25  58  1   
 61  26  59  1   
 62  26  60  1   
 63  26  61  1   
@<TRIPOS>SUBSTRUCTURE
  1 ****   2 GROUP 4 **** **** 0

# MOE 2024.06 (io_trps.svl 2023.06)
