@<TRIPOS>MOLECULE
NONAME
49 52 1 0 0 
SMALL
USER_CHARGES


@<TRIPOS>ATOM
  1 F       -2.9230    -0.5320     0.2900 F     1 <1>  -0.1900 
  2 C       -2.8040     0.4190    -0.5990 C.ar  1 <1>   0.1900 
  3 C       -2.9360     0.0920    -1.9480 C.ar  1 <1>   0.0860 
  4 C       -2.5580     1.7080    -0.1470 C.ar  1 <1>  -0.1440 
  5 C       -3.2110    -1.2530    -2.3970 C.2   1 <1>   0.5440 
  6 C       -2.7870     1.1350    -2.8610 C.ar  1 <1>  -0.1500 
  7 C       -2.4290     2.7170    -1.0880 C.ar  1 <1>  -0.1500 
  8 C       -2.4270     2.0170     1.3380 C.3   1 <1>  -0.0960 
  9 O       -2.3640    -1.8400    -3.0440 O.2   1 <1>  -0.5700 
 10 N       -4.4150    -1.8780    -2.1490 N.am  1 <1>  -0.6600 
 11 C       -2.5400     2.4290    -2.4390 C.ar  1 <1>  -0.1500 
 12 C       -5.5890    -1.2350    -1.4840 C.3   1 <1>   0.1400 
 13 C       -4.6350    -3.3280    -2.4350 C.3   1 <1>   0.1400 
 14 C       -5.9940    -2.0200    -0.2220 C.3   1 <1>   0.1900 
 15 C       -5.0930    -4.0710    -1.1670 C.3   1 <1>   0.1100 
 16 N       -6.2870    -3.4370    -0.5590 N.3   1 <1>  -0.8100 
 17 C       -7.2120    -1.3610     0.4540 C.3   1 <1>   0.1200 
 18 C       -6.7340    -4.1580     0.6560 C.3   1 <1>   0.3330 
 19 O       -7.5860    -2.0760     1.5970 O.3   1 <1>  -0.5600 
 20 C       -7.1650    -5.5860     0.3230 C.ar  1 <1>  -0.1430 
 21 C       -7.9090    -3.4150     1.3290 C.3   1 <1>   0.1200 
 22 C       -6.7200    -6.6460     1.0990 C.ar  1 <1>  -0.1500 
 23 C       -8.0080    -5.8440    -0.7500 C.ar  1 <1>  -0.1500 
 24 C       -7.1110    -7.9420     0.8090 C.ar  1 <1>  -0.1500 
 25 C       -8.4010    -7.1380    -1.0410 C.ar  1 <1>  -0.1500 
 26 C       -7.9530    -8.1890    -0.2610 C.ar  1 <1>  -0.1500 
 27 H       -2.8650     0.9160    -3.9130 H     1 <1>   0.1500 
 28 H       -2.2360     3.7300    -0.7770 H     1 <1>   0.1500 
 29 H       -2.2430     3.0630     1.5020 H     1 <1>   0.0800 
 30 H       -1.6100     1.4570     1.7570 H     1 <1>   0.0800 
 31 H       -3.3320     1.7440     1.8520 H     1 <1>   0.0800 
 32 H       -2.4320     3.2180    -3.1640 H     1 <1>   0.1500 
 33 H       -5.3710    -0.2170    -1.2190 H     1 <1>   0.0800 
 34 H       -6.4160    -1.2260    -2.1720 H     1 <1>   0.0800 
 35 H       -5.3890    -3.4280    -3.1950 H     1 <1>   0.0800 
 36 H       -3.7330    -3.7850    -2.8020 H     1 <1>   0.0800 
 37 H       -5.1720    -1.9790     0.4720 H     1 <1>   0.0800 
 38 H       -4.2820    -4.0840    -0.4590 H     1 <1>   0.0800 
 39 H       -5.3170    -5.0880    -1.4360 H     1 <1>   0.0800 
 40 H       -8.0500    -1.3290    -0.2210 H     1 <1>   0.0800 
 41 H       -6.9720    -0.3600     0.7620 H     1 <1>   0.0800 
 42 H       -5.9200    -4.1930     1.3600 H     1 <1>   0.0800 
 43 H       -8.1530    -3.8880     2.2630 H     1 <1>   0.0800 
 44 H       -8.7770    -3.4390     0.6950 H     1 <1>   0.0800 
 45 H       -6.0650    -6.4690     1.9350 H     1 <1>   0.1500 
 46 H       -8.3550    -5.0290    -1.3630 H     1 <1>   0.1500 
 47 H       -6.7620    -8.7580     1.4170 H     1 <1>   0.1500 
 48 H       -9.0550    -7.3270    -1.8750 H     1 <1>   0.1500 
 49 H       -8.2580    -9.1960    -0.4860 H     1 <1>   0.1500 
@<TRIPOS>BOND
  1   1   2  1   
  2   2   3  ar  
  3   2   4  ar  
  4   3   5  1   
  5   3   6  ar  
  6   4   7  ar  
  7   4   8  1   
  8   5   9  2   
  9   5  10  am  
 10   6  11  ar  
 11   6  27  1   
 12   7  11  ar  
 13   7  28  1   
 14   8  29  1   
 15   8  30  1   
 16   8  31  1   
 17  10  12  1   
 18  10  13  1   
 19  11  32  1   
 20  12  14  1   
 21  12  33  1   
 22  12  34  1   
 23  13  15  1   
 24  13  35  1   
 25  13  36  1   
 26  14  16  1   
 27  14  17  1   
 28  14  37  1   
 29  15  16  1   
 30  15  38  1   
 31  15  39  1   
 32  16  18  1   
 33  17  19  1   
 34  17  40  1   
 35  17  41  1   
 36  18  20  1   
 37  18  21  1   
 38  18  42  1   
 39  19  21  1   
 40  20  22  ar  
 41  20  23  ar  
 42  21  43  1   
 43  21  44  1   
 44  22  24  ar  
 45  22  45  1   
 46  23  25  ar  
 47  23  46  1   
 48  24  26  ar  
 49  24  47  1   
 50  25  26  ar  
 51  25  48  1   
 52  26  49  1   
@<TRIPOS>SUBSTRUCTURE
  1 ****  14 GROUP 4 **** **** 0

# MOE 2024.06 (io_trps.svl 2023.06)
