@<TRIPOS>MOLECULE
NONAME
51 52 1 0 0 
SMALL
USER_CHARGES


@<TRIPOS>ATOM
  1 O       -0.8830    -0.5770    -0.8320 O.2   1 <1>  -0.5700 
  2 C       -1.4940     0.2640    -0.2110 C.2   1 <1>   0.5690 
  3 N       -2.3920    -0.1360     0.7650 N.am  1 <1>  -0.6600 
  4 C       -1.1640     1.7280    -0.6360 C.3   1 <1>   0.4840 
  5 C       -2.6930    -1.6040     0.8630 C.3   1 <1>   0.3200 
  6 C       -3.3120     0.6720     1.6430 C.3   1 <1>   0.1400 
  7 N       -1.2940     2.7970     0.4270 N.4   1 <1>  -0.9590 
  8 C       -1.9400     2.0830    -1.9160 C.3   1 <1>  -0.2400 
  9 C       -3.8010    -1.9410    -0.1160 C.2   1 <1>   0.0060 
 10 C       -4.4760     1.3350     0.8960 C.3   1 <1>   0.1200 
 11 C       -1.0950     4.1940    -0.0630 C.3   1 <1>   0.4230 
 12 C       -0.4300     2.4550     1.6060 C.3   1 <1>   0.2630 
 13 N       -5.0620    -1.9680     0.1810 N.2   1 <1>  -0.5650 
 14 N       -3.5410    -2.2240    -1.4100 N.pl3 1 <1>   0.0330 
 15 O       -4.1120     2.6160     0.4920 O.3   1 <1>  -0.6800 
 16 C        0.3700     4.5000    -0.4070 C.3   1 <1>  -0.1600 
 17 C       -1.6660     5.2130     0.9420 C.3   1 <1>  -0.1600 
 18 C       -5.6560    -2.2980    -0.9820 C.2   1 <1>   0.0770 
 19 C       -4.7440    -2.4540    -1.9660 C.2   1 <1>  -0.3020 
 20 C        0.4950     5.8750    -1.0920 C.3   1 <1>  -0.1600 
 21 C       -1.0470     6.6170     0.7950 C.3   1 <1>  -0.1600 
 22 C       -0.5810     6.8820    -0.6420 C.3   1 <1>  -0.1600 
 23 H       -0.1260     1.6950    -0.9210 H     1 <1>   0.0800 
 24 H       -3.0050    -1.8640     1.8590 H     1 <1>   0.0800 
 25 H       -1.8190    -2.1940     0.6440 H     1 <1>   0.0800 
 26 H       -2.7700     1.4030     2.2100 H     1 <1>   0.0800 
 27 H       -3.7570     0.0120     2.3690 H     1 <1>   0.0800 
 28 H       -2.2980     2.7510     0.6980 H     1 <1>   0.4500 
 29 H       -2.9850     2.2260    -1.7240 H     1 <1>   0.0800 
 30 H       -1.8510     1.2700    -2.6140 H     1 <1>   0.0800 
 31 H       -1.5320     2.9490    -2.4030 H     1 <1>   0.0800 
 32 H       -5.3200     1.4320     1.5580 H     1 <1>   0.0800 
 33 H       -4.7730     0.7560     0.0360 H     1 <1>   0.0800 
 34 H       -1.6620     4.3280    -0.9690 H     1 <1>   0.0800 
 35 H        0.6110     2.4890     1.3300 H     1 <1>   0.0800 
 36 H       -0.6540     1.4640     1.9650 H     1 <1>   0.0800 
 37 H       -0.5940     3.1520     2.4120 H     1 <1>   0.0800 
 38 H       -2.6170    -2.2400    -1.8570 H     1 <1>   0.2700 
 39 H       -4.9020     3.0650     0.1140 H     1 <1>   0.4000 
 40 H        0.7810     3.7520    -1.0610 H     1 <1>   0.0800 
 41 H        0.9550     4.5250     0.4950 H     1 <1>   0.0800 
 42 H       -1.5270     4.8980     1.9590 H     1 <1>   0.0800 
 43 H       -2.7250     5.2860     0.7650 H     1 <1>   0.0800 
 44 H       -6.7270    -2.4090    -1.0520 H     1 <1>   0.1500 
 45 H       -4.8820    -2.7140    -3.0000 H     1 <1>   0.1500 
 46 H        0.4290     5.7600    -2.1610 H     1 <1>   0.0800 
 47 H        1.4710     6.2780    -0.8780 H     1 <1>   0.0800 
 48 H       -0.1980     6.7080     1.4520 H     1 <1>   0.0800 
 49 H       -1.7630     7.3640     1.0930 H     1 <1>   0.0800 
 50 H       -1.4310     6.8230    -1.3020 H     1 <1>   0.0800 
 51 H       -0.1890     7.8830    -0.7200 H     1 <1>   0.0800 
@<TRIPOS>BOND
  1   1   2  2   
  2   2   3  am  
  3   2   4  1   
  4   3   5  1   
  5   3   6  1   
  6   4   7  1   
  7   4   8  1   
  8   4  23  1   
  9   5   9  1   
 10   5  24  1   
 11   5  25  1   
 12   6  10  1   
 13   6  26  1   
 14   6  27  1   
 15   7  11  1   
 16   7  12  1   
 17   7  28  1   
 18   8  29  1   
 19   8  30  1   
 20   8  31  1   
 21   9  13  2   
 22   9  14  1   
 23  10  15  1   
 24  10  32  1   
 25  10  33  1   
 26  11  16  1   
 27  11  17  1   
 28  11  34  1   
 29  12  35  1   
 30  12  36  1   
 31  12  37  1   
 32  13  18  1   
 33  14  19  1   
 34  14  38  1   
 35  15  39  1   
 36  16  20  1   
 37  16  40  1   
 38  16  41  1   
 39  17  21  1   
 40  17  42  1   
 41  17  43  1   
 42  18  19  2   
 43  18  44  1   
 44  19  45  1   
 45  20  22  1   
 46  20  46  1   
 47  20  47  1   
 48  21  22  1   
 49  21  48  1   
 50  21  49  1   
 51  22  50  1   
 52  22  51  1   
@<TRIPOS>SUBSTRUCTURE
  1 ****   4 GROUP 4 **** **** 0

# MOE 2024.06 (io_trps.svl 2023.06)
