@<TRIPOS>MOLECULE
NONAME
56 58 1 0 0 
SMALL
USER_CHARGES


@<TRIPOS>ATOM
  1 O        1.2770     1.3100    -1.3640 O.co2 1 <1>  -0.9000 
  2 C        0.5460     1.3610    -0.3670 C.2   1 <1>   0.9060 
  3 O        0.3220     0.3430     0.3070 O.co2 1 <1>  -0.9000 
  4 C       -0.0850     2.6890     0.0770 C.3   1 <1>  -0.1060 
  5 C       -1.5890     2.4290     0.3330 C.3   1 <1>   0.2000 
  6 C        0.0170     3.7250    -1.0790 C.3   1 <1>   0.1100 
  7 C        0.6190     3.1530     1.3930 C.3   1 <1>  -0.0170 
  8 O       -1.7510     1.5250     1.3670 O.3   1 <1>  -0.6800 
  9 C       -2.3990     3.6930     0.6750 C.3   1 <1>  -0.1600 
 10 N       -1.1380     4.6530    -1.1740 N.3   1 <1>  -0.8100 
 11 C        1.9580     3.8850     1.2770 C.ar  1 <1>  -0.1430 
 12 C       -1.7910     4.9730     0.0910 C.3   1 <1>   0.1100 
 13 C       -0.9280     5.8080    -2.0880 C.3   1 <1>   0.1710 
 14 C        3.0300     3.3330     0.5920 C.ar  1 <1>  -0.1500 
 15 C        2.1290     5.1100     1.9080 C.ar  1 <1>  -0.1500 
 16 C       -0.2110     7.0450    -1.5270 C.2   1 <1>   0.5690 
 17 C        4.2440     3.9930     0.5280 C.ar  1 <1>  -0.1500 
 18 C        3.3470     5.7680     1.8570 C.ar  1 <1>  -0.1500 
 19 O       -0.5540     8.1340    -1.9240 O.2   1 <1>  -0.5700 
 20 N        0.7990     6.9110    -0.6250 N.am  1 <1>  -0.7300 
 21 C        4.4060     5.2100     1.1640 C.ar  1 <1>  -0.1500 
 22 C        1.5870     8.0330    -0.0700 C.3   1 <1>   0.1400 
 23 C        2.9040     8.1670    -0.8320 C.3   1 <1>  -0.0170 
 24 C        3.7140     9.3320    -0.2850 C.ar  1 <1>  -0.1430 
 25 C        3.3600    10.6330    -0.6110 C.ar  1 <1>  -0.1500 
 26 C        4.8050     9.1130     0.5410 C.ar  1 <1>  -0.1500 
 27 C        4.0850    11.7010    -0.1130 C.ar  1 <1>  -0.1500 
 28 C        5.5320    10.1800     1.0400 C.ar  1 <1>  -0.1500 
 29 C        5.1720    11.4760     0.7130 C.ar  1 <1>  -0.1500 
 30 H       -2.0050     1.9780    -0.5530 H     1 <1>   0.0800 
 31 H        0.0470     3.1970    -2.0180 H     1 <1>   0.0800 
 32 H        0.9420     4.2650    -1.0130 H     1 <1>   0.0800 
 33 H       -0.0500     3.7760     1.9520 H     1 <1>   0.0800 
 34 H        0.7810     2.2880     2.0130 H     1 <1>   0.0800 
 35 H       -1.0740     0.8050     1.1890 H     1 <1>   0.4000 
 36 H       -3.3910     3.5710     0.2800 H     1 <1>   0.0800 
 37 H       -2.4820     3.8100     1.7400 H     1 <1>   0.0800 
 38 H       -1.0700     5.3930     0.7710 H     1 <1>   0.0800 
 39 H       -2.5700     5.6990    -0.0660 H     1 <1>   0.0800 
 40 H       -0.3870     5.4730    -2.9540 H     1 <1>   0.0800 
 41 H       -1.8940     6.1320    -2.4310 H     1 <1>   0.0800 
 42 H        2.9350     2.3770     0.1060 H     1 <1>   0.1500 
 43 H        1.3150     5.5530     2.4540 H     1 <1>   0.1500 
 44 H        5.0590     3.5480    -0.0140 H     1 <1>   0.1500 
 45 H        3.4690     6.7110     2.3600 H     1 <1>   0.1500 
 46 H        1.0520     5.9670    -0.3070 H     1 <1>   0.3700 
 47 H        5.3550     5.7130     1.1210 H     1 <1>   0.1500 
 48 H        1.0260     8.9480    -0.1600 H     1 <1>   0.0800 
 49 H        1.7750     7.8600     0.9740 H     1 <1>   0.0800 
 50 H        3.4650     7.2530    -0.7490 H     1 <1>   0.0800 
 51 H        2.6950     8.3400    -1.8730 H     1 <1>   0.0800 
 52 H        2.5160    10.8170    -1.2530 H     1 <1>   0.1500 
 53 H        5.0960     8.1110     0.7990 H     1 <1>   0.1500 
 54 H        3.8040    12.7080    -0.3700 H     1 <1>   0.1500 
 55 H        6.3780    10.0030     1.6810 H     1 <1>   0.1500 
 56 H        5.7360    12.3060     1.1000 H     1 <1>   0.1500 
@<TRIPOS>BOND
  1   1   2  ar  
  2   2   3  ar  
  3   2   4  1   
  4   4   5  1   
  5   4   6  1   
  6   4   7  1   
  7   5   8  1   
  8   5   9  1   
  9   5  30  1   
 10   6  10  1   
 11   6  31  1   
 12   6  32  1   
 13   7  11  1   
 14   7  33  1   
 15   7  34  1   
 16   8  35  1   
 17   9  12  1   
 18   9  36  1   
 19   9  37  1   
 20  10  12  1   
 21  10  13  1   
 22  11  14  ar  
 23  11  15  ar  
 24  12  38  1   
 25  12  39  1   
 26  13  16  1   
 27  13  40  1   
 28  13  41  1   
 29  14  17  ar  
 30  14  42  1   
 31  15  18  ar  
 32  15  43  1   
 33  16  19  2   
 34  16  20  am  
 35  17  21  ar  
 36  17  44  1   
 37  18  21  ar  
 38  18  45  1   
 39  20  22  1   
 40  20  46  1   
 41  21  47  1   
 42  22  23  1   
 43  22  48  1   
 44  22  49  1   
 45  23  24  1   
 46  23  50  1   
 47  23  51  1   
 48  24  25  ar  
 49  24  26  ar  
 50  25  27  ar  
 51  25  52  1   
 52  26  28  ar  
 53  26  53  1   
 54  27  29  ar  
 55  27  54  1   
 56  28  29  ar  
 57  28  55  1   
 58  29  56  1   
@<TRIPOS>SUBSTRUCTURE
  1 ****  20 GROUP 4 **** **** 0

# MOE 2024.06 (io_trps.svl 2023.06)
