@<TRIPOS>MOLECULE
NONAME
43 45 1 0 0 
SMALL
USER_CHARGES


@<TRIPOS>ATOM
  1 S        0.0520    -0.0200     1.1300 S.o2  1 <1>   1.3330 
  2 O        0.9550     0.4000     2.1780 O.2   1 <1>  -0.6500 
  3 O       -0.9100    -1.0660     1.3930 O.2   1 <1>  -0.6500 
  4 N        0.9850    -0.5030    -0.2060 N.am  1 <1>  -0.8490 
  5 C       -0.8110     1.4300     0.5240 C.3   1 <1>  -0.0550 
  6 C        2.2200    -1.1840     0.1970 C.3   1 <1>   0.1160 
  7 C        0.2450    -1.3360    -1.1590 C.3   1 <1>   0.1160 
  8 C        0.1130     2.5450    -0.0150 C.3   1 <1>  -0.0800 
  9 C       -0.6300     3.7050    -0.6830 C.3   1 <1>   0.2000 
 10 C        0.9880     3.2180     1.0520 C.3   1 <1>   0.1400 
 11 O       -1.7120     4.0660     0.1060 O.3   1 <1>  -0.6800 
 12 C        0.3780     4.8490    -0.6520 C.3   1 <1>   0.1400 
 13 N        1.1440     4.6270     0.6000 N.am  1 <1>  -0.6600 
 14 C        2.1390     5.4510     1.0750 C.2   1 <1>   0.5440 
 15 O        2.9040     5.0200     1.9140 O.2   1 <1>  -0.5700 
 16 C        2.2990     6.8050     0.5870 C.ar  1 <1>   0.0860 
 17 C        3.4950     7.2230     0.0280 C.ar  1 <1>  -0.1500 
 18 C        1.2390     7.7360     0.6760 C.ar  1 <1>  -0.1500 
 19 C        3.6280     8.5240    -0.4520 C.ar  1 <1>   0.2270 
 20 C        1.3620     9.0230     0.2080 C.ar  1 <1>  -0.1500 
 21 N        4.6780     9.1470    -1.0440 N.2   1 <1>  -0.2270 
 22 C        2.5800     9.4020    -0.3640 C.ar  1 <1>  -0.1520 
 23 N        4.3330    10.3480    -1.3190 N.2   1 <1>  -0.4180 
 24 N        3.0670    10.5310    -0.9150 N.pl3 1 <1>   0.3000 
 25 H       -1.4730     1.1300    -0.2640 H     1 <1>   0.0800 
 26 H       -1.4200     1.8220     1.3150 H     1 <1>   0.0800 
 27 H        2.7910    -1.4680    -0.6700 H     1 <1>   0.0800 
 28 H        1.9900    -2.0640     0.7750 H     1 <1>   0.0800 
 29 H        2.8260    -0.5260     0.7980 H     1 <1>   0.0800 
 30 H        0.8520    -1.5360    -2.0260 H     1 <1>   0.0800 
 31 H       -0.6490    -0.8300    -1.4800 H     1 <1>   0.0800 
 32 H       -0.0340    -2.2730    -0.7040 H     1 <1>   0.0800 
 33 H        0.7750     2.1210    -0.7500 H     1 <1>   0.0800 
 34 H       -0.9860     3.4770    -1.6730 H     1 <1>   0.0800 
 35 H        1.9480     2.7330     1.1380 H     1 <1>   0.0800 
 36 H        0.5070     3.2110     2.0160 H     1 <1>   0.0800 
 37 H       -1.3750     4.4100     0.9580 H     1 <1>   0.4000 
 38 H       -0.1130     5.8060    -0.6690 H     1 <1>   0.0800 
 39 H        1.0490     4.7710    -1.4900 H     1 <1>   0.0800 
 40 H        4.3330     6.5540    -0.0410 H     1 <1>   0.1500 
 41 H        0.3190     7.4130     1.1310 H     1 <1>   0.1500 
 42 H        0.5490     9.7260     0.2800 H     1 <1>   0.1500 
 43 H        2.5730    11.4220    -1.0230 H     1 <1>   0.2700 
@<TRIPOS>BOND
  1   1   2  2   
  2   1   3  2   
  3   1   4  am  
  4   1   5  1   
  5   4   6  1   
  6   4   7  1   
  7   5   8  1   
  8   5  25  1   
  9   5  26  1   
 10   6  27  1   
 11   6  28  1   
 12   6  29  1   
 13   7  30  1   
 14   7  31  1   
 15   7  32  1   
 16   8   9  1   
 17   8  10  1   
 18   8  33  1   
 19   9  11  1   
 20   9  12  1   
 21   9  34  1   
 22  10  13  1   
 23  10  35  1   
 24  10  36  1   
 25  11  37  1   
 26  12  13  1   
 27  12  38  1   
 28  12  39  1   
 29  13  14  am  
 30  14  15  2   
 31  14  16  1   
 32  16  17  ar  
 33  16  18  ar  
 34  17  19  ar  
 35  17  40  1   
 36  18  20  ar  
 37  18  41  1   
 38  19  21  1   
 39  19  22  ar  
 40  20  22  ar  
 41  20  42  1   
 42  21  23  2   
 43  22  24  1   
 44  23  24  1   
 45  24  43  1   
@<TRIPOS>SUBSTRUCTURE
  1 ****  13 GROUP 4 **** **** 0

# MOE 2024.06 (io_trps.svl 2023.06)
