@<TRIPOS>MOLECULE
NONAME
36 37 1 0 0 
SMALL
USER_CHARGES


@<TRIPOS>ATOM
  1 O        0.2780    -0.1290     0.9300 O.2   1 <1>  -0.5700 
  2 C        1.2400    -0.6940     0.4490 C.2   1 <1>   0.5440 
  3 N        2.3490     0.0210     0.0770 N.am  1 <1>  -0.4930 
  4 C        1.2150    -2.1260     0.2900 C.ar  1 <1>   0.0860 
  5 C        2.5590     1.4240     0.0770 C.2   1 <1>   0.0630 
  6 C        1.8510    -2.7830    -0.7470 C.ar  1 <1>   0.1600 
  7 C        0.5420    -2.9450     1.1760 C.ar  1 <1>   0.1600 
  8 C        3.7100     2.0580    -0.2430 C.2   1 <1>  -0.3320 
  9 C        1.6650     2.4490     0.3880 C.2   1 <1>   0.1390 
 10 N        1.8560    -4.0900    -0.8790 N.ar  1 <1>  -0.6200 
 11 N        0.5220    -4.2570     1.0730 N.ar  1 <1>  -0.6200 
 12 N        3.4670     3.3890    -0.1130 N.pl3 1 <1>   0.3140 
 13 C        5.0500     1.4760    -0.6720 C.3   1 <1>  -0.0600 
 14 N        2.2020     3.6260     0.2730 N.2   1 <1>  -0.7070 
 15 C        1.1850    -4.7620     0.0440 C.ar  1 <1>   0.4770 
 16 C        4.4050     4.5100    -0.3480 C.3   1 <1>   0.0960 
 17 C        1.1710    -6.2760    -0.0940 C.3   1 <1>  -0.0170 
 18 C        5.2090     4.8350     0.9170 C.3   1 <1>  -0.2400 
 19 C       -0.0020    -6.7680    -0.9550 C.3   1 <1>  -0.2400 
 20 H        3.1790    -0.5090    -0.1760 H     1 <1>   0.3700 
 21 H        2.3700    -2.2120    -1.4980 H     1 <1>   0.1500 
 22 H        0.0060    -2.4960     1.9970 H     1 <1>   0.1500 
 23 H        0.6430     2.2920     0.6890 H     1 <1>   0.1500 
 24 H        5.0140     0.4030    -0.6950 H     1 <1>   0.0800 
 25 H        5.8200     1.7730     0.0170 H     1 <1>   0.0800 
 26 H        5.3080     1.8270    -1.6560 H     1 <1>   0.0800 
 27 H        3.8280     5.3680    -0.6420 H     1 <1>   0.0800 
 28 H        5.0620     4.2500    -1.1560 H     1 <1>   0.0800 
 29 H        1.1050    -6.7160     0.8850 H     1 <1>   0.0800 
 30 H        2.0980    -6.5960    -0.5340 H     1 <1>   0.0800 
 31 H        4.5400     5.1080     1.7150 H     1 <1>   0.0800 
 32 H        5.8690     5.6620     0.7280 H     1 <1>   0.0800 
 33 H        5.7960     3.9880     1.2220 H     1 <1>   0.0800 
 34 H       -0.9350    -6.4670    -0.5130 H     1 <1>   0.0800 
 35 H        0.0170    -7.8400    -1.0320 H     1 <1>   0.0800 
 36 H        0.0640    -6.3470    -1.9430 H     1 <1>   0.0800 
@<TRIPOS>BOND
  1   1   2  2   
  2   2   3  am  
  3   2   4  1   
  4   3   5  1   
  5   3  20  1   
  6   4   6  ar  
  7   4   7  ar  
  8   5   8  2   
  9   5   9  1   
 10   6  10  ar  
 11   6  21  1   
 12   7  11  ar  
 13   7  22  1   
 14   8  12  1   
 15   8  13  1   
 16   9  14  2   
 17   9  23  1   
 18  10  15  ar  
 19  11  15  ar  
 20  12  14  1   
 21  12  16  1   
 22  13  24  1   
 23  13  25  1   
 24  13  26  1   
 25  15  17  1   
 26  16  18  1   
 27  16  27  1   
 28  16  28  1   
 29  17  19  1   
 30  17  29  1   
 31  17  30  1   
 32  18  31  1   
 33  18  32  1   
 34  18  33  1   
 35  19  34  1   
 36  19  35  1   
 37  19  36  1   
@<TRIPOS>SUBSTRUCTURE
  1 ****   3 GROUP 4 **** **** 0

# MOE 2024.06 (io_trps.svl 2023.06)
