@<TRIPOS>MOLECULE
NONAME
55 58 1 0 0 
SMALL
USER_CHARGES


@<TRIPOS>ATOM
  1 O       -0.0740     0.1730     0.4870 O.2   1 <1>  -0.5700 
  2 C       -0.7470     1.1520     0.7140 C.2   1 <1>   0.5690 
  3 N       -2.0300     1.2460     0.2190 N.am  1 <1>  -0.6600 
  4 C       -0.1470     2.2490     1.5990 C.3   1 <1>   0.0820 
  5 C       -3.0680     2.2510     0.6190 C.3   1 <1>   0.1400 
  6 C       -2.5500     0.2360    -0.7500 C.3   1 <1>   0.1400 
  7 C        1.3460     2.5070     1.3980 C.2   1 <1>  -0.1810 
  8 C       -3.5990     3.0140    -0.6090 C.3   1 <1>   0.1440 
  9 C       -3.0990     0.9380    -1.9990 C.3   1 <1>  -0.1600 
 10 C        2.3950     1.6870     1.8160 C.2   1 <1>   0.1080 
 11 C        1.9540     3.5620     0.8040 C.2   1 <1>  -0.3320 
 12 C       -4.6560     3.9920    -0.1360 C.ar  1 <1>   0.1670 
 13 C       -4.1490     2.0060    -1.6420 C.3   1 <1>  -0.1600 
 14 C       -2.5250     3.9500    -1.2290 C.3   1 <1>  -0.1600 
 15 N        3.5550     2.1820     1.5220 N.2   1 <1>  -0.7070 
 16 C        2.2720     0.3580     2.5290 C.3   1 <1>  -0.0590 
 17 N        3.2820     3.3340     0.8920 N.pl3 1 <1>   0.3000 
 18 C        1.3900     4.8040     0.1360 C.3   1 <1>  -0.0600 
 19 N       -5.8460     3.6640     0.3000 N.ar  1 <1>  -0.6200 
 20 C       -4.2130     5.2790    -0.1900 C.ar  1 <1>  -0.1430 
 21 C       -2.7970     5.3700    -0.6990 C.3   1 <1>  -0.0170 
 22 C       -6.6160     4.6870     0.6790 C.ar  1 <1>   0.7200 
 23 C       -5.0740     6.2660     0.2200 C.ar  1 <1>   0.1600 
 24 N       -6.2780     5.9800     0.6560 N.ar  1 <1>  -0.6200 
 25 N       -7.8790     4.3760     1.1440 N.pl3 1 <1>  -0.8380 
 26 C       -8.5110     3.0510     0.8970 C.3   1 <1>   0.1290 
 27 C       -8.7240     5.3710     1.8600 C.3   1 <1>   0.1290 
 28 H       -0.3190     1.9810     2.6230 H     1 <1>   0.0800 
 29 H       -0.6510     3.1740     1.4220 H     1 <1>   0.0800 
 30 H       -2.7010     2.9460     1.3490 H     1 <1>   0.0800 
 31 H       -3.8900     1.7260     1.0760 H     1 <1>   0.0800 
 32 H       -3.3320    -0.3320    -0.2750 H     1 <1>   0.0800 
 33 H       -1.7750    -0.4510    -1.0430 H     1 <1>   0.0800 
 34 H       -3.5420     0.2040    -2.6480 H     1 <1>   0.0800 
 35 H       -2.2790     1.3870    -2.5310 H     1 <1>   0.0800 
 36 H       -4.4750     2.5210    -2.5280 H     1 <1>   0.0800 
 37 H       -5.0110     1.5160    -1.2220 H     1 <1>   0.0800 
 38 H       -2.6440     3.9700    -2.2980 H     1 <1>   0.0800 
 39 H       -1.5230     3.6260    -1.0150 H     1 <1>   0.0800 
 40 H        1.3560     0.3020     3.0830 H     1 <1>   0.0800 
 41 H        3.0980     0.2320     3.2040 H     1 <1>   0.0800 
 42 H        2.2920    -0.4340     1.8030 H     1 <1>   0.0800 
 43 H        4.0260     3.9420     0.5320 H     1 <1>   0.2700 
 44 H        0.3180     4.8130     0.1800 H     1 <1>   0.0800 
 45 H        1.6870     4.8310    -0.8980 H     1 <1>   0.0800 
 46 H        1.7590     5.6860     0.6280 H     1 <1>   0.0800 
 47 H       -2.7030     6.1070    -1.4770 H     1 <1>   0.0800 
 48 H       -2.1360     5.6080     0.1150 H     1 <1>   0.0800 
 49 H       -4.7740     7.2990     0.1920 H     1 <1>   0.1500 
 50 H       -8.1090     2.5990     0.0070 H     1 <1>   0.0800 
 51 H       -9.5730     3.1660     0.7670 H     1 <1>   0.0800 
 52 H       -8.3230     2.4020     1.7340 H     1 <1>   0.0800 
 53 H       -8.1080     6.0740     2.3960 H     1 <1>   0.0800 
 54 H       -9.3620     4.8740     2.5680 H     1 <1>   0.0800 
 55 H       -9.3280     5.9080     1.1490 H     1 <1>   0.0800 
@<TRIPOS>BOND
  1   1   2  2   
  2   2   3  am  
  3   2   4  1   
  4   3   5  1   
  5   3   6  1   
  6   4   7  1   
  7   4  28  1   
  8   4  29  1   
  9   5   8  1   
 10   5  30  1   
 11   5  31  1   
 12   6   9  1   
 13   6  32  1   
 14   6  33  1   
 15   7  10  1   
 16   7  11  2   
 17   8  12  1   
 18   8  13  1   
 19   8  14  1   
 20   9  13  1   
 21   9  34  1   
 22   9  35  1   
 23  10  15  2   
 24  10  16  1   
 25  11  17  1   
 26  11  18  1   
 27  12  19  ar  
 28  12  20  ar  
 29  13  36  1   
 30  13  37  1   
 31  14  21  1   
 32  14  38  1   
 33  14  39  1   
 34  15  17  1   
 35  16  40  1   
 36  16  41  1   
 37  16  42  1   
 38  17  43  1   
 39  18  44  1   
 40  18  45  1   
 41  18  46  1   
 42  19  22  ar  
 43  20  21  1   
 44  20  23  ar  
 45  21  47  1   
 46  21  48  1   
 47  22  24  ar  
 48  22  25  1   
 49  23  24  ar  
 50  23  49  1   
 51  25  26  1   
 52  25  27  1   
 53  26  50  1   
 54  26  51  1   
 55  26  52  1   
 56  27  53  1   
 57  27  54  1   
 58  27  55  1   
@<TRIPOS>SUBSTRUCTURE
  1 ****   5 GROUP 4 **** **** 0

# MOE 2024.06 (io_trps.svl 2023.06)
