@<TRIPOS>MOLECULE
NONAME
45 47 1 0 0 
SMALL
USER_CHARGES


@<TRIPOS>ATOM
  1 O       -0.0310     1.0890    -2.1860 O.2   1 <1>  -0.5700 
  2 C       -0.0340     1.9240    -1.3030 C.2   1 <1>   0.5440 
  3 N       -1.2040     2.5880    -1.0050 N.am  1 <1>  -0.6600 
  4 C        1.1960     2.1770    -0.5850 C.ar  1 <1>   0.0860 
  5 C       -1.2920     3.7210    -0.0310 C.3   1 <1>   0.1400 
  6 C       -2.4960     2.1000    -1.5790 C.3   1 <1>   0.1400 
  7 C        1.3880     1.7010     0.7180 C.ar  1 <1>   0.0730 
  8 C        2.2210     2.9000    -1.1930 C.ar  1 <1>  -0.1500 
  9 C       -2.5450     3.5360     0.8200 C.3   1 <1>  -0.1600 
 10 C       -3.5820     3.1740    -1.4820 C.3   1 <1>  -0.1600 
 11 C        0.3640     0.9520     1.3880 C.1   1 <1>   0.4840 
 12 C        2.5860     1.9690     1.3720 C.ar  1 <1>  -0.1500 
 13 C        3.4050     3.1610    -0.5320 C.ar  1 <1>  -0.1500 
 14 C       -3.8260     3.6570    -0.0290 C.3   1 <1>   0.2800 
 15 N       -0.4510     0.3890     1.9530 N.1   1 <1>  -0.5570 
 16 C        3.5890     2.6940     0.7560 C.ar  1 <1>  -0.1500 
 17 O       -4.1050     5.0320    -0.0780 O.3   1 <1>  -0.5600 
 18 C       -4.9920     2.9090     0.6740 C.3   1 <1>  -0.1600 
 19 C       -5.2630     5.4570    -0.7520 C.3   1 <1>   0.1200 
 20 C       -6.2490     3.7620     0.8690 C.3   1 <1>   0.2800 
 21 C       -6.4910     4.6110    -0.3770 C.3   1 <1>  -0.1600 
 22 O       -6.0050     4.6220     1.9070 O.3   1 <1>  -0.6800 
 23 C       -7.4670     2.9300     1.2590 C.3   1 <1>  -0.2400 
 24 H       -1.3500     4.6530    -0.5690 H     1 <1>   0.0800 
 25 H       -0.4280     3.7550     0.6070 H     1 <1>   0.0800 
 26 H       -2.8010     1.2180    -1.0420 H     1 <1>   0.0800 
 27 H       -2.3510     1.8290    -2.6120 H     1 <1>   0.0800 
 28 H        2.0790     3.2540    -2.2000 H     1 <1>   0.1500 
 29 H       -2.5670     4.2590     1.6150 H     1 <1>   0.0800 
 30 H       -2.4820     2.5620     1.2740 H     1 <1>   0.0800 
 31 H       -4.4890     2.7950    -1.9140 H     1 <1>   0.0800 
 32 H       -3.2540     3.9980    -2.0910 H     1 <1>   0.0800 
 33 H        2.7390     1.6060     2.3750 H     1 <1>   0.1500 
 34 H        4.1850     3.7230    -1.0200 H     1 <1>   0.1500 
 35 H        4.5120     2.8940     1.2750 H     1 <1>   0.1500 
 36 H       -4.6910     2.5300     1.6350 H     1 <1>   0.0800 
 37 H       -5.2460     2.0420     0.0930 H     1 <1>   0.0800 
 38 H       -5.0820     5.4250    -1.8130 H     1 <1>   0.0800 
 39 H       -5.4270     6.4820    -0.4690 H     1 <1>   0.0800 
 40 H       -6.7240     3.9630    -1.2010 H     1 <1>   0.0800 
 41 H       -7.3440     5.2500    -0.2330 H     1 <1>   0.0800 
 42 H       -5.2050     5.1340     1.6580 H     1 <1>   0.4000 
 43 H       -7.7160     2.2410     0.4730 H     1 <1>   0.0800 
 44 H       -8.3130     3.5690     1.4350 H     1 <1>   0.0800 
 45 H       -7.2600     2.3680     2.1530 H     1 <1>   0.0800 
@<TRIPOS>BOND
  1   1   2  2   
  2   2   3  am  
  3   2   4  1   
  4   3   5  1   
  5   3   6  1   
  6   4   7  ar  
  7   4   8  ar  
  8   5   9  1   
  9   5  24  1   
 10   5  25  1   
 11   6  10  1   
 12   6  26  1   
 13   6  27  1   
 14   7  11  1   
 15   7  12  ar  
 16   8  13  ar  
 17   8  28  1   
 18   9  14  1   
 19   9  29  1   
 20   9  30  1   
 21  10  14  1   
 22  10  31  1   
 23  10  32  1   
 24  11  15  3   
 25  12  16  ar  
 26  12  33  1   
 27  13  16  ar  
 28  13  34  1   
 29  14  17  1   
 30  14  18  1   
 31  16  35  1   
 32  17  19  1   
 33  18  20  1   
 34  18  36  1   
 35  18  37  1   
 36  19  21  1   
 37  19  38  1   
 38  19  39  1   
 39  20  21  1   
 40  20  22  1   
 41  20  23  1   
 42  21  40  1   
 43  21  41  1   
 44  22  42  1   
 45  23  43  1   
 46  23  44  1   
 47  23  45  1   
@<TRIPOS>SUBSTRUCTURE
  1 ****   5 GROUP 4 **** **** 0

# MOE 2024.06 (io_trps.svl 2023.06)
