@<TRIPOS>MOLECULE
NONAME
44 46 1 0 0 
SMALL
USER_CHARGES


@<TRIPOS>ATOM
  1 CL      -3.1930    -0.6100     3.0260 Cl    1 <1>  -0.1770 
  2 C       -2.9040    -2.1560     2.2700 C.ar  1 <1>   0.1770 
  3 C       -1.7470    -2.8500     2.5610 C.ar  1 <1>  -0.1500 
  4 C       -3.8340    -2.6700     1.3890 C.ar  1 <1>  -0.1500 
  5 C       -1.5230    -4.0750     1.9580 C.ar  1 <1>  -0.1500 
  6 C       -3.5980    -3.8950     0.7920 C.ar  1 <1>  -0.1500 
  7 C       -2.4390    -4.6320     1.0590 C.ar  1 <1>   0.0530 
  8 C       -2.1790    -5.9140     0.4380 C.2   1 <1>   0.0870 
  9 O       -1.0600    -6.5550     0.6990 O.3   1 <1>  -0.0190 
 10 C       -2.8750    -6.7040    -0.4200 C.2   1 <1>  -0.2330 
 11 N       -0.9660    -7.7050     0.0800 N.2   1 <1>  -0.4100 
 12 C       -2.0370    -7.7980    -0.6150 C.2   1 <1>   0.3720 
 13 C       -4.1860    -6.6680    -0.9750 C.2   1 <1>   1.0330 
 14 N       -2.3440    -8.8720    -1.4440 N.pl3 1 <1>  -0.8520 
 15 O       -5.1730    -6.5920    -0.2230 O.co2 1 <1>  -0.9000 
 16 O       -4.3840    -7.0340    -2.1460 O.co2 1 <1>  -0.9000 
 17 C       -3.0980    -9.9730    -0.7880 C.3   1 <1>   0.2090 
 18 C       -4.5160    -9.4930    -0.4190 C.3   1 <1>   0.3430 
 19 N       -5.4610   -10.4910     0.1570 N.4   1 <1>  -0.9590 
 20 C       -5.8400   -11.5360    -0.8310 C.3   1 <1>   0.3430 
 21 C       -6.6470    -9.6980     0.6000 C.3   1 <1>   0.3430 
 22 C       -6.8340   -12.5080    -0.1920 C.3   1 <1>  -0.1600 
 23 C       -7.6640   -10.6240     1.2690 C.3   1 <1>  -0.1600 
 24 C       -8.0740   -11.7790     0.3450 C.3   1 <1>  -0.1600 
 25 H       -1.0340    -2.4340     3.2510 H     1 <1>   0.1500 
 26 H       -4.7320    -2.1200     1.1730 H     1 <1>   0.1500 
 27 H       -0.6180    -4.6090     2.1910 H     1 <1>   0.1500 
 28 H       -4.3340    -4.2780     0.1100 H     1 <1>   0.1500 
 29 H       -2.9340    -8.4650    -2.2000 H     1 <1>   0.4000 
 30 H       -2.5680   -10.2790     0.0970 H     1 <1>   0.0800 
 31 H       -3.1500   -10.7990    -1.4730 H     1 <1>   0.0800 
 32 H       -4.9670    -9.0650    -1.3000 H     1 <1>   0.0800 
 33 H       -4.4000    -8.7010     0.3010 H     1 <1>   0.0800 
 34 H       -5.0410   -10.9220     0.9880 H     1 <1>   0.4500 
 35 H       -4.9660   -12.0750    -1.1570 H     1 <1>   0.0800 
 36 H       -6.2940   -11.0710    -1.6920 H     1 <1>   0.0800 
 37 H       -7.0990    -9.2140    -0.2520 H     1 <1>   0.0800 
 38 H       -6.3410    -8.9250     1.2890 H     1 <1>   0.0800 
 39 H       -6.3480   -13.0420     0.6060 H     1 <1>   0.0800 
 40 H       -7.1390   -13.2330    -0.9270 H     1 <1>   0.0800 
 41 H       -8.5350   -10.0510     1.5330 H     1 <1>   0.0800 
 42 H       -7.2450   -11.0120     2.1820 H     1 <1>   0.0800 
 43 H       -8.7060   -12.4700     0.8780 H     1 <1>   0.0800 
 44 H       -8.6430   -11.3860    -0.4820 H     1 <1>   0.0800 
@<TRIPOS>BOND
  1   1   2  1   
  2   2   3  ar  
  3   2   4  ar  
  4   3   5  ar  
  5   3  25  1   
  6   4   6  ar  
  7   4  26  1   
  8   5   7  ar  
  9   5  27  1   
 10   6   7  ar  
 11   6  28  1   
 12   7   8  1   
 13   8   9  1   
 14   8  10  2   
 15   9  11  1   
 16  10  12  1   
 17  10  13  1   
 18  11  12  2   
 19  12  14  1   
 20  13  15  ar  
 21  13  16  ar  
 22  14  17  1   
 23  14  29  1   
 24  17  18  1   
 25  17  30  1   
 26  17  31  1   
 27  18  19  1   
 28  18  32  1   
 29  18  33  1   
 30  19  20  1   
 31  19  21  1   
 32  19  34  1   
 33  20  22  1   
 34  20  35  1   
 35  20  36  1   
 36  21  23  1   
 37  21  37  1   
 38  21  38  1   
 39  22  24  1   
 40  22  39  1   
 41  22  40  1   
 42  23  24  1   
 43  23  41  1   
 44  23  42  1   
 45  24  43  1   
 46  24  44  1   
@<TRIPOS>SUBSTRUCTURE
  1 ****  10 GROUP 4 **** **** 0

# MOE 2024.06 (io_trps.svl 2023.06)
