@<TRIPOS>MOLECULE
NONAME
53 56 1 0 0 
SMALL
USER_CHARGES


@<TRIPOS>ATOM
  1 O       -0.7930     0.2130    -0.2890 O.2   1 <1>  -0.5700 
  2 C       -1.7580     0.8640     0.0700 C.2   1 <1>   0.7160 
  3 N       -2.8300     0.1950     0.6190 N.am  1 <1>  -0.6600 
  4 C       -1.7790     2.2990    -0.1000 C.2   1 <1>  -0.0860 
  5 C       -2.7360    -1.2380     1.0440 C.3   1 <1>   0.1400 
  6 C       -4.2430     0.6490     0.4400 C.3   1 <1>   0.1400 
  7 C       -1.2000     3.0380    -1.1400 C.2   1 <1>   0.1080 
  8 C       -2.3430     3.2660     0.6790 C.2   1 <1>  -0.3020 
  9 C       -3.6010    -2.1380     0.1430 C.3   1 <1>   0.3440 
 10 C       -5.0360    -0.3570    -0.4190 C.3   1 <1>   0.2950 
 11 N       -1.3970     4.3120    -1.0230 N.2   1 <1>  -0.7070 
 12 C       -0.4200     2.4600    -2.3010 C.3   1 <1>  -0.0590 
 13 N       -2.1000     4.4540     0.1100 N.pl3 1 <1>   0.3140 
 14 O       -4.9170    -1.6490     0.0990 O.3   1 <1>  -0.5600 
 15 C       -3.6000    -3.5740     0.6610 C.ar  1 <1>  -0.1440 
 16 C       -6.5270    -0.0090    -0.4540 C.3   1 <1>  -0.1950 
 17 C       -2.5080     5.7810     0.6100 C.3   1 <1>   0.0960 
 18 C       -4.5480    -4.0200     1.5720 C.ar  1 <1>  -0.1500 
 19 C       -2.6210    -4.4550     0.2240 C.ar  1 <1>  -0.1500 
 20 C       -7.4060    -0.4830    -1.5680 C.3   1 <1>  -0.2000 
 21 C       -7.0680     0.9760    -1.4430 C.3   1 <1>  -0.2000 
 22 C       -1.5240     6.2920     1.6720 C.3   1 <1>  -0.1600 
 23 C       -4.5170    -5.3230     2.0390 C.ar  1 <1>  -0.1500 
 24 C       -2.5890    -5.7590     0.6890 C.ar  1 <1>  -0.1500 
 25 C       -1.9400     7.6680     2.2030 C.3   1 <1>  -0.2400 
 26 C       -3.5370    -6.1940     1.5970 C.ar  1 <1>  -0.1500 
 27 H       -1.7170    -1.5800     1.0140 H     1 <1>   0.0800 
 28 H       -3.0770    -1.3300     2.0600 H     1 <1>   0.0800 
 29 H       -4.7100     0.7410     1.4040 H     1 <1>   0.0800 
 30 H       -4.2800     1.6090    -0.0420 H     1 <1>   0.0800 
 31 H       -2.8860     3.1530     1.5990 H     1 <1>   0.1500 
 32 H       -3.2090    -2.1260    -0.8590 H     1 <1>   0.0800 
 33 H       -4.6460    -0.3620    -1.4230 H     1 <1>   0.0800 
 34 H       -0.9800     1.6700    -2.7660 H     1 <1>   0.0800 
 35 H        0.5150     2.0680    -1.9460 H     1 <1>   0.0800 
 36 H       -0.2230     3.2250    -3.0290 H     1 <1>   0.0800 
 37 H       -6.9580     0.0030     0.5320 H     1 <1>   0.1000 
 38 H       -2.5360     6.4590    -0.2240 H     1 <1>   0.0800 
 39 H       -3.4960     5.7010     1.0230 H     1 <1>   0.0800 
 40 H       -5.3180    -3.3520     1.9200 H     1 <1>   0.1500 
 41 H       -1.8750    -4.1320    -0.4820 H     1 <1>   0.1500 
 42 H       -6.9650    -1.0590    -2.3630 H     1 <1>   0.1000 
 43 H       -8.4010    -0.8130    -1.3260 H     1 <1>   0.1000 
 44 H       -7.8410     1.6560    -1.1310 H     1 <1>   0.1000 
 45 H       -6.4130     1.4090    -2.1800 H     1 <1>   0.1000 
 46 H       -1.4810     5.5950     2.4900 H     1 <1>   0.0800 
 47 H       -0.5420     6.3640     1.2340 H     1 <1>   0.0800 
 48 H       -5.2580    -5.6580     2.7430 H     1 <1>   0.1500 
 49 H       -1.8260    -6.4350     0.3440 H     1 <1>   0.1500 
 50 H       -2.9120     7.6200     2.6620 H     1 <1>   0.0800 
 51 H       -1.9670     8.3880     1.4040 H     1 <1>   0.0800 
 52 H       -1.2320     8.0060     2.9400 H     1 <1>   0.0800 
 53 H       -3.5130    -7.2070     1.9590 H     1 <1>   0.1500 
@<TRIPOS>BOND
  1   1   2  2   
  2   2   3  am  
  3   2   4  1   
  4   3   5  1   
  5   3   6  1   
  6   4   7  1   
  7   4   8  2   
  8   5   9  1   
  9   5  27  1   
 10   5  28  1   
 11   6  10  1   
 12   6  29  1   
 13   6  30  1   
 14   7  11  2   
 15   7  12  1   
 16   8  13  1   
 17   8  31  1   
 18   9  14  1   
 19   9  15  1   
 20   9  32  1   
 21  10  14  1   
 22  10  16  1   
 23  10  33  1   
 24  11  13  1   
 25  12  34  1   
 26  12  35  1   
 27  12  36  1   
 28  13  17  1   
 29  15  18  ar  
 30  15  19  ar  
 31  16  20  1   
 32  16  21  1   
 33  16  37  1   
 34  17  22  1   
 35  17  38  1   
 36  17  39  1   
 37  18  23  ar  
 38  18  40  1   
 39  19  24  ar  
 40  19  41  1   
 41  20  21  1   
 42  20  42  1   
 43  20  43  1   
 44  21  44  1   
 45  21  45  1   
 46  22  25  1   
 47  22  46  1   
 48  22  47  1   
 49  23  26  ar  
 50  23  48  1   
 51  24  26  ar  
 52  24  49  1   
 53  25  50  1   
 54  25  51  1   
 55  25  52  1   
 56  26  53  1   
@<TRIPOS>SUBSTRUCTURE
  1 ****   3 GROUP 4 **** **** 0

# MOE 2024.06 (io_trps.svl 2023.06)
