@<TRIPOS>MOLECULE
NONAME
46 48 1 0 0 
SMALL
USER_CHARGES


@<TRIPOS>ATOM
  1 CL      -1.1030    -0.3650    -1.4570 Cl    1 <1>  -0.1770 
  2 C       -2.0390     0.6510    -0.3770 C.ar  1 <1>   0.1770 
  3 C       -1.8000     2.0190    -0.3600 C.ar  1 <1>   0.0830 
  4 C       -3.0100     0.0800     0.4340 C.ar  1 <1>  -0.1440 
  5 O       -0.8550     2.5790    -1.1390 O.3   1 <1>  -0.5320 
  6 C       -2.5440     2.8300     0.4780 C.ar  1 <1>  -0.1500 
  7 C       -3.7400     0.9040     1.2810 C.ar  1 <1>  -0.1500 
  8 C       -3.2590    -1.4150     0.4040 C.3   1 <1>   0.4860 
  9 C       -3.5100     2.2720     1.2980 C.ar  1 <1>  -0.1500 
 10 N       -3.8310    -1.8470    -0.9140 N.4   1 <1>  -0.9590 
 11 C       -5.2680    -1.5420    -1.2050 C.3   1 <1>   0.4230 
 12 C       -3.5780    -3.3070    -1.1080 C.3   1 <1>   0.2630 
 13 C       -6.2320    -1.7080    -0.0320 C.3   1 <1>  -0.1600 
 14 C       -5.5150    -0.1260    -1.7080 C.3   1 <1>  -0.1600 
 15 C       -7.4980    -0.9740    -0.4930 C.3   1 <1>  -0.0800 
 16 C       -7.0220     0.0920    -1.5080 C.3   1 <1>  -0.0800 
 17 C       -8.3470    -0.4360     0.6800 C.3   1 <1>   0.1400 
 18 C       -7.3790     1.5330    -1.0990 C.3   1 <1>  -0.0990 
 19 N       -9.2660     0.6250     0.2040 N.am  1 <1>  -0.6600 
 20 C       -8.8230     1.6040    -0.6420 C.2   1 <1>   0.5690 
 21 C      -10.6520     0.6060     0.7450 C.3   1 <1>   0.0600 
 22 O       -9.5170     2.5090    -1.0370 O.2   1 <1>  -0.5700 
 23 H       -0.3270     1.9340    -1.6500 H     1 <1>   0.4500 
 24 H       -2.3600     3.8910     0.4890 H     1 <1>   0.1500 
 25 H       -4.4930     0.5020     1.9390 H     1 <1>   0.1500 
 26 H       -3.9110    -1.7010     1.2110 H     1 <1>   0.0800 
 27 H       -2.3130    -1.9080     0.5600 H     1 <1>   0.0800 
 28 H       -4.0810     2.9090     1.9540 H     1 <1>   0.1500 
 29 H       -3.2800    -1.3440    -1.6250 H     1 <1>   0.4500 
 30 H       -5.6050    -2.2030    -1.9890 H     1 <1>   0.0800 
 31 H       -4.1240    -3.8840    -0.3790 H     1 <1>   0.0800 
 32 H       -2.5260    -3.5230    -1.0030 H     1 <1>   0.0800 
 33 H       -3.8900    -3.6130    -2.0940 H     1 <1>   0.0800 
 34 H       -6.4380    -2.7420     0.1770 H     1 <1>   0.0800 
 35 H       -5.8590    -1.2210     0.8480 H     1 <1>   0.0800 
 36 H       -4.9740     0.5990    -1.1340 H     1 <1>   0.0800 
 37 H       -5.2490    -0.0240    -2.7460 H     1 <1>   0.0800 
 38 H       -8.1140    -1.6760    -1.0310 H     1 <1>   0.0800 
 39 H       -7.5260    -0.1070    -2.4410 H     1 <1>   0.0800 
 40 H       -7.7150    -0.0090     1.4400 H     1 <1>   0.0800 
 41 H       -8.9090    -1.2410     1.1220 H     1 <1>   0.0800 
 42 H       -7.2350     2.2020    -1.9280 H     1 <1>   0.0800 
 43 H       -6.7630     1.8670    -0.2850 H     1 <1>   0.0800 
 44 H      -11.1420    -0.3090     0.4610 H     1 <1>   0.0800 
 45 H      -11.2220     1.4330     0.3560 H     1 <1>   0.0800 
 46 H      -10.6270     0.6810     1.8170 H     1 <1>   0.0800 
@<TRIPOS>BOND
  1   1   2  1   
  2   2   3  ar  
  3   2   4  ar  
  4   3   5  1   
  5   3   6  ar  
  6   4   7  ar  
  7   4   8  1   
  8   5  23  1   
  9   6   9  ar  
 10   6  24  1   
 11   7   9  ar  
 12   7  25  1   
 13   8  10  1   
 14   8  26  1   
 15   8  27  1   
 16   9  28  1   
 17  10  11  1   
 18  10  12  1   
 19  10  29  1   
 20  11  13  1   
 21  11  14  1   
 22  11  30  1   
 23  12  31  1   
 24  12  32  1   
 25  12  33  1   
 26  13  15  1   
 27  13  34  1   
 28  13  35  1   
 29  14  16  1   
 30  14  36  1   
 31  14  37  1   
 32  15  16  1   
 33  15  17  1   
 34  15  38  1   
 35  16  18  1   
 36  16  39  1   
 37  17  19  1   
 38  17  40  1   
 39  17  41  1   
 40  18  20  1   
 41  18  42  1   
 42  18  43  1   
 43  19  20  am  
 44  19  21  1   
 45  20  22  2   
 46  21  44  1   
 47  21  45  1   
 48  21  46  1   
@<TRIPOS>SUBSTRUCTURE
  1 ****  14 GROUP 4 **** **** 0

# MOE 2024.06 (io_trps.svl 2023.06)
