@<TRIPOS>MOLECULE
NONAME
49 51 1 0 0 
SMALL
USER_CHARGES


@<TRIPOS>ATOM
  1 O        1.3760    -0.7210    -2.0490 O.2   1 <1>  -0.5700 
  2 C        1.9620    -0.9550    -1.0050 C.2   1 <1>   0.5440 
  3 N        2.5780     0.1170    -0.3660 N.am  1 <1>  -0.6600 
  4 C        1.9360    -2.3320    -0.4980 C.ar  1 <1>   0.3960 
  5 C        3.0780     0.0440     1.0430 C.3   1 <1>   0.1400 
  6 C        2.6160     1.4620    -1.0240 C.3   1 <1>   0.1400 
  7 N        2.9780    -2.8640     0.1640 N.ar  1 <1>  -0.6200 
  8 C        0.7820    -3.0890    -0.7390 C.ar  1 <1>   0.1600 
  9 C        4.5900    -0.2280     1.0960 C.3   1 <1>   0.1400 
 10 C        3.8850     2.2780    -0.7410 C.3   1 <1>  -0.1600 
 11 C        2.7820    -4.1160     0.5360 C.ar  1 <1>   0.1600 
 12 N        0.5820    -4.3410    -0.3570 N.ar  1 <1>  -0.6200 
 13 N        5.3930     0.9720     0.7060 N.am  1 <1>  -0.6600 
 14 C        5.1670     1.4430    -0.6900 C.3   1 <1>   0.1400 
 15 C        1.6190    -4.8380     0.2880 C.ar  1 <1>   0.1670 
 16 C        6.2980     1.5330     1.5780 C.2   1 <1>   0.5690 
 17 C        1.4810    -6.2730     0.7560 C.3   1 <1>  -0.0960 
 18 O        6.4960     1.0590     2.6750 O.2   1 <1>  -0.5700 
 19 C        7.0810     2.7810     1.2270 C.3   1 <1>   0.1570 
 20 N        8.2560     2.4130     0.4340 N.pl3 1 <1>   0.3140 
 21 N        8.4410     2.8710    -0.8310 N.2   1 <1>  -0.7070 
 22 C        9.2850     1.6190     0.8350 C.2   1 <1>  -0.0680 
 23 C        9.5740     2.3610    -1.1950 C.2   1 <1>   0.1080 
 24 N        9.3960     0.9890     2.0840 N.pl3 1 <1>  -0.8840 
 25 C       10.1490     1.5730    -0.2040 C.2   1 <1>  -0.1500 
 26 C       10.1740     2.6180    -2.5570 C.3   1 <1>  -0.0590 
 27 H        2.5660    -0.7420     1.5660 H     1 <1>   0.0800 
 28 H        2.8580     0.9600     1.5630 H     1 <1>   0.0800 
 29 H        1.7500     2.0240    -0.7200 H     1 <1>   0.0800 
 30 H        2.5520     1.3290    -2.0910 H     1 <1>   0.0800 
 31 H       -0.0190    -2.6200    -1.2820 H     1 <1>   0.1500 
 32 H        4.8380    -1.0470     0.4450 H     1 <1>   0.0800 
 33 H        4.8400    -0.5290     2.0980 H     1 <1>   0.0800 
 34 H        3.7690     2.8360     0.1720 H     1 <1>   0.0800 
 35 H        3.9820     2.9990    -1.5330 H     1 <1>   0.0800 
 36 H        3.5840    -4.5980     1.0660 H     1 <1>   0.1500 
 37 H        5.9950     2.0390    -1.0270 H     1 <1>   0.0800 
 38 H        5.0960     0.5990    -1.3560 H     1 <1>   0.0800 
 39 H        2.3650    -6.6030     1.2710 H     1 <1>   0.0800 
 40 H        1.3130    -6.9130    -0.0910 H     1 <1>   0.0800 
 41 H        0.6400    -6.3550     1.4200 H     1 <1>   0.0800 
 42 H        7.4180     3.2600     2.1260 H     1 <1>   0.0800 
 43 H        6.4750     3.4680     0.6710 H     1 <1>   0.0800 
 44 H        9.9990     0.1610     2.0970 H     1 <1>   0.4000 
 45 H        8.4950     0.7800     2.5510 H     1 <1>   0.4000 
 46 H       11.0830     1.0490    -0.2640 H     1 <1>   0.1500 
 47 H       10.3040     3.6760    -2.6970 H     1 <1>   0.0800 
 48 H        9.5120     2.2440    -3.3170 H     1 <1>   0.0800 
 49 H       11.1270     2.1310    -2.6470 H     1 <1>   0.0800 
@<TRIPOS>BOND
  1   1   2  2   
  2   2   3  am  
  3   2   4  1   
  4   3   5  1   
  5   3   6  1   
  6   4   7  ar  
  7   4   8  ar  
  8   5   9  1   
  9   5  27  1   
 10   5  28  1   
 11   6  10  1   
 12   6  29  1   
 13   6  30  1   
 14   7  11  ar  
 15   8  12  ar  
 16   8  31  1   
 17   9  13  1   
 18   9  32  1   
 19   9  33  1   
 20  10  14  1   
 21  10  34  1   
 22  10  35  1   
 23  11  15  ar  
 24  11  36  1   
 25  12  15  ar  
 26  13  14  1   
 27  13  16  am  
 28  14  37  1   
 29  14  38  1   
 30  15  17  1   
 31  16  18  2   
 32  16  19  1   
 33  17  39  1   
 34  17  40  1   
 35  17  41  1   
 36  19  20  1   
 37  19  42  1   
 38  19  43  1   
 39  20  21  1   
 40  20  22  1   
 41  21  23  2   
 42  22  24  1   
 43  22  25  2   
 44  23  25  1   
 45  23  26  1   
 46  24  44  1   
 47  24  45  1   
 48  25  46  1   
 49  26  47  1   
 50  26  48  1   
 51  26  49  1   
@<TRIPOS>SUBSTRUCTURE
  1 ****   9 GROUP 4 **** **** 0

# MOE 2024.06 (io_trps.svl 2023.06)
