@<TRIPOS>MOLECULE
NONAME
55 58 1 0 0 
SMALL
USER_CHARGES


@<TRIPOS>ATOM
  1 O       -0.5670     0.7130    -1.6310 O.2   1 <1>  -0.5700 
  2 C       -1.6040     1.1750    -1.1920 C.2   1 <1>   0.5440 
  3 N       -2.7990     0.5620    -1.5140 N.am  1 <1>  -0.6600 
  4 C       -1.5500     2.3420    -0.3320 C.ar  1 <1>   0.0860 
  5 C       -4.0590     0.7450    -0.7420 C.3   1 <1>   0.1400 
  6 C       -2.8860    -0.4960    -2.5590 C.3   1 <1>   0.1400 
  7 C       -0.7590     2.3490     0.8150 C.ar  1 <1>  -0.1500 
  8 C       -2.2790     3.4950    -0.6190 C.ar  1 <1>  -0.1500 
  9 C       -4.4240    -0.5760    -0.0620 C.3   1 <1>  -0.1600 
 10 C       -3.2440    -1.8290    -1.8990 C.3   1 <1>  -0.1600 
 11 C       -0.7130     3.4500     1.6510 C.ar  1 <1>  -0.1500 
 12 C       -2.2360     4.5990     0.2130 C.ar  1 <1>  -0.1500 
 13 C       -4.5350    -1.7320    -1.0720 C.3   1 <1>   0.4240 
 14 C       -1.4560     4.5820     1.3570 C.ar  1 <1>  -0.1430 
 15 O       -5.5470    -1.4070    -1.9980 O.3   1 <1>  -0.5600 
 16 C       -4.8210    -3.0700    -0.3580 C.ar  1 <1>  -0.1430 
 17 C       -1.4050     5.7920     2.2710 C.3   1 <1>  -0.0970 
 18 C       -6.8630    -1.6920    -1.6410 C.3   1 <1>   0.1200 
 19 C       -6.0010    -3.7690    -0.5790 C.ar  1 <1>  -0.1430 
 20 C       -3.8980    -3.6050     0.5320 C.ar  1 <1>  -0.1500 
 21 C       -7.0300    -3.2050    -1.5380 C.3   1 <1>  -0.0170 
 22 C       -6.2440    -4.9690     0.0710 C.ar  1 <1>  -0.1500 
 23 C       -4.1210    -4.8040     1.1860 C.ar  1 <1>   0.0820 
 24 C       -5.3190    -5.5010     0.9660 C.ar  1 <1>   0.0820 
 25 O       -3.1170    -5.2020     2.0170 O.3   1 <1>  -0.3620 
 26 O       -5.5640    -6.6650     1.6370 O.3   1 <1>  -0.3620 
 27 C       -2.7940    -6.5670     2.1560 C.3   1 <1>   0.0400 
 28 C       -6.8180    -7.3090     1.5890 C.3   1 <1>   0.0400 
 29 H       -4.8450     1.0440    -1.4160 H     1 <1>   0.0800 
 30 H       -3.9490     1.5080     0.0070 H     1 <1>   0.0800 
 31 H       -1.9520    -0.5900    -3.0860 H     1 <1>   0.0800 
 32 H       -3.6440    -0.2230    -3.2730 H     1 <1>   0.0800 
 33 H       -0.1750     1.4750     1.0440 H     1 <1>   0.1500 
 34 H       -2.8820     3.5190    -1.5090 H     1 <1>   0.1500 
 35 H       -5.3430    -0.4700     0.4810 H     1 <1>   0.0800 
 36 H       -3.6590    -0.8020     0.6570 H     1 <1>   0.0800 
 37 H       -2.4210    -2.1190    -1.2740 H     1 <1>   0.0800 
 38 H       -3.3630    -2.5880    -2.6500 H     1 <1>   0.0800 
 39 H       -0.0940     3.4240     2.5300 H     1 <1>   0.1500 
 40 H       -2.8110     5.4750    -0.0350 H     1 <1>   0.1500 
 41 H       -1.2260     5.4900     3.2870 H     1 <1>   0.0800 
 42 H       -2.3350     6.3310     2.2360 H     1 <1>   0.0800 
 43 H       -0.6120     6.4490     1.9600 H     1 <1>   0.0800 
 44 H       -7.5060    -1.2940    -2.4060 H     1 <1>   0.0800 
 45 H       -7.0900    -1.2130    -0.7050 H     1 <1>   0.0800 
 46 H       -2.9760    -3.0930     0.7350 H     1 <1>   0.1500 
 47 H       -6.8990    -3.6460    -2.5110 H     1 <1>   0.0800 
 48 H       -8.0230    -3.4290    -1.1950 H     1 <1>   0.0800 
 49 H       -7.1660    -5.4760    -0.1330 H     1 <1>   0.1500 
 50 H       -1.7830    -6.6380     2.5120 H     1 <1>   0.0800 
 51 H       -2.8850    -7.0510     1.1990 H     1 <1>   0.0800 
 52 H       -3.4630    -7.0100     2.8720 H     1 <1>   0.0800 
 53 H       -6.7840    -8.1540     2.2530 H     1 <1>   0.0800 
 54 H       -7.0010    -7.6430     0.5830 H     1 <1>   0.0800 
 55 H       -7.5780    -6.6210     1.9140 H     1 <1>   0.0800 
@<TRIPOS>BOND
  1   1   2  2   
  2   2   3  am  
  3   2   4  1   
  4   3   5  1   
  5   3   6  1   
  6   4   7  ar  
  7   4   8  ar  
  8   5   9  1   
  9   5  29  1   
 10   5  30  1   
 11   6  10  1   
 12   6  31  1   
 13   6  32  1   
 14   7  11  ar  
 15   7  33  1   
 16   8  12  ar  
 17   8  34  1   
 18   9  13  1   
 19   9  35  1   
 20   9  36  1   
 21  10  13  1   
 22  10  37  1   
 23  10  38  1   
 24  11  14  ar  
 25  11  39  1   
 26  12  14  ar  
 27  12  40  1   
 28  13  15  1   
 29  13  16  1   
 30  14  17  1   
 31  15  18  1   
 32  16  19  ar  
 33  16  20  ar  
 34  17  41  1   
 35  17  42  1   
 36  17  43  1   
 37  18  21  1   
 38  18  44  1   
 39  18  45  1   
 40  19  21  1   
 41  19  22  ar  
 42  20  23  ar  
 43  20  46  1   
 44  21  47  1   
 45  21  48  1   
 46  22  24  ar  
 47  22  49  1   
 48  23  24  ar  
 49  23  25  1   
 50  24  26  1   
 51  25  27  1   
 52  26  28  1   
 53  27  50  1   
 54  27  51  1   
 55  27  52  1   
 56  28  53  1   
 57  28  54  1   
 58  28  55  1   
@<TRIPOS>SUBSTRUCTURE
  1 ****   9 GROUP 4 **** **** 0

# MOE 2024.06 (io_trps.svl 2023.06)
