@<TRIPOS>MOLECULE
NONAME
48 51 1 0 0 
SMALL
USER_CHARGES


@<TRIPOS>ATOM
  1 S       -0.1200     0.6180    -1.8040 S.3   1 <1>  -0.0800 
  2 C       -0.0080     1.8850    -0.6010 C.2   1 <1>  -0.1400 
  3 C        1.4500     1.0680    -2.4520 C.2   1 <1>  -0.1100 
  4 C        1.1400     2.5670    -0.6990 C.2   1 <1>  -0.1810 
  5 C       -1.0960     2.1480     0.4040 C.3   1 <1>   0.0200 
  6 C        1.9770     2.1020    -1.7680 C.2   1 <1>  -0.1500 
  7 C        1.4600     3.7130     0.2650 C.3   1 <1>   0.4610 
  8 C       -0.8630     3.5610     0.9640 C.3   1 <1>   0.1200 
  9 O        0.4910     3.7620     1.2970 O.3   1 <1>  -0.5600 
 10 C        2.8040     3.4670     0.9610 C.3   1 <1>  -0.1600 
 11 C        1.4790     5.0640    -0.4650 C.3   1 <1>  -0.1600 
 12 C        3.1880     4.6280     1.8790 C.3   1 <1>   0.1400 
 13 C        1.8680     6.2050     0.4760 C.3   1 <1>   0.1400 
 14 N        3.1870     5.8950     1.0950 N.am  1 <1>  -0.6600 
 15 C        4.3180     6.6720     0.9840 C.2   1 <1>   0.5690 
 16 O        5.3620     6.3520     1.5130 O.2   1 <1>  -0.5700 
 17 C        4.2950     7.9790     0.1790 C.3   1 <1>   0.2010 
 18 N        5.6150     8.6700     0.1390 N.am  1 <1>  -0.7300 
 19 C        5.8810     9.8060    -0.5660 C.2   1 <1>   0.5440 
 20 O        4.9660    10.3020    -1.1940 O.2   1 <1>  -0.5700 
 21 C        7.2070    10.4080    -0.5600 C.ar  1 <1>   0.0860 
 22 C        7.3890    11.7370    -0.9490 C.ar  1 <1>  -0.1500 
 23 C        8.3470     9.6980    -0.1730 C.ar  1 <1>  -0.1500 
 24 C        8.6380    12.3310    -0.9450 C.ar  1 <1>  -0.1500 
 25 C        9.5990    10.2860    -0.1660 C.ar  1 <1>  -0.1500 
 26 C        9.7470    11.6060    -0.5510 C.ar  1 <1>  -0.1500 
 27 H        1.8170     0.5010    -3.2890 H     1 <1>   0.1500 
 28 H       -1.0500     1.4210     1.1940 H     1 <1>   0.0800 
 29 H       -2.0620     2.0950    -0.0640 H     1 <1>   0.0800 
 30 H        2.9290     2.5590    -1.9740 H     1 <1>   0.1500 
 31 H       -1.4460     3.7070     1.8560 H     1 <1>   0.0800 
 32 H       -1.1500     4.3020     0.2400 H     1 <1>   0.0800 
 33 H        3.5790     3.3440     0.2280 H     1 <1>   0.0800 
 34 H        2.7460     2.5550     1.5270 H     1 <1>   0.0800 
 35 H        0.5210     5.2570    -0.9080 H     1 <1>   0.0800 
 36 H        2.1940     5.0210    -1.2660 H     1 <1>   0.0800 
 37 H        4.1580     4.4410     2.3090 H     1 <1>   0.0800 
 38 H        2.4790     4.7100     2.6860 H     1 <1>   0.0800 
 39 H        1.1300     6.3020     1.2560 H     1 <1>   0.0800 
 40 H        1.8940     7.1300    -0.0710 H     1 <1>   0.0800 
 41 H        3.5740     8.6450     0.6180 H     1 <1>   0.0800 
 42 H        3.9910     7.7640    -0.8290 H     1 <1>   0.0800 
 43 H        6.3210     8.2210     0.7320 H     1 <1>   0.3700 
 44 H        6.5320    12.3090    -1.2580 H     1 <1>   0.1500 
 45 H        8.2610     8.6680     0.1230 H     1 <1>   0.1500 
 46 H        8.7460    13.3580    -1.2490 H     1 <1>   0.1500 
 47 H       10.4610     9.7170     0.1380 H     1 <1>   0.1500 
 48 H       10.7210    12.0660    -0.5460 H     1 <1>   0.1500 
@<TRIPOS>BOND
  1   1   2  1   
  2   1   3  1   
  3   2   4  2   
  4   2   5  1   
  5   3   6  2   
  6   3  27  1   
  7   4   6  1   
  8   4   7  1   
  9   5   8  1   
 10   5  28  1   
 11   5  29  1   
 12   6  30  1   
 13   7   9  1   
 14   7  10  1   
 15   7  11  1   
 16   8   9  1   
 17   8  31  1   
 18   8  32  1   
 19  10  12  1   
 20  10  33  1   
 21  10  34  1   
 22  11  13  1   
 23  11  35  1   
 24  11  36  1   
 25  12  14  1   
 26  12  37  1   
 27  12  38  1   
 28  13  14  1   
 29  13  39  1   
 30  13  40  1   
 31  14  15  am  
 32  15  16  2   
 33  15  17  1   
 34  17  18  1   
 35  17  41  1   
 36  17  42  1   
 37  18  19  am  
 38  18  43  1   
 39  19  20  2   
 40  19  21  1   
 41  21  22  ar  
 42  21  23  ar  
 43  22  24  ar  
 44  22  44  1   
 45  23  25  ar  
 46  23  45  1   
 47  24  26  ar  
 48  24  46  1   
 49  25  26  ar  
 50  25  47  1   
 51  26  48  1   
@<TRIPOS>SUBSTRUCTURE
  1 ****  15 GROUP 4 **** **** 0

# MOE 2024.06 (io_trps.svl 2023.06)
