@<TRIPOS>MOLECULE
NONAME
43 44 1 0 0 
SMALL
USER_CHARGES


@<TRIPOS>ATOM
  1 S        0.5910    -0.7150     0.5500 S.o2  1 <1>   1.3780 
  2 O        0.0480    -0.6070    -0.7990 O.2   1 <1>  -0.6500 
  3 O        0.5960     0.5330     1.3030 O.2   1 <1>  -0.6500 
  4 O        2.1840    -1.1090     0.4280 O.3   1 <1>  -0.2460 
  5 C       -0.2220    -2.0790     1.5850 C.3   1 <1>   1.1250 
  6 C        2.5550    -2.2310    -0.2160 C.2   1 <1>   0.3510 
  7 F       -1.2320    -1.6320     2.3370 F     1 <1>  -0.3400 
  8 F       -0.7700    -3.0880     0.9010 F     1 <1>  -0.3400 
  9 F        0.5960    -2.6640     2.4680 F     1 <1>  -0.3400 
 10 N        1.7560    -3.2270    -0.4170 N.2   1 <1>  -0.7070 
 11 C        3.8320    -2.4330    -0.7260 C.2   1 <1>  -0.1810 
 12 N        2.5180    -4.1230    -1.0850 N.pl3 1 <1>   0.3000 
 13 C        3.7720    -3.6640    -1.2820 C.2   1 <1>  -0.3320 
 14 C        5.0120    -1.4760    -0.6650 C.3   1 <1>   0.0210 
 15 C        4.8600    -4.4450    -1.9910 C.3   1 <1>   0.3200 
 16 C        5.9720    -1.6800    -1.8480 C.3   1 <1>  -0.1600 
 17 N        6.1450    -4.1550    -1.3190 N.am  1 <1>  -0.6600 
 18 C        6.8740    -2.9200    -1.7310 C.3   1 <1>   0.1400 
 19 C        6.6030    -4.9440    -0.2970 C.2   1 <1>   0.7800 
 20 O        7.6470    -4.7110     0.2790 O.2   1 <1>  -0.5700 
 21 O        5.8560    -6.0000     0.0420 O.3   1 <1>  -0.4300 
 22 C        6.1160    -6.9440     1.0590 C.3   1 <1>   0.2800 
 23 C        7.4060    -7.7140     0.7520 C.3   1 <1>  -0.2400 
 24 C        4.9300    -7.9080     1.0180 C.3   1 <1>  -0.2400 
 25 C        6.1570    -6.2540     2.4280 C.3   1 <1>  -0.2400 
 26 H        2.1520    -5.0380    -1.3800 H     1 <1>   0.2700 
 27 H        5.5360    -1.6070     0.2660 H     1 <1>   0.0800 
 28 H        4.6370    -0.4680    -0.6950 H     1 <1>   0.0800 
 29 H        4.9150    -4.1520    -3.0260 H     1 <1>   0.0800 
 30 H        4.6500    -5.5000    -1.9570 H     1 <1>   0.0800 
 31 H        6.6120    -0.8190    -1.9210 H     1 <1>   0.0800 
 32 H        5.4080    -1.7250    -2.7630 H     1 <1>   0.0800 
 33 H        7.6470    -2.7050    -1.0130 H     1 <1>   0.0800 
 34 H        7.3580    -3.1010    -2.6750 H     1 <1>   0.0800 
 35 H        7.3690    -8.1250    -0.2410 H     1 <1>   0.0800 
 36 H        7.5270    -8.5200     1.4510 H     1 <1>   0.0800 
 37 H        8.2670    -7.0770     0.8390 H     1 <1>   0.0800 
 38 H        4.8720    -8.3870     0.0580 H     1 <1>   0.0800 
 39 H        4.0130    -7.3790     1.2060 H     1 <1>   0.0800 
 40 H        5.0420    -8.6690     1.7690 H     1 <1>   0.0800 
 41 H        7.0230    -5.6270     2.5220 H     1 <1>   0.0800 
 42 H        6.2070    -6.9920     3.2090 H     1 <1>   0.0800 
 43 H        5.2720    -5.6610     2.5750 H     1 <1>   0.0800 
@<TRIPOS>BOND
  1   1   2  2   
  2   1   3  2   
  3   1   4  1   
  4   1   5  1   
  5   4   6  1   
  6   5   7  1   
  7   5   8  1   
  8   5   9  1   
  9   6  10  2   
 10   6  11  1   
 11  10  12  1   
 12  11  13  2   
 13  11  14  1   
 14  12  13  1   
 15  12  26  1   
 16  13  15  1   
 17  14  16  1   
 18  14  27  1   
 19  14  28  1   
 20  15  17  1   
 21  15  29  1   
 22  15  30  1   
 23  16  18  1   
 24  16  31  1   
 25  16  32  1   
 26  17  18  1   
 27  17  19  am  
 28  18  33  1   
 29  18  34  1   
 30  19  20  2   
 31  19  21  1   
 32  21  22  1   
 33  22  23  1   
 34  22  24  1   
 35  22  25  1   
 36  23  35  1   
 37  23  36  1   
 38  23  37  1   
 39  24  38  1   
 40  24  39  1   
 41  24  40  1   
 42  25  41  1   
 43  25  42  1   
 44  25  43  1   
@<TRIPOS>SUBSTRUCTURE
  1 ****  11 GROUP 4 **** **** 0

# MOE 2024.06 (io_trps.svl 2023.06)
