@<TRIPOS>MOLECULE
NONAME
52 54 1 0 0 
SMALL
USER_CHARGES


@<TRIPOS>ATOM
  1 O       -1.4730     1.4200     1.2770 O.2   1 <1>  -0.5700 
  2 C       -1.8310     1.3040     0.1270 C.2   1 <1>   0.5690 
  3 N       -2.2770     0.1210    -0.3970 N.am  1 <1>  -0.7300 
  4 C       -1.7060     2.5700    -0.7590 C.3   1 <1>   0.4840 
  5 C       -2.4580    -1.1700     0.3150 C.3   1 <1>   0.2200 
  6 N       -0.4390     3.3320    -0.4140 N.4   1 <1>  -0.9590 
  7 C       -2.9520     3.4710    -0.6020 C.3   1 <1>  -0.1600 
  8 C       -3.3610    -1.0400     1.5480 C.3   1 <1>  -0.1600 
  9 C       -1.1220    -1.7410     0.8020 C.3   1 <1>  -0.1600 
 10 C       -0.3200     4.7160    -0.9650 C.3   1 <1>   0.4860 
 11 C        0.7810     2.5070    -0.7000 C.3   1 <1>   0.2630 
 12 C       -4.2790     2.7500    -0.8970 C.3   1 <1>  -0.2400 
 13 C       -2.4870    -1.3800     2.7560 C.3   1 <1>  -0.1600 
 14 C       -1.3990    -2.2920     2.2000 C.3   1 <1>  -0.1600 
 15 C        0.9170     5.3860    -0.3970 C.ar  1 <1>  -0.1440 
 16 C        0.9460     5.8110     0.9540 C.ar  1 <1>   0.0000 
 17 C        2.0090     5.5700    -1.2080 C.ar  1 <1>  -0.1500 
 18 C        2.1250     6.3910     1.4580 C.ar  1 <1>   0.0000 
 19 C       -0.1190     5.7170     1.8760 C.ar  1 <1>  -0.1500 
 20 C        3.1720     6.1590    -0.7070 C.ar  1 <1>  -0.1500 
 21 C        2.1510     6.7890     2.8130 C.ar  1 <1>   0.1600 
 22 C        3.2280     6.5570     0.5990 C.ar  1 <1>  -0.1500 
 23 C        0.0320     6.1430     3.1650 C.ar  1 <1>   0.1600 
 24 N        1.1640     6.6770     3.6490 N.ar  1 <1>  -0.6200 
 25 H       -2.6050     0.0750    -1.3640 H     1 <1>   0.3700 
 26 H       -1.6510     2.2480    -1.7840 H     1 <1>   0.0800 
 27 H       -2.9110    -1.8770    -0.3610 H     1 <1>   0.0800 
 28 H       -0.4660     3.4110     0.6170 H     1 <1>   0.4500 
 29 H       -2.8970     4.2990    -1.2840 H     1 <1>   0.0800 
 30 H       -2.9940     3.8510     0.4050 H     1 <1>   0.0800 
 31 H       -4.1480    -1.7700     1.4770 H     1 <1>   0.0800 
 32 H       -3.8030    -0.0650     1.6480 H     1 <1>   0.0800 
 33 H       -0.3800    -0.9670     0.8820 H     1 <1>   0.0800 
 34 H       -0.7600    -2.5140     0.1480 H     1 <1>   0.0800 
 35 H       -1.1810     5.3060    -0.6990 H     1 <1>   0.0800 
 36 H       -0.2520     4.6800    -2.0400 H     1 <1>   0.0800 
 37 H        0.8920     2.3470    -1.7600 H     1 <1>   0.0800 
 38 H        0.7120     1.5500    -0.2070 H     1 <1>   0.0800 
 39 H        1.6650     3.0050    -0.3320 H     1 <1>   0.0800 
 40 H       -4.2770     2.3210    -1.8840 H     1 <1>   0.0800 
 41 H       -5.0940     3.4520    -0.8420 H     1 <1>   0.0800 
 42 H       -4.4720     1.9730    -0.1770 H     1 <1>   0.0800 
 43 H       -3.0480    -1.8520     3.5450 H     1 <1>   0.0800 
 44 H       -2.0360    -0.4790     3.1360 H     1 <1>   0.0800 
 45 H       -0.5180    -2.2910     2.8190 H     1 <1>   0.0800 
 46 H       -1.7780    -3.2980     2.1260 H     1 <1>   0.0800 
 47 H        2.0070     5.2700    -2.2430 H     1 <1>   0.1500 
 48 H       -1.0660     5.3160     1.5780 H     1 <1>   0.1500 
 49 H        4.0190     6.2960    -1.3600 H     1 <1>   0.1500 
 50 H        3.0650     7.2220     3.1800 H     1 <1>   0.1500 
 51 H        4.1240     7.0090     0.9890 H     1 <1>   0.1500 
 52 H       -0.7840     6.0660     3.8650 H     1 <1>   0.1500 
@<TRIPOS>BOND
  1   1   2  2   
  2   2   3  am  
  3   2   4  1   
  4   3   5  1   
  5   3  25  1   
  6   4   6  1   
  7   4   7  1   
  8   4  26  1   
  9   5   8  1   
 10   5   9  1   
 11   5  27  1   
 12   6  10  1   
 13   6  11  1   
 14   6  28  1   
 15   7  12  1   
 16   7  29  1   
 17   7  30  1   
 18   8  13  1   
 19   8  31  1   
 20   8  32  1   
 21   9  14  1   
 22   9  33  1   
 23   9  34  1   
 24  10  15  1   
 25  10  35  1   
 26  10  36  1   
 27  11  37  1   
 28  11  38  1   
 29  11  39  1   
 30  12  40  1   
 31  12  41  1   
 32  12  42  1   
 33  13  14  1   
 34  13  43  1   
 35  13  44  1   
 36  14  45  1   
 37  14  46  1   
 38  15  16  ar  
 39  15  17  ar  
 40  16  18  ar  
 41  16  19  ar  
 42  17  20  ar  
 43  17  47  1   
 44  18  21  ar  
 45  18  22  ar  
 46  19  23  ar  
 47  19  48  1   
 48  20  22  ar  
 49  20  49  1   
 50  21  24  ar  
 51  21  50  1   
 52  22  51  1   
 53  23  24  ar  
 54  23  52  1   
@<TRIPOS>SUBSTRUCTURE
  1 ****   6 GROUP 4 **** **** 0

# MOE 2024.06 (io_trps.svl 2023.06)
