@<TRIPOS>MOLECULE
NONAME
49 52 1 0 0 
SMALL
USER_CHARGES


@<TRIPOS>ATOM
  1 O       -0.7780     0.4480    -1.3370 O.2   1 <1>  -0.5700 
  2 C       -1.4600     1.4380    -1.2500 C.2   1 <1>   0.5690 
  3 N       -2.8010     1.4880    -1.3740 N.am  1 <1>  -0.6600 
  4 C       -0.9020     2.7990    -0.9510 C.3   1 <1>  -0.0990 
  5 C       -3.3400     2.8410    -1.1460 C.3   1 <1>   0.1400 
  6 C       -3.6830     0.3220    -1.5920 C.3   1 <1>   0.2840 
  7 C       -2.1500     3.6010    -0.5290 C.3   1 <1>  -0.0190 
  8 C       -4.5020     0.0740    -0.3390 C.ar  1 <1>  -0.1440 
  9 C       -2.0920     5.0780    -0.8970 C.2   1 <1>   0.5690 
 10 C       -3.8770    -0.3900     0.8090 C.ar  1 <1>   0.1600 
 11 C       -5.8620     0.3090    -0.3100 C.ar  1 <1>  -0.1500 
 12 O       -2.9940     5.5590    -1.5390 O.2   1 <1>  -0.5700 
 13 N       -1.0110     5.7970    -0.4610 N.am  1 <1>  -0.4940 
 14 N       -4.4870    -0.6290     1.9600 N.ar  1 <1>  -0.6200 
 15 C       -6.5130     0.0620     0.8800 C.ar  1 <1>  -0.1500 
 16 C       -0.7000     7.1660    -0.6740 C.2   1 <1>  -0.0880 
 17 C       -5.7900    -0.3990     1.9670 C.ar  1 <1>   0.1600 
 18 N        0.4030     7.8070    -0.1930 N.pl3 1 <1>   0.3140 
 19 C       -1.3980     8.0920    -1.3730 C.2   1 <1>  -0.1500 
 20 N        0.4170     9.1100    -0.5740 N.2   1 <1>  -0.7070 
 21 C        1.4740     7.1890     0.6470 C.3   1 <1>   0.1760 
 22 C       -0.6620     9.2630    -1.2750 C.2   1 <1>   0.1390 
 23 C        2.4170     8.1800     1.3340 C.3   1 <1>  -0.1600 
 24 C        2.4160     6.3010    -0.1700 C.3   1 <1>  -0.1600 
 25 C        3.6430     7.3420     1.6930 C.3   1 <1>  -0.1600 
 26 C        3.7290     6.2470     0.6230 C.3   1 <1>  -0.1600 
 27 H       -0.4650     3.1920    -1.8510 H     1 <1>   0.0800 
 28 H       -0.1670     2.7450    -0.1690 H     1 <1>   0.0800 
 29 H       -4.1800     2.8230    -0.4720 H     1 <1>   0.0800 
 30 H       -3.6390     3.2620    -2.0910 H     1 <1>   0.0800 
 31 H       -3.0870    -0.5480    -1.8140 H     1 <1>   0.0800 
 32 H       -4.3250     0.5130    -2.4340 H     1 <1>   0.0800 
 33 H       -2.2570     3.5320     0.5390 H     1 <1>   0.0800 
 34 H       -2.8140    -0.5700     0.7780 H     1 <1>   0.1500 
 35 H       -6.3970     0.6700    -1.1710 H     1 <1>   0.1500 
 36 H       -0.3310     5.2680     0.0830 H     1 <1>   0.3700 
 37 H       -7.5720     0.2240     0.9680 H     1 <1>   0.1500 
 38 H       -6.3100    -0.5890     2.8900 H     1 <1>   0.1500 
 39 H       -2.3270     7.9730    -1.9020 H     1 <1>   0.1500 
 40 H        1.0010     6.5970     1.4090 H     1 <1>   0.0800 
 41 H       -0.9470    10.1990    -1.7270 H     1 <1>   0.1500 
 42 H        1.9660     8.6320     2.2000 H     1 <1>   0.0800 
 43 H        2.7160     8.9490     0.6420 H     1 <1>   0.0800 
 44 H        2.6050     6.7680    -1.1230 H     1 <1>   0.0800 
 45 H        2.0100     5.3190    -0.3280 H     1 <1>   0.0800 
 46 H        3.4990     6.8900     2.6600 H     1 <1>   0.0800 
 47 H        4.5350     7.9440     1.7210 H     1 <1>   0.0800 
 48 H        4.5640     6.4250    -0.0340 H     1 <1>   0.0800 
 49 H        3.8570     5.2840     1.0890 H     1 <1>   0.0800 
@<TRIPOS>BOND
  1   1   2  2   
  2   2   3  am  
  3   2   4  1   
  4   3   5  1   
  5   3   6  1   
  6   4   7  1   
  7   4  27  1   
  8   4  28  1   
  9   5   7  1   
 10   5  29  1   
 11   5  30  1   
 12   6   8  1   
 13   6  31  1   
 14   6  32  1   
 15   7   9  1   
 16   7  33  1   
 17   8  10  ar  
 18   8  11  ar  
 19   9  12  2   
 20   9  13  am  
 21  10  14  ar  
 22  10  34  1   
 23  11  15  ar  
 24  11  35  1   
 25  13  16  1   
 26  13  36  1   
 27  14  17  ar  
 28  15  17  ar  
 29  15  37  1   
 30  16  18  1   
 31  16  19  2   
 32  17  38  1   
 33  18  20  1   
 34  18  21  1   
 35  19  22  1   
 36  19  39  1   
 37  20  22  2   
 38  21  23  1   
 39  21  24  1   
 40  21  40  1   
 41  22  41  1   
 42  23  25  1   
 43  23  42  1   
 44  23  43  1   
 45  24  26  1   
 46  24  44  1   
 47  24  45  1   
 48  25  26  1   
 49  25  46  1   
 50  25  47  1   
 51  26  48  1   
 52  26  49  1   
@<TRIPOS>SUBSTRUCTURE
  1 ****   7 GROUP 4 **** **** 0

# MOE 2024.06 (io_trps.svl 2023.06)
