@<TRIPOS>MOLECULE
NONAME
43 45 1 0 0 
SMALL
USER_CHARGES


@<TRIPOS>ATOM
  1 O       -3.4020    -0.8950    -2.4690 O.2   1 <1>  -0.5700 
  2 C       -2.9580    -1.2160    -1.3890 C.2   1 <1>   0.5690 
  3 N       -3.2600    -0.5260    -0.2440 N.am  1 <1>  -0.6600 
  4 C       -1.9940    -2.3890    -1.3460 C.3   1 <1>  -0.0190 
  5 C       -2.6630    -0.9000     1.0800 C.3   1 <1>   0.2200 
  6 C       -4.3930     0.4370    -0.1930 C.3   1 <1>   0.0600 
  7 C       -0.5930    -1.9200    -0.9260 C.3   1 <1>   0.1200 
  8 C       -2.5120    -3.5940    -0.5350 C.3   1 <1>   0.2090 
  9 C       -1.1320    -0.7180     1.0480 C.3   1 <1>   0.1200 
 10 C       -3.0660    -2.3170     1.5720 C.3   1 <1>   0.2090 
 11 O       -0.4650    -1.7980     0.4580 O.3   1 <1>  -0.5600 
 12 N       -3.5490    -3.2350     0.4870 N.pl3 1 <1>  -0.8380 
 13 C       -4.8990    -3.4400     0.2610 C.ar  1 <1>   0.7200 
 14 N       -5.7600    -2.7500     1.0120 N.ar  1 <1>  -0.6200 
 15 N       -5.2310    -4.3130    -0.6890 N.ar  1 <1>  -0.6200 
 16 C       -7.0330    -2.9460     0.7710 C.ar  1 <1>   0.1600 
 17 C       -6.5100    -4.4840    -0.9080 C.ar  1 <1>   0.1600 
 18 C       -7.4780    -3.8140    -0.1970 C.ar  1 <1>  -0.1440 
 19 C       -8.9590    -4.0250    -0.4650 C.3   1 <1>  -0.0170 
 20 C       -9.5060    -5.1620     0.4050 C.3   1 <1>  -0.1600 
 21 C      -10.9990    -5.3940     0.1530 C.3   1 <1>  -0.2400 
 22 H       -1.8900    -2.7300    -2.3600 H     1 <1>   0.0800 
 23 H       -3.0270    -0.2010     1.8100 H     1 <1>   0.0800 
 24 H       -4.0600     1.3740     0.2150 H     1 <1>   0.0800 
 25 H       -5.1780     0.0330     0.4230 H     1 <1>   0.0800 
 26 H       -4.7900     0.6110    -1.1790 H     1 <1>   0.0800 
 27 H       -0.3450    -0.9790    -1.3870 H     1 <1>   0.0800 
 28 H        0.1320    -2.6500    -1.2380 H     1 <1>   0.0800 
 29 H       -1.6900    -4.0750    -0.0350 H     1 <1>   0.0800 
 30 H       -2.9060    -4.3160    -1.2270 H     1 <1>   0.0800 
 31 H       -0.7700    -0.6560     2.0590 H     1 <1>   0.0800 
 32 H       -0.8630     0.1900     0.5380 H     1 <1>   0.0800 
 33 H       -3.8200    -2.2080     2.3300 H     1 <1>   0.0800 
 34 H       -2.2280    -2.7780     2.0630 H     1 <1>   0.0800 
 35 H       -7.7430    -2.3970     1.3650 H     1 <1>   0.1500 
 36 H       -6.7950    -5.1810    -1.6770 H     1 <1>   0.1500 
 37 H       -9.4960    -3.1160    -0.2570 H     1 <1>   0.0800 
 38 H       -9.1060    -4.2600    -1.5060 H     1 <1>   0.0800 
 39 H       -8.9650    -6.0680     0.1930 H     1 <1>   0.0800 
 40 H       -9.3540    -4.9230     1.4440 H     1 <1>   0.0800 
 41 H      -11.1720    -5.6600    -0.8760 H     1 <1>   0.0800 
 42 H      -11.5640    -4.5080     0.3820 H     1 <1>   0.0800 
 43 H      -11.3560    -6.1960     0.7760 H     1 <1>   0.0800 
@<TRIPOS>BOND
  1   1   2  2   
  2   2   3  am  
  3   2   4  1   
  4   3   5  1   
  5   3   6  1   
  6   4   7  1   
  7   4   8  1   
  8   4  22  1   
  9   5   9  1   
 10   5  10  1   
 11   5  23  1   
 12   6  24  1   
 13   6  25  1   
 14   6  26  1   
 15   7  11  1   
 16   7  27  1   
 17   7  28  1   
 18   8  12  1   
 19   8  29  1   
 20   8  30  1   
 21   9  11  1   
 22   9  31  1   
 23   9  32  1   
 24  10  12  1   
 25  10  33  1   
 26  10  34  1   
 27  12  13  1   
 28  13  14  ar  
 29  13  15  ar  
 30  14  16  ar  
 31  15  17  ar  
 32  16  18  ar  
 33  16  35  1   
 34  17  18  ar  
 35  17  36  1   
 36  18  19  1   
 37  19  20  1   
 38  19  37  1   
 39  19  38  1   
 40  20  21  1   
 41  20  39  1   
 42  20  40  1   
 43  21  41  1   
 44  21  42  1   
 45  21  43  1   
@<TRIPOS>SUBSTRUCTURE
  1 ****  13 GROUP 4 **** **** 0

# MOE 2024.06 (io_trps.svl 2023.06)
