@<TRIPOS>MOLECULE
NONAME
43 43 1 0 0 
SMALL
USER_CHARGES


@<TRIPOS>ATOM
  1 S        0.0520    -0.0560     0.4090 S.o2  1 <1>   1.0900 
  2 O       -0.4680    -0.1960    -0.9300 O.2   1 <1>  -0.6500 
  3 O       -0.7720     0.5120     1.4500 O.2   1 <1>  -0.6500 
  4 C        1.5730     0.8720     0.3190 C.3   1 <1>  -0.0550 
  5 C        0.5880    -1.6650     0.9560 C.3   1 <1>  -0.1350 
  6 C        1.3040     2.3140    -0.0970 C.3   1 <1>   0.1100 
  7 N        2.5710     3.0570    -0.1540 N.3   1 <1>  -0.8100 
  8 C        2.3270     4.4980     0.0560 C.3   1 <1>   0.1100 
  9 C        3.2710     2.8370    -1.4320 C.3   1 <1>   0.1100 
 10 C        3.6560     5.2630     0.1460 C.3   1 <1>  -0.0190 
 11 C        4.6350     3.5330    -1.4080 C.3   1 <1>  -0.1600 
 12 C        3.4170     6.7500     0.3970 C.2   1 <1>   0.4480 
 13 C        4.4920     5.0340    -1.1270 C.3   1 <1>  -0.1600 
 14 O        2.3770     7.2780     0.1360 O.2   1 <1>  -0.5700 
 15 C        4.5620     7.5390     1.0220 C.3   1 <1>  -0.0990 
 16 C        4.8850     8.8490     0.2780 C.3   1 <1>  -0.0800 
 17 C        5.3460     8.5880    -1.1620 C.3   1 <1>  -0.2400 
 18 C        5.9670     9.6310     1.0330 C.3   1 <1>  -0.2400 
 19 H        2.2300     0.4120    -0.3910 H     1 <1>   0.0800 
 20 H        2.0520     0.8830     1.2780 H     1 <1>   0.0800 
 21 H       -0.2570    -2.3200     1.0440 H     1 <1>   0.0800 
 22 H        1.0650    -1.5980     1.9150 H     1 <1>   0.0800 
 23 H        1.2750    -2.0940     0.2520 H     1 <1>   0.0800 
 24 H        0.6520     2.7560     0.6390 H     1 <1>   0.0800 
 25 H        0.8000     2.3500    -1.0500 H     1 <1>   0.0800 
 26 H        1.7830     4.6430     0.9740 H     1 <1>   0.0800 
 27 H        1.7300     4.8910    -0.7520 H     1 <1>   0.0800 
 28 H        2.6780     3.2230    -2.2460 H     1 <1>   0.0800 
 29 H        3.4220     1.7840    -1.5950 H     1 <1>   0.0800 
 30 H        4.1890     4.8670     0.9920 H     1 <1>   0.0800 
 31 H        5.1250     3.3880    -2.3540 H     1 <1>   0.0800 
 32 H        5.2430     3.0740    -0.6480 H     1 <1>   0.0800 
 33 H        5.4680     5.4750    -1.0190 H     1 <1>   0.0800 
 34 H        4.0010     5.5060    -1.9610 H     1 <1>   0.0800 
 35 H        5.4450     6.9280     1.0650 H     1 <1>   0.0800 
 36 H        4.2760     7.7700     2.0320 H     1 <1>   0.0800 
 37 H        3.9920     9.4530     0.2460 H     1 <1>   0.0800 
 38 H        6.2240     7.9670    -1.1770 H     1 <1>   0.0800 
 39 H        5.5790     9.5190    -1.6500 H     1 <1>   0.0800 
 40 H        4.5670     8.1080    -1.7270 H     1 <1>   0.0800 
 41 H        6.8810     9.0660     1.0850 H     1 <1>   0.0800 
 42 H        5.6400     9.8520     2.0330 H     1 <1>   0.0800 
 43 H        6.1690    10.5630     0.5330 H     1 <1>   0.0800 
@<TRIPOS>BOND
  1   1   2  2   
  2   1   3  2   
  3   1   4  1   
  4   1   5  1   
  5   4   6  1   
  6   4  19  1   
  7   4  20  1   
  8   5  21  1   
  9   5  22  1   
 10   5  23  1   
 11   6   7  1   
 12   6  24  1   
 13   6  25  1   
 14   7   8  1   
 15   7   9  1   
 16   8  10  1   
 17   8  26  1   
 18   8  27  1   
 19   9  11  1   
 20   9  28  1   
 21   9  29  1   
 22  10  12  1   
 23  10  13  1   
 24  10  30  1   
 25  11  13  1   
 26  11  31  1   
 27  11  32  1   
 28  12  14  2   
 29  12  15  1   
 30  13  33  1   
 31  13  34  1   
 32  15  16  1   
 33  15  35  1   
 34  15  36  1   
 35  16  17  1   
 36  16  18  1   
 37  16  37  1   
 38  17  38  1   
 39  17  39  1   
 40  17  40  1   
 41  18  41  1   
 42  18  42  1   
 43  18  43  1   
@<TRIPOS>SUBSTRUCTURE
  1 ****   8 GROUP 4 **** **** 0

# MOE 2024.06 (io_trps.svl 2023.06)
