@<TRIPOS>MOLECULE
NONAME
47 49 1 0 0 
SMALL
USER_CHARGES


@<TRIPOS>ATOM
  1 O        0.5110    -0.2190    -1.6040 O.2   1 <1>  -0.5700 
  2 C        1.3480    -0.6680    -0.8420 C.2   1 <1>   0.7150 
  3 N        2.1370     0.2010    -0.1240 N.am  1 <1>  -0.6600 
  4 C        1.5080    -2.0880    -0.7040 C.2   1 <1>  -0.2370 
  5 C        2.1410     1.6720    -0.3670 C.3   1 <1>   0.1400 
  6 C        3.1380    -0.2240     0.8970 C.3   1 <1>   0.1400 
  7 N        0.6450    -2.9240    -0.0290 N.pl3 1 <1>   0.0480 
  8 C        2.5360    -2.8520    -1.1940 C.2   1 <1>  -0.1500 
  9 C        3.5630     2.1600    -0.6940 C.3   1 <1>   0.1100 
 10 C        4.5350     0.3060     0.5320 C.3   1 <1>   0.1100 
 11 C        1.1570    -4.1800    -0.1050 C.2   1 <1>  -0.3020 
 12 C       -0.6290    -2.6160     0.6880 C.3   1 <1>   0.1760 
 13 C        2.3150    -4.1690    -0.8140 C.2   1 <1>  -0.1500 
 14 N        4.5400     1.7760     0.3570 N.3   1 <1>  -0.8100 
 15 C       -1.7650    -2.3380    -0.3020 C.3   1 <1>  -0.2400 
 16 C       -0.4670    -1.4740     1.7000 C.3   1 <1>  -0.2400 
 17 C        5.8990     2.2450     0.0360 C.3   1 <1>   0.1100 
 18 C        6.0320     3.7460     0.3000 C.3   1 <1>   0.0960 
 19 N        7.4320     4.1610     0.1230 N.pl3 1 <1>   0.3140 
 20 N        8.0450     4.1440    -1.0530 N.2   1 <1>  -0.7070 
 21 C        8.2940     4.5970     1.0460 C.2   1 <1>   0.0360 
 22 C        9.2290     4.5710    -0.7550 C.2   1 <1>   0.3660 
 23 N        9.4400     4.8660     0.5340 N.2   1 <1>  -0.5650 
 24 H        1.7850     2.1760     0.5130 H     1 <1>   0.0800 
 25 H        1.4860     1.9250    -1.1820 H     1 <1>   0.0800 
 26 H        3.1750    -1.2940     0.9840 H     1 <1>   0.0800 
 27 H        2.8520     0.1740     1.8550 H     1 <1>   0.0800 
 28 H        3.3730    -2.5050    -1.7760 H     1 <1>   0.1500 
 29 H        3.5360     3.2300    -0.7940 H     1 <1>   0.0800 
 30 H        3.8610     1.7440    -1.6420 H     1 <1>   0.0800 
 31 H        4.8650    -0.1740    -0.3740 H     1 <1>   0.0800 
 32 H        5.2180     0.0370     1.3200 H     1 <1>   0.0800 
 33 H        0.6730    -5.0290     0.3440 H     1 <1>   0.1500 
 34 H       -0.8920    -3.4990     1.2430 H     1 <1>   0.0800 
 35 H        2.9510    -5.0050    -1.0510 H     1 <1>   0.1500 
 36 H       -1.5860    -1.4320    -0.8510 H     1 <1>   0.0800 
 37 H       -2.6950    -2.2330     0.2260 H     1 <1>   0.0800 
 38 H       -1.8570    -3.1550    -0.9960 H     1 <1>   0.0800 
 39 H       -0.3520    -0.5280     1.2040 H     1 <1>   0.0800 
 40 H        0.3840    -1.6540     2.3320 H     1 <1>   0.0800 
 41 H       -1.3430    -1.4140     2.3190 H     1 <1>   0.0800 
 42 H        6.1370     2.0250    -0.9920 H     1 <1>   0.0800 
 43 H        6.6060     1.7320     0.6660 H     1 <1>   0.0800 
 44 H        5.7260     3.9680     1.3050 H     1 <1>   0.0800 
 45 H        5.4310     4.3050    -0.3920 H     1 <1>   0.0800 
 46 H        8.0400     4.7010     2.0860 H     1 <1>   0.1500 
 47 H       10.0160     4.6910    -1.4820 H     1 <1>   0.1500 
@<TRIPOS>BOND
  1   1   2  2   
  2   2   3  am  
  3   2   4  1   
  4   3   5  1   
  5   3   6  1   
  6   4   7  1   
  7   4   8  2   
  8   5   9  1   
  9   5  24  1   
 10   5  25  1   
 11   6  10  1   
 12   6  26  1   
 13   6  27  1   
 14   7  11  1   
 15   7  12  1   
 16   8  13  1   
 17   8  28  1   
 18   9  14  1   
 19   9  29  1   
 20   9  30  1   
 21  10  14  1   
 22  10  31  1   
 23  10  32  1   
 24  11  13  2   
 25  11  33  1   
 26  12  15  1   
 27  12  16  1   
 28  12  34  1   
 29  13  35  1   
 30  14  17  1   
 31  15  36  1   
 32  15  37  1   
 33  15  38  1   
 34  16  39  1   
 35  16  40  1   
 36  16  41  1   
 37  17  18  1   
 38  17  42  1   
 39  17  43  1   
 40  18  19  1   
 41  18  44  1   
 42  18  45  1   
 43  19  20  1   
 44  19  21  1   
 45  20  22  2   
 46  21  23  2   
 47  21  46  1   
 48  22  23  1   
 49  22  47  1   
@<TRIPOS>SUBSTRUCTURE
  1 ****  10 GROUP 4 **** **** 0

# MOE 2024.06 (io_trps.svl 2023.06)
