@<TRIPOS>MOLECULE
NONAME
36 37 1 0 0 
SMALL
USER_CHARGES


@<TRIPOS>ATOM
  1 CL       0.2970    -0.8650     1.2390 Cl    1 <1>  -0.1770 
  2 C       -0.2170    -2.4170     0.6200 C.ar  1 <1>   0.1770 
  3 C        0.6220    -3.5170     0.7090 C.ar  1 <1>  -0.1440 
  4 C       -1.4720    -2.5080     0.0480 C.ar  1 <1>  -0.1500 
  5 C        0.1690    -4.7270     0.2080 C.ar  1 <1>  -0.1500 
  6 C        2.0000    -3.4130     1.3430 C.3   1 <1>  -0.0960 
  7 C       -1.9310    -3.7160    -0.4610 C.ar  1 <1>  -0.0090 
  8 C       -1.0880    -4.8190    -0.3670 C.ar  1 <1>  -0.1500 
  9 S       -3.5910    -3.8550    -1.1840 S.o2  1 <1>   1.4470 
 10 O       -3.6530    -4.9930    -2.0760 O.2   1 <1>  -0.6500 
 11 O       -3.9770    -2.5590    -1.7020 O.2   1 <1>  -0.6500 
 12 N       -4.6080    -4.1550     0.1420 N.am  1 <1>  -0.8490 
 13 C       -4.2230    -5.2740     1.0210 C.3   1 <1>   0.1960 
 14 C       -6.0410    -4.1420    -0.2070 C.3   1 <1>   0.1960 
 15 C       -4.5290    -6.6450     0.4140 C.3   1 <1>  -0.1860 
 16 C       -6.7570    -5.4760     0.0520 C.3   1 <1>  -0.1600 
 17 C       -4.3890    -7.6190     1.5590 C.2   1 <1>   0.9060 
 18 C       -5.8690    -6.6490    -0.3530 C.3   1 <1>   0.2000 
 19 O       -3.2460    -7.9210     1.9110 O.co2 1 <1>  -0.9000 
 20 O       -5.3970    -8.0280     2.1500 O.co2 1 <1>  -0.9000 
 21 O       -6.5770    -7.8070    -0.1290 O.3   1 <1>  -0.6800 
 22 H       -2.0970    -1.6330     0.0010 H     1 <1>   0.1500 
 23 H        0.7850    -5.6080     0.2660 H     1 <1>   0.1500 
 24 H        2.5060    -4.3610     1.3240 H     1 <1>   0.0800 
 25 H        1.9100    -3.0960     2.3660 H     1 <1>   0.0800 
 26 H        2.5980    -2.6960     0.8090 H     1 <1>   0.0800 
 27 H       -1.4240    -5.7730    -0.7430 H     1 <1>   0.1500 
 28 H       -3.1820    -5.2180     1.2900 H     1 <1>   0.0800 
 29 H       -4.7770    -5.1780     1.9420 H     1 <1>   0.0800 
 30 H       -6.5260    -3.3680     0.3630 H     1 <1>   0.0800 
 31 H       -6.1590    -3.8900    -1.2490 H     1 <1>   0.0800 
 32 H       -3.7530    -6.8940    -0.2820 H     1 <1>   0.0800 
 33 H       -7.6720    -5.5010    -0.5110 H     1 <1>   0.0800 
 34 H       -7.0020    -5.5550     1.0970 H     1 <1>   0.0800 
 35 H       -5.6770    -6.5940    -1.4120 H     1 <1>   0.0800 
 36 H       -6.3580    -8.0890     0.8120 H     1 <1>   0.4000 
@<TRIPOS>BOND
  1   1   2  1   
  2   2   3  ar  
  3   2   4  ar  
  4   3   5  ar  
  5   3   6  1   
  6   4   7  ar  
  7   4  22  1   
  8   5   8  ar  
  9   5  23  1   
 10   6  24  1   
 11   6  25  1   
 12   6  26  1   
 13   7   8  ar  
 14   7   9  1   
 15   8  27  1   
 16   9  10  2   
 17   9  11  2   
 18   9  12  am  
 19  12  13  1   
 20  12  14  1   
 21  13  15  1   
 22  13  28  1   
 23  13  29  1   
 24  14  16  1   
 25  14  30  1   
 26  14  31  1   
 27  15  17  1   
 28  15  18  1   
 29  15  32  1   
 30  16  18  1   
 31  16  33  1   
 32  16  34  1   
 33  17  19  ar  
 34  17  20  ar  
 35  18  21  1   
 36  18  35  1   
 37  21  36  1   
@<TRIPOS>SUBSTRUCTURE
  1 ****  13 GROUP 4 **** **** 0

# MOE 2024.06 (io_trps.svl 2023.06)
