@<TRIPOS>MOLECULE
NONAME
53 55 1 0 0 
SMALL
USER_CHARGES


@<TRIPOS>ATOM
  1 O       -0.8670     0.3040    -1.2440 O.2   1 <1>  -0.5700 
  2 C       -1.6100     0.9580    -0.5400 C.2   1 <1>   0.5440 
  3 N       -2.6090     0.3120     0.1520 N.am  1 <1>  -0.6600 
  4 C       -1.4380     2.3880    -0.4690 C.ar  1 <1>   0.0860 
  5 C       -2.6080    -1.1770     0.3190 C.3   1 <1>   0.1400 
  6 C       -3.9600     0.9100     0.3910 C.3   1 <1>   0.1400 
  7 C       -1.5920     3.1020     0.7030 C.ar  1 <1>   0.1600 
  8 C       -1.1070     3.1410    -1.5780 C.ar  1 <1>   0.1600 
  9 C       -3.7490    -1.8210    -0.4870 C.3   1 <1>   0.3440 
 10 C       -5.0410     0.1620    -0.4270 C.3   1 <1>   0.2000 
 11 N       -1.4720     4.4100     0.7730 N.ar  1 <1>  -0.6200 
 12 N       -0.9760     4.4500    -1.5460 N.ar  1 <1>  -0.6200 
 13 O       -4.9700    -1.2130    -0.1510 O.3   1 <1>  -0.5600 
 14 C       -3.8250    -3.3180    -0.2040 C.ar  1 <1>  -0.1430 
 15 C       -6.4990     0.6590    -0.1840 C.3   1 <1>   0.0000 
 16 C       -1.1660     5.0170    -0.3640 C.ar  1 <1>   0.4770 
 17 C       -4.5990    -3.8240     0.8320 C.ar  1 <1>  -0.1500 
 18 C       -3.0930    -4.1980    -0.9900 C.ar  1 <1>  -0.1500 
 19 C       -6.6330     2.1570    -0.5170 C.3   1 <1>  -0.2400 
 20 C       -6.9530     0.4410     1.2720 C.3   1 <1>  -0.2400 
 21 C       -7.4620    -0.1090    -1.1090 C.3   1 <1>  -0.2400 
 22 C       -1.0120     6.5290    -0.3060 C.3   1 <1>  -0.0170 
 23 C       -4.6400    -5.1850     1.0790 C.ar  1 <1>  -0.1500 
 24 C       -3.1330    -5.5600    -0.7440 C.ar  1 <1>  -0.1500 
 25 C        0.4280     6.9510     0.0200 C.3   1 <1>  -0.2400 
 26 C       -3.9060    -6.0540     0.2910 C.ar  1 <1>  -0.1500 
 27 H       -1.6700    -1.5960     0.0010 H     1 <1>   0.0800 
 28 H       -2.7360    -1.4190     1.3590 H     1 <1>   0.0800 
 29 H       -4.1890     0.8470     1.4390 H     1 <1>   0.0800 
 30 H       -3.9630     1.9460     0.1090 H     1 <1>   0.0800 
 31 H       -1.8240     2.5720     1.6110 H     1 <1>   0.1500 
 32 H       -0.9480     2.6400    -2.5190 H     1 <1>   0.1500 
 33 H       -3.5800    -1.6660    -1.5390 H     1 <1>   0.0800 
 34 H       -4.8200     0.2910    -1.4730 H     1 <1>   0.0800 
 35 H       -5.1760    -3.1560     1.4480 H     1 <1>   0.1500 
 36 H       -2.4860    -3.8270    -1.7970 H     1 <1>   0.1500 
 37 H       -7.6610     2.4660    -0.4460 H     1 <1>   0.0800 
 38 H       -6.2930     2.3540    -1.5180 H     1 <1>   0.0800 
 39 H       -6.0650     2.7630     0.1660 H     1 <1>   0.0800 
 40 H       -7.9820     0.7310     1.3920 H     1 <1>   0.0800 
 41 H       -6.3640     1.0200     1.9580 H     1 <1>   0.0800 
 42 H       -6.8660    -0.5980     1.5400 H     1 <1>   0.0800 
 43 H       -8.4720     0.2370    -0.9840 H     1 <1>   0.0800 
 44 H       -7.4410    -1.1620    -0.8860 H     1 <1>   0.0800 
 45 H       -7.1830     0.0210    -2.1390 H     1 <1>   0.0800 
 46 H       -1.3030     6.9460    -1.2530 H     1 <1>   0.0800 
 47 H       -1.6780     6.9190     0.4420 H     1 <1>   0.0800 
 48 H       -5.2440    -5.5670     1.8830 H     1 <1>   0.1500 
 49 H       -2.5620    -6.2340    -1.3580 H     1 <1>   0.1500 
 50 H        1.1000     6.5780    -0.7330 H     1 <1>   0.0800 
 51 H        0.7230     6.5520     0.9740 H     1 <1>   0.0800 
 52 H        0.5020     8.0230     0.0520 H     1 <1>   0.0800 
 53 H       -3.9380    -7.1130     0.4830 H     1 <1>   0.1500 
@<TRIPOS>BOND
  1   1   2  2   
  2   2   3  am  
  3   2   4  1   
  4   3   5  1   
  5   3   6  1   
  6   4   7  ar  
  7   4   8  ar  
  8   5   9  1   
  9   5  27  1   
 10   5  28  1   
 11   6  10  1   
 12   6  29  1   
 13   6  30  1   
 14   7  11  ar  
 15   7  31  1   
 16   8  12  ar  
 17   8  32  1   
 18   9  13  1   
 19   9  14  1   
 20   9  33  1   
 21  10  13  1   
 22  10  15  1   
 23  10  34  1   
 24  11  16  ar  
 25  12  16  ar  
 26  14  17  ar  
 27  14  18  ar  
 28  15  19  1   
 29  15  20  1   
 30  15  21  1   
 31  16  22  1   
 32  17  23  ar  
 33  17  35  1   
 34  18  24  ar  
 35  18  36  1   
 36  19  37  1   
 37  19  38  1   
 38  19  39  1   
 39  20  40  1   
 40  20  41  1   
 41  20  42  1   
 42  21  43  1   
 43  21  44  1   
 44  21  45  1   
 45  22  25  1   
 46  22  46  1   
 47  22  47  1   
 48  23  26  ar  
 49  23  48  1   
 50  24  26  ar  
 51  24  49  1   
 52  25  50  1   
 53  25  51  1   
 54  25  52  1   
 55  26  53  1   
@<TRIPOS>SUBSTRUCTURE
  1 ****   3 GROUP 4 **** **** 0

# MOE 2024.06 (io_trps.svl 2023.06)
