@<TRIPOS>MOLECULE
NONAME
58 61 1 0 0 
SMALL
USER_CHARGES


@<TRIPOS>ATOM
  1 CL      -0.3390    -7.3620    -3.1020 Cl    1 <1>  -0.1770 
  2 C       -0.6860    -6.9980    -1.4260 C.ar  1 <1>   0.1770 
  3 C       -1.9090    -6.4610    -1.0410 C.ar  1 <1>  -0.1440 
  4 C        0.3120    -7.2730    -0.5090 C.ar  1 <1>  -0.1500 
  5 C       -2.1180    -6.1880     0.3130 C.ar  1 <1>   0.1170 
  6 C       -3.0200    -6.1850    -2.0580 C.3   1 <1>  -0.0970 
  7 C        0.0960    -7.0100     0.8300 C.ar  1 <1>  -0.1500 
  8 N       -3.3300    -5.6220     0.7300 N.am  1 <1>  -0.5470 
  9 C       -1.1110    -6.4700     1.2320 C.ar  1 <1>  -0.1500 
 10 C       -4.0580    -5.7980     1.8730 C.2   1 <1>   0.5690 
 11 O       -3.7200    -6.5120     2.7850 O.2   1 <1>  -0.5700 
 12 C       -5.3640    -5.0610     1.9830 C.3   1 <1>  -0.0380 
 13 C       -6.1540    -5.3620     0.7360 C.2   1 <1>   0.5690 
 14 O       -5.9750    -4.6080    -0.1930 O.2   1 <1>  -0.5700 
 15 N       -6.9720    -6.4590     0.6360 N.am  1 <1>  -0.6600 
 16 C       -7.1150    -7.5400     1.6570 C.3   1 <1>   0.1400 
 17 C       -7.6740    -6.7780    -0.6380 C.3   1 <1>   0.1400 
 18 C       -6.5110    -8.8340     1.1070 C.3   1 <1>  -0.1600 
 19 C       -7.0760    -8.0550    -1.2330 C.3   1 <1>  -0.1600 
 20 C       -7.1340    -9.2340    -0.2470 C.3   1 <1>   0.4240 
 21 O       -8.5160    -9.4120    -0.0160 O.3   1 <1>  -0.5600 
 22 C       -6.4850   -10.5050    -0.8640 C.ar  1 <1>  -0.1440 
 23 C       -8.9470   -10.6580     0.4260 C.3   1 <1>   0.1200 
 24 C       -5.1290   -10.5560    -1.2090 C.ar  1 <1>   0.0830 
 25 C       -7.2580   -11.6440    -1.0900 C.ar  1 <1>  -0.1430 
 26 C       -8.7200   -11.6600    -0.6960 C.3   1 <1>  -0.0170 
 27 O       -4.3280    -9.4900    -0.9660 O.3   1 <1>  -0.3620 
 28 C       -4.5910   -11.6960    -1.7980 C.ar  1 <1>  -0.1500 
 29 C       -6.7110   -12.7780    -1.6680 C.ar  1 <1>  -0.1500 
 30 C       -3.0140    -9.7010    -0.4930 C.3   1 <1>   0.0400 
 31 C       -5.3790   -12.8050    -2.0270 C.ar  1 <1>  -0.1500 
 32 H        1.2450    -7.6890    -0.8440 H     1 <1>   0.1500 
 33 H       -2.8360    -6.6620    -3.0020 H     1 <1>   0.0800 
 34 H       -3.1110    -5.1270    -2.2260 H     1 <1>   0.0800 
 35 H       -3.9600    -6.5610    -1.6940 H     1 <1>   0.0800 
 36 H        0.8630    -7.2200     1.5570 H     1 <1>   0.1500 
 37 H       -3.8320    -5.1070    -0.0030 H     1 <1>   0.3700 
 38 H       -1.2730    -6.2620     2.2750 H     1 <1>   0.1500 
 39 H       -5.1650    -4.0080     2.0340 H     1 <1>   0.0800 
 40 H       -5.8950    -5.3380     2.8700 H     1 <1>   0.0800 
 41 H       -8.1610    -7.6850     1.8690 H     1 <1>   0.0800 
 42 H       -6.6220    -7.2900     2.5770 H     1 <1>   0.0800 
 43 H       -7.5780    -5.9710    -1.3440 H     1 <1>   0.0800 
 44 H       -8.7240    -6.9170    -0.4390 H     1 <1>   0.0800 
 45 H       -6.6350    -9.6290     1.8160 H     1 <1>   0.0800 
 46 H       -5.4570    -8.6740     1.0050 H     1 <1>   0.0800 
 47 H       -6.0630    -7.8470    -1.5130 H     1 <1>   0.0800 
 48 H       -7.6040    -8.3230    -2.1280 H     1 <1>   0.0800 
 49 H       -9.9940   -10.5820     0.6600 H     1 <1>   0.0800 
 50 H       -8.4020   -10.9320     1.3120 H     1 <1>   0.0800 
 51 H       -9.3300   -11.4010    -1.5420 H     1 <1>   0.0800 
 52 H       -9.0050   -12.6390    -0.3560 H     1 <1>   0.0800 
 53 H       -3.5570   -11.7230    -2.0880 H     1 <1>   0.1500 
 54 H       -7.3220   -13.6470    -1.8430 H     1 <1>   0.1500 
 55 H       -2.7120    -8.8300     0.0570 H     1 <1>   0.0800 
 56 H       -2.3610    -9.8520    -1.3340 H     1 <1>   0.0800 
 57 H       -3.0040   -10.5560     0.1600 H     1 <1>   0.0800 
 58 H       -4.9580   -13.6840    -2.4820 H     1 <1>   0.1500 
@<TRIPOS>BOND
  1   1   2  1   
  2   2   3  ar  
  3   2   4  ar  
  4   3   5  ar  
  5   3   6  1   
  6   4   7  ar  
  7   4  32  1   
  8   5   8  1   
  9   5   9  ar  
 10   6  33  1   
 11   6  34  1   
 12   6  35  1   
 13   7   9  ar  
 14   7  36  1   
 15   8  10  am  
 16   8  37  1   
 17   9  38  1   
 18  10  11  2   
 19  10  12  1   
 20  12  13  1   
 21  12  39  1   
 22  12  40  1   
 23  13  14  2   
 24  13  15  am  
 25  15  16  1   
 26  15  17  1   
 27  16  18  1   
 28  16  41  1   
 29  16  42  1   
 30  17  19  1   
 31  17  43  1   
 32  17  44  1   
 33  18  20  1   
 34  18  45  1   
 35  18  46  1   
 36  19  20  1   
 37  19  47  1   
 38  19  48  1   
 39  20  21  1   
 40  20  22  1   
 41  21  23  1   
 42  22  24  ar  
 43  22  25  ar  
 44  23  26  1   
 45  23  49  1   
 46  23  50  1   
 47  24  27  1   
 48  24  28  ar  
 49  25  26  1   
 50  25  29  ar  
 51  26  51  1   
 52  26  52  1   
 53  27  30  1   
 54  28  31  ar  
 55  28  53  1   
 56  29  31  ar  
 57  29  54  1   
 58  30  55  1   
 59  30  56  1   
 60  30  57  1   
 61  31  58  1   
@<TRIPOS>SUBSTRUCTURE
  1 ****  27 GROUP 4 **** **** 0

# MOE 2024.06 (io_trps.svl 2023.06)
