@<TRIPOS>MOLECULE
NONAME
47 49 1 0 0 
SMALL
USER_CHARGES


@<TRIPOS>ATOM
  1 F       -0.4480     0.4860     1.4010 F     1 <1>  -0.3400 
  2 C       -0.7380     0.5720     0.1080 C.3   1 <1>   1.3000 
  3 F        0.2900     0.0950    -0.5830 F     1 <1>  -0.3400 
  4 F       -0.8710     1.8550    -0.1950 F     1 <1>  -0.3400 
  5 O       -1.9300    -0.1260    -0.1990 O.3   1 <1>  -0.3630 
  6 C       -1.9680    -1.4470     0.0710 C.ar  1 <1>   0.0820 
  7 C       -2.4290    -1.8880     1.3010 C.ar  1 <1>  -0.1500 
  8 C       -1.5620    -2.3610    -0.8890 C.ar  1 <1>  -0.1500 
  9 C       -2.4750    -3.2430     1.5750 C.ar  1 <1>  -0.1500 
 10 C       -1.6090    -3.7170    -0.6130 C.ar  1 <1>  -0.1500 
 11 C       -2.0710    -4.1650     0.6180 C.ar  1 <1>  -0.1430 
 12 C       -2.1290    -5.6530     0.9080 C.3   1 <1>   0.4870 
 13 N       -3.3350    -6.2080     0.2390 N.4   1 <1>  -0.9590 
 14 C       -3.2800    -7.7060     0.1890 C.3   1 <1>   0.5660 
 15 C       -4.6090    -5.7190     0.8620 C.3   1 <1>   0.3430 
 16 C       -2.1110    -8.0970    -0.7050 C.ar  1 <1>  -0.1430 
 17 C       -4.6030    -8.3580    -0.2970 C.3   1 <1>   0.2000 
 18 C       -5.8390    -6.4070     0.2440 C.3   1 <1>   0.1200 
 19 C       -1.0920    -8.8780    -0.1770 C.ar  1 <1>  -0.1500 
 20 C       -2.0350    -7.6870    -2.0320 C.ar  1 <1>  -0.1500 
 21 O       -5.7180    -7.7940     0.3520 O.3   1 <1>  -0.5600 
 22 C       -4.5890    -9.8700    -0.0180 C.3   1 <1>   0.1200 
 23 C       -0.0060    -9.2320    -0.9580 C.ar  1 <1>  -0.1500 
 24 C       -0.9480    -8.0420    -2.8100 C.ar  1 <1>  -0.1500 
 25 O       -4.1640   -10.1140     1.2870 O.3   1 <1>  -0.6800 
 26 C        0.0670    -8.8120    -2.2730 C.ar  1 <1>  -0.1500 
 27 H       -2.7460    -1.1700     2.0390 H     1 <1>   0.1500 
 28 H       -1.2090    -2.0110    -1.8440 H     1 <1>   0.1500 
 29 H       -2.8250    -3.5630     2.5430 H     1 <1>   0.1500 
 30 H       -1.2750    -4.4110    -1.3670 H     1 <1>   0.1500 
 31 H       -2.1720    -5.8270     1.9700 H     1 <1>   0.0800 
 32 H       -1.2370    -6.1180     0.5210 H     1 <1>   0.0800 
 33 H       -3.2980    -5.8790    -0.7290 H     1 <1>   0.4500 
 34 H       -3.0900    -8.0770     1.1830 H     1 <1>   0.0800 
 35 H       -4.6030    -5.9260     1.9190 H     1 <1>   0.0800 
 36 H       -4.6950    -4.6520     0.7330 H     1 <1>   0.0800 
 37 H       -4.7330    -8.2030    -1.3530 H     1 <1>   0.0800 
 38 H       -5.9580    -6.1440    -0.7940 H     1 <1>   0.0800 
 39 H       -6.7300    -6.1160     0.7740 H     1 <1>   0.0800 
 40 H       -1.1330    -9.2240     0.8430 H     1 <1>   0.1500 
 41 H       -2.8120    -7.0950    -2.4850 H     1 <1>   0.1500 
 42 H       -3.9100   -10.3730    -0.6850 H     1 <1>   0.0800 
 43 H       -5.5770   -10.2800    -0.1450 H     1 <1>   0.0800 
 44 H        0.7830    -9.8380    -0.5450 H     1 <1>   0.1500 
 45 H       -0.8860    -7.7240    -3.8380 H     1 <1>   0.1500 
 46 H       -4.3800   -11.0340     1.5520 H     1 <1>   0.4000 
 47 H        0.9140    -9.0890    -2.8800 H     1 <1>   0.1500 
@<TRIPOS>BOND
  1   1   2  1   
  2   2   3  1   
  3   2   4  1   
  4   2   5  1   
  5   5   6  1   
  6   6   7  ar  
  7   6   8  ar  
  8   7   9  ar  
  9   7  27  1   
 10   8  10  ar  
 11   8  28  1   
 12   9  11  ar  
 13   9  29  1   
 14  10  11  ar  
 15  10  30  1   
 16  11  12  1   
 17  12  13  1   
 18  12  31  1   
 19  12  32  1   
 20  13  14  1   
 21  13  15  1   
 22  13  33  1   
 23  14  16  1   
 24  14  17  1   
 25  14  34  1   
 26  15  18  1   
 27  15  35  1   
 28  15  36  1   
 29  16  19  ar  
 30  16  20  ar  
 31  17  21  1   
 32  17  22  1   
 33  17  37  1   
 34  18  21  1   
 35  18  38  1   
 36  18  39  1   
 37  19  23  ar  
 38  19  40  1   
 39  20  24  ar  
 40  20  41  1   
 41  22  25  1   
 42  22  42  1   
 43  22  43  1   
 44  23  26  ar  
 45  23  44  1   
 46  24  26  ar  
 47  24  45  1   
 48  25  46  1   
 49  26  47  1   
@<TRIPOS>SUBSTRUCTURE
  1 ****  12 GROUP 4 **** **** 0

# MOE 2024.06 (io_trps.svl 2023.06)
