@<TRIPOS>MOLECULE
NONAME
47 48 1 0 0 
SMALL
USER_CHARGES


@<TRIPOS>ATOM
  1 CL      -0.5390    -0.8780     1.6110 Cl    1 <1>  -0.1770 
  2 C       -0.5020    -2.5660     1.1670 C.ar  1 <1>   0.1770 
  3 C       -0.5260    -2.9160    -0.1690 C.ar  1 <1>  -0.1500 
  4 C       -0.4500    -3.5260     2.1590 C.ar  1 <1>  -0.1500 
  5 C       -0.4970    -4.2560    -0.5180 C.ar  1 <1>  -0.1500 
  6 C       -0.4210    -4.8650     1.8040 C.ar  1 <1>  -0.1500 
  7 C       -0.4450    -5.2340     0.4660 C.ar  1 <1>  -0.1430 
  8 C       -0.4200    -6.7020     0.0750 C.3   1 <1>  -0.0160 
  9 C       -1.8450    -7.2240    -0.1300 C.3   1 <1>  -0.0990 
 10 C       -1.8370    -8.6880    -0.5010 C.2   1 <1>   0.5690 
 11 O       -1.6110    -9.0060    -1.6420 O.2   1 <1>  -0.5700 
 12 N       -2.0920    -9.6090     0.4580 N.am  1 <1>  -0.7300 
 13 C       -2.0530   -11.0770     0.2580 C.3   1 <1>   0.2200 
 14 C       -3.4590   -11.6450     0.1360 C.3   1 <1>  -0.0800 
 15 C       -1.6020   -11.7330     1.5540 C.3   1 <1>   0.1200 
 16 C       -3.8900   -11.8010     1.6010 C.3   1 <1>   0.1200 
 17 C       -4.4180   -10.8220    -0.7510 C.3   1 <1>  -0.0550 
 18 O       -2.7280   -11.7040     2.3750 O.3   1 <1>  -0.5600 
 19 S       -5.9970   -11.6150    -1.0650 S.o2  1 <1>   1.3330 
 20 O       -5.7410   -12.9940    -1.4150 O.2   1 <1>  -0.6500 
 21 O       -6.7800   -10.7820    -1.9490 O.2   1 <1>  -0.6500 
 22 N       -6.7640   -11.5960     0.4520 N.am  1 <1>  -0.8490 
 23 C       -7.7190   -12.6980     0.6010 C.3   1 <1>   0.1160 
 24 C       -7.4280   -10.3230     0.7520 C.3   1 <1>   0.1160 
 25 H       -0.5660    -2.1500    -0.9220 H     1 <1>   0.1500 
 26 H       -0.4310    -3.2270     3.1910 H     1 <1>   0.1500 
 27 H       -0.5160    -4.5340    -1.5580 H     1 <1>   0.1500 
 28 H       -0.3790    -5.6140     2.5750 H     1 <1>   0.1500 
 29 H        0.1420    -6.8260    -0.8360 H     1 <1>   0.0800 
 30 H        0.0720    -7.2770     0.8400 H     1 <1>   0.0800 
 31 H       -2.3190    -6.6730    -0.9220 H     1 <1>   0.0800 
 32 H       -2.4190    -7.0780     0.7670 H     1 <1>   0.0800 
 33 H       -2.3120    -9.3310     1.4170 H     1 <1>   0.3700 
 34 H       -1.4230   -11.3330    -0.5780 H     1 <1>   0.0800 
 35 H       -3.3760   -12.6340    -0.2840 H     1 <1>   0.0800 
 36 H       -0.7890   -11.2120     2.0280 H     1 <1>   0.0800 
 37 H       -1.3350   -12.7630     1.3910 H     1 <1>   0.0800 
 38 H       -4.3550   -12.7550     1.7810 H     1 <1>   0.0800 
 39 H       -4.5520   -11.0110     1.9110 H     1 <1>   0.0800 
 40 H       -3.9340   -10.6570    -1.6950 H     1 <1>   0.0800 
 41 H       -4.5870    -9.8600    -0.3100 H     1 <1>   0.0800 
 42 H       -8.1800   -12.6660     1.5740 H     1 <1>   0.0800 
 43 H       -7.2120   -13.6440     0.5020 H     1 <1>   0.0800 
 44 H       -8.4830   -12.6360    -0.1570 H     1 <1>   0.0800 
 45 H       -7.8160   -10.3350     1.7560 H     1 <1>   0.0800 
 46 H       -8.2400   -10.1500     0.0650 H     1 <1>   0.0800 
 47 H       -6.7280    -9.5090     0.6680 H     1 <1>   0.0800 
@<TRIPOS>BOND
  1   1   2  1   
  2   2   3  ar  
  3   2   4  ar  
  4   3   5  ar  
  5   3  25  1   
  6   4   6  ar  
  7   4  26  1   
  8   5   7  ar  
  9   5  27  1   
 10   6   7  ar  
 11   6  28  1   
 12   7   8  1   
 13   8   9  1   
 14   8  29  1   
 15   8  30  1   
 16   9  10  1   
 17   9  31  1   
 18   9  32  1   
 19  10  11  2   
 20  10  12  am  
 21  12  13  1   
 22  12  33  1   
 23  13  14  1   
 24  13  15  1   
 25  13  34  1   
 26  14  16  1   
 27  14  17  1   
 28  14  35  1   
 29  15  18  1   
 30  15  36  1   
 31  15  37  1   
 32  16  18  1   
 33  16  38  1   
 34  16  39  1   
 35  17  19  1   
 36  17  40  1   
 37  17  41  1   
 38  19  20  2   
 39  19  21  2   
 40  19  22  am  
 41  22  23  1   
 42  22  24  1   
 43  23  42  1   
 44  23  43  1   
 45  23  44  1   
 46  24  45  1   
 47  24  46  1   
 48  24  47  1   
@<TRIPOS>SUBSTRUCTURE
  1 ****  10 GROUP 4 **** **** 0

# MOE 2024.06 (io_trps.svl 2023.06)
