@<TRIPOS>MOLECULE
NONAME
58 62 1 0 0 
SMALL
USER_CHARGES


@<TRIPOS>ATOM
  1 S        1.0900     0.4360    -0.2490 S.o2  1 <1>   1.4470 
  2 O        1.8670    -0.1690     0.8160 O.2   1 <1>  -0.6500 
  3 O        1.7000     1.5020    -1.0060 O.2   1 <1>  -0.6500 
  4 N        0.8180    -0.8230    -1.3660 N.am  1 <1>  -0.8490 
  5 C       -0.5730     0.8860     0.3130 C.ar  1 <1>  -0.0090 
  6 C        1.9460    -1.0220    -2.2870 C.3   1 <1>   0.1960 
  7 C        0.4190    -2.1080    -0.7650 C.3   1 <1>   0.1960 
  8 C       -1.5930     1.1320    -0.5970 C.ar  1 <1>  -0.1500 
  9 C       -0.8700     0.9950     1.6670 C.ar  1 <1>  -0.1500 
 10 C        3.1760    -1.6010    -1.5530 C.3   1 <1>   0.3430 
 11 C        1.5810    -2.8550    -0.0550 C.3   1 <1>   0.3430 
 12 C       -2.8690     1.4610    -0.1740 C.ar  1 <1>  -0.1500 
 13 C       -2.1440     1.3240     2.0960 C.ar  1 <1>  -0.1500 
 14 N        2.8840    -2.9060    -0.8370 N.4   1 <1>  -0.9590 
 15 C       -3.1520     1.5550     1.1770 C.ar  1 <1>  -0.1430 
 16 C        4.0360    -3.2180     0.0660 C.3   1 <1>   0.3430 
 17 C       -4.5500     1.9190     1.6450 C.3   1 <1>  -0.0970 
 18 C        4.0150    -4.6640     0.5940 C.3   1 <1>  -0.0800 
 19 C        4.3790    -5.6460    -0.5290 C.3   1 <1>   0.2000 
 20 C        5.1200    -5.0120     1.6340 C.3   1 <1>  -0.0800 
 21 O        5.7490    -5.6310    -0.4100 O.3   1 <1>  -0.5600 
 22 C        4.0490    -7.0970    -0.1530 C.3   1 <1>  -0.1600 
 23 C        5.8990    -6.0890     0.8860 C.3   1 <1>   0.2800 
 24 C        6.2040    -3.9800     2.0240 C.3   1 <1>   0.3430 
 25 C        5.1640    -7.4270     0.8420 C.3   1 <1>  -0.1600 
 26 C        7.3450    -5.9870     1.3570 C.3   1 <1>   0.3430 
 27 N        7.5290    -4.5270     1.5930 N.4   1 <1>  -0.9060 
 28 H        1.6510    -1.6910    -3.0780 H     1 <1>   0.0800 
 29 H        2.2120    -0.0880    -2.7540 H     1 <1>   0.0800 
 30 H       -0.3820    -1.9450    -0.0620 H     1 <1>   0.0800 
 31 H        0.0250    -2.7430    -1.5410 H     1 <1>   0.0800 
 32 H       -1.3890     1.0690    -1.6530 H     1 <1>   0.1500 
 33 H       -0.1000     0.8250     2.4000 H     1 <1>   0.1500 
 34 H        3.5110    -0.8640    -0.8400 H     1 <1>   0.0800 
 35 H        3.9700    -1.7460    -2.2660 H     1 <1>   0.0800 
 36 H        1.2540    -3.8560     0.1720 H     1 <1>   0.0800 
 37 H        1.7560    -2.3670     0.8890 H     1 <1>   0.0800 
 38 H       -3.6400     1.6480    -0.9020 H     1 <1>   0.1500 
 39 H       -2.3480     1.4030     3.1510 H     1 <1>   0.1500 
 40 H        2.7920    -3.6300    -1.5630 H     1 <1>   0.4500 
 41 H        4.9600    -3.0660    -0.4700 H     1 <1>   0.0800 
 42 H        4.0170    -2.5310     0.8970 H     1 <1>   0.0800 
 43 H       -5.2850     1.5760     0.9390 H     1 <1>   0.0800 
 44 H       -4.6340     2.9860     1.7410 H     1 <1>   0.0800 
 45 H       -4.7580     1.4670     2.5980 H     1 <1>   0.0800 
 46 H        3.0480    -4.8960     1.0040 H     1 <1>   0.0800 
 47 H        4.0720    -5.3690    -1.5240 H     1 <1>   0.0800 
 48 H        4.6870    -5.4160     2.5340 H     1 <1>   0.0800 
 49 H        3.0660    -7.1960     0.2750 H     1 <1>   0.0800 
 50 H        4.1160    -7.7290    -1.0220 H     1 <1>   0.0800 
 51 H        6.1980    -3.8520     3.0960 H     1 <1>   0.0800 
 52 H        6.0320    -3.0200     1.5680 H     1 <1>   0.0800 
 53 H        5.8050    -8.2000     0.4530 H     1 <1>   0.0800 
 54 H        4.7870    -7.7240     1.8050 H     1 <1>   0.0800 
 55 H        8.0270    -6.3750     0.6170 H     1 <1>   0.0800 
 56 H        7.4610    -6.5300     2.2800 H     1 <1>   0.0800 
 57 H        8.2850    -4.3370     2.2660 H     1 <1>   0.4500 
 58 H        7.7980    -4.1110     0.6900 H     1 <1>   0.4500 
@<TRIPOS>BOND
  1   1   2  2   
  2   1   3  2   
  3   1   4  am  
  4   1   5  1   
  5   4   6  1   
  6   4   7  1   
  7   5   8  ar  
  8   5   9  ar  
  9   6  10  1   
 10   6  28  1   
 11   6  29  1   
 12   7  11  1   
 13   7  30  1   
 14   7  31  1   
 15   8  12  ar  
 16   8  32  1   
 17   9  13  ar  
 18   9  33  1   
 19  10  14  1   
 20  10  34  1   
 21  10  35  1   
 22  11  14  1   
 23  11  36  1   
 24  11  37  1   
 25  12  15  ar  
 26  12  38  1   
 27  13  15  ar  
 28  13  39  1   
 29  14  16  1   
 30  14  40  1   
 31  15  17  1   
 32  16  18  1   
 33  16  41  1   
 34  16  42  1   
 35  17  43  1   
 36  17  44  1   
 37  17  45  1   
 38  18  19  1   
 39  18  20  1   
 40  18  46  1   
 41  19  21  1   
 42  19  22  1   
 43  19  47  1   
 44  20  23  1   
 45  20  24  1   
 46  20  48  1   
 47  21  23  1   
 48  22  25  1   
 49  22  49  1   
 50  22  50  1   
 51  23  25  1   
 52  23  26  1   
 53  24  27  1   
 54  24  51  1   
 55  24  52  1   
 56  25  53  1   
 57  25  54  1   
 58  26  27  1   
 59  26  55  1   
 60  26  56  1   
 61  27  57  1   
 62  27  58  1   
@<TRIPOS>SUBSTRUCTURE
  1 ****  11 GROUP 4 **** **** 0

# MOE 2024.06 (io_trps.svl 2023.06)
