@<TRIPOS>MOLECULE
NONAME
45 47 1 0 0 
SMALL
USER_CHARGES


@<TRIPOS>ATOM
  1 O        3.9340    -0.0400     1.1790 O.2   1 <1>  -0.5700 
  2 C        3.0460    -0.5340     0.5000 C.2   1 <1>   0.7160 
  3 N        2.7870     0.0820    -0.6990 N.am  1 <1>  -0.6600 
  4 C        2.4170    -1.7780     0.8710 C.2   1 <1>  -0.0860 
  5 C        3.4170    -0.4530    -1.9500 C.3   1 <1>   0.1400 
  6 C        2.3090     1.4940    -0.7620 C.3   1 <1>   0.1400 
  7 C        1.3080    -2.4180     0.3950 C.2   1 <1>  -0.0400 
  8 C        2.8960    -2.6360     1.8840 C.2   1 <1>  -0.1500 
  9 C        4.9340    -0.1500    -2.0040 C.3   1 <1>   0.3430 
 10 C        3.4440     2.5260    -0.6230 C.3   1 <1>  -0.1600 
 11 O        1.1230    -3.5560     1.0170 O.3   1 <1>  -0.2800 
 12 C        0.2890    -2.0590    -0.6680 C.3   1 <1>  -0.0600 
 13 C        2.0670    -3.6960     1.9170 C.2   1 <1>  -0.0400 
 14 N        5.2770     0.9800    -1.0910 N.4   1 <1>  -0.9590 
 15 C        4.6840     2.2830    -1.4890 C.3   1 <1>   0.3430 
 16 C        2.0630    -4.9360     2.7850 C.3   1 <1>  -0.0600 
 17 C        6.7060     1.0780    -0.6910 C.3   1 <1>   0.5230 
 18 C        6.8070     2.0140     0.4990 C.2   1 <1>   0.0060 
 19 N        7.3350     3.1920     0.4250 N.2   1 <1>  -0.5650 
 20 N        6.3190     1.7140     1.7280 N.pl3 1 <1>   0.0330 
 21 C        7.2010     3.6860     1.6710 C.2   1 <1>   0.0770 
 22 C        6.5800     2.7990     2.4770 C.2   1 <1>  -0.3020 
 23 H        2.9350    -0.0200    -2.8090 H     1 <1>   0.0800 
 24 H        3.2650    -1.5190    -2.0050 H     1 <1>   0.0800 
 25 H        1.5920     1.6550     0.0280 H     1 <1>   0.0800 
 26 H        1.7920     1.6480    -1.6950 H     1 <1>   0.0800 
 27 H        3.7590    -2.4480     2.4960 H     1 <1>   0.1500 
 28 H        5.2350     0.0680    -3.0160 H     1 <1>   0.0800 
 29 H        5.4620    -1.0350    -1.6870 H     1 <1>   0.0800 
 30 H        3.7410     2.5910     0.4100 H     1 <1>   0.0800 
 31 H        3.0450     3.4920    -0.8770 H     1 <1>   0.0800 
 32 H        0.4520    -1.0740    -1.0590 H     1 <1>   0.0800 
 33 H       -0.6970    -2.0950    -0.2400 H     1 <1>   0.0800 
 34 H        0.3370    -2.7710    -1.4710 H     1 <1>   0.0800 
 35 H        4.7720     0.7520    -0.2120 H     1 <1>   0.4500 
 36 H        5.3910     3.0810    -1.3200 H     1 <1>   0.0800 
 37 H        4.4200     2.2780    -2.5340 H     1 <1>   0.0800 
 38 H        2.8880    -4.9130     3.4730 H     1 <1>   0.0800 
 39 H        2.1440    -5.8110     2.1670 H     1 <1>   0.0800 
 40 H        1.1440    -4.9850     3.3400 H     1 <1>   0.0800 
 41 H        7.2960     1.4700    -1.5030 H     1 <1>   0.0800 
 42 H        7.0890     0.1100    -0.4170 H     1 <1>   0.0800 
 43 H        5.8130     0.8680     2.0270 H     1 <1>   0.2700 
 44 H        7.5640     4.6700     1.9270 H     1 <1>   0.1500 
 45 H        6.3170     2.8820     3.5170 H     1 <1>   0.1500 
@<TRIPOS>BOND
  1   1   2  2   
  2   2   3  am  
  3   2   4  1   
  4   3   5  1   
  5   3   6  1   
  6   4   7  2   
  7   4   8  1   
  8   5   9  1   
  9   5  23  1   
 10   5  24  1   
 11   6  10  1   
 12   6  25  1   
 13   6  26  1   
 14   7  11  1   
 15   7  12  1   
 16   8  13  2   
 17   8  27  1   
 18   9  14  1   
 19   9  28  1   
 20   9  29  1   
 21  10  15  1   
 22  10  30  1   
 23  10  31  1   
 24  11  13  1   
 25  12  32  1   
 26  12  33  1   
 27  12  34  1   
 28  13  16  1   
 29  14  15  1   
 30  14  17  1   
 31  14  35  1   
 32  15  36  1   
 33  15  37  1   
 34  16  38  1   
 35  16  39  1   
 36  16  40  1   
 37  17  18  1   
 38  17  41  1   
 39  17  42  1   
 40  18  19  2   
 41  18  20  1   
 42  19  21  1   
 43  20  22  1   
 44  20  43  1   
 45  21  22  2   
 46  21  44  1   
 47  22  45  1   
@<TRIPOS>SUBSTRUCTURE
  1 ****   1 GROUP 4 **** **** 0

# MOE 2024.06 (io_trps.svl 2023.06)
