@<TRIPOS>MOLECULE
NONAME
53 55 1 0 0 
SMALL
USER_CHARGES


@<TRIPOS>ATOM
  1 O        0.0190     1.2170    -0.2450 O.2   1 <1>  -0.5700 
  2 C       -0.1590     2.4130    -0.2630 C.2   1 <1>   0.5690 
  3 N       -1.2680     3.0010     0.2820 N.am  1 <1>  -0.6600 
  4 C        0.8880     3.2880    -0.9490 C.3   1 <1>   0.1810 
  5 C       -1.4940     4.4820     0.1900 C.3   1 <1>   0.3640 
  6 C       -2.3050     2.2220     1.0180 C.3   1 <1>   0.0600 
  7 O        0.8960     4.6020    -0.4500 O.3   1 <1>  -0.5600 
  8 C       -2.8720     4.7800    -0.4280 C.ar  1 <1>  -0.1430 
  9 C       -0.3590     5.2710    -0.5220 C.3   1 <1>   0.2610 
 10 C       -3.3330     4.2670    -1.6460 C.ar  1 <1>  -0.1430 
 11 C       -3.7070     5.6240     0.2960 C.ar  1 <1>  -0.1500 
 12 C       -0.2340     6.6720     0.0960 C.2   1 <1>   0.5690 
 13 C       -4.6040     4.6030    -2.0920 C.ar  1 <1>  -0.1500 
 14 C       -2.5190     3.3320    -2.5340 C.3   1 <1>  -0.0960 
 15 C       -4.9700     5.9530    -0.1590 C.ar  1 <1>  -0.1500 
 16 O       -1.1790     7.4240     0.0800 O.2   1 <1>  -0.5700 
 17 N        0.9480     7.0400     0.6630 N.am  1 <1>  -0.7300 
 18 C       -5.4210     5.4400    -1.3570 C.ar  1 <1>  -0.1500 
 19 C        1.2480     8.3450     1.2850 C.3   1 <1>   0.1400 
 20 C        2.4960     8.9380     0.6320 C.3   1 <1>  -0.1600 
 21 C        2.8070    10.3270     1.1990 C.3   1 <1>   0.0210 
 22 C        4.0480    10.9030     0.5480 C.2   1 <1>  -0.1810 
 23 C        5.3720    10.6120     0.8640 C.2   1 <1>   0.1390 
 24 C        4.1310    11.8050    -0.4520 C.2   1 <1>  -0.3020 
 25 N        6.2100    11.2740     0.1260 N.2   1 <1>  -0.7070 
 26 N        5.4410    12.0110    -0.6900 N.pl3 1 <1>   0.3140 
 27 C        6.0280    12.9080    -1.6900 C.3   1 <1>   0.0160 
 28 H        0.7040     3.3200    -2.0060 H     1 <1>   0.0800 
 29 H        1.8620     2.8690    -0.7800 H     1 <1>   0.0800 
 30 H       -1.5110     4.8360     1.2060 H     1 <1>   0.0800 
 31 H       -2.4660     2.6540     1.9900 H     1 <1>   0.0800 
 32 H       -1.9960     1.1990     1.1430 H     1 <1>   0.0800 
 33 H       -3.2310     2.2350     0.4690 H     1 <1>   0.0800 
 34 H       -0.6020     5.3980    -1.5590 H     1 <1>   0.0800 
 35 H       -3.3770     6.0470     1.2290 H     1 <1>   0.1500 
 36 H       -4.9740     4.2120    -3.0230 H     1 <1>   0.1500 
 37 H       -2.9840     3.2140    -3.4960 H     1 <1>   0.0800 
 38 H       -2.4510     2.3600    -2.0810 H     1 <1>   0.0800 
 39 H       -1.5340     3.7190    -2.6980 H     1 <1>   0.0800 
 40 H       -5.5960     6.6110     0.4180 H     1 <1>   0.1500 
 41 H        1.7120     6.3560     0.6190 H     1 <1>   0.3700 
 42 H       -6.4020     5.6920    -1.7170 H     1 <1>   0.1500 
 43 H        0.4110     9.0110     1.1520 H     1 <1>   0.0800 
 44 H        1.4080     8.2050     2.3400 H     1 <1>   0.0800 
 45 H        3.3360     8.2890     0.8010 H     1 <1>   0.0800 
 46 H        2.3350     9.0260    -0.4290 H     1 <1>   0.0800 
 47 H        2.9600    10.2710     2.2630 H     1 <1>   0.0800 
 48 H        1.9770    10.9880     1.0160 H     1 <1>   0.0800 
 49 H        5.6790     9.9210     1.6300 H     1 <1>   0.1500 
 50 H        3.3480    12.2990    -0.9970 H     1 <1>   0.1500 
 51 H        5.2480    13.4220    -2.2180 H     1 <1>   0.0800 
 52 H        6.6140    12.3250    -2.3760 H     1 <1>   0.0800 
 53 H        6.6610    13.6170    -1.1900 H     1 <1>   0.0800 
@<TRIPOS>BOND
  1   1   2  2   
  2   2   3  am  
  3   2   4  1   
  4   3   5  1   
  5   3   6  1   
  6   4   7  1   
  7   4  28  1   
  8   4  29  1   
  9   5   8  1   
 10   5   9  1   
 11   5  30  1   
 12   6  31  1   
 13   6  32  1   
 14   6  33  1   
 15   7   9  1   
 16   8  10  ar  
 17   8  11  ar  
 18   9  12  1   
 19   9  34  1   
 20  10  13  ar  
 21  10  14  1   
 22  11  15  ar  
 23  11  35  1   
 24  12  16  2   
 25  12  17  am  
 26  13  18  ar  
 27  13  36  1   
 28  14  37  1   
 29  14  38  1   
 30  14  39  1   
 31  15  18  ar  
 32  15  40  1   
 33  17  19  1   
 34  17  41  1   
 35  18  42  1   
 36  19  20  1   
 37  19  43  1   
 38  19  44  1   
 39  20  21  1   
 40  20  45  1   
 41  20  46  1   
 42  21  22  1   
 43  21  47  1   
 44  21  48  1   
 45  22  23  1   
 46  22  24  2   
 47  23  25  2   
 48  23  49  1   
 49  24  26  1   
 50  24  50  1   
 51  25  26  1   
 52  26  27  1   
 53  27  51  1   
 54  27  52  1   
 55  27  53  1   
@<TRIPOS>SUBSTRUCTURE
  1 ****  12 GROUP 4 **** **** 0

# MOE 2024.06 (io_trps.svl 2023.06)
