@<TRIPOS>MOLECULE
NONAME
41 44 1 0 0 
SMALL
USER_CHARGES


@<TRIPOS>ATOM
  1 S        0.0520     0.1400     1.4550 S.3   1 <1>  -0.0800 
  2 C       -1.0740     1.0480     0.4550 C.2   1 <1>  -0.1400 
  3 C       -1.1070    -1.1720     1.6230 C.2   1 <1>  -0.1100 
  4 C       -2.2220     0.3730     0.3040 C.2   1 <1>  -0.1810 
  5 C       -0.7400     2.4150    -0.1340 C.3   1 <1>   0.4600 
  6 C       -2.2470    -0.8970     0.9620 C.2   1 <1>  -0.1500 
  7 C       -3.3420     0.9810    -0.5090 C.3   1 <1>   0.0210 
  8 O       -1.7860     2.7870    -1.0150 O.3   1 <1>  -0.5600 
  9 C        0.5350     2.3520    -0.9750 C.3   1 <1>  -0.1600 
 10 C       -0.5980     3.4780     0.9610 C.3   1 <1>  -0.1600 
 11 C       -3.1090     2.5000    -0.6290 C.3   1 <1>   0.1200 
 12 C        0.9060     3.7200    -1.5480 C.3   1 <1>   0.2090 
 13 C       -0.2620     4.8450     0.3690 C.3   1 <1>   0.2090 
 14 N        0.9510     4.7510    -0.4770 N.pl3 1 <1>  -0.8380 
 15 C        2.1680     5.0720     0.0980 C.ar  1 <1>   0.4100 
 16 N        2.8380     4.0640     0.6430 N.ar  1 <1>  -0.6200 
 17 C        2.6280     6.3960     0.0960 C.ar  1 <1>  -0.1430 
 18 C        3.9900     4.3710     1.2080 C.ar  1 <1>   0.1600 
 19 C        3.8330     6.6900     0.6930 C.ar  1 <1>  -0.1500 
 20 C        1.8210     7.5090    -0.5610 C.3   1 <1>  -0.0970 
 21 C        4.5270     5.6430     1.2640 C.ar  1 <1>  -0.1500 
 22 H       -0.8050    -2.0230     2.2080 H     1 <1>   0.1500 
 23 H       -3.1100    -1.5370     0.9070 H     1 <1>   0.1500 
 24 H       -4.2870     0.8030    -0.0290 H     1 <1>   0.0800 
 25 H       -3.3650     0.5360    -1.4870 H     1 <1>   0.0800 
 26 H        0.4040     1.6430    -1.7710 H     1 <1>   0.0800 
 27 H        1.3510     2.0090    -0.3660 H     1 <1>   0.0800 
 28 H        0.1990     3.1930     1.6240 H     1 <1>   0.0800 
 29 H       -1.4950     3.5350     1.5460 H     1 <1>   0.0800 
 30 H       -3.3020     2.9840     0.3110 H     1 <1>   0.0800 
 31 H       -3.7640     2.9180    -1.3730 H     1 <1>   0.0800 
 32 H        0.1780     4.0160    -2.2840 H     1 <1>   0.0800 
 33 H        1.8670     3.6620    -2.0300 H     1 <1>   0.0800 
 34 H       -0.0930     5.5510     1.1640 H     1 <1>   0.0800 
 35 H       -1.0810     5.2000    -0.2320 H     1 <1>   0.0800 
 36 H        4.5390     3.5600     1.6540 H     1 <1>   0.1500 
 37 H        4.2270     7.6910     0.7180 H     1 <1>   0.1500 
 38 H        1.5700     7.2280    -1.5690 H     1 <1>   0.0800 
 39 H        2.3770     8.4270    -0.5900 H     1 <1>   0.0800 
 40 H        0.9110     7.6700    -0.0130 H     1 <1>   0.0800 
 41 H        5.4730     5.8120     1.7440 H     1 <1>   0.1500 
@<TRIPOS>BOND
  1   1   2  1   
  2   1   3  1   
  3   2   4  2   
  4   2   5  1   
  5   3   6  2   
  6   3  22  1   
  7   4   6  1   
  8   4   7  1   
  9   5   8  1   
 10   5   9  1   
 11   5  10  1   
 12   6  23  1   
 13   7  11  1   
 14   7  24  1   
 15   7  25  1   
 16   8  11  1   
 17   9  12  1   
 18   9  26  1   
 19   9  27  1   
 20  10  13  1   
 21  10  28  1   
 22  10  29  1   
 23  11  30  1   
 24  11  31  1   
 25  12  14  1   
 26  12  32  1   
 27  12  33  1   
 28  13  14  1   
 29  13  34  1   
 30  13  35  1   
 31  14  15  1   
 32  15  16  ar  
 33  15  17  ar  
 34  16  18  ar  
 35  17  19  ar  
 36  17  20  1   
 37  18  21  ar  
 38  18  36  1   
 39  19  21  ar  
 40  19  37  1   
 41  20  38  1   
 42  20  39  1   
 43  20  40  1   
 44  21  41  1   
@<TRIPOS>SUBSTRUCTURE
  1 ****  10 GROUP 4 **** **** 0

# MOE 2024.06 (io_trps.svl 2023.06)
