@<TRIPOS>MOLECULE
NONAME
45 47 1 0 0 
SMALL
USER_CHARGES


@<TRIPOS>ATOM
  1 CL      -2.2470    -0.5340    -3.0100 Cl    1 <1>  -0.1770 
  2 C       -2.5860    -1.1410    -1.4090 C.ar  1 <1>   0.1770 
  3 C       -2.5330    -2.5030    -1.1770 C.ar  1 <1>  -0.1500 
  4 C       -2.9040    -0.2510    -0.4010 C.ar  1 <1>  -0.1500 
  5 C       -2.8030    -2.9910     0.0930 C.ar  1 <1>  -0.1440 
  6 C       -3.1730    -0.7370     0.8670 C.ar  1 <1>  -0.1500 
  7 C       -3.1220    -2.1010     1.1100 C.ar  1 <1>  -0.1500 
  8 C       -2.7570    -4.4860     0.3670 C.3   1 <1>  -0.0160 
  9 C       -4.1410    -5.1120     0.1400 C.3   1 <1>  -0.0990 
 10 C       -4.1720    -6.6170     0.3580 C.2   1 <1>   0.5690 
 11 O       -3.2540    -7.1510     0.9330 O.2   1 <1>  -0.5700 
 12 N       -5.2400    -7.3410    -0.0900 N.am  1 <1>  -0.6600 
 13 C       -6.5080    -6.8120    -0.6550 C.3   1 <1>   0.1400 
 14 C       -5.3320    -8.8120     0.0830 C.3   1 <1>   0.1400 
 15 C       -7.5360    -7.8970    -0.3390 C.3   1 <1>   0.2000 
 16 C       -6.7270    -9.1960    -0.4260 C.3   1 <1>  -0.0800 
 17 O       -7.9710    -7.7070     0.9640 O.3   1 <1>  -0.6800 
 18 C       -7.3440   -10.4070     0.2980 C.3   1 <1>  -0.0170 
 19 C       -6.5090   -11.6580     0.0710 C.ar  1 <1>  -0.1430 
 20 C       -6.6490   -12.4280    -1.0660 C.ar  1 <1>  -0.1500 
 21 C       -5.5680   -12.0890     0.9850 C.ar  1 <1>  -0.1500 
 22 C       -5.8620   -13.5560    -1.2310 C.ar  1 <1>   0.1600 
 23 C       -4.8320   -13.2320     0.7230 C.ar  1 <1>   0.1600 
 24 N       -4.9560   -13.9760    -0.3640 N.ar  1 <1>  -0.6200 
 25 H       -2.2810    -3.1660    -1.9840 H     1 <1>   0.1500 
 26 H       -2.9380     0.8030    -0.6080 H     1 <1>   0.1500 
 27 H       -3.4210    -0.0570     1.6640 H     1 <1>   0.1500 
 28 H       -3.3330    -2.4690     2.0990 H     1 <1>   0.1500 
 29 H       -2.0370    -4.9550    -0.2820 H     1 <1>   0.0800 
 30 H       -2.4400    -4.6600     1.3810 H     1 <1>   0.0800 
 31 H       -4.4500    -4.9030    -0.8670 H     1 <1>   0.0800 
 32 H       -4.8460    -4.6580     0.8110 H     1 <1>   0.0800 
 33 H       -6.7870    -5.8660    -0.2260 H     1 <1>   0.0800 
 34 H       -6.4000    -6.7100    -1.7210 H     1 <1>   0.0800 
 35 H       -4.5570    -9.3100    -0.4760 H     1 <1>   0.0800 
 36 H       -5.2210    -9.0490     1.1280 H     1 <1>   0.0800 
 37 H       -8.3910    -7.8770    -0.9930 H     1 <1>   0.0800 
 38 H       -6.6260    -9.4440    -1.4680 H     1 <1>   0.0800 
 39 H       -7.1890    -7.6060     1.5440 H     1 <1>   0.4000 
 40 H       -8.3410   -10.5740    -0.0700 H     1 <1>   0.0800 
 41 H       -7.4200   -10.2160     1.3540 H     1 <1>   0.0800 
 42 H       -7.3620   -12.1630    -1.8250 H     1 <1>   0.1500 
 43 H       -5.3990   -11.5480     1.8980 H     1 <1>   0.1500 
 44 H       -5.9860   -14.1450    -2.1240 H     1 <1>   0.1500 
 45 H       -4.1020   -13.5510     1.4470 H     1 <1>   0.1500 
@<TRIPOS>BOND
  1   1   2  1   
  2   2   3  ar  
  3   2   4  ar  
  4   3   5  ar  
  5   3  25  1   
  6   4   6  ar  
  7   4  26  1   
  8   5   7  ar  
  9   5   8  1   
 10   6   7  ar  
 11   6  27  1   
 12   7  28  1   
 13   8   9  1   
 14   8  29  1   
 15   8  30  1   
 16   9  10  1   
 17   9  31  1   
 18   9  32  1   
 19  10  11  2   
 20  10  12  am  
 21  12  13  1   
 22  12  14  1   
 23  13  15  1   
 24  13  33  1   
 25  13  34  1   
 26  14  16  1   
 27  14  35  1   
 28  14  36  1   
 29  15  16  1   
 30  15  17  1   
 31  15  37  1   
 32  16  18  1   
 33  16  38  1   
 34  17  39  1   
 35  18  19  1   
 36  18  40  1   
 37  18  41  1   
 38  19  20  ar  
 39  19  21  ar  
 40  20  22  ar  
 41  20  42  1   
 42  21  23  ar  
 43  21  43  1   
 44  22  24  ar  
 45  22  44  1   
 46  23  24  ar  
 47  23  45  1   
@<TRIPOS>SUBSTRUCTURE
  1 ****  12 GROUP 4 **** **** 0

# MOE 2024.06 (io_trps.svl 2023.06)
