@<TRIPOS>MOLECULE
NONAME
45 47 1 0 0 
SMALL
USER_CHARGES


@<TRIPOS>ATOM
  1 O        3.6130    -1.5730    -2.0590 O.2   1 <1>  -0.5700 
  2 C        2.8840    -1.4620    -1.0920 C.2   1 <1>   0.5440 
  3 N        2.9560    -0.2690    -0.4170 N.am  1 <1>  -0.6600 
  4 C        2.1210    -2.5910    -0.5910 C.ar  1 <1>   0.0860 
  5 C        3.6490    -0.2900     0.9180 C.3   1 <1>   0.2200 
  6 C        2.9360     1.0090    -1.2000 C.3   1 <1>   0.1400 
  7 C        0.8250    -2.4860    -0.0650 C.ar  1 <1>   0.1660 
  8 C        2.6960    -3.8560    -0.5990 C.ar  1 <1>  -0.1500 
  9 C        3.3050     0.9200     1.8020 C.3   1 <1>   0.1200 
 10 C        5.1850    -0.4170     0.7270 C.3   1 <1>   0.3430 
 11 C        4.0850     1.9860    -0.8830 C.3   1 <1>  -0.0800 
 12 N        0.1490    -3.4880     0.4720 N.ar  1 <1>  -0.6200 
 13 C        0.0560    -1.1740    -0.0800 C.3   1 <1>  -0.0960 
 14 C        1.9870    -4.9050    -0.0600 C.ar  1 <1>  -0.1500 
 15 O        4.1650     1.9860     1.5330 O.3   1 <1>  -0.5600 
 16 N        5.6340    -0.0500    -0.6640 N.4   1 <1>  -0.9590 
 17 C        3.8450     2.7570     0.4250 C.3   1 <1>   0.1200 
 18 C        5.5140     1.4090    -0.9730 C.3   1 <1>   0.3430 
 19 C        0.7300    -4.6730     0.4680 C.ar  1 <1>   0.1670 
 20 C        6.9990    -0.5660    -0.9620 C.3   1 <1>   0.2630 
 21 C       -0.0690    -5.8050     1.0770 C.3   1 <1>  -0.0970 
 22 H        3.3090    -1.1600     1.4540 H     1 <1>   0.0800 
 23 H        2.9620     0.7800    -2.2530 H     1 <1>   0.0800 
 24 H        1.9950     1.5010    -1.0180 H     1 <1>   0.0800 
 25 H        3.6740    -4.0130    -1.0190 H     1 <1>   0.1500 
 26 H        3.4620     0.6580     2.8340 H     1 <1>   0.0800 
 27 H        2.2790     1.2260     1.6860 H     1 <1>   0.0800 
 28 H        5.4550    -1.4410     0.9220 H     1 <1>   0.0800 
 29 H        5.6930     0.1940     1.4560 H     1 <1>   0.0800 
 30 H        4.0310     2.7430    -1.6450 H     1 <1>   0.0800 
 31 H        0.2500    -0.6250    -0.9810 H     1 <1>   0.0800 
 32 H        0.3270    -0.5810     0.7730 H     1 <1>   0.0800 
 33 H       -1.0020    -1.3670    -0.0350 H     1 <1>   0.0800 
 34 H        2.4070    -5.8950    -0.0500 H     1 <1>   0.1500 
 35 H        4.9540    -0.5330    -1.2960 H     1 <1>   0.4500 
 36 H        2.8240     3.0920     0.5120 H     1 <1>   0.0800 
 37 H        4.4820     3.6250     0.4580 H     1 <1>   0.0800 
 38 H        6.1580     1.9700    -0.3140 H     1 <1>   0.0800 
 39 H        5.8670     1.5670    -1.9790 H     1 <1>   0.0800 
 40 H        7.7260    -0.0970    -0.3190 H     1 <1>   0.0800 
 41 H        7.2580    -0.3600    -1.9880 H     1 <1>   0.0800 
 42 H        7.0350    -1.6330    -0.8100 H     1 <1>   0.0800 
 43 H        0.4730    -6.7320     1.0350 H     1 <1>   0.0800 
 44 H       -0.9940    -5.9180     0.5430 H     1 <1>   0.0800 
 45 H       -0.2890    -5.5760     2.1040 H     1 <1>   0.0800 
@<TRIPOS>BOND
  1   1   2  2   
  2   2   3  am  
  3   2   4  1   
  4   3   5  1   
  5   3   6  1   
  6   4   7  ar  
  7   4   8  ar  
  8   5   9  1   
  9   5  10  1   
 10   5  22  1   
 11   6  11  1   
 12   6  23  1   
 13   6  24  1   
 14   7  12  ar  
 15   7  13  1   
 16   8  14  ar  
 17   8  25  1   
 18   9  15  1   
 19   9  26  1   
 20   9  27  1   
 21  10  16  1   
 22  10  28  1   
 23  10  29  1   
 24  11  17  1   
 25  11  18  1   
 26  11  30  1   
 27  12  19  ar  
 28  13  31  1   
 29  13  32  1   
 30  13  33  1   
 31  14  19  ar  
 32  14  34  1   
 33  15  17  1   
 34  16  18  1   
 35  16  20  1   
 36  16  35  1   
 37  17  36  1   
 38  17  37  1   
 39  18  38  1   
 40  18  39  1   
 41  19  21  1   
 42  20  40  1   
 43  20  41  1   
 44  20  42  1   
 45  21  43  1   
 46  21  44  1   
 47  21  45  1   
@<TRIPOS>SUBSTRUCTURE
  1 ****   3 GROUP 4 **** **** 0

# MOE 2024.06 (io_trps.svl 2023.06)
