@<TRIPOS>MOLECULE
NONAME
54 55 1 0 0 
SMALL
USER_CHARGES


@<TRIPOS>ATOM
  1 S        0.3780     0.1920    -0.5770 S.o2  1 <1>   1.3330 
  2 O        0.6000    -0.9520    -1.4330 O.2   1 <1>  -0.6500 
  3 O       -0.8910     0.8820    -0.6160 O.2   1 <1>  -0.6500 
  4 N        0.6300    -0.3030     1.0290 N.am  1 <1>  -0.8490 
  5 C        1.6990     1.3710    -0.8710 C.3   1 <1>  -0.0550 
  6 C        0.1210    -1.6560     1.2760 C.3   1 <1>   0.1160 
  7 C        0.0670     0.6230     2.0180 C.3   1 <1>   0.1160 
  8 C        3.1110     0.7450    -0.9050 C.3   1 <1>  -0.0800 
  9 C        4.2170     1.6910    -1.3440 C.3   1 <1>   0.2200 
 10 C        3.6290     0.2190     0.4400 C.3   1 <1>   0.1200 
 11 N        4.0640     3.0200    -0.7050 N.am  1 <1>  -0.7300 
 12 C        5.4300     0.9990    -0.7400 C.3   1 <1>   0.1200 
 13 O        4.9910     0.5330     0.4990 O.3   1 <1>  -0.5600 
 14 C        3.6130     4.1330    -1.3290 C.2   1 <1>   0.5690 
 15 O        3.1840     4.1010    -2.4540 O.2   1 <1>  -0.5700 
 16 C        3.6400     5.4490    -0.5780 C.3   1 <1>  -0.0990 
 17 C        5.0750     5.9570    -0.3650 C.3   1 <1>  -0.1600 
 18 C        5.1020     7.3130     0.3500 C.3   1 <1>  -0.0170 
 19 C        6.5380     7.7550     0.5730 C.ar  1 <1>  -0.1440 
 20 C        7.2110     8.4670    -0.4080 C.ar  1 <1>  -0.1500 
 21 C        7.1930     7.4420     1.7540 C.ar  1 <1>  -0.1500 
 22 C        8.5220     8.8650    -0.2150 C.ar  1 <1>  -0.1500 
 23 C        8.5040     7.8380     1.9500 C.ar  1 <1>  -0.1500 
 24 C        9.1780     8.5490     0.9720 C.ar  1 <1>   0.0820 
 25 O       10.4610     8.8970     1.2430 O.3   1 <1>  -0.3630 
 26 C       11.2310     9.6310     0.3180 C.3   1 <1>   0.0400 
 27 H        1.5240     1.8390    -1.8210 H     1 <1>   0.0800 
 28 H        1.6600     2.1400    -0.1270 H     1 <1>   0.0800 
 29 H        0.3040    -1.9450     2.2970 H     1 <1>   0.0800 
 30 H        0.6220    -2.3620     0.6340 H     1 <1>   0.0800 
 31 H       -0.9370    -1.7000     1.0780 H     1 <1>   0.0800 
 32 H        0.3340     0.3090     3.0130 H     1 <1>   0.0800 
 33 H       -1.0070     0.6540     1.9370 H     1 <1>   0.0800 
 34 H        0.4530     1.6150     1.8600 H     1 <1>   0.0800 
 35 H        3.0970    -0.0830    -1.5940 H     1 <1>   0.0800 
 36 H        4.2880     1.7870    -2.4150 H     1 <1>   0.0800 
 37 H        3.5090    -0.8480     0.5230 H     1 <1>   0.0800 
 38 H        3.1490     0.7030     1.2720 H     1 <1>   0.0800 
 39 H        4.4220     3.0610     0.2520 H     1 <1>   0.3700 
 40 H        6.2680     1.6590    -0.6070 H     1 <1>   0.0800 
 41 H        5.7200     0.1470    -1.3310 H     1 <1>   0.0800 
 42 H        3.0820     6.1730    -1.1450 H     1 <1>   0.0800 
 43 H        3.1480     5.3180     0.3680 H     1 <1>   0.0800 
 44 H        5.6320     5.2420     0.2160 H     1 <1>   0.0800 
 45 H        5.5630     6.0530    -1.3200 H     1 <1>   0.0800 
 46 H        4.5980     7.2400     1.2980 H     1 <1>   0.0800 
 47 H        4.5860     8.0500    -0.2400 H     1 <1>   0.0800 
 48 H        6.7130     8.7130    -1.3300 H     1 <1>   0.1500 
 49 H        6.6870     6.8890     2.5260 H     1 <1>   0.1500 
 50 H        9.0140     9.4140    -0.9940 H     1 <1>   0.1500 
 51 H        9.0140     7.5960     2.8650 H     1 <1>   0.1500 
 52 H       12.2030     9.7930     0.7480 H     1 <1>   0.0800 
 53 H       10.7490    10.5760     0.1360 H     1 <1>   0.0800 
 54 H       11.3220     9.0620    -0.5900 H     1 <1>   0.0800 
@<TRIPOS>BOND
  1   1   2  2   
  2   1   3  2   
  3   1   4  am  
  4   1   5  1   
  5   4   6  1   
  6   4   7  1   
  7   5   8  1   
  8   5  27  1   
  9   5  28  1   
 10   6  29  1   
 11   6  30  1   
 12   6  31  1   
 13   7  32  1   
 14   7  33  1   
 15   7  34  1   
 16   8   9  1   
 17   8  10  1   
 18   8  35  1   
 19   9  11  1   
 20   9  12  1   
 21   9  36  1   
 22  10  13  1   
 23  10  37  1   
 24  10  38  1   
 25  11  14  am  
 26  11  39  1   
 27  12  13  1   
 28  12  40  1   
 29  12  41  1   
 30  14  15  2   
 31  14  16  1   
 32  16  17  1   
 33  16  42  1   
 34  16  43  1   
 35  17  18  1   
 36  17  44  1   
 37  17  45  1   
 38  18  19  1   
 39  18  46  1   
 40  18  47  1   
 41  19  20  ar  
 42  19  21  ar  
 43  20  22  ar  
 44  20  48  1   
 45  21  23  ar  
 46  21  49  1   
 47  22  24  ar  
 48  22  50  1   
 49  23  24  ar  
 50  23  51  1   
 51  24  25  1   
 52  25  26  1   
 53  26  52  1   
 54  26  53  1   
 55  26  54  1   
@<TRIPOS>SUBSTRUCTURE
  1 ****  11 GROUP 4 **** **** 0

# MOE 2024.06 (io_trps.svl 2023.06)
