@<TRIPOS>MOLECULE
NONAME
26 27 1 0 0 
SMALL
USER_CHARGES


@<TRIPOS>ATOM
  1 O        9.2990     1.9940    -0.1100 O.2   1 <1>  -0.5700 
  2 C        8.4870     1.0930    -0.1660 C.2   1 <1>   0.5690 
  3 N        7.1290     1.3850    -0.1160 N.am  1 <1>  -0.4770 
  4 C        9.1130    -0.3200    -0.2930 C.3   1 <1>   0.2510 
  5 C        6.0310     0.4890     0.0110 C.ar  1 <1>   0.1170 
  6 C        6.7590     2.8220    -0.3130 C.3   1 <1>   0.0600 
  7 N       10.1630    -0.5680     0.7230 N.3   1 <1>  -0.9900 
  8 C        8.1610    -1.5110    -0.2880 C.3   1 <1>   0.1200 
  9 C        6.0020    -0.7770    -0.5870 C.ar  1 <1>   0.0820 
 10 C        4.8980     0.8740     0.7270 C.ar  1 <1>  -0.1500 
 11 O        7.0960    -1.2900    -1.1800 O.3   1 <1>  -0.3630 
 12 C        4.8690    -1.5710    -0.5480 C.ar  1 <1>  -0.1500 
 13 C        3.7690     0.0740     0.7890 C.ar  1 <1>  -0.1500 
 14 C        3.7470    -1.1460     0.1390 C.ar  1 <1>  -0.1500 
 15 H        9.6020    -0.3330    -1.2520 H     1 <1>   0.0800 
 16 H        5.7740     2.9040    -0.7370 H     1 <1>   0.0800 
 17 H        7.4480     3.2990    -0.9890 H     1 <1>   0.0800 
 18 H        6.7890     3.3350     0.6320 H     1 <1>   0.0800 
 19 H        9.7410    -0.4650     1.6530 H     1 <1>   0.3600 
 20 H       10.8220     0.2200     0.6450 H     1 <1>   0.3600 
 21 H        7.7680    -1.6860     0.6990 H     1 <1>   0.0800 
 22 H        8.6830    -2.3900    -0.6200 H     1 <1>   0.0800 
 23 H        4.8860     1.8150     1.2460 H     1 <1>   0.1500 
 24 H        4.8750    -2.5250    -1.0440 H     1 <1>   0.1500 
 25 H        2.9050     0.4040     1.3410 H     1 <1>   0.1500 
 26 H        2.8670    -1.7640     0.1750 H     1 <1>   0.1500 
@<TRIPOS>BOND
  1   1   2  2   
  2   2   3  am  
  3   2   4  1   
  4   3   5  1   
  5   3   6  1   
  6   4   7  1   
  7   4   8  1   
  8   4  15  1   
  9   5   9  ar  
 10   5  10  ar  
 11   6  16  1   
 12   6  17  1   
 13   6  18  1   
 14   7  19  1   
 15   7  20  1   
 16   8  11  1   
 17   8  21  1   
 18   8  22  1   
 19   9  11  1   
 20   9  12  ar  
 21  10  13  ar  
 22  10  23  1   
 23  12  14  ar  
 24  12  24  1   
 25  13  14  ar  
 26  13  25  1   
 27  14  26  1   
@<TRIPOS>SUBSTRUCTURE
  1 ****   5 GROUP 4 **** **** 0

# MOE 2024.06 (io_trps.svl 2023.06)
