@<TRIPOS>MOLECULE
NONAME
43 45 1 0 0 
SMALL
USER_CHARGES


@<TRIPOS>ATOM
  1 O        0.6820     1.7170    -0.3300 O.co2 1 <1>  -0.9000 
  2 C       -0.3810     1.0460    -0.4520 C.2   1 <1>   1.0330 
  3 O       -0.2860    -0.1900    -0.4760 O.co2 1 <1>  -0.9000 
  4 C       -1.6370     1.8060    -0.4550 C.2   1 <1>   0.0560 
  5 N       -2.6480     1.8260    -1.3150 N.2   1 <1>  -0.7070 
  6 C       -1.8170     2.8310     0.4750 C.2   1 <1>  -0.1810 
  7 N       -3.4050     2.8820    -0.9770 N.pl3 1 <1>   0.3140 
  8 C       -2.8800     3.5400     0.0740 C.2   1 <1>  -0.3320 
  9 C       -0.9650     3.2460     1.6460 C.3   1 <1>   0.3900 
 10 C       -4.5940     3.2480    -1.7520 C.3   1 <1>   0.0160 
 11 C       -3.2310     4.8980     0.6820 C.3   1 <1>   0.0200 
 12 N       -0.8020     4.7020     1.4230 N.pl3 1 <1>  -0.8380 
 13 C       -2.1130     5.4190     1.6380 C.3   1 <1>   0.2090 
 14 C        0.1600     5.1890     0.5980 C.ar  1 <1>   0.7710 
 15 N        0.2890     6.5040     0.4880 N.ar  1 <1>  -0.6200 
 16 N        0.9460     4.3460    -0.1050 N.ar  1 <1>  -0.1790 
 17 C        1.2310     6.9790    -0.3060 C.ar  1 <1>   0.4100 
 18 C        1.8820     4.7890    -0.9630 C.ar  1 <1>   0.2110 
 19 N        1.3670     8.3320    -0.3330 N.pl3 1 <1>  -0.8380 
 20 C        2.0510     6.1280    -1.0930 C.ar  1 <1>  -0.1430 
 21 C        0.1780     9.2300    -0.3010 C.3   1 <1>   0.1290 
 22 C        2.6470     9.0130     0.0070 C.3   1 <1>   0.1290 
 23 C        3.0660     6.6760    -2.0930 C.3   1 <1>  -0.0970 
 24 H       -0.0210     2.7340     1.6990 H     1 <1>   0.0800 
 25 H       -1.4930     3.0630     2.5670 H     1 <1>   0.0800 
 26 H       -4.8570     2.4280    -2.3940 H     1 <1>   0.0800 
 27 H       -4.3730     4.1140    -2.3450 H     1 <1>   0.0800 
 28 H       -5.4050     3.4540    -1.0790 H     1 <1>   0.0800 
 29 H       -4.1670     4.8430     1.2090 H     1 <1>   0.0800 
 30 H       -3.3450     5.6100    -0.1150 H     1 <1>   0.0800 
 31 H       -2.4230     5.2560     2.6570 H     1 <1>   0.0800 
 32 H       -1.9960     6.4820     1.5100 H     1 <1>   0.0800 
 33 H        0.7630     3.3250    -0.0560 H     1 <1>   0.4570 
 34 H        2.4420     4.0530    -1.5180 H     1 <1>   0.1500 
 35 H       -0.6990     8.6990    -0.6300 H     1 <1>   0.0800 
 36 H        0.3350    10.0710    -0.9530 H     1 <1>   0.0800 
 37 H        0.0140     9.5820     0.7030 H     1 <1>   0.0800 
 38 H        3.3870     8.2930     0.3080 H     1 <1>   0.0800 
 39 H        2.4930     9.6970     0.8230 H     1 <1>   0.0800 
 40 H        3.0070     9.5600    -0.8470 H     1 <1>   0.0800 
 41 H        2.6310     7.4860    -2.6530 H     1 <1>   0.0800 
 42 H        3.3720     5.9160    -2.7900 H     1 <1>   0.0800 
 43 H        3.9400     7.0370    -1.5830 H     1 <1>   0.0800 
@<TRIPOS>BOND
  1   1   2  ar  
  2   2   3  ar  
  3   2   4  1   
  4   4   5  2   
  5   4   6  1   
  6   5   7  1   
  7   6   8  2   
  8   6   9  1   
  9   7   8  1   
 10   7  10  1   
 11   8  11  1   
 12   9  12  1   
 13   9  24  1   
 14   9  25  1   
 15  10  26  1   
 16  10  27  1   
 17  10  28  1   
 18  11  13  1   
 19  11  29  1   
 20  11  30  1   
 21  12  13  1   
 22  12  14  1   
 23  13  31  1   
 24  13  32  1   
 25  14  15  ar  
 26  14  16  ar  
 27  15  17  ar  
 28  16  18  ar  
 29  16  33  1   
 30  17  19  1   
 31  17  20  ar  
 32  18  20  ar  
 33  18  34  1   
 34  19  21  1   
 35  19  22  1   
 36  20  23  1   
 37  21  35  1   
 38  21  36  1   
 39  21  37  1   
 40  22  38  1   
 41  22  39  1   
 42  22  40  1   
 43  23  41  1   
 44  23  42  1   
 45  23  43  1   
@<TRIPOS>SUBSTRUCTURE
  1 ****  14 GROUP 4 **** **** 0

# MOE 2024.06 (io_trps.svl 2023.06)
