@<TRIPOS>MOLECULE
NONAME
54 55 1 0 0 
SMALL
USER_CHARGES


@<TRIPOS>ATOM
  1 O       -1.4470     0.9370    -1.7400 O.2   1 <1>  -0.5700 
  2 C       -2.2960     0.9800    -0.8820 C.2   1 <1>   0.5690 
  3 N       -3.0200    -0.1170    -0.5560 N.am  1 <1>  -0.7300 
  4 C       -2.5730     2.2830    -0.1320 C.3   1 <1>  -0.0190 
  5 C       -2.8740    -1.4270    -1.2080 C.3   1 <1>   0.2840 
  6 C       -2.2140     3.5400    -0.9530 C.3   1 <1>  -0.1600 
  7 C       -1.8470     2.2990     1.2340 C.3   1 <1>  -0.1600 
  8 C       -4.1230    -2.2380    -0.9150 C.ar  1 <1>  -0.1440 
  9 C       -2.6390     4.8440    -0.2440 C.3   1 <1>   0.2000 
 10 C       -1.6710     3.7120     1.8300 C.3   1 <1>  -0.1600 
 11 C       -4.1540    -3.1120     0.1620 C.ar  1 <1>  -0.1500 
 12 C       -5.2450    -2.1080    -1.7200 C.ar  1 <1>  -0.1500 
 13 O       -1.7030     5.8470    -0.5530 O.3   1 <1>  -0.5600 
 14 C       -2.7240     4.6870     1.2980 C.3   1 <1>   0.2000 
 15 C       -5.2900    -3.8560     0.4330 C.ar  1 <1>   0.0830 
 16 C       -6.3900    -2.8380    -1.4480 C.ar  1 <1>  -0.1500 
 17 C       -1.8250     6.4050    -1.8250 C.3   1 <1>   0.0400 
 18 O       -2.5110     5.9130     1.8920 O.3   1 <1>  -0.6800 
 19 O       -5.2400    -4.7170     1.4790 O.3   1 <1>  -0.3630 
 20 C       -6.4280    -3.7020    -0.3660 C.ar  1 <1>   0.0830 
 21 C       -5.2900    -6.0900     1.1580 C.3   1 <1>   0.0400 
 22 O       -7.5880    -4.3680    -0.1340 O.3   1 <1>  -0.3630 
 23 C       -8.2850    -4.0770     1.0570 C.3   1 <1>   0.2000 
 24 C       -9.1870    -5.2700     1.3620 C.3   1 <1>  -0.2400 
 25 C       -9.1010    -2.8010     0.8460 C.3   1 <1>  -0.2400 
 26 H       -3.7340    -0.0890     0.1720 H     1 <1>   0.3700 
 27 H       -3.6330     2.3170     0.0500 H     1 <1>   0.0800 
 28 H       -2.7490    -1.2950    -2.2700 H     1 <1>   0.0800 
 29 H       -2.0010    -1.9240    -0.8220 H     1 <1>   0.0800 
 30 H       -2.6910     3.4860    -1.9160 H     1 <1>   0.0800 
 31 H       -1.1480     3.5460    -1.1070 H     1 <1>   0.0800 
 32 H       -2.4000     1.6860     1.9250 H     1 <1>   0.0800 
 33 H       -0.8700     1.8580     1.1250 H     1 <1>   0.0800 
 34 H       -3.6080     5.1580    -0.5950 H     1 <1>   0.0800 
 35 H       -0.6980     4.0840     1.5570 H     1 <1>   0.0800 
 36 H       -1.7250     3.6620     2.9030 H     1 <1>   0.0800 
 37 H       -3.2960    -3.2310     0.7980 H     1 <1>   0.1500 
 38 H       -5.2320    -1.4360    -2.5610 H     1 <1>   0.1500 
 39 H       -3.7040     4.3480     1.5870 H     1 <1>   0.0800 
 40 H       -7.2620    -2.7390    -2.0690 H     1 <1>   0.1500 
 41 H       -1.0770     7.1700    -1.9270 H     1 <1>   0.0800 
 42 H       -2.8040     6.8400    -1.9310 H     1 <1>   0.0800 
 43 H       -1.6640     5.6450    -2.5700 H     1 <1>   0.0800 
 44 H       -1.8970     6.3960     1.2910 H     1 <1>   0.4000 
 45 H       -5.1880    -6.6520     2.0680 H     1 <1>   0.0800 
 46 H       -4.4790    -6.3190     0.4890 H     1 <1>   0.0800 
 47 H       -6.2320    -6.3150     0.6910 H     1 <1>   0.0800 
 48 H       -7.5770    -3.9400     1.8570 H     1 <1>   0.0800 
 49 H       -9.8780    -5.4320     0.5540 H     1 <1>   0.0800 
 50 H       -9.7430    -5.0890     2.2630 H     1 <1>   0.0800 
 51 H       -8.5900    -6.1520     1.5030 H     1 <1>   0.0800 
 52 H       -9.7780    -2.9230     0.0190 H     1 <1>   0.0800 
 53 H       -8.4470    -1.9700     0.6540 H     1 <1>   0.0800 
 54 H       -9.6730    -2.5820     1.7290 H     1 <1>   0.0800 
@<TRIPOS>BOND
  1   1   2  2   
  2   2   3  am  
  3   2   4  1   
  4   3   5  1   
  5   3  26  1   
  6   4   6  1   
  7   4   7  1   
  8   4  27  1   
  9   5   8  1   
 10   5  28  1   
 11   5  29  1   
 12   6   9  1   
 13   6  30  1   
 14   6  31  1   
 15   7  10  1   
 16   7  32  1   
 17   7  33  1   
 18   8  11  ar  
 19   8  12  ar  
 20   9  13  1   
 21   9  14  1   
 22   9  34  1   
 23  10  14  1   
 24  10  35  1   
 25  10  36  1   
 26  11  15  ar  
 27  11  37  1   
 28  12  16  ar  
 29  12  38  1   
 30  13  17  1   
 31  14  18  1   
 32  14  39  1   
 33  15  19  1   
 34  15  20  ar  
 35  16  20  ar  
 36  16  40  1   
 37  17  41  1   
 38  17  42  1   
 39  17  43  1   
 40  18  44  1   
 41  19  21  1   
 42  20  22  1   
 43  21  45  1   
 44  21  46  1   
 45  21  47  1   
 46  22  23  1   
 47  23  24  1   
 48  23  25  1   
 49  23  48  1   
 50  24  49  1   
 51  24  50  1   
 52  24  51  1   
 53  25  52  1   
 54  25  53  1   
 55  25  54  1   
@<TRIPOS>SUBSTRUCTURE
  1 ****   3 GROUP 4 **** **** 0

# MOE 2024.06 (io_trps.svl 2023.06)
