@<TRIPOS>MOLECULE
NONAME
57 60 1 0 0 
SMALL
USER_CHARGES


@<TRIPOS>ATOM
  1 O        0.4540    -0.4290    -0.9420 O.2   1 <1>  -0.5700 
  2 C        1.1050    -1.3350    -0.4810 C.2   1 <1>   0.5690 
  3 N        0.6450    -2.1800     0.4910 N.am  1 <1>  -0.6600 
  4 C        2.5070    -1.5710    -1.0030 C.3   1 <1>  -0.0990 
  5 C        1.5230    -3.2360     1.0510 C.3   1 <1>   0.1400 
  6 C       -0.7020    -2.0300     1.1050 C.3   1 <1>   0.0600 
  7 C        2.7220    -3.0730    -1.2630 C.3   1 <1>  -0.0800 
  8 C        2.2780    -3.9670    -0.0820 C.3   1 <1>  -0.0800 
  9 C        4.1850    -3.4220    -1.5700 C.3   1 <1>  -0.1600 
 10 C        3.5440    -4.6830     0.4060 C.3   1 <1>  -0.1600 
 11 C        4.4510    -4.7260    -0.8230 C.3   1 <1>   0.4230 
 12 N        5.9070    -4.9790    -0.5560 N.4   1 <1>  -0.9590 
 13 C        6.5360    -4.3490     0.6580 C.3   1 <1>   0.4860 
 14 C        6.1530    -6.4540    -0.5300 C.3   1 <1>   0.2630 
 15 C        6.6130    -2.8470     0.5280 C.ar  1 <1>  -0.1440 
 16 C        7.4240    -2.2410    -0.4030 C.ar  1 <1>   0.1600 
 17 C        5.8640    -2.0170     1.3290 C.ar  1 <1>   0.1600 
 18 N        7.4580    -0.9440    -0.5570 N.ar  1 <1>  -0.6200 
 19 N        5.8820    -0.7170     1.1950 N.ar  1 <1>  -0.6200 
 20 C        6.6980    -0.2130     0.2640 C.ar  1 <1>   0.6200 
 21 C        6.7310     1.2220     0.1180 C.ar  1 <1>   0.0000 
 22 C        7.8300     1.9750     0.5470 C.ar  1 <1>   0.0820 
 23 C        5.6520     1.8960    -0.4570 C.ar  1 <1>  -0.1500 
 24 O        8.8590     1.3080     1.1280 O.3   1 <1>  -0.3630 
 25 C        7.8380     3.3590     0.3800 C.ar  1 <1>  -0.1500 
 26 C        5.6640     3.2680    -0.6170 C.ar  1 <1>  -0.1500 
 27 C       10.0370     1.9560     1.5520 C.3   1 <1>   0.0400 
 28 C        6.7600     4.0010    -0.2000 C.ar  1 <1>  -0.1500 
 29 H        2.6470    -1.0120    -1.9110 H     1 <1>   0.0800 
 30 H        3.1990    -1.2000    -0.2680 H     1 <1>   0.0800 
 31 H        2.2160    -2.7610     1.7240 H     1 <1>   0.0800 
 32 H        0.9370    -3.9420     1.6140 H     1 <1>   0.0800 
 33 H       -1.2670    -2.9350     0.9710 H     1 <1>   0.0800 
 34 H       -1.2390    -1.2190     0.6450 H     1 <1>   0.0800 
 35 H       -0.6030    -1.8220     2.1560 H     1 <1>   0.0800 
 36 H        2.1160    -3.3390    -2.1150 H     1 <1>   0.0800 
 37 H        1.6070    -4.7110    -0.4800 H     1 <1>   0.0800 
 38 H        4.8140    -2.6230    -1.2350 H     1 <1>   0.0800 
 39 H        4.3250    -3.5490    -2.6290 H     1 <1>   0.0800 
 40 H        3.3130    -5.6710     0.7650 H     1 <1>   0.0800 
 41 H        3.9770    -4.1050     1.1960 H     1 <1>   0.0800 
 42 H        4.0780    -5.5130    -1.4600 H     1 <1>   0.0800 
 43 H        6.4010    -4.5970    -1.3740 H     1 <1>   0.4500 
 44 H        5.9800    -4.6130     1.5420 H     1 <1>   0.0800 
 45 H        7.5380    -4.7270     0.7800 H     1 <1>   0.0800 
 46 H        5.6420    -6.9060     0.3050 H     1 <1>   0.0800 
 47 H        7.2080    -6.6610    -0.4420 H     1 <1>   0.0800 
 48 H        5.7940    -6.9110    -1.4390 H     1 <1>   0.0800 
 49 H        8.0600    -2.8220    -1.0500 H     1 <1>   0.1500 
 50 H        5.2240    -2.4130     2.0990 H     1 <1>   0.1500 
 51 H        4.7950     1.3330    -0.7800 H     1 <1>   0.1500 
 52 H        8.6720     3.9530     0.6980 H     1 <1>   0.1500 
 53 H        4.8210     3.7670    -1.0650 H     1 <1>   0.1500 
 54 H       10.7000     1.2110     1.9540 H     1 <1>   0.0800 
 55 H        9.7860     2.6720     2.3150 H     1 <1>   0.0800 
 56 H       10.4960     2.4350     0.7060 H     1 <1>   0.0800 
 57 H        6.7710     5.0690    -0.3260 H     1 <1>   0.1500 
@<TRIPOS>BOND
  1   1   2  2   
  2   2   3  am  
  3   2   4  1   
  4   3   5  1   
  5   3   6  1   
  6   4   7  1   
  7   4  29  1   
  8   4  30  1   
  9   5   8  1   
 10   5  31  1   
 11   5  32  1   
 12   6  33  1   
 13   6  34  1   
 14   6  35  1   
 15   7   8  1   
 16   7   9  1   
 17   7  36  1   
 18   8  10  1   
 19   8  37  1   
 20   9  11  1   
 21   9  38  1   
 22   9  39  1   
 23  10  11  1   
 24  10  40  1   
 25  10  41  1   
 26  11  12  1   
 27  11  42  1   
 28  12  13  1   
 29  12  14  1   
 30  12  43  1   
 31  13  15  1   
 32  13  44  1   
 33  13  45  1   
 34  14  46  1   
 35  14  47  1   
 36  14  48  1   
 37  15  16  ar  
 38  15  17  ar  
 39  16  18  ar  
 40  16  49  1   
 41  17  19  ar  
 42  17  50  1   
 43  18  20  ar  
 44  19  20  ar  
 45  20  21  1   
 46  21  22  ar  
 47  21  23  ar  
 48  22  24  1   
 49  22  25  ar  
 50  23  26  ar  
 51  23  51  1   
 52  24  27  1   
 53  25  28  ar  
 54  25  52  1   
 55  26  28  ar  
 56  26  53  1   
 57  27  54  1   
 58  27  55  1   
 59  27  56  1   
 60  28  57  1   
@<TRIPOS>SUBSTRUCTURE
  1 ****  19 GROUP 4 **** **** 0

# MOE 2024.06 (io_trps.svl 2023.06)
