@<TRIPOS>MOLECULE
NONAME
50 52 1 0 0 
SMALL
USER_CHARGES


@<TRIPOS>ATOM
  1 O       -0.1160    -0.2710    -0.3300 O.2   1 <1>  -0.5700 
  2 C       -1.0190     0.4690    -0.6370 C.2   1 <1>   0.5690 
  3 N       -2.0060     0.0870    -1.4810 N.am  1 <1>  -0.7300 
  4 C       -1.0840     1.8610    -0.0160 C.3   1 <1>  -0.0190 
  5 C       -2.2630    -1.2940    -1.9250 C.3   1 <1>   0.2840 
  6 C       -2.3880     2.0540     0.7850 C.3   1 <1>  -0.1600 
  7 C       -0.8960     2.9820    -1.0660 C.3   1 <1>  -0.1600 
  8 C       -3.7020    -1.6360    -1.5520 C.ar  1 <1>  -0.1440 
  9 C       -2.4090     3.3900     1.5540 C.3   1 <1>   0.2000 
 10 C       -1.4840     4.3400    -0.6320 C.3   1 <1>  -0.1600 
 11 C       -4.6820    -1.5930    -2.5190 C.ar  1 <1>   0.0820 
 12 C       -4.0210    -1.9760    -0.2090 C.ar  1 <1>   0.0000 
 13 O       -3.7390     3.8460     1.6060 O.3   1 <1>  -0.5600 
 14 C       -1.5210     4.4790     0.8930 C.3   1 <1>   0.2000 
 15 O       -4.3350    -1.2450    -3.7870 O.3   1 <1>  -0.3630 
 16 C       -6.0150    -1.8940    -2.1830 C.ar  1 <1>  -0.1500 
 17 C       -5.3660    -2.2700     0.1140 C.ar  1 <1>   0.0000 
 18 C       -3.0750    -2.0390     0.8450 C.ar  1 <1>  -0.1500 
 19 C       -4.5490     3.2080     2.5450 C.3   1 <1>   0.0400 
 20 O       -2.0340     5.7240     1.1940 O.3   1 <1>  -0.6800 
 21 C       -5.2470    -1.2860    -4.8620 C.3   1 <1>   0.0400 
 22 C       -6.3400    -2.2220    -0.9000 C.ar  1 <1>  -0.1500 
 23 C       -5.7070    -2.6020     1.4400 C.ar  1 <1>  -0.1500 
 24 C       -3.4320    -2.3640     2.1240 C.ar  1 <1>  -0.1500 
 25 C       -4.7650    -2.6490     2.4280 C.ar  1 <1>  -0.1500 
 26 H       -2.7740     0.7260    -1.6850 H     1 <1>   0.3700 
 27 H       -0.2680     1.9240     0.6830 H     1 <1>   0.0800 
 28 H       -2.1040    -1.3540    -2.9870 H     1 <1>   0.0800 
 29 H       -1.5750    -1.9800    -1.4630 H     1 <1>   0.0800 
 30 H       -2.5010     1.2420     1.4820 H     1 <1>   0.0800 
 31 H       -3.2190     2.0270     0.1010 H     1 <1>   0.0800 
 32 H        0.1590     3.0920    -1.2530 H     1 <1>   0.0800 
 33 H       -1.3530     2.7020    -1.9990 H     1 <1>   0.0800 
 34 H       -2.0530     3.2450     2.5600 H     1 <1>   0.0800 
 35 H       -2.4910     4.4200    -1.0040 H     1 <1>   0.0800 
 36 H       -0.9020     5.1390    -1.0580 H     1 <1>   0.0800 
 37 H       -0.5180     4.4310     1.2800 H     1 <1>   0.0800 
 38 H       -6.7890    -1.8660    -2.9250 H     1 <1>   0.1500 
 39 H       -2.0420    -1.8270     0.6450 H     1 <1>   0.1500 
 40 H       -5.5240     3.6620     2.5080 H     1 <1>   0.0800 
 41 H       -4.1280     3.3380     3.5270 H     1 <1>   0.0800 
 42 H       -4.6310     2.1630     2.3020 H     1 <1>   0.0800 
 43 H       -3.0040     5.5910     1.2990 H     1 <1>   0.4000 
 44 H       -4.7180    -1.0190    -5.7590 H     1 <1>   0.0800 
 45 H       -6.0350    -0.5770    -4.6800 H     1 <1>   0.0800 
 46 H       -5.6380    -2.2840    -4.9520 H     1 <1>   0.0800 
 47 H       -7.3580    -2.4520    -0.6410 H     1 <1>   0.1500 
 48 H       -6.7350    -2.8230     1.6650 H     1 <1>   0.1500 
 49 H       -2.6950    -2.4050     2.9070 H     1 <1>   0.1500 
 50 H       -5.0310    -2.9060     3.4390 H     1 <1>   0.1500 
@<TRIPOS>BOND
  1   1   2  2   
  2   2   3  am  
  3   2   4  1   
  4   3   5  1   
  5   3  26  1   
  6   4   6  1   
  7   4   7  1   
  8   4  27  1   
  9   5   8  1   
 10   5  28  1   
 11   5  29  1   
 12   6   9  1   
 13   6  30  1   
 14   6  31  1   
 15   7  10  1   
 16   7  32  1   
 17   7  33  1   
 18   8  11  ar  
 19   8  12  ar  
 20   9  13  1   
 21   9  14  1   
 22   9  34  1   
 23  10  14  1   
 24  10  35  1   
 25  10  36  1   
 26  11  15  1   
 27  11  16  ar  
 28  12  17  ar  
 29  12  18  ar  
 30  13  19  1   
 31  14  20  1   
 32  14  37  1   
 33  15  21  1   
 34  16  22  ar  
 35  16  38  1   
 36  17  22  ar  
 37  17  23  ar  
 38  18  24  ar  
 39  18  39  1   
 40  19  40  1   
 41  19  41  1   
 42  19  42  1   
 43  20  43  1   
 44  21  44  1   
 45  21  45  1   
 46  21  46  1   
 47  22  47  1   
 48  23  25  ar  
 49  23  48  1   
 50  24  25  ar  
 51  24  49  1   
 52  25  50  1   
@<TRIPOS>SUBSTRUCTURE
  1 ****   3 GROUP 4 **** **** 0

# MOE 2024.06 (io_trps.svl 2023.06)
