@<TRIPOS>MOLECULE
NONAME
55 57 1 0 0 
SMALL
USER_CHARGES


@<TRIPOS>ATOM
  1 O        0.1450    -0.0720    -0.2120 O.2   1 <1>  -0.5700 
  2 C        1.1690    -0.5620     0.2110 C.2   1 <1>   0.5690 
  3 N        2.1910     0.2030     0.7170 N.am  1 <1>  -0.6600 
  4 C        1.2670    -2.0970     0.1440 C.3   1 <1>   0.4040 
  5 C        3.4870    -0.3170     1.2400 C.3   1 <1>   0.1400 
  6 C        2.1530     1.6920     0.6260 C.3   1 <1>   0.1400 
  7 N       -0.0630    -2.7720    -0.1080 N.4   1 <1>  -0.9590 
  8 C        4.6120     0.1150     0.3010 C.3   1 <1>  -0.1600 
  9 C        3.2610     2.1670    -0.3170 C.3   1 <1>  -0.1600 
 10 C       -0.9520    -2.6810     1.0880 C.3   1 <1>   0.3430 
 11 C        0.0840    -4.1570    -0.6350 C.3   1 <1>   0.3430 
 12 C        4.6320     1.6350     0.1220 C.3   1 <1>   0.2000 
 13 C       -2.3350    -3.2280     0.7450 C.3   1 <1>  -0.1600 
 14 C       -1.2890    -4.7190    -0.9980 C.3   1 <1>  -0.1600 
 15 O        5.5680     1.9020    -0.8690 O.3   1 <1>  -0.5600 
 16 C       -2.2500    -4.6590     0.1970 C.3   1 <1>   0.0630 
 17 C        6.1220     3.1760    -0.8490 C.3   1 <1>   0.1200 
 18 C       -3.6280    -5.1920    -0.1810 C.ar  1 <1>  -0.1430 
 19 C        7.1390     3.2480    -1.9800 C.3   1 <1>  -0.2400 
 20 C       -4.4040    -4.5740    -1.1530 C.ar  1 <1>  -0.1500 
 21 C       -4.1260    -6.3210     0.4550 C.ar  1 <1>  -0.1500 
 22 C       -5.6520    -5.0740    -1.4820 C.ar  1 <1>  -0.1500 
 23 C       -5.3730    -6.8230     0.1270 C.ar  1 <1>  -0.1500 
 24 C       -6.1380    -6.2000    -0.8420 C.ar  1 <1>  -0.1500 
 25 H        1.6900    -2.4610     1.0630 H     1 <1>   0.0800 
 26 H        1.9460    -2.3370    -0.6560 H     1 <1>   0.0800 
 27 H        3.4810    -1.3880     1.3270 H     1 <1>   0.0800 
 28 H        3.6590     0.0940     2.2220 H     1 <1>   0.0800 
 29 H        2.2970     2.1120     1.6070 H     1 <1>   0.0800 
 30 H        1.1990     2.0330     0.2590 H     1 <1>   0.0800 
 31 H       -0.5180    -2.1840    -0.8280 H     1 <1>   0.4500 
 32 H        4.4770    -0.3560    -0.6570 H     1 <1>   0.0800 
 33 H        5.5570    -0.2020     0.7040 H     1 <1>   0.0800 
 34 H        3.2680     3.2410    -0.3230 H     1 <1>   0.0800 
 35 H        3.0420     1.8240    -1.3120 H     1 <1>   0.0800 
 36 H       -1.0460    -1.6520     1.4010 H     1 <1>   0.0800 
 37 H       -0.5320    -3.2490     1.9030 H     1 <1>   0.0800 
 38 H        0.5420    -4.7850     0.1110 H     1 <1>   0.0800 
 39 H        0.7120    -4.1550    -1.5120 H     1 <1>   0.0800 
 40 H        4.9460     2.1000     1.0420 H     1 <1>   0.0800 
 41 H       -2.8040    -2.5750     0.0310 H     1 <1>   0.0800 
 42 H       -2.9470    -3.2250     1.6310 H     1 <1>   0.0800 
 43 H       -1.1810    -5.7420    -1.3120 H     1 <1>   0.0800 
 44 H       -1.6880    -4.1690    -1.8310 H     1 <1>   0.0800 
 45 H       -1.8480    -5.2860     0.9750 H     1 <1>   0.0800 
 46 H        6.6020     3.3350     0.1020 H     1 <1>   0.0800 
 47 H        5.3430     3.9050    -0.9980 H     1 <1>   0.0800 
 48 H        7.9070     2.5110    -1.8320 H     1 <1>   0.0800 
 49 H        7.5950     4.2210    -2.0010 H     1 <1>   0.0800 
 50 H        6.6530     3.0750    -2.9240 H     1 <1>   0.0800 
 51 H       -4.0520    -3.6980    -1.6660 H     1 <1>   0.1500 
 52 H       -3.5520    -6.8240     1.2130 H     1 <1>   0.1500 
 53 H       -6.2470    -4.5890    -2.2370 H     1 <1>   0.1500 
 54 H       -5.7500    -7.6990     0.6260 H     1 <1>   0.1500 
 55 H       -7.1080    -6.5900    -1.0980 H     1 <1>   0.1500 
@<TRIPOS>BOND
  1   1   2  2   
  2   2   3  am  
  3   2   4  1   
  4   3   5  1   
  5   3   6  1   
  6   4   7  1   
  7   4  25  1   
  8   4  26  1   
  9   5   8  1   
 10   5  27  1   
 11   5  28  1   
 12   6   9  1   
 13   6  29  1   
 14   6  30  1   
 15   7  10  1   
 16   7  11  1   
 17   7  31  1   
 18   8  12  1   
 19   8  32  1   
 20   8  33  1   
 21   9  12  1   
 22   9  34  1   
 23   9  35  1   
 24  10  13  1   
 25  10  36  1   
 26  10  37  1   
 27  11  14  1   
 28  11  38  1   
 29  11  39  1   
 30  12  15  1   
 31  12  40  1   
 32  13  16  1   
 33  13  41  1   
 34  13  42  1   
 35  14  16  1   
 36  14  43  1   
 37  14  44  1   
 38  15  17  1   
 39  16  18  1   
 40  16  45  1   
 41  17  19  1   
 42  17  46  1   
 43  17  47  1   
 44  18  20  ar  
 45  18  21  ar  
 46  19  48  1   
 47  19  49  1   
 48  19  50  1   
 49  20  22  ar  
 50  20  51  1   
 51  21  23  ar  
 52  21  52  1   
 53  22  24  ar  
 54  22  53  1   
 55  23  24  ar  
 56  23  54  1   
 57  24  55  1   
@<TRIPOS>SUBSTRUCTURE
  1 ****   7 GROUP 4 **** **** 0

# MOE 2024.06 (io_trps.svl 2023.06)
