@<TRIPOS>MOLECULE
NONAME
54 56 1 0 0 
SMALL
USER_CHARGES


@<TRIPOS>ATOM
  1 O        0.4930    -0.8390     0.9170 O.2   1 <1>  -0.5700 
  2 C        1.4130    -0.9770     0.1420 C.2   1 <1>   0.5690 
  3 N        2.3560     0.0040    -0.0910 N.am  1 <1>  -0.4770 
  4 C        1.4810    -2.3340    -0.5810 C.3   1 <1>   0.4040 
  5 C        2.3500     1.2310     0.6020 C.ar  1 <1>   0.1170 
  6 C        3.4630    -0.1660    -1.0750 C.3   1 <1>   0.0600 
  7 N        0.1720    -3.1030    -0.5200 N.4   1 <1>  -0.9590 
  8 C        3.4430     1.6130     1.3730 C.ar  1 <1>  -0.1500 
  9 C        1.2600     2.0910     0.5220 C.ar  1 <1>  -0.1500 
 10 C        0.2430    -4.5890    -0.7130 C.3   1 <1>   0.4230 
 11 C       -0.8320    -2.4330    -1.4010 C.3   1 <1>   0.3430 
 12 C        3.4500     2.8240     2.0410 C.ar  1 <1>  -0.1500 
 13 C        1.2630     3.3030     1.1890 C.ar  1 <1>  -0.1500 
 14 C       -1.1620    -5.1770    -0.4900 C.3   1 <1>  -0.1600 
 15 C        1.3170    -5.1920     0.2260 C.3   1 <1>  -0.1600 
 16 C       -2.2230    -2.9950    -1.1320 C.3   1 <1>  -0.1600 
 17 C        2.3600     3.6720     1.9480 C.ar  1 <1>  -0.1500 
 18 C       -2.2470    -4.5090    -1.3400 C.3   1 <1>  -0.1600 
 19 C        1.4160    -6.7330     0.2940 C.3   1 <1>   0.0960 
 20 N        0.3390    -7.3530     1.1010 N.pl3 1 <1>   0.0480 
 21 C       -0.4710    -8.3930     0.7770 C.2   1 <1>   0.0060 
 22 C       -0.0640    -6.9810     2.3320 C.2   1 <1>  -0.3020 
 23 N       -1.3490    -8.6670     1.6830 N.2   1 <1>  -0.5650 
 24 C       -0.3760    -9.1840    -0.5140 C.3   1 <1>  -0.0600 
 25 C       -1.0930    -7.7880     2.6660 C.2   1 <1>   0.0770 
 26 H        2.2620    -2.8930    -0.1020 H     1 <1>   0.0800 
 27 H        1.7610    -2.1760    -1.6080 H     1 <1>   0.0800 
 28 H        3.0790    -0.5020    -2.0220 H     1 <1>   0.0800 
 29 H        4.1860    -0.8690    -0.7000 H     1 <1>   0.0800 
 30 H        3.9580     0.7780    -1.2370 H     1 <1>   0.0800 
 31 H       -0.1790    -2.9350     0.4390 H     1 <1>   0.4500 
 32 H        4.2920     0.9610     1.4580 H     1 <1>   0.1500 
 33 H        0.4030     1.8100    -0.0610 H     1 <1>   0.1500 
 34 H        0.5280    -4.7930    -1.7330 H     1 <1>   0.0800 
 35 H       -0.5750    -2.5870    -2.4370 H     1 <1>   0.0800 
 36 H       -0.8450    -1.3710    -1.2060 H     1 <1>   0.0800 
 37 H        4.3010     3.1100     2.6350 H     1 <1>   0.1500 
 38 H        0.4130     3.9600     1.1200 H     1 <1>   0.1500 
 39 H       -1.4270    -5.1040     0.5510 H     1 <1>   0.0800 
 40 H       -1.1620    -6.2190    -0.7490 H     1 <1>   0.0800 
 41 H        1.1910    -4.8070     1.2220 H     1 <1>   0.0800 
 42 H        2.2780    -4.8700    -0.1270 H     1 <1>   0.0800 
 43 H       -2.9280    -2.5310    -1.7990 H     1 <1>   0.0800 
 44 H       -2.5210    -2.7520    -0.1270 H     1 <1>   0.0800 
 45 H        2.3630     4.6150     2.4680 H     1 <1>   0.1500 
 46 H       -3.2140    -4.9000    -1.0670 H     1 <1>   0.0800 
 47 H       -2.0850    -4.7350    -2.3810 H     1 <1>   0.0800 
 48 H        2.3490    -7.0070     0.7540 H     1 <1>   0.0800 
 49 H        1.4050    -7.1500    -0.6960 H     1 <1>   0.0800 
 50 H        0.3830    -6.1920     2.9060 H     1 <1>   0.1500 
 51 H        0.6000    -9.6230    -0.6080 H     1 <1>   0.0800 
 52 H       -0.5710    -8.5530    -1.3600 H     1 <1>   0.0800 
 53 H       -1.1030    -9.9760    -0.5060 H     1 <1>   0.0800 
 54 H       -1.6690    -7.7890     3.5770 H     1 <1>   0.1500 
@<TRIPOS>BOND
  1   1   2  2   
  2   2   3  am  
  3   2   4  1   
  4   3   5  1   
  5   3   6  1   
  6   4   7  1   
  7   4  26  1   
  8   4  27  1   
  9   5   8  ar  
 10   5   9  ar  
 11   6  28  1   
 12   6  29  1   
 13   6  30  1   
 14   7  10  1   
 15   7  11  1   
 16   7  31  1   
 17   8  12  ar  
 18   8  32  1   
 19   9  13  ar  
 20   9  33  1   
 21  10  14  1   
 22  10  15  1   
 23  10  34  1   
 24  11  16  1   
 25  11  35  1   
 26  11  36  1   
 27  12  17  ar  
 28  12  37  1   
 29  13  17  ar  
 30  13  38  1   
 31  14  18  1   
 32  14  39  1   
 33  14  40  1   
 34  15  19  1   
 35  15  41  1   
 36  15  42  1   
 37  16  18  1   
 38  16  43  1   
 39  16  44  1   
 40  17  45  1   
 41  18  46  1   
 42  18  47  1   
 43  19  20  1   
 44  19  48  1   
 45  19  49  1   
 46  20  21  1   
 47  20  22  1   
 48  21  23  2   
 49  21  24  1   
 50  22  25  2   
 51  22  50  1   
 52  23  25  1   
 53  24  51  1   
 54  24  52  1   
 55  24  53  1   
 56  25  54  1   
@<TRIPOS>SUBSTRUCTURE
  1 ****   7 GROUP 4 **** **** 0

# MOE 2024.06 (io_trps.svl 2023.06)
