@<TRIPOS>MOLECULE
NONAME
54 57 1 0 0 
SMALL
USER_CHARGES


@<TRIPOS>ATOM
  1 O        0.5260     4.0020    -0.3320 O.2   1 <1>  -0.5700 
  2 C       -0.3410     3.7680     0.5060 C.2   1 <1>   0.5440 
  3 N       -1.3520     4.7090     0.6240 N.am  1 <1>  -0.6600 
  4 C       -0.2070     2.6290     1.3750 C.ar  1 <1>   0.0860 
  5 C       -2.0960     5.1030    -0.5820 C.3   1 <1>   0.1400 
  6 C       -2.1320     4.9000     1.8610 C.3   1 <1>   0.1400 
  7 C       -1.1050     1.5360     1.4690 C.ar  1 <1>  -0.1710 
  8 C        0.9000     2.5440     2.2130 C.ar  1 <1>  -0.1500 
  9 C       -3.2440     4.1140    -0.7380 C.3   1 <1>  -0.1600 
 10 C       -3.4150     4.0720     1.8290 C.3   1 <1>  -0.1600 
 11 O       -2.1330     1.4270     0.7510 O.3   1 <1>  -0.8290 
 12 C       -0.8230     0.5200     2.4060 C.ar  1 <1>   0.1600 
 13 C        1.0650     1.4920     3.0820 C.ar  1 <1>   0.1600 
 14 C       -4.2030     4.0820     0.4950 C.3   1 <1>   0.2800 
 15 N        0.2120     0.4730     3.2060 N.ar  1 <1>  -0.6200 
 16 O       -4.9270     5.2900     0.5160 O.3   1 <1>  -0.5600 
 17 C       -5.2030     2.8690     0.5110 C.3   1 <1>   0.2000 
 18 C       -5.8330     5.5750    -0.5140 C.3   1 <1>   0.1200 
 19 O       -4.5910     1.7320    -0.0460 O.3   1 <1>  -0.6800 
 20 C       -6.5950     3.1580    -0.1640 C.3   1 <1>   0.3000 
 21 C       -6.4660     4.3250    -1.1470 C.3   1 <1>  -0.1600 
 22 N       -7.7220     3.5090     0.7480 N.am  1 <1>  -0.7300 
 23 C       -7.1480     1.9450    -0.9350 C.3   1 <1>  -0.2400 
 24 C       -7.9180     3.9530     2.0110 C.2   1 <1>   0.6300 
 25 O       -9.0510     4.2020     2.3390 O.2   1 <1>  -0.5700 
 26 C       -6.8130     4.1640     3.0350 C.3   1 <1>  -0.1000 
 27 C       -6.3050     3.0290     3.8840 C.3   1 <1>  -0.2000 
 28 C       -7.1110     4.1190     4.5100 C.3   1 <1>  -0.2000 
 29 H       -2.4680     6.1070    -0.4720 H     1 <1>   0.0800 
 30 H       -1.4510     5.0600    -1.4430 H     1 <1>   0.0800 
 31 H       -1.5390     4.6200     2.7140 H     1 <1>   0.0800 
 32 H       -2.3810     5.9430     1.9500 H     1 <1>   0.0800 
 33 H        1.6340     3.3250     2.1670 H     1 <1>   0.1500 
 34 H       -2.7870     3.1540    -0.8820 H     1 <1>   0.0800 
 35 H       -3.7600     4.3270    -1.6490 H     1 <1>   0.0800 
 36 H       -4.0410     4.4160     2.6250 H     1 <1>   0.0800 
 37 H       -3.1570     3.0690     2.0900 H     1 <1>   0.0800 
 38 H       -1.5380    -0.2820     2.4450 H     1 <1>   0.1500 
 39 H        1.9330     1.4640     3.7160 H     1 <1>   0.1500 
 40 H       -5.3890     2.5870     1.5250 H     1 <1>   0.0800 
 41 H       -6.6030     6.1890    -0.0810 H     1 <1>   0.0800 
 42 H       -5.3180     6.1540    -1.2610 H     1 <1>   0.0800 
 43 H       -3.6340     1.6230     0.2940 H     1 <1>   0.4000 
 44 H       -7.4260     4.5830    -1.5560 H     1 <1>   0.0800 
 45 H       -5.8650     4.0110    -1.9790 H     1 <1>   0.0800 
 46 H       -8.6120     3.4090     0.2650 H     1 <1>   0.3700 
 47 H       -6.4770     1.6650    -1.7270 H     1 <1>   0.0800 
 48 H       -8.1050     2.1590    -1.3750 H     1 <1>   0.0800 
 49 H       -7.2420     1.1040    -0.2710 H     1 <1>   0.0800 
 50 H       -6.1690     4.9690     2.7430 H     1 <1>   0.1000 
 51 H       -6.7540     2.0580     3.7590 H     1 <1>   0.1000 
 52 H       -5.2530     2.9680     4.1000 H     1 <1>   0.1000 
 53 H       -6.6180     4.8240     5.1550 H     1 <1>   0.1000 
 54 H       -8.1190     3.9040     4.8260 H     1 <1>   0.1000 
@<TRIPOS>BOND
  1   1   2  2   
  2   2   3  am  
  3   2   4  1   
  4   3   5  1   
  5   3   6  1   
  6   4   7  ar  
  7   4   8  ar  
  8   5   9  1   
  9   5  29  1   
 10   5  30  1   
 11   6  10  1   
 12   6  31  1   
 13   6  32  1   
 14   7  11  1   
 15   7  12  ar  
 16   8  13  ar  
 17   8  33  1   
 18   9  14  1   
 19   9  34  1   
 20   9  35  1   
 21  10  14  1   
 22  10  36  1   
 23  10  37  1   
 24  12  15  ar  
 25  12  38  1   
 26  13  15  ar  
 27  13  39  1   
 28  14  16  1   
 29  14  17  1   
 30  16  18  1   
 31  17  19  1   
 32  17  20  1   
 33  17  40  1   
 34  18  21  1   
 35  18  41  1   
 36  18  42  1   
 37  19  43  1   
 38  20  21  1   
 39  20  22  1   
 40  20  23  1   
 41  21  44  1   
 42  21  45  1   
 43  22  24  am  
 44  22  46  1   
 45  23  47  1   
 46  23  48  1   
 47  23  49  1   
 48  24  25  2   
 49  24  26  1   
 50  26  27  1   
 51  26  28  1   
 52  26  50  1   
 53  27  28  1   
 54  27  51  1   
 55  27  52  1   
 56  28  53  1   
 57  28  54  1   
@<TRIPOS>SUBSTRUCTURE
  1 ****  10 GROUP 4 **** **** 0

# MOE 2024.06 (io_trps.svl 2023.06)
