@<TRIPOS>MOLECULE
NONAME
48 51 1 0 0 
SMALL
USER_CHARGES


@<TRIPOS>ATOM
  1 CL       2.7390    -2.0770    -2.1840 Cl    1 <1>  -0.1770 
  2 C        1.8600    -3.0900    -1.0670 C.ar  1 <1>   0.1770 
  3 C        0.6380    -2.6710    -0.5890 C.ar  1 <1>  -0.1500 
  4 C        2.4050    -4.2990    -0.6810 C.ar  1 <1>  -0.1500 
  5 C       -0.0890    -3.4640     0.2970 C.ar  1 <1>   0.0860 
  6 C        1.7070    -5.0980     0.2050 C.ar  1 <1>  -0.1500 
  7 C        0.4680    -4.6880     0.7000 C.ar  1 <1>   0.0830 
  8 C       -1.3750    -2.9910     0.7680 C.2   1 <1>   0.5440 
  9 O       -0.2330    -5.4420     1.5810 O.3   1 <1>  -0.3630 
 10 O       -1.4280    -1.9270     1.3600 O.2   1 <1>  -0.5700 
 11 N       -2.5490    -3.6660     0.5070 N.am  1 <1>  -0.6600 
 12 C        0.2920    -6.6040     2.1840 C.3   1 <1>   0.0400 
 13 C       -3.8590    -3.2150     1.0660 C.3   1 <1>   0.1400 
 14 C       -2.6380    -4.8100    -0.4490 C.3   1 <1>   0.1400 
 15 C       -4.7760    -2.6870    -0.0600 C.3   1 <1>   0.1430 
 16 C       -4.0280    -4.9000    -1.1060 C.3   1 <1>  -0.1600 
 17 C       -6.2010    -2.6960     0.4700 C.ar  1 <1>   0.1670 
 18 C       -4.6160    -3.5040    -1.3710 C.3   1 <1>  -0.1600 
 19 C       -4.5370    -1.1750    -0.3100 C.3   1 <1>  -0.1600 
 20 N       -6.9620    -3.7610     0.6070 N.ar  1 <1>  -0.6200 
 21 C       -6.6140    -1.4440     0.8150 C.ar  1 <1>  -0.1430 
 22 C       -5.5410    -0.4130     0.5700 C.3   1 <1>  -0.0160 
 23 C       -8.1670    -3.5130     1.0980 C.ar  1 <1>   0.4770 
 24 C       -7.8830    -1.3030     1.3180 C.ar  1 <1>   0.1600 
 25 N       -8.6780    -2.3440     1.4640 N.ar  1 <1>  -0.6200 
 26 C       -9.0680    -4.7120     1.2680 C.3   1 <1>  -0.0970 
 27 H        0.2410    -1.7210    -0.9000 H     1 <1>   0.1500 
 28 H        3.3610    -4.6020    -1.0700 H     1 <1>   0.1500 
 29 H        2.1450    -6.0340     0.4990 H     1 <1>   0.1500 
 30 H       -0.4320    -6.9690     2.8900 H     1 <1>   0.0800 
 31 H        1.2040    -6.3510     2.6970 H     1 <1>   0.0800 
 32 H        0.4670    -7.3450     1.4250 H     1 <1>   0.0800 
 33 H       -3.7210    -2.4620     1.8220 H     1 <1>   0.0800 
 34 H       -4.3270    -4.0590     1.5420 H     1 <1>   0.0800 
 35 H       -2.4220    -5.7270     0.0720 H     1 <1>   0.0800 
 36 H       -1.8980    -4.6790    -1.2200 H     1 <1>   0.0800 
 37 H       -4.6910    -5.4500    -0.4610 H     1 <1>   0.0800 
 38 H       -3.9500    -5.4500    -2.0270 H     1 <1>   0.0800 
 39 H       -3.9440    -2.9900    -2.0350 H     1 <1>   0.0800 
 40 H       -5.5670    -3.5900    -1.8690 H     1 <1>   0.0800 
 41 H       -4.7570    -0.9420    -1.3370 H     1 <1>   0.0800 
 42 H       -3.5210    -0.8850    -0.1050 H     1 <1>   0.0800 
 43 H       -5.9260     0.4580     0.0700 H     1 <1>   0.0800 
 44 H       -5.0870    -0.1310     1.5050 H     1 <1>   0.0800 
 45 H       -8.2530    -0.3340     1.6040 H     1 <1>   0.1500 
 46 H       -8.8800    -5.4250     0.4870 H     1 <1>   0.0800 
 47 H      -10.0980    -4.4110     1.2250 H     1 <1>   0.0800 
 48 H       -8.8720    -5.1680     2.2190 H     1 <1>   0.0800 
@<TRIPOS>BOND
  1   1   2  1   
  2   2   3  ar  
  3   2   4  ar  
  4   3   5  ar  
  5   3  27  1   
  6   4   6  ar  
  7   4  28  1   
  8   5   7  ar  
  9   5   8  1   
 10   6   7  ar  
 11   6  29  1   
 12   7   9  1   
 13   8  10  2   
 14   8  11  am  
 15   9  12  1   
 16  11  13  1   
 17  11  14  1   
 18  12  30  1   
 19  12  31  1   
 20  12  32  1   
 21  13  15  1   
 22  13  33  1   
 23  13  34  1   
 24  14  16  1   
 25  14  35  1   
 26  14  36  1   
 27  15  17  1   
 28  15  18  1   
 29  15  19  1   
 30  16  18  1   
 31  16  37  1   
 32  16  38  1   
 33  17  20  ar  
 34  17  21  ar  
 35  18  39  1   
 36  18  40  1   
 37  19  22  1   
 38  19  41  1   
 39  19  42  1   
 40  20  23  ar  
 41  21  22  1   
 42  21  24  ar  
 43  22  43  1   
 44  22  44  1   
 45  23  25  ar  
 46  23  26  1   
 47  24  25  ar  
 48  24  45  1   
 49  26  46  1   
 50  26  47  1   
 51  26  48  1   
@<TRIPOS>SUBSTRUCTURE
  1 ****  11 GROUP 4 **** **** 0

# MOE 2024.06 (io_trps.svl 2023.06)
