@<TRIPOS>MOLECULE
NONAME
50 52 1 0 0 
SMALL
USER_CHARGES


@<TRIPOS>ATOM
  1 O        0.0590     0.3650    -0.6580 O.2   1 <1>  -0.5700 
  2 C       -0.0390     1.5130    -0.2910 C.2   1 <1>   0.5690 
  3 N       -1.2580     2.1300    -0.1720 N.am  1 <1>  -0.6600 
  4 C        1.2360     2.2600     0.0560 C.3   1 <1>  -0.0990 
  5 C       -1.4410     3.4970     0.4080 C.3   1 <1>   0.1400 
  6 C       -2.4940     1.4250    -0.6330 C.3   1 <1>   0.1400 
  7 C        2.4710     1.6380    -0.6060 C.3   1 <1>   0.0960 
  8 C       -2.8340     3.6250     1.0180 C.3   1 <1>  -0.1600 
  9 C       -3.5330     2.4320    -1.1290 C.3   1 <1>  -0.1600 
 10 N        3.6850     2.3670    -0.1940 N.pl3 1 <1>   0.3140 
 11 C       -3.9260     3.4610    -0.0530 C.3   1 <1>   0.4180 
 12 N        3.9600     3.5880    -0.6890 N.2   1 <1>  -0.7070 
 13 C        4.6220     1.9780     0.7020 C.2   1 <1>  -0.3320 
 14 O       -4.0670     4.6800    -0.7420 O.3   1 <1>  -0.5600 
 15 C       -5.2480     3.0520     0.5940 C.2   1 <1>  -0.2880 
 16 C        5.0610     3.9440    -0.1090 C.2   1 <1>   0.1080 
 17 C        5.5250     2.9780     0.7750 C.2   1 <1>  -0.1500 
 18 C        4.6180     0.6610     1.4600 C.3   1 <1>  -0.0600 
 19 C       -4.8740     5.6720    -0.1690 C.3   1 <1>   0.1200 
 20 C       -6.3480     3.8090     0.6020 C.2   1 <1>  -0.2760 
 21 C        5.7310     5.2680    -0.3890 C.3   1 <1>  -0.0590 
 22 C       -6.3230     5.1850    -0.0340 C.3   1 <1>  -0.0220 
 23 C       -7.6780     3.3910     1.2050 C.3   1 <1>  -0.1020 
 24 H        1.3560     2.2460     1.1230 H     1 <1>   0.0800 
 25 H        1.1560     3.2780    -0.2780 H     1 <1>   0.0800 
 26 H       -1.3170     4.2320    -0.3710 H     1 <1>   0.0800 
 27 H       -0.7060     3.6770     1.1720 H     1 <1>   0.0800 
 28 H       -2.8950     0.8500     0.1840 H     1 <1>   0.0800 
 29 H       -2.2500     0.7450    -1.4320 H     1 <1>   0.0800 
 30 H        2.3860     1.6990    -1.6760 H     1 <1>   0.0800 
 31 H        2.5700     0.6050    -0.3300 H     1 <1>   0.0800 
 32 H       -2.9330     4.5690     1.5170 H     1 <1>   0.0800 
 33 H       -2.9430     2.8610     1.7660 H     1 <1>   0.0800 
 34 H       -4.4070     1.9050    -1.4630 H     1 <1>   0.0800 
 35 H       -3.1150     2.9360    -1.9820 H     1 <1>   0.0800 
 36 H       -5.2070     2.0750     1.0390 H     1 <1>   0.1500 
 37 H        6.4150     3.0430     1.3740 H     1 <1>   0.1500 
 38 H        3.7210     0.5720     2.0470 H     1 <1>   0.0800 
 39 H        5.4650     0.6120     2.1200 H     1 <1>   0.0800 
 40 H        4.6730    -0.1630     0.7720 H     1 <1>   0.0800 
 41 H       -4.8300     6.5380    -0.8040 H     1 <1>   0.0800 
 42 H       -4.4760     5.9300     0.7950 H     1 <1>   0.0800 
 43 H        5.0560     6.0680    -0.1470 H     1 <1>   0.0800 
 44 H        5.9820     5.3260    -1.4320 H     1 <1>   0.0800 
 45 H        6.6250     5.3680     0.1970 H     1 <1>   0.0800 
 46 H       -6.7880     5.1500    -1.0020 H     1 <1>   0.0800 
 47 H       -6.8630     5.8880     0.5750 H     1 <1>   0.0800 
 48 H       -7.9600     4.0680     1.9910 H     1 <1>   0.0800 
 49 H       -7.6100     2.4000     1.6170 H     1 <1>   0.0800 
 50 H       -8.4430     3.3950     0.4490 H     1 <1>   0.0800 
@<TRIPOS>BOND
  1   1   2  2   
  2   2   3  am  
  3   2   4  1   
  4   3   5  1   
  5   3   6  1   
  6   4   7  1   
  7   4  24  1   
  8   4  25  1   
  9   5   8  1   
 10   5  26  1   
 11   5  27  1   
 12   6   9  1   
 13   6  28  1   
 14   6  29  1   
 15   7  10  1   
 16   7  30  1   
 17   7  31  1   
 18   8  11  1   
 19   8  32  1   
 20   8  33  1   
 21   9  11  1   
 22   9  34  1   
 23   9  35  1   
 24  10  12  1   
 25  10  13  1   
 26  11  14  1   
 27  11  15  1   
 28  12  16  2   
 29  13  17  2   
 30  13  18  1   
 31  14  19  1   
 32  15  20  2   
 33  15  36  1   
 34  16  17  1   
 35  16  21  1   
 36  17  37  1   
 37  18  38  1   
 38  18  39  1   
 39  18  40  1   
 40  19  22  1   
 41  19  41  1   
 42  19  42  1   
 43  20  22  1   
 44  20  23  1   
 45  21  43  1   
 46  21  44  1   
 47  21  45  1   
 48  22  46  1   
 49  22  47  1   
 50  23  48  1   
 51  23  49  1   
 52  23  50  1   
@<TRIPOS>SUBSTRUCTURE
  1 ****   5 GROUP 4 **** **** 0

# MOE 2024.06 (io_trps.svl 2023.06)
