@<TRIPOS>MOLECULE
NONAME
50 52 1 0 0 
SMALL
USER_CHARGES


@<TRIPOS>ATOM
  1 F       -1.4430    -0.2340    -1.7490 F     1 <1>  -0.1900 
  2 C       -2.0400     0.5870    -0.9220 C.ar  1 <1>   0.1900 
  3 C       -2.7590     0.0800     0.1460 C.ar  1 <1>  -0.1440 
  4 C       -1.9080     1.9410    -1.1590 C.ar  1 <1>  -0.1500 
  5 C       -3.3630     0.9900     1.0000 C.ar  1 <1>  -0.1500 
  6 C       -2.8860    -1.4180     0.3880 C.3   1 <1>   0.2540 
  7 C       -2.5160     2.8510    -0.2970 C.ar  1 <1>   0.0820 
  8 C       -3.2640     2.3590     0.7910 C.ar  1 <1>   0.0820 
  9 N       -3.9030    -2.0240    -0.4980 N.3   1 <1>  -0.8100 
 10 O       -2.3810     4.1960    -0.4870 O.3   1 <1>  -0.3630 
 11 O       -3.9310     3.1130     1.7120 O.3   1 <1>  -0.3630 
 12 C       -3.9620    -3.5010    -0.3440 C.3   1 <1>   0.3330 
 13 C       -5.2440    -1.4380    -0.2850 C.3   1 <1>   0.1100 
 14 C       -1.5150     4.7340    -1.4640 C.3   1 <1>   0.0400 
 15 C       -4.4140     4.4040     1.4140 C.3   1 <1>   0.0400 
 16 C       -2.6070    -4.1380    -0.6570 C.ar  1 <1>  -0.1430 
 17 C       -5.0760    -4.1080    -1.2430 C.3   1 <1>   0.2000 
 18 C       -6.3050    -2.1200    -1.1660 C.3   1 <1>   0.1200 
 19 C       -2.0400    -5.0440     0.2290 C.ar  1 <1>  -0.1500 
 20 C       -1.9350    -3.8310    -1.8310 C.ar  1 <1>  -0.1500 
 21 O       -6.3070    -3.5000    -0.9450 O.3   1 <1>  -0.5600 
 22 C       -5.2610    -5.6240    -1.0610 C.3   1 <1>   0.1200 
 23 C       -0.8260    -5.6420    -0.0610 C.ar  1 <1>  -0.1500 
 24 C       -0.7210    -4.4280    -2.1230 C.ar  1 <1>  -0.1500 
 25 O       -4.2420    -6.3400    -1.6860 O.3   1 <1>  -0.6800 
 26 C       -0.1670    -5.3350    -1.2380 C.ar  1 <1>  -0.1500 
 27 H       -1.3320     2.2480    -2.0090 H     1 <1>   0.1500 
 28 H       -3.9300     0.6440     1.8450 H     1 <1>   0.1500 
 29 H       -3.1440    -1.6020     1.4160 H     1 <1>   0.0800 
 30 H       -1.9250    -1.8660     0.2060 H     1 <1>   0.0800 
 31 H       -4.2160    -3.7270     0.6770 H     1 <1>   0.0800 
 32 H       -5.5320    -1.5330     0.7480 H     1 <1>   0.0800 
 33 H       -5.2260    -0.3910    -0.5340 H     1 <1>   0.0800 
 34 H       -1.5360     5.8050    -1.3730 H     1 <1>   0.0800 
 35 H       -1.8650     4.4450    -2.4390 H     1 <1>   0.0800 
 36 H       -0.5180     4.3720    -1.2860 H     1 <1>   0.0800 
 37 H       -5.1510     4.6650     2.1510 H     1 <1>   0.0800 
 38 H       -4.8590     4.3950     0.4340 H     1 <1>   0.0800 
 39 H       -3.5960     5.1000     1.4570 H     1 <1>   0.0800 
 40 H       -4.8590    -3.9120    -2.2780 H     1 <1>   0.0800 
 41 H       -6.1070    -1.9340    -2.2070 H     1 <1>   0.0800 
 42 H       -7.2840    -1.7460    -0.9260 H     1 <1>   0.0800 
 43 H       -2.5400    -5.2950     1.1490 H     1 <1>   0.1500 
 44 H       -2.3590    -3.1180    -2.5190 H     1 <1>   0.1500 
 45 H       -6.1880    -5.9350    -1.5110 H     1 <1>   0.0800 
 46 H       -5.2660    -5.8850    -0.0170 H     1 <1>   0.0800 
 47 H       -0.3930    -6.3460     0.6280 H     1 <1>   0.1500 
 48 H       -0.2090    -4.1820    -3.0370 H     1 <1>   0.1500 
 49 H       -3.3590    -5.9840    -1.4380 H     1 <1>   0.4000 
 50 H        0.7770    -5.8000    -1.4650 H     1 <1>   0.1500 
@<TRIPOS>BOND
  1   1   2  1   
  2   2   3  ar  
  3   2   4  ar  
  4   3   5  ar  
  5   3   6  1   
  6   4   7  ar  
  7   4  27  1   
  8   5   8  ar  
  9   5  28  1   
 10   6   9  1   
 11   6  29  1   
 12   6  30  1   
 13   7   8  ar  
 14   7  10  1   
 15   8  11  1   
 16   9  12  1   
 17   9  13  1   
 18  10  14  1   
 19  11  15  1   
 20  12  16  1   
 21  12  17  1   
 22  12  31  1   
 23  13  18  1   
 24  13  32  1   
 25  13  33  1   
 26  14  34  1   
 27  14  35  1   
 28  14  36  1   
 29  15  37  1   
 30  15  38  1   
 31  15  39  1   
 32  16  19  ar  
 33  16  20  ar  
 34  17  21  1   
 35  17  22  1   
 36  17  40  1   
 37  18  21  1   
 38  18  41  1   
 39  18  42  1   
 40  19  23  ar  
 41  19  43  1   
 42  20  24  ar  
 43  20  44  1   
 44  22  25  1   
 45  22  45  1   
 46  22  46  1   
 47  23  26  ar  
 48  23  47  1   
 49  24  26  ar  
 50  24  48  1   
 51  25  49  1   
 52  26  50  1   
@<TRIPOS>SUBSTRUCTURE
  1 ****   6 GROUP 4 **** **** 0

# MOE 2024.06 (io_trps.svl 2023.06)
