@<TRIPOS>MOLECULE
NONAME
26 25 1 0 0 
SMALL
USER_CHARGES


@<TRIPOS>ATOM
  1 S        0.1210     0.0200    -0.1350 S.o2  1 <1>   1.3130 
  2 S       -1.5410    -0.6030     0.9310 S.3   1 <1>  -0.3480 
  3 O        1.2440    -0.7960     0.2700 O.2   1 <1>  -0.6500 
  4 O       -0.2830     0.1340    -1.5210 O.2   1 <1>  -0.6500 
  5 C        0.3550     1.6610     0.5170 C.3   1 <1>  -0.1350 
  6 C       -2.9270    -0.2010    -0.1640 C.3   1 <1>   0.0700 
  7 C       -4.2300    -0.5760     0.5440 C.3   1 <1>  -0.1600 
  8 C       -5.4410    -0.2580    -0.3420 C.3   1 <1>  -0.1600 
  9 C       -6.7530    -0.6350     0.3550 C.3   1 <1>  -0.1600 
 10 C       -7.9650    -0.3160    -0.5360 C.3   1 <1>  -0.2660 
 11 C       -9.2760    -0.6790     0.1230 C.2   1 <1>   0.9060 
 12 O       -9.7330    -1.8120    -0.0560 O.co2 1 <1>  -0.9000 
 13 O       -9.8450     0.1730     0.8130 O.co2 1 <1>  -0.9000 
 14 H        0.5320     1.6170     1.5740 H     1 <1>   0.0800 
 15 H       -0.5140     2.2630     0.3340 H     1 <1>   0.0800 
 16 H        1.2000     2.1250     0.0470 H     1 <1>   0.0800 
 17 H       -2.7930    -0.7660    -1.0700 H     1 <1>   0.0800 
 18 H       -2.8800     0.8520    -0.3770 H     1 <1>   0.0800 
 19 H       -4.3080    -0.0280     1.4670 H     1 <1>   0.0800 
 20 H       -4.2210    -1.6280     0.7730 H     1 <1>   0.0800 
 21 H       -5.3660    -0.8050    -1.2660 H     1 <1>   0.0800 
 22 H       -5.4550     0.7930    -0.5730 H     1 <1>   0.0800 
 23 H       -6.8520    -0.0910     1.2800 H     1 <1>   0.0800 
 24 H       -6.7620    -1.6870     0.5860 H     1 <1>   0.0800 
 25 H       -7.9030    -0.8630    -1.4570 H     1 <1>   0.0800 
 26 H       -7.9950     0.7330    -0.7620 H     1 <1>   0.0800 
@<TRIPOS>BOND
  1   1   2  1   
  2   1   3  2   
  3   1   4  2   
  4   1   5  1   
  5   2   6  1   
  6   5  14  1   
  7   5  15  1   
  8   5  16  1   
  9   6   7  1   
 10   6  17  1   
 11   6  18  1   
 12   7   8  1   
 13   7  19  1   
 14   7  20  1   
 15   8   9  1   
 16   8  21  1   
 17   8  22  1   
 18   9  10  1   
 19   9  23  1   
 20   9  24  1   
 21  10  11  1   
 22  10  25  1   
 23  10  26  1   
 24  11  12  ar  
 25  11  13  ar  
@<TRIPOS>SUBSTRUCTURE
  1 ****   7 GROUP 4 **** **** 0

# MOE 2024.06 (io_trps.svl 2023.06)
