@<TRIPOS>MOLECULE
NONAME
45 47 1 0 0 
SMALL
USER_CHARGES


@<TRIPOS>ATOM
  1 CL       0.9310     1.4930     1.5640 Cl    1 <1>  -0.1770 
  2 C        1.5260    -0.1250     1.2690 C.ar  1 <1>   0.1770 
  3 C        2.6290    -0.3340     0.4410 C.ar  1 <1>   0.0540 
  4 C        0.8750    -1.1690     1.9000 C.ar  1 <1>  -0.1500 
  5 C        3.3040     0.7490    -0.2340 C.2   1 <1>   0.4620 
  6 C        3.0670    -1.6500     0.2870 C.ar  1 <1>  -0.1500 
  7 C        1.3240    -2.4650     1.7220 C.ar  1 <1>  -0.1500 
  8 N        2.7690     1.5910    -1.0430 N.2   1 <1>  -0.4100 
  9 N        4.6120     0.9680    -0.0780 N.2   1 <1>  -0.5650 
 10 C        2.4240    -2.7020     0.9160 C.ar  1 <1>  -0.1500 
 11 O        3.6970     2.4030    -1.4400 O.3   1 <1>  -0.0190 
 12 C        4.7730     1.9810    -0.8280 C.2   1 <1>   0.2980 
 13 C        6.0740     2.7350    -1.0480 C.3   1 <1>   0.3200 
 14 N        6.0580     4.0250    -0.3110 N.am  1 <1>  -0.7300 
 15 C        6.3030     5.2300    -0.8790 C.2   1 <1>   0.5690 
 16 O        6.6530     5.3180    -2.0300 O.2   1 <1>  -0.5700 
 17 C        6.1230     6.4840    -0.0230 C.3   1 <1>  -0.0190 
 18 C        5.7680     7.7340    -0.8540 C.3   1 <1>  -0.1600 
 19 C        7.3730     6.7450     0.8490 C.3   1 <1>  -0.1600 
 20 C        5.4340     8.9510     0.0370 C.3   1 <1>   0.2000 
 21 C        7.4690     8.1900     1.3780 C.3   1 <1>  -0.1600 
 22 O        5.8800    10.1160    -0.6120 O.3   1 <1>  -0.5600 
 23 C        6.0970     8.8660     1.4380 C.3   1 <1>   0.2000 
 24 C        5.0690    10.5640    -1.6540 C.3   1 <1>   0.0400 
 25 O        6.2680    10.1400     1.9370 O.3   1 <1>  -0.6800 
 26 H        0.0250    -0.9640     2.5270 H     1 <1>   0.1500 
 27 H        3.9230    -1.8450    -0.3360 H     1 <1>   0.1500 
 28 H        0.8230    -3.2840     2.2100 H     1 <1>   0.1500 
 29 H        2.7810    -3.7090     0.7790 H     1 <1>   0.1500 
 30 H        6.2130     2.9020    -2.1020 H     1 <1>   0.0800 
 31 H        6.8930     2.1370    -0.6900 H     1 <1>   0.0800 
 32 H        5.7600     3.9620     0.6630 H     1 <1>   0.3700 
 33 H        5.2900     6.2940     0.6310 H     1 <1>   0.0800 
 34 H        4.9270     7.5170    -1.4880 H     1 <1>   0.0800 
 35 H        6.6100     7.9700    -1.4830 H     1 <1>   0.0800 
 36 H        7.3630     6.0600     1.6790 H     1 <1>   0.0800 
 37 H        8.2600     6.5380     0.2740 H     1 <1>   0.0800 
 38 H        4.3700     9.0230     0.1820 H     1 <1>   0.0800 
 39 H        8.0980     8.7600     0.7150 H     1 <1>   0.0800 
 40 H        7.9220     8.1900     2.3540 H     1 <1>   0.0800 
 41 H        5.4620     8.3280     2.1200 H     1 <1>   0.0800 
 42 H        5.5030    11.4650    -2.0510 H     1 <1>   0.0800 
 43 H        4.0840    10.7750    -1.2740 H     1 <1>   0.0800 
 44 H        5.0260     9.8160    -2.4270 H     1 <1>   0.0800 
 45 H        6.4210    10.7150     1.1530 H     1 <1>   0.4000 
@<TRIPOS>BOND
  1   1   2  1   
  2   2   3  ar  
  3   2   4  ar  
  4   3   5  1   
  5   3   6  ar  
  6   4   7  ar  
  7   4  26  1   
  8   5   8  2   
  9   5   9  1   
 10   6  10  ar  
 11   6  27  1   
 12   7  10  ar  
 13   7  28  1   
 14   8  11  1   
 15   9  12  2   
 16  10  29  1   
 17  11  12  1   
 18  12  13  1   
 19  13  14  1   
 20  13  30  1   
 21  13  31  1   
 22  14  15  am  
 23  14  32  1   
 24  15  16  2   
 25  15  17  1   
 26  17  18  1   
 27  17  19  1   
 28  17  33  1   
 29  18  20  1   
 30  18  34  1   
 31  18  35  1   
 32  19  21  1   
 33  19  36  1   
 34  19  37  1   
 35  20  22  1   
 36  20  23  1   
 37  20  38  1   
 38  21  23  1   
 39  21  39  1   
 40  21  40  1   
 41  22  24  1   
 42  23  25  1   
 43  23  41  1   
 44  24  42  1   
 45  24  43  1   
 46  24  44  1   
 47  25  45  1   
@<TRIPOS>SUBSTRUCTURE
  1 ****  14 GROUP 4 **** **** 0

# MOE 2024.06 (io_trps.svl 2023.06)
