@<TRIPOS>MOLECULE
NONAME
49 51 1 0 0 
SMALL
USER_CHARGES


@<TRIPOS>ATOM
  1 O       -1.1620    -0.4910    -1.7040 O.2   1 <1>  -0.5700 
  2 C       -1.9070     0.0900    -0.9390 C.2   1 <1>   0.5440 
  3 N       -1.4280     1.1730    -0.2330 N.am  1 <1>  -0.6600 
  4 C       -3.2620    -0.3770    -0.7960 C.ar  1 <1>   0.0860 
  5 C        0.0190     1.5450    -0.2530 C.3   1 <1>   0.1400 
  6 C       -2.2800     2.1930     0.4530 C.3   1 <1>   0.1400 
  7 C       -3.7540    -0.7820     0.4390 C.ar  1 <1>   0.1600 
  8 C       -4.1330    -0.4620    -1.8750 C.ar  1 <1>  -0.1500 
  9 C        0.4900     1.9680     1.1480 C.3   1 <1>   0.1200 
 10 C       -1.6800     2.5690     1.8180 C.3   1 <1>   0.1200 
 11 N       -4.9750    -1.2210     0.6830 N.ar  1 <1>  -0.6200 
 12 C       -5.4060    -0.9200    -1.6410 C.ar  1 <1>  -0.1500 
 13 O       -0.3440     2.9610     1.6780 O.3   1 <1>  -0.5600 
 14 C       -5.8060    -1.2890    -0.3550 C.ar  1 <1>   0.4100 
 15 N       -7.0780    -1.7710    -0.1050 N.pl3 1 <1>  -0.8380 
 16 C       -7.4100    -2.5710     1.1200 C.3   1 <1>   0.3890 
 17 C       -8.2260    -1.5990    -1.0420 C.3   1 <1>   0.1290 
 18 C       -7.7920    -3.9920     0.7350 C.2   1 <1>   0.0070 
 19 N       -8.9830    -4.4760     0.8480 N.2   1 <1>  -0.3380 
 20 N       -6.9390    -4.8910     0.2270 N.pl3 1 <1>   0.0480 
 21 N       -8.9400    -5.7320     0.4020 N.2   1 <1>  -0.3380 
 22 C       -7.7250    -5.9540     0.0390 C.2   1 <1>   0.0360 
 23 C       -5.4900    -4.7560    -0.0760 C.3   1 <1>   0.1760 
 24 C       -5.2710    -4.7020    -1.5910 C.3   1 <1>  -0.2400 
 25 C       -4.6940    -5.9050     0.5540 C.3   1 <1>  -0.2400 
 26 H        0.1650     2.3600    -0.9400 H     1 <1>   0.0800 
 27 H        0.6160     0.7160    -0.5900 H     1 <1>   0.0800 
 28 H       -3.2840     1.8350     0.5900 H     1 <1>   0.0800 
 29 H       -2.3280     3.0770    -0.1590 H     1 <1>   0.0800 
 30 H       -3.0810    -0.7370     1.2780 H     1 <1>   0.1500 
 31 H       -3.8010    -0.1800    -2.8590 H     1 <1>   0.1500 
 32 H        1.4870     2.3680     1.0980 H     1 <1>   0.0800 
 33 H        0.4900     1.1240     1.8160 H     1 <1>   0.0800 
 34 H       -1.7260     1.7360     2.4980 H     1 <1>   0.0800 
 35 H       -2.2200     3.3950     2.2460 H     1 <1>   0.0800 
 36 H       -6.0930    -1.0040    -2.4590 H     1 <1>   0.1500 
 37 H       -8.2380    -2.1070     1.6270 H     1 <1>   0.0800 
 38 H       -6.5900    -2.6050     1.8130 H     1 <1>   0.0800 
 39 H       -8.1400    -0.6710    -1.5790 H     1 <1>   0.0800 
 40 H       -9.1540    -1.5850    -0.4950 H     1 <1>   0.0800 
 41 H       -8.2520    -2.4190    -1.7390 H     1 <1>   0.0800 
 42 H       -7.3700    -6.8820    -0.3710 H     1 <1>   0.1500 
 43 H       -5.1400    -3.8360     0.3540 H     1 <1>   0.0800 
 44 H       -5.5720    -5.6240    -2.0560 H     1 <1>   0.0800 
 45 H       -4.2310    -4.5330    -1.8050 H     1 <1>   0.0800 
 46 H       -5.8360    -3.8910    -2.0150 H     1 <1>   0.0800 
 47 H       -4.9700    -6.8500     0.1230 H     1 <1>   0.0800 
 48 H       -4.8640    -5.9350     1.6160 H     1 <1>   0.0800 
 49 H       -3.6420    -5.7520     0.3880 H     1 <1>   0.0800 
@<TRIPOS>BOND
  1   1   2  2   
  2   2   3  am  
  3   2   4  1   
  4   3   5  1   
  5   3   6  1   
  6   4   7  ar  
  7   4   8  ar  
  8   5   9  1   
  9   5  26  1   
 10   5  27  1   
 11   6  10  1   
 12   6  28  1   
 13   6  29  1   
 14   7  11  ar  
 15   7  30  1   
 16   8  12  ar  
 17   8  31  1   
 18   9  13  1   
 19   9  32  1   
 20   9  33  1   
 21  10  13  1   
 22  10  34  1   
 23  10  35  1   
 24  11  14  ar  
 25  12  14  ar  
 26  12  36  1   
 27  14  15  1   
 28  15  16  1   
 29  15  17  1   
 30  16  18  1   
 31  16  37  1   
 32  16  38  1   
 33  17  39  1   
 34  17  40  1   
 35  17  41  1   
 36  18  19  2   
 37  18  20  1   
 38  19  21  1   
 39  20  22  1   
 40  20  23  1   
 41  21  22  2   
 42  22  42  1   
 43  23  24  1   
 44  23  25  1   
 45  23  43  1   
 46  24  44  1   
 47  24  45  1   
 48  24  46  1   
 49  25  47  1   
 50  25  48  1   
 51  25  49  1   
@<TRIPOS>SUBSTRUCTURE
  1 ****  11 GROUP 4 **** **** 0

# MOE 2024.06 (io_trps.svl 2023.06)
