@<TRIPOS>MOLECULE
NONAME
49 51 1 0 0 
SMALL
USER_CHARGES


@<TRIPOS>ATOM
  1 CL       1.7830     1.7110    -2.3200 Cl    1 <1>  -0.1770 
  2 C        1.5760     3.3330    -1.7050 C.ar  1 <1>   0.1770 
  3 C        1.1500     3.5360    -0.4040 C.ar  1 <1>   0.1600 
  4 C        1.8360     4.4110    -2.5210 C.ar  1 <1>  -0.1500 
  5 N        0.9660     4.7300     0.1450 N.ar  1 <1>  -0.6200 
  6 C        1.6470     5.6560    -1.9610 C.ar  1 <1>  -0.1500 
  7 C        1.2210     5.7710    -0.6350 C.ar  1 <1>   0.4270 
  8 N        1.0070     6.9680     0.0090 N.am  1 <1>  -0.5470 
  9 C        1.4140     8.2410    -0.2670 C.2   1 <1>   0.5690 
 10 O        2.0510     8.5370    -1.2510 O.2   1 <1>  -0.5700 
 11 C        1.0960     9.3430     0.7490 C.3   1 <1>   0.1710 
 12 N        2.3280     9.8490     1.4090 N.3   1 <1>  -0.8100 
 13 C        2.3330    11.2800     1.7930 C.3   1 <1>   0.1100 
 14 C        2.9640     8.9410     2.3760 C.3   1 <1>   0.1100 
 15 C        3.7730    11.8420     1.7980 C.3   1 <1>   0.3430 
 16 C        4.4100     8.6720     1.9340 C.3   1 <1>  -0.1600 
 17 N        4.6460    10.9320     0.9920 N.4   1 <1>  -0.9590 
 18 C        5.3130     9.9090     1.8270 C.3   1 <1>   0.3430 
 19 C        5.4970    11.5980    -0.0210 C.3   1 <1>   0.4860 
 20 C        4.6010    12.3960    -0.9520 C.ar  1 <1>  -0.1430 
 21 C        4.6960    13.7830    -0.9910 C.ar  1 <1>  -0.1500 
 22 C        3.6750    11.7410    -1.7600 C.ar  1 <1>  -0.1500 
 23 C        3.8680    14.5160    -1.8250 C.ar  1 <1>  -0.1500 
 24 C        2.8420    12.4660    -2.5960 C.ar  1 <1>  -0.1500 
 25 C        2.9540    13.8430    -2.6110 C.ar  1 <1>   0.1900 
 26 F        2.1690    14.5310    -3.3940 F     1 <1>  -0.1900 
 27 H        0.9520     2.6720     0.2060 H     1 <1>   0.1500 
 28 H        2.1650     4.2780    -3.5370 H     1 <1>   0.1500 
 29 H        1.8270     6.5330    -2.5530 H     1 <1>   0.1500 
 30 H        0.5450     6.8070     0.9000 H     1 <1>   0.3700 
 31 H        0.4010     8.9870     1.4890 H     1 <1>   0.0800 
 32 H        0.6230    10.1430     0.2070 H     1 <1>   0.0800 
 33 H        1.8660    11.4210     2.7530 H     1 <1>   0.0800 
 34 H        1.7670    11.8430     1.0690 H     1 <1>   0.0800 
 35 H        2.4330     8.0030     2.4110 H     1 <1>   0.0800 
 36 H        2.9410     9.3660     3.3660 H     1 <1>   0.0800 
 37 H        4.1360    11.9070     2.8100 H     1 <1>   0.0800 
 38 H        3.7610    12.8360     1.3810 H     1 <1>   0.0800 
 39 H        4.3930     8.1650     0.9850 H     1 <1>   0.0800 
 40 H        4.8570     7.9910     2.6360 H     1 <1>   0.0800 
 41 H        3.9250    10.3890     0.4730 H     1 <1>   0.4500 
 42 H        6.2500     9.6180     1.3810 H     1 <1>   0.0800 
 43 H        5.5140    10.3070     2.8090 H     1 <1>   0.0800 
 44 H        6.0350    10.8600    -0.5930 H     1 <1>   0.0800 
 45 H        6.2080    12.2490     0.4600 H     1 <1>   0.0800 
 46 H        5.4120    14.3070    -0.3800 H     1 <1>   0.1500 
 47 H        3.5870    10.6660    -1.7530 H     1 <1>   0.1500 
 48 H        3.9260    15.5900    -1.8720 H     1 <1>   0.1500 
 49 H        2.1210    11.9760    -3.2270 H     1 <1>   0.1500 
@<TRIPOS>BOND
  1   1   2  1   
  2   2   3  ar  
  3   2   4  ar  
  4   3   5  ar  
  5   3  27  1   
  6   4   6  ar  
  7   4  28  1   
  8   5   7  ar  
  9   6   7  ar  
 10   6  29  1   
 11   7   8  1   
 12   8   9  am  
 13   8  30  1   
 14   9  10  2   
 15   9  11  1   
 16  11  12  1   
 17  11  31  1   
 18  11  32  1   
 19  12  13  1   
 20  12  14  1   
 21  13  15  1   
 22  13  33  1   
 23  13  34  1   
 24  14  16  1   
 25  14  35  1   
 26  14  36  1   
 27  15  17  1   
 28  15  37  1   
 29  15  38  1   
 30  16  18  1   
 31  16  39  1   
 32  16  40  1   
 33  17  18  1   
 34  17  19  1   
 35  17  41  1   
 36  18  42  1   
 37  18  43  1   
 38  19  20  1   
 39  19  44  1   
 40  19  45  1   
 41  20  21  ar  
 42  20  22  ar  
 43  21  23  ar  
 44  21  46  1   
 45  22  24  ar  
 46  22  47  1   
 47  23  25  ar  
 48  23  48  1   
 49  24  25  ar  
 50  24  49  1   
 51  25  26  1   
@<TRIPOS>SUBSTRUCTURE
  1 ****  10 GROUP 4 **** **** 0

# MOE 2024.06 (io_trps.svl 2023.06)
