@<TRIPOS>MOLECULE
NONAME
50 52 1 0 0 
SMALL
USER_CHARGES


@<TRIPOS>ATOM
  1 F       -0.7240    -1.7040     1.4310 F     1 <1>  -0.3400 
  2 C       -1.8010    -2.3470     1.8680 C.3   1 <1>   1.1640 
  3 F       -1.3530    -3.3550     2.6080 F     1 <1>  -0.3400 
  4 F       -2.4170    -1.5180     2.7000 F     1 <1>  -0.3400 
  5 C       -2.7220    -2.7990     0.7240 C.ar  1 <1>  -0.1440 
  6 C       -3.3920    -4.0170     0.7800 C.ar  1 <1>  -0.1500 
  7 C       -2.9090    -1.9890    -0.3930 C.ar  1 <1>  -0.1500 
  8 C       -4.2280    -4.4150    -0.2510 C.ar  1 <1>   0.0830 
  9 C       -3.7360    -2.3870    -1.4290 C.ar  1 <1>  -0.1500 
 10 O       -4.8520    -5.6140    -0.1400 O.3   1 <1>  -0.1650 
 11 C       -4.3940    -3.6000    -1.3630 C.ar  1 <1>  -0.1500 
 12 C       -6.1320    -5.7950    -0.5500 C.ar  1 <1>   0.0830 
 13 C       -6.4670    -7.0200    -1.1030 C.ar  1 <1>  -0.1500 
 14 C       -7.1000    -4.8080    -0.4120 C.ar  1 <1>  -0.1500 
 15 C       -7.7640    -7.2660    -1.5280 C.ar  1 <1>  -0.1430 
 16 C       -8.3910    -5.0460    -0.8440 C.ar  1 <1>  -0.1500 
 17 C       -8.7230    -6.2690    -1.4030 C.ar  1 <1>  -0.1500 
 18 C       -8.1320    -8.6140    -2.1170 C.3   1 <1>   0.4860 
 19 N       -8.1930    -9.6150    -1.0170 N.4   1 <1>  -0.9590 
 20 C       -8.3240   -11.0070    -1.5650 C.3   1 <1>   0.3430 
 21 C       -9.2820    -9.2930    -0.0470 C.3   1 <1>   0.3430 
 22 C       -8.3750   -12.0760    -0.4560 C.3   1 <1>   0.2000 
 23 C       -9.2790   -10.3080     1.0950 C.3   1 <1>  -0.1600 
 24 O       -8.6600   -13.2840    -1.0660 O.3   1 <1>  -0.6800 
 25 C       -9.4590   -11.7570     0.5900 C.3   1 <1>  -0.0800 
 26 C       -9.4430   -12.7710     1.7480 C.3   1 <1>   0.1200 
 27 O      -10.4230   -12.4220     2.6590 O.3   1 <1>  -0.6800 
 28 H       -3.2770    -4.6720     1.6270 H     1 <1>   0.1500 
 29 H       -2.4070    -1.0370    -0.4640 H     1 <1>   0.1500 
 30 H       -3.8660    -1.7510    -2.2890 H     1 <1>   0.1500 
 31 H       -5.0280    -3.9100    -2.1740 H     1 <1>   0.1500 
 32 H       -5.6930    -7.7610    -1.1970 H     1 <1>   0.1500 
 33 H       -6.8490    -3.8590     0.0310 H     1 <1>   0.1500 
 34 H       -9.1380    -4.2750    -0.7440 H     1 <1>   0.1500 
 35 H       -9.7350    -6.4260    -1.7360 H     1 <1>   0.1500 
 36 H       -7.3830    -8.8990    -2.8380 H     1 <1>   0.0800 
 37 H       -9.0830    -8.5510    -2.6200 H     1 <1>   0.0800 
 38 H       -7.3060    -9.5350    -0.5050 H     1 <1>   0.4500 
 39 H       -9.2340   -11.0790    -2.1370 H     1 <1>   0.0800 
 40 H       -7.4940   -11.2260    -2.2160 H     1 <1>   0.0800 
 41 H       -9.1370    -8.3020     0.3570 H     1 <1>   0.0800 
 42 H      -10.2380    -9.3180    -0.5450 H     1 <1>   0.0800 
 43 H       -7.4070   -12.1620     0.0080 H     1 <1>   0.0800 
 44 H       -8.3680   -10.2150     1.6610 H     1 <1>   0.0800 
 45 H      -10.0900   -10.0560     1.7580 H     1 <1>   0.0800 
 46 H       -8.6400   -14.0300    -0.4320 H     1 <1>   0.4000 
 47 H      -10.4190   -11.8260     0.1050 H     1 <1>   0.0800 
 48 H       -8.4940   -12.7670     2.2590 H     1 <1>   0.0800 
 49 H       -9.6610   -13.7650     1.3960 H     1 <1>   0.0800 
 50 H      -10.4840   -13.0750     3.3860 H     1 <1>   0.4000 
@<TRIPOS>BOND
  1   1   2  1   
  2   2   3  1   
  3   2   4  1   
  4   2   5  1   
  5   5   6  ar  
  6   5   7  ar  
  7   6   8  ar  
  8   6  28  1   
  9   7   9  ar  
 10   7  29  1   
 11   8  10  1   
 12   8  11  ar  
 13   9  11  ar  
 14   9  30  1   
 15  10  12  1   
 16  11  31  1   
 17  12  13  ar  
 18  12  14  ar  
 19  13  15  ar  
 20  13  32  1   
 21  14  16  ar  
 22  14  33  1   
 23  15  17  ar  
 24  15  18  1   
 25  16  17  ar  
 26  16  34  1   
 27  17  35  1   
 28  18  19  1   
 29  18  36  1   
 30  18  37  1   
 31  19  20  1   
 32  19  21  1   
 33  19  38  1   
 34  20  22  1   
 35  20  39  1   
 36  20  40  1   
 37  21  23  1   
 38  21  41  1   
 39  21  42  1   
 40  22  24  1   
 41  22  25  1   
 42  22  43  1   
 43  23  25  1   
 44  23  44  1   
 45  23  45  1   
 46  24  46  1   
 47  25  26  1   
 48  25  47  1   
 49  26  27  1   
 50  26  48  1   
 51  26  49  1   
 52  27  50  1   
@<TRIPOS>SUBSTRUCTURE
  1 ****  12 GROUP 4 **** **** 0

# MOE 2024.06 (io_trps.svl 2023.06)
