@<TRIPOS>MOLECULE
NONAME
46 48 1 0 0 
SMALL
USER_CHARGES


@<TRIPOS>ATOM
  1 S       -0.1670     0.0720     0.4350 S.o2  1 <1>   1.2040 
  2 O       -0.5410     0.5220     1.7560 O.2   1 <1>  -0.6500 
  3 O        1.0260     0.5850    -0.1990 O.2   1 <1>  -0.6500 
  4 C       -0.1410    -1.7390     0.4000 C.ar  1 <1>  -0.0090 
  5 C       -1.5330     0.4430    -0.6480 C.3   1 <1>  -0.1350 
  6 C        0.5610    -2.4310    -0.5800 C.ar  1 <1>  -0.1500 
  7 C       -0.8410    -2.4880     1.3370 C.ar  1 <1>  -0.1500 
  8 C        0.5520    -3.8130    -0.6270 C.ar  1 <1>  -0.1500 
  9 C       -0.8490    -3.8710     1.2910 C.ar  1 <1>  -0.1500 
 10 C       -0.1620    -4.5690     0.2990 C.ar  1 <1>   0.0860 
 11 C       -0.1780    -6.0190     0.2250 C.2   1 <1>   0.5440 
 12 O        0.8620    -6.6240     0.0490 O.2   1 <1>  -0.5700 
 13 N       -1.3490    -6.7350     0.3260 N.am  1 <1>  -0.6600 
 14 C       -2.7020    -6.1820     0.0650 C.3   1 <1>   0.1400 
 15 C       -1.3750    -8.2190     0.2600 C.3   1 <1>   0.1400 
 16 C       -3.5080    -7.3630    -0.4670 C.3   1 <1>   0.2000 
 17 C       -2.8530    -8.5970     0.1460 C.3   1 <1>  -0.0800 
 18 O       -4.8380    -7.2790    -0.0900 O.3   1 <1>  -0.6800 
 19 C       -3.0980    -9.8790    -0.6640 C.3   1 <1>   0.0210 
 20 C       -2.3600   -11.0520    -0.0520 C.2   1 <1>   0.1080 
 21 N       -2.6350   -11.5170     1.1270 N.2   1 <1>  -0.7070 
 22 C       -1.3170   -11.7440    -0.6590 C.2   1 <1>  -0.1500 
 23 N       -1.7680   -12.5310     1.3040 N.pl3 1 <1>   0.3000 
 24 C       -0.9570   -12.6870     0.2360 C.2   1 <1>  -0.3320 
 25 C        0.1280   -13.7420     0.1360 C.3   1 <1>  -0.0600 
 26 H       -2.4390     0.0130    -0.2690 H     1 <1>   0.0800 
 27 H       -1.3480     0.0550    -1.6310 H     1 <1>   0.0800 
 28 H       -1.6640     1.5050    -0.7200 H     1 <1>   0.0800 
 29 H        1.1290    -1.8800    -1.3120 H     1 <1>   0.1500 
 30 H       -1.3820    -1.9810     2.1200 H     1 <1>   0.1500 
 31 H        1.1110    -4.3290    -1.3910 H     1 <1>   0.1500 
 32 H       -1.3880    -4.4250     2.0400 H     1 <1>   0.1500 
 33 H       -3.1210    -5.8250     0.9880 H     1 <1>   0.0800 
 34 H       -2.6610    -5.3890    -0.6620 H     1 <1>   0.0800 
 35 H       -0.8250    -8.5430    -0.6070 H     1 <1>   0.0800 
 36 H       -0.9280    -8.6490     1.1410 H     1 <1>   0.0800 
 37 H       -3.4580    -7.3810    -1.5430 H     1 <1>   0.0800 
 38 H       -3.2190    -8.7410     1.1480 H     1 <1>   0.0800 
 39 H       -4.9390    -7.5160     0.8530 H     1 <1>   0.4000 
 40 H       -2.7740    -9.7440    -1.6800 H     1 <1>   0.0800 
 41 H       -4.1500   -10.1020    -0.6750 H     1 <1>   0.0800 
 42 H       -0.9050   -11.5470    -1.6330 H     1 <1>   0.1500 
 43 H       -1.7540   -13.0950     2.1620 H     1 <1>   0.2700 
 44 H        0.6350   -13.6620    -0.8100 H     1 <1>   0.0800 
 45 H       -0.3000   -14.7260     0.2120 H     1 <1>   0.0800 
 46 H        0.8500   -13.6100     0.9230 H     1 <1>   0.0800 
@<TRIPOS>BOND
  1   1   2  2   
  2   1   3  2   
  3   1   4  1   
  4   1   5  1   
  5   4   6  ar  
  6   4   7  ar  
  7   5  26  1   
  8   5  27  1   
  9   5  28  1   
 10   6   8  ar  
 11   6  29  1   
 12   7   9  ar  
 13   7  30  1   
 14   8  10  ar  
 15   8  31  1   
 16   9  10  ar  
 17   9  32  1   
 18  10  11  1   
 19  11  12  2   
 20  11  13  am  
 21  13  14  1   
 22  13  15  1   
 23  14  16  1   
 24  14  33  1   
 25  14  34  1   
 26  15  17  1   
 27  15  35  1   
 28  15  36  1   
 29  16  17  1   
 30  16  18  1   
 31  16  37  1   
 32  17  19  1   
 33  17  38  1   
 34  18  39  1   
 35  19  20  1   
 36  19  40  1   
 37  19  41  1   
 38  20  21  2   
 39  20  22  1   
 40  21  23  1   
 41  22  24  2   
 42  22  42  1   
 43  23  24  1   
 44  23  43  1   
 45  24  25  1   
 46  25  44  1   
 47  25  45  1   
 48  25  46  1   
@<TRIPOS>SUBSTRUCTURE
  1 ****  13 GROUP 4 **** **** 0

# MOE 2024.06 (io_trps.svl 2023.06)
