@<TRIPOS>MOLECULE
NONAME
46 49 1 0 0 
SMALL
USER_CHARGES


@<TRIPOS>ATOM
  1 S        0.1670     0.4190     0.9810 S.3   1 <1>  -0.0800 
  2 C       -1.3780     0.8380     0.2420 C.2   1 <1>   0.4620 
  3 C        0.7640     2.0100     0.6070 C.2   1 <1>  -0.1100 
  4 N       -1.4060     2.0370    -0.2220 N.2   1 <1>  -0.5650 
  5 N       -2.3980    -0.0900     0.2000 N.pl3 1 <1>  -0.8220 
  6 C       -0.2070     2.6970    -0.0160 C.2   1 <1>   0.0460 
  7 C       -2.2880    -1.4470     0.8090 C.3   1 <1>   0.2090 
  8 C       -3.6300     0.2280    -0.5730 C.3   1 <1>   0.2090 
  9 C       -0.1220     4.1310    -0.5220 C.3   1 <1>   0.3010 
 10 C       -3.6520    -1.9730     1.2660 C.3   1 <1>  -0.1600 
 11 C       -4.3260    -1.0540    -1.0220 C.3   1 <1>  -0.1600 
 12 O        0.9490     4.7920     0.0680 O.3   1 <1>  -0.6800 
 13 C       -4.7690    -1.8800     0.2000 C.3   1 <1>   0.4240 
 14 O       -5.7780    -1.1250     0.8380 O.3   1 <1>  -0.5600 
 15 C       -5.2860    -3.2900    -0.2060 C.ar  1 <1>  -0.1430 
 16 C       -7.0800    -1.2200     0.3570 C.3   1 <1>   0.1200 
 17 C       -4.4390    -4.2490    -0.7750 C.ar  1 <1>   0.0830 
 18 C       -6.6240    -3.6310    -0.0060 C.ar  1 <1>  -0.1430 
 19 C       -7.5830    -2.6330     0.6090 C.3   1 <1>  -0.0170 
 20 O       -3.1310    -3.9330    -0.9680 O.3   1 <1>  -0.3630 
 21 C       -4.9340    -5.5030    -1.1290 C.ar  1 <1>  -0.1500 
 22 C       -7.1050    -4.8800    -0.3590 C.ar  1 <1>  -0.1500 
 23 C       -2.2350    -4.7830    -1.6500 C.3   1 <1>   0.0400 
 24 C       -6.2620    -5.8160    -0.9220 C.ar  1 <1>  -0.1500 
 25 H        1.7710     2.2550     0.8880 H     1 <1>   0.1500 
 26 H       -1.6340    -1.4220     1.6620 H     1 <1>   0.0800 
 27 H       -1.8570    -2.1130     0.0820 H     1 <1>   0.0800 
 28 H       -3.3700     0.8150    -1.4380 H     1 <1>   0.0800 
 29 H       -4.2890     0.8140     0.0450 H     1 <1>   0.0800 
 30 H       -1.0220     4.6640    -0.2710 H     1 <1>   0.0800 
 31 H        0.0130     4.1440    -1.5890 H     1 <1>   0.0800 
 32 H       -3.9320    -1.4170     2.1430 H     1 <1>   0.0800 
 33 H       -3.5320    -2.9950     1.5750 H     1 <1>   0.0800 
 34 H       -3.6410    -1.6080    -1.6330 H     1 <1>   0.0800 
 35 H       -5.1670    -0.8170    -1.6430 H     1 <1>   0.0800 
 36 H        0.8450     4.7620     1.0380 H     1 <1>   0.4000 
 37 H       -7.0980    -0.9830    -0.6910 H     1 <1>   0.0800 
 38 H       -7.6810    -0.5050     0.8910 H     1 <1>   0.0800 
 39 H       -8.5620    -2.7400     0.1810 H     1 <1>   0.0800 
 40 H       -7.6540    -2.8030     1.6680 H     1 <1>   0.0800 
 41 H       -4.3040    -6.2530    -1.5650 H     1 <1>   0.1500 
 42 H       -8.1380    -5.1310    -0.1960 H     1 <1>   0.1500 
 43 H       -1.2880    -4.2790    -1.7220 H     1 <1>   0.0800 
 44 H       -2.6200    -4.9780    -2.6350 H     1 <1>   0.0800 
 45 H       -2.1220    -5.6940    -1.0900 H     1 <1>   0.0800 
 46 H       -6.6390    -6.7860    -1.1950 H     1 <1>   0.1500 
@<TRIPOS>BOND
  1   1   2  1   
  2   1   3  1   
  3   2   4  2   
  4   2   5  1   
  5   3   6  2   
  6   3  25  1   
  7   4   6  1   
  8   5   7  1   
  9   5   8  1   
 10   6   9  1   
 11   7  10  1   
 12   7  26  1   
 13   7  27  1   
 14   8  11  1   
 15   8  28  1   
 16   8  29  1   
 17   9  12  1   
 18   9  30  1   
 19   9  31  1   
 20  10  13  1   
 21  10  32  1   
 22  10  33  1   
 23  11  13  1   
 24  11  34  1   
 25  11  35  1   
 26  12  36  1   
 27  13  14  1   
 28  13  15  1   
 29  14  16  1   
 30  15  17  ar  
 31  15  18  ar  
 32  16  19  1   
 33  16  37  1   
 34  16  38  1   
 35  17  20  1   
 36  17  21  ar  
 37  18  19  1   
 38  18  22  ar  
 39  19  39  1   
 40  19  40  1   
 41  20  23  1   
 42  21  24  ar  
 43  21  41  1   
 44  22  24  ar  
 45  22  42  1   
 46  23  43  1   
 47  23  44  1   
 48  23  45  1   
 49  24  46  1   
@<TRIPOS>SUBSTRUCTURE
  1 ****  11 GROUP 4 **** **** 0

# MOE 2024.06 (io_trps.svl 2023.06)
