@<TRIPOS>MOLECULE
NONAME
55 57 1 0 0 
SMALL
USER_CHARGES


@<TRIPOS>ATOM
  1 O        0.1500     0.9810    -0.4060 O.2   1 <1>  -0.5700 
  2 C        0.5610     1.8760     0.3000 C.2   1 <1>   0.5440 
  3 N        1.2940     1.4910     1.3720 N.am  1 <1>  -0.8000 
  4 C        0.2690     3.2700     0.0220 C.ar  1 <1>   0.0860 
  5 C        1.0610     4.3110     0.5140 C.ar  1 <1>  -0.1500 
  6 C       -0.8290     3.6330    -0.7600 C.ar  1 <1>  -0.1500 
  7 C        0.7620     5.6340     0.2510 C.ar  1 <1>  -0.1500 
  8 C       -1.1300     4.9550    -1.0250 C.ar  1 <1>  -0.1500 
  9 C       -0.3400     5.9820    -0.5190 C.ar  1 <1>   0.1170 
 10 N       -0.5950     7.3360    -0.7490 N.am  1 <1>  -0.5470 
 11 C       -1.6370     8.0180    -1.3130 C.2   1 <1>   0.5690 
 12 O       -2.6340     7.5050    -1.7590 O.2   1 <1>  -0.5700 
 13 C       -1.4900     9.5410    -1.3580 C.3   1 <1>   0.1710 
 14 N       -0.4910    10.0690    -0.3790 N.3   1 <1>  -0.8100 
 15 C       -0.0390    11.4170    -0.7620 C.3   1 <1>   0.1100 
 16 C       -1.0480    10.0730     0.9870 C.3   1 <1>   0.1100 
 17 C        1.0830    11.8950     0.1730 C.3   1 <1>  -0.0800 
 18 C        0.0350    10.4860     1.9860 C.3   1 <1>  -0.1600 
 19 C        0.6150    11.8630     1.6400 C.3   1 <1>  -0.1600 
 20 C        1.5480    13.2970    -0.2450 C.3   1 <1>   0.1200 
 21 O        2.6120    13.7070     0.5850 O.3   1 <1>  -0.3630 
 22 C        3.1890    14.9260     0.4400 C.ar  1 <1>   0.0830 
 23 C        4.2070    15.2440     1.3250 C.ar  1 <1>  -0.1500 
 24 C        2.8170    15.8510    -0.5310 C.ar  1 <1>  -0.1500 
 25 C        4.8480    16.4680     1.2480 C.ar  1 <1>  -0.1500 
 26 C        3.4600    17.0750    -0.6050 C.ar  1 <1>  -0.1500 
 27 C        4.4760    17.3910     0.2830 C.ar  1 <1>  -0.1430 
 28 C        5.1800    18.7330     0.1970 C.3   1 <1>  -0.0970 
 29 H        1.4270     0.4920     1.5320 H     1 <1>   0.3700 
 30 H        1.5670     2.1180     2.1270 H     1 <1>   0.3700 
 31 H        1.9290     4.0810     1.1050 H     1 <1>   0.1500 
 32 H       -1.4560     2.8560    -1.1650 H     1 <1>   0.1500 
 33 H        1.3930     6.4100     0.6460 H     1 <1>   0.1500 
 34 H       -1.9860     5.1830    -1.6330 H     1 <1>   0.1500 
 35 H        0.0980     8.0000    -0.3850 H     1 <1>   0.3700 
 36 H       -2.4520     9.9920    -1.1880 H     1 <1>   0.0800 
 37 H       -1.1810     9.7910    -2.3560 H     1 <1>   0.0800 
 38 H       -0.8680    12.1040    -0.7220 H     1 <1>   0.0800 
 39 H        0.3360    11.3920    -1.7720 H     1 <1>   0.0800 
 40 H       -1.4060     9.0900     1.2450 H     1 <1>   0.0800 
 41 H       -1.8770    10.7590     1.0440 H     1 <1>   0.0800 
 42 H        1.9150    11.2230     0.0530 H     1 <1>   0.0800 
 43 H        0.8190     9.7490     1.9770 H     1 <1>   0.0800 
 44 H       -0.3830    10.5100     2.9770 H     1 <1>   0.0800 
 45 H       -0.1390    12.6150     1.7940 H     1 <1>   0.0800 
 46 H        1.4400    12.0810     2.2960 H     1 <1>   0.0800 
 47 H        0.7470    14.0070    -0.1400 H     1 <1>   0.0800 
 48 H        1.9030    13.2870    -1.2610 H     1 <1>   0.0800 
 49 H        4.4930    14.5270     2.0730 H     1 <1>   0.1500 
 50 H        2.0360    15.6410    -1.2350 H     1 <1>   0.1500 
 51 H        5.6370    16.6980     1.9420 H     1 <1>   0.1500 
 52 H        3.1670    17.7820    -1.3600 H     1 <1>   0.1500 
 53 H        5.5210    19.0420     1.1690 H     1 <1>   0.0800 
 54 H        4.5110    19.4850    -0.1820 H     1 <1>   0.0800 
 55 H        6.0270    18.6570    -0.4610 H     1 <1>   0.0800 
@<TRIPOS>BOND
  1   1   2  2   
  2   2   3  am  
  3   2   4  1   
  4   3  29  1   
  5   3  30  1   
  6   4   5  ar  
  7   4   6  ar  
  8   5   7  ar  
  9   5  31  1   
 10   6   8  ar  
 11   6  32  1   
 12   7   9  ar  
 13   7  33  1   
 14   8   9  ar  
 15   8  34  1   
 16   9  10  1   
 17  10  11  am  
 18  10  35  1   
 19  11  12  2   
 20  11  13  1   
 21  13  14  1   
 22  13  36  1   
 23  13  37  1   
 24  14  15  1   
 25  14  16  1   
 26  15  17  1   
 27  15  38  1   
 28  15  39  1   
 29  16  18  1   
 30  16  40  1   
 31  16  41  1   
 32  17  19  1   
 33  17  20  1   
 34  17  42  1   
 35  18  19  1   
 36  18  43  1   
 37  18  44  1   
 38  19  45  1   
 39  19  46  1   
 40  20  21  1   
 41  20  47  1   
 42  20  48  1   
 43  21  22  1   
 44  22  23  ar  
 45  22  24  ar  
 46  23  25  ar  
 47  23  49  1   
 48  24  26  ar  
 49  24  50  1   
 50  25  27  ar  
 51  25  51  1   
 52  26  27  ar  
 53  26  52  1   
 54  27  28  1   
 55  28  53  1   
 56  28  54  1   
 57  28  55  1   
@<TRIPOS>SUBSTRUCTURE
  1 ****  14 GROUP 4 **** **** 0

# MOE 2024.06 (io_trps.svl 2023.06)
