@<TRIPOS>MOLECULE
NONAME
36 37 1 0 0 
SMALL
USER_CHARGES


@<TRIPOS>ATOM
  1 N       -0.2410     0.6510     0.7390 N.1   1 <1>  -0.5570 
  2 C       -1.2450     1.1560     0.5370 C.1   1 <1>   0.4840 
  3 C       -2.5330     1.7200     0.2660 C.ar  1 <1>   0.0730 
  4 C       -2.6550     3.0940    -0.0010 C.ar  1 <1>   0.4100 
  5 C       -3.6790     0.9360     0.2670 C.ar  1 <1>  -0.1440 
  6 N       -3.8160     3.6940    -0.2460 N.ar  1 <1>  -0.6200 
  7 N       -1.5500     3.9270    -0.0310 N.pl3 1 <1>  -0.8380 
  8 C       -4.8750     1.5730     0.0060 C.ar  1 <1>  -0.1500 
  9 C       -3.6510    -0.5630     0.5430 C.3   1 <1>  -0.0970 
 10 C       -4.8910     2.9340    -0.2400 C.ar  1 <1>   0.1670 
 11 C       -1.6960     5.2940     0.5430 C.3   1 <1>   0.3900 
 12 C       -0.6270     3.8420    -1.1990 C.3   1 <1>   0.1290 
 13 C       -6.1990     3.6410    -0.5260 C.3   1 <1>  -0.0960 
 14 C       -0.3380     5.8730     0.9050 C.2   1 <1>  -0.1810 
 15 C        0.2380     7.0500     0.5690 C.2   1 <1>  -0.3320 
 16 C        0.6030     5.2320     1.7040 C.2   1 <1>   0.1390 
 17 N        1.4510     7.0640     1.1630 N.pl3 1 <1>   0.3000 
 18 C       -0.2800     8.1920    -0.2880 C.3   1 <1>  -0.0600 
 19 N        1.6790     5.9410     1.8670 N.2   1 <1>  -0.7070 
 20 H       -5.7940     1.0160    -0.0070 H     1 <1>   0.1500 
 21 H       -3.0280    -1.0620    -0.1780 H     1 <1>   0.0800 
 22 H       -4.6380    -0.9860     0.4860 H     1 <1>   0.0800 
 23 H       -3.2590    -0.7510     1.5270 H     1 <1>   0.0800 
 24 H       -2.3060     5.2450     1.4280 H     1 <1>   0.0800 
 25 H       -2.1930     5.9260    -0.1710 H     1 <1>   0.0800 
 26 H       -0.8530     2.9750    -1.7970 H     1 <1>   0.0800 
 27 H        0.3900     3.7680    -0.8520 H     1 <1>   0.0800 
 28 H       -0.7250     4.7190    -1.8140 H     1 <1>   0.0800 
 29 H       -6.3640     4.4030     0.2150 H     1 <1>   0.0800 
 30 H       -7.0260     2.9560    -0.5100 H     1 <1>   0.0800 
 31 H       -6.1510     4.1060    -1.4940 H     1 <1>   0.0800 
 32 H        0.4610     4.2550     2.1360 H     1 <1>   0.1500 
 33 H        2.1440     7.8210     1.1100 H     1 <1>   0.2700 
 34 H       -1.2640     7.9730    -0.6620 H     1 <1>   0.0800 
 35 H        0.3740     8.3510    -1.1280 H     1 <1>   0.0800 
 36 H       -0.3310     9.0970     0.2910 H     1 <1>   0.0800 
@<TRIPOS>BOND
  1   1   2  3   
  2   2   3  1   
  3   3   4  ar  
  4   3   5  ar  
  5   4   6  ar  
  6   4   7  1   
  7   5   8  ar  
  8   5   9  1   
  9   6  10  ar  
 10   7  11  1   
 11   7  12  1   
 12   8  10  ar  
 13   8  20  1   
 14   9  21  1   
 15   9  22  1   
 16   9  23  1   
 17  10  13  1   
 18  11  14  1   
 19  11  24  1   
 20  11  25  1   
 21  12  26  1   
 22  12  27  1   
 23  12  28  1   
 24  13  29  1   
 25  13  30  1   
 26  13  31  1   
 27  14  15  2   
 28  14  16  1   
 29  15  17  1   
 30  15  18  1   
 31  16  19  2   
 32  16  32  1   
 33  17  19  1   
 34  17  33  1   
 35  18  34  1   
 36  18  35  1   
 37  18  36  1   
@<TRIPOS>SUBSTRUCTURE
  1 ****   7 GROUP 4 **** **** 0

# MOE 2024.06 (io_trps.svl 2023.06)
