@<TRIPOS>MOLECULE
NONAME
46 49 1 0 0 
SMALL
USER_CHARGES


@<TRIPOS>ATOM
  1 O        0.1690    -0.1570     0.7420 O.2   1 <1>  -0.5700 
  2 C        1.0340    -0.6930     0.0680 C.2   1 <1>   0.7160 
  3 N        2.0790     0.0340    -0.4460 N.am  1 <1>  -0.4940 
  4 C        1.0160    -2.1180    -0.2120 C.2   1 <1>   0.2030 
  5 C        2.3920     1.4130    -0.3640 C.2   1 <1>  -0.0880 
  6 N        1.9500    -2.7650    -0.8920 N.2   1 <1>  -0.7070 
  7 C        0.0160    -3.0030     0.1950 C.2   1 <1>  -0.1500 
  8 N        3.6440     1.9090    -0.1550 N.pl3 1 <1>   0.3140 
  9 C        1.5720     2.4870    -0.4810 C.2   1 <1>  -0.1810 
 10 N        1.5340    -4.0420    -0.9110 N.pl3 1 <1>   0.3000 
 11 C        0.3640    -4.2310    -0.2610 C.2   1 <1>  -0.1520 
 12 N        3.6400     3.2660    -0.1450 N.2   1 <1>  -0.7070 
 13 C        4.8840     1.1070     0.0660 C.3   1 <1>   0.1760 
 14 C        2.4010     3.5930    -0.3330 C.2   1 <1>   0.1390 
 15 C        0.0760     2.5390    -0.7290 C.3   1 <1>  -0.0590 
 16 C       -0.3020    -5.4960    -0.1310 C.2   1 <1>   0.1400 
 17 C        5.6540     1.5050     1.3250 C.3   1 <1>  -0.1600 
 18 C        5.9070     1.2670    -1.0610 C.3   1 <1>  -0.1600 
 19 O       -1.4480    -5.5630     0.5300 O.3   1 <1>  -0.2800 
 20 C        0.0200    -6.7400    -0.5770 C.2   1 <1>  -0.1500 
 21 C        7.0640     0.9610     1.0910 C.3   1 <1>  -0.1600 
 22 C        7.2710     0.9610    -0.4290 C.3   1 <1>  -0.1600 
 23 C       -1.8690    -6.8100     0.5210 C.2   1 <1>  -0.0400 
 24 C       -1.0010    -7.5930    -0.1520 C.2   1 <1>  -0.1500 
 25 C       -3.1690    -7.1410     1.2180 C.3   1 <1>  -0.0600 
 26 H        2.7280    -0.5730    -0.9530 H     1 <1>   0.3700 
 27 H       -0.8580    -2.7370     0.7650 H     1 <1>   0.1500 
 28 H        2.0620    -4.7900    -1.3760 H     1 <1>   0.2700 
 29 H        4.6200     0.0700     0.1490 H     1 <1>   0.0800 
 30 H        2.0620     4.6140    -0.3720 H     1 <1>   0.1500 
 31 H       -0.2440     1.6620    -1.2610 H     1 <1>   0.0800 
 32 H       -0.1760     3.4060    -1.3120 H     1 <1>   0.0800 
 33 H       -0.4440     2.5820     0.2110 H     1 <1>   0.0800 
 34 H        5.2070     1.0980     2.2150 H     1 <1>   0.0800 
 35 H        5.7020     2.5780     1.4020 H     1 <1>   0.0800 
 36 H        5.9050     2.2870    -1.4070 H     1 <1>   0.0800 
 37 H        5.6930     0.6100    -1.8850 H     1 <1>   0.0800 
 38 H        0.8770    -7.0480    -1.1450 H     1 <1>   0.1500 
 39 H        7.1250    -0.0490     1.4610 H     1 <1>   0.0800 
 40 H        7.8040     1.5610     1.5940 H     1 <1>   0.0800 
 41 H        7.9870     1.7130    -0.7140 H     1 <1>   0.0800 
 42 H        7.6340     0.0000    -0.7520 H     1 <1>   0.0800 
 43 H       -1.0560    -8.6510    -0.3380 H     1 <1>   0.1500 
 44 H       -3.9710    -6.5790     0.7760 H     1 <1>   0.0800 
 45 H       -3.0970    -6.8850     2.2600 H     1 <1>   0.0800 
 46 H       -3.3840    -8.1900     1.1290 H     1 <1>   0.0800 
@<TRIPOS>BOND
  1   1   2  2   
  2   2   3  am  
  3   2   4  1   
  4   3   5  1   
  5   3  26  1   
  6   4   6  2   
  7   4   7  1   
  8   5   8  1   
  9   5   9  2   
 10   6  10  1   
 11   7  11  2   
 12   7  27  1   
 13   8  12  1   
 14   8  13  1   
 15   9  14  1   
 16   9  15  1   
 17  10  11  1   
 18  10  28  1   
 19  11  16  1   
 20  12  14  2   
 21  13  17  1   
 22  13  18  1   
 23  13  29  1   
 24  14  30  1   
 25  15  31  1   
 26  15  32  1   
 27  15  33  1   
 28  16  19  1   
 29  16  20  2   
 30  17  21  1   
 31  17  34  1   
 32  17  35  1   
 33  18  22  1   
 34  18  36  1   
 35  18  37  1   
 36  19  23  1   
 37  20  24  1   
 38  20  38  1   
 39  21  22  1   
 40  21  39  1   
 41  21  40  1   
 42  22  41  1   
 43  22  42  1   
 44  23  24  2   
 45  23  25  1   
 46  24  43  1   
 47  25  44  1   
 48  25  45  1   
 49  25  46  1   
@<TRIPOS>SUBSTRUCTURE
  1 ****   2 GROUP 4 **** **** 0

# MOE 2024.06 (io_trps.svl 2023.06)
