@<TRIPOS>MOLECULE
NONAME
47 49 1 0 0 
SMALL
USER_CHARGES


@<TRIPOS>ATOM
  1 O       -0.9560     0.6220    -1.6700 O.co2 1 <1>  -0.9000 
  2 C       -0.9990     0.5460    -0.4360 C.2   1 <1>   0.9060 
  3 O       -0.0590     0.8960     0.2850 O.co2 1 <1>  -0.9000 
  4 C       -2.2740     0.0500     0.2170 C.3   1 <1>  -0.1220 
  5 C       -2.4270    -1.4710     0.2270 C.ar  1 <1>  -0.1440 
  6 C       -2.6680    -2.1510     1.4090 C.ar  1 <1>  -0.1500 
  7 C       -2.3220    -2.1820    -0.9550 C.ar  1 <1>  -0.1500 
  8 C       -2.8160    -3.5260     1.4080 C.ar  1 <1>  -0.1500 
  9 C       -2.4660    -3.5570    -0.9640 C.ar  1 <1>  -0.1500 
 10 C       -2.7270    -4.2350     0.2180 C.ar  1 <1>  -0.1440 
 11 C       -2.9260    -5.7320     0.1980 C.3   1 <1>   0.4870 
 12 N       -4.2760    -6.0410    -0.3600 N.4   1 <1>  -0.9590 
 13 C       -5.3630    -5.5520     0.5560 C.3   1 <1>   0.4230 
 14 C       -4.3250    -7.4800    -0.7720 C.3   1 <1>   0.2630 
 15 C       -6.6060    -6.4500     0.6150 C.3   1 <1>  -0.1600 
 16 C       -5.9460    -4.2600    -0.0220 C.3   1 <1>  -0.1600 
 17 C       -7.4280    -6.1100    -0.6380 C.3   1 <1>  -0.0800 
 18 C       -6.9850    -4.7050    -1.0610 C.3   1 <1>  -0.0800 
 19 C       -8.9480    -6.0500    -0.4340 C.3   1 <1>  -0.1600 
 20 C       -8.2520    -3.8410    -1.1350 C.3   1 <1>  -0.1600 
 21 C       -9.3890    -4.8480    -1.2590 C.3   1 <1>   0.2000 
 22 O      -10.5520    -4.3200    -0.7490 O.3   1 <1>  -0.6800 
 23 H       -2.2900     0.4350     1.2180 H     1 <1>   0.0800 
 24 H       -3.0960     0.4850    -0.3170 H     1 <1>   0.0800 
 25 H       -2.7320    -1.6010     2.3320 H     1 <1>   0.1500 
 26 H       -2.1150    -1.6510    -1.8720 H     1 <1>   0.1500 
 27 H       -2.9970    -4.0250     2.3440 H     1 <1>   0.1500 
 28 H       -2.3650    -4.0730    -1.9020 H     1 <1>   0.1500 
 29 H       -2.8300    -6.1300     1.1950 H     1 <1>   0.0800 
 30 H       -2.1590    -6.1720    -0.4190 H     1 <1>   0.0800 
 31 H       -4.3610    -5.4530    -1.2000 H     1 <1>   0.4500 
 32 H       -4.9690    -5.3870     1.5470 H     1 <1>   0.0800 
 33 H       -4.2510    -8.1200     0.0920 H     1 <1>   0.0800 
 34 H       -3.5110    -7.7070    -1.4420 H     1 <1>   0.0800 
 35 H       -5.2500    -7.6930    -1.2800 H     1 <1>   0.0800 
 36 H       -6.4060    -7.4990     0.7230 H     1 <1>   0.0800 
 37 H       -7.1600    -6.1510     1.4880 H     1 <1>   0.0800 
 38 H       -6.4360    -3.7400     0.7820 H     1 <1>   0.0800 
 39 H       -5.2170    -3.5910    -0.4410 H     1 <1>   0.0800 
 40 H       -7.2050    -6.7970    -1.4370 H     1 <1>   0.0800 
 41 H       -6.5330    -4.7620    -2.0380 H     1 <1>   0.0800 
 42 H       -9.1890    -5.8840     0.6010 H     1 <1>   0.0800 
 43 H       -9.4290    -6.9500    -0.7740 H     1 <1>   0.0800 
 44 H       -8.2280    -3.1790    -1.9830 H     1 <1>   0.0800 
 45 H       -8.3730    -3.2640    -0.2350 H     1 <1>   0.0800 
 46 H       -9.5520    -5.1230    -2.2890 H     1 <1>   0.0800 
 47 H      -10.4270    -4.0460     0.1770 H     1 <1>   0.4000 
@<TRIPOS>BOND
  1   1   2  ar  
  2   2   3  ar  
  3   2   4  1   
  4   4   5  1   
  5   4  23  1   
  6   4  24  1   
  7   5   6  ar  
  8   5   7  ar  
  9   6   8  ar  
 10   6  25  1   
 11   7   9  ar  
 12   7  26  1   
 13   8  10  ar  
 14   8  27  1   
 15   9  10  ar  
 16   9  28  1   
 17  10  11  1   
 18  11  12  1   
 19  11  29  1   
 20  11  30  1   
 21  12  13  1   
 22  12  14  1   
 23  12  31  1   
 24  13  15  1   
 25  13  16  1   
 26  13  32  1   
 27  14  33  1   
 28  14  34  1   
 29  14  35  1   
 30  15  17  1   
 31  15  36  1   
 32  15  37  1   
 33  16  18  1   
 34  16  38  1   
 35  16  39  1   
 36  17  18  1   
 37  17  19  1   
 38  17  40  1   
 39  18  20  1   
 40  18  41  1   
 41  19  21  1   
 42  19  42  1   
 43  19  43  1   
 44  20  21  1   
 45  20  44  1   
 46  20  45  1   
 47  21  22  1   
 48  21  46  1   
 49  22  47  1   
@<TRIPOS>SUBSTRUCTURE
  1 ****  16 GROUP 4 **** **** 0

# MOE 2024.06 (io_trps.svl 2023.06)
