@<TRIPOS>MOLECULE
NONAME
47 49 1 0 0 
SMALL
USER_CHARGES


@<TRIPOS>ATOM
  1 S        0.1330    -0.0020     1.0490 S.o2  1 <1>   1.3330 
  2 O       -0.8340    -1.0510     1.2750 O.2   1 <1>  -0.6500 
  3 O        1.0060     0.4090     2.1260 O.2   1 <1>  -0.6500 
  4 N        1.1020    -0.4680    -0.2660 N.am  1 <1>  -0.8490 
  5 C       -0.7170     1.4530     0.4350 C.3   1 <1>  -0.0550 
  6 C        2.3290    -1.1480     0.1620 C.3   1 <1>   0.1160 
  7 C        0.3910    -1.2960    -1.2460 C.3   1 <1>   0.1160 
  8 C        0.2170     2.5760    -0.0700 C.3   1 <1>  -0.0800 
  9 C       -0.5140     3.7380    -0.7460 C.3   1 <1>   0.2000 
 10 C        1.0620     3.2430     1.0250 C.3   1 <1>   0.1400 
 11 O       -1.6200     4.0860     0.0140 O.3   1 <1>  -0.6800 
 12 C        0.4870     4.8880    -0.6780 C.3   1 <1>   0.1400 
 13 N        1.2210     4.6580     0.5930 N.am  1 <1>  -0.6600 
 14 C        2.1890     5.4870     1.1150 C.2   1 <1>   0.5440 
 15 O        2.9550     5.0380     1.9440 O.2   1 <1>  -0.5700 
 16 C        2.3330     6.8680     0.6940 C.ar  1 <1>   0.0860 
 17 C        3.5750     7.3560     0.2930 C.ar  1 <1>  -0.1500 
 18 C        1.2580     7.7560     0.6910 C.ar  1 <1>  -0.1500 
 19 C        3.7520     8.6740    -0.1120 C.ar  1 <1>  -0.0230 
 20 C        1.4130     9.0690     0.2860 C.ar  1 <1>  -0.1500 
 21 N        5.0330     9.1420    -0.5080 N.pl3 1 <1>   0.3260 
 22 C        2.6540     9.5270    -0.1150 C.ar  1 <1>  -0.1500 
 23 C        5.3710     9.9020    -1.5590 C.2   1 <1>   0.0360 
 24 C        6.2260     8.9450     0.0710 C.2   1 <1>   0.0360 
 25 N        6.6350    10.1410    -1.6110 N.2   1 <1>  -0.3380 
 26 N        7.1850     9.5250    -0.5630 N.2   1 <1>  -0.3380 
 27 H       -1.3590     1.1590    -0.3720 H     1 <1>   0.0800 
 28 H       -1.3460     1.8370     1.2150 H     1 <1>   0.0800 
 29 H        2.9230    -1.4220    -0.6920 H     1 <1>   0.0800 
 30 H        2.0880    -2.0340     0.7270 H     1 <1>   0.0800 
 31 H        2.9170    -0.4930     0.7830 H     1 <1>   0.0800 
 32 H        1.0210    -1.4850    -2.0990 H     1 <1>   0.0800 
 33 H       -0.4970    -0.7900    -1.5850 H     1 <1>   0.0800 
 34 H        0.1040    -2.2380    -0.8070 H     1 <1>   0.0800 
 35 H        0.8980     2.1600    -0.7910 H     1 <1>   0.0800 
 36 H       -0.8400     3.5180    -1.7490 H     1 <1>   0.0800 
 37 H        2.0210     2.7620     1.1290 H     1 <1>   0.0800 
 38 H        0.5570     3.2220     1.9760 H     1 <1>   0.0800 
 39 H       -1.3120     4.4140     0.8830 H     1 <1>   0.4000 
 40 H       -0.0100     5.8410    -0.7030 H     1 <1>   0.0800 
 41 H        1.1800     4.8200    -1.4980 H     1 <1>   0.0800 
 42 H        4.4120     6.6780     0.3060 H     1 <1>   0.1500 
 43 H        0.2930     7.4110     1.0200 H     1 <1>   0.1500 
 44 H        0.5680     9.7370     0.2900 H     1 <1>   0.1500 
 45 H        2.7640    10.5540    -0.4210 H     1 <1>   0.1500 
 46 H        4.6490    10.2580    -2.2680 H     1 <1>   0.1500 
 47 H        6.3420     8.3650     0.9680 H     1 <1>   0.1500 
@<TRIPOS>BOND
  1   1   2  2   
  2   1   3  2   
  3   1   4  am  
  4   1   5  1   
  5   4   6  1   
  6   4   7  1   
  7   5   8  1   
  8   5  27  1   
  9   5  28  1   
 10   6  29  1   
 11   6  30  1   
 12   6  31  1   
 13   7  32  1   
 14   7  33  1   
 15   7  34  1   
 16   8   9  1   
 17   8  10  1   
 18   8  35  1   
 19   9  11  1   
 20   9  12  1   
 21   9  36  1   
 22  10  13  1   
 23  10  37  1   
 24  10  38  1   
 25  11  39  1   
 26  12  13  1   
 27  12  40  1   
 28  12  41  1   
 29  13  14  am  
 30  14  15  2   
 31  14  16  1   
 32  16  17  ar  
 33  16  18  ar  
 34  17  19  ar  
 35  17  42  1   
 36  18  20  ar  
 37  18  43  1   
 38  19  21  1   
 39  19  22  ar  
 40  20  22  ar  
 41  20  44  1   
 42  21  23  1   
 43  21  24  1   
 44  22  45  1   
 45  23  25  2   
 46  23  46  1   
 47  24  26  2   
 48  24  47  1   
 49  25  26  1   
@<TRIPOS>SUBSTRUCTURE
  1 ****  13 GROUP 4 **** **** 0

# MOE 2024.06 (io_trps.svl 2023.06)
