@<TRIPOS>MOLECULE
NONAME
44 45 1 0 0 
SMALL
USER_CHARGES


@<TRIPOS>ATOM
  1 F        4.5250    -2.3640     1.4000 F     1 <1>  -0.1900 
  2 C        3.7140    -2.8020     0.4780 C.ar  1 <1>   0.1900 
  3 C        4.2470    -3.2480    -0.7150 C.ar  1 <1>  -0.1500 
  4 C        2.3560    -2.8070     0.7370 C.ar  1 <1>  -0.1500 
  5 C        3.3490    -3.7060    -1.6580 C.ar  1 <1>   0.1900 
  6 C        1.4610    -3.2820    -0.2250 C.ar  1 <1>   0.0860 
  7 F        3.8060    -4.1450    -2.7980 F     1 <1>  -0.1900 
  8 C        1.9840    -3.7270    -1.4390 C.ar  1 <1>  -0.1500 
  9 C        0.0340    -3.3100     0.0210 C.2   1 <1>   0.5440 
 10 O       -0.6970    -2.5760    -0.6170 O.2   1 <1>  -0.5700 
 11 N       -0.5440    -4.1720     0.9240 N.am  1 <1>  -0.6600 
 12 C        0.2090    -5.3090     1.5480 C.3   1 <1>   0.3210 
 13 C       -1.9780    -4.0360     1.3480 C.3   1 <1>   0.1400 
 14 C        0.1980    -6.5490     0.6570 C.2   1 <1>   0.0460 
 15 C       -2.9750    -4.7540     0.4150 C.3   1 <1>   0.3430 
 16 N       -0.9510    -7.2120     0.3980 N.2   1 <1>  -0.5650 
 17 C        1.2490    -7.1640     0.0600 C.2   1 <1>  -0.3320 
 18 N       -2.8220    -4.3170    -1.0080 N.4   1 <1>  -0.9590 
 19 C       -0.5750    -8.2160    -0.3260 C.2   1 <1>   0.0360 
 20 N        0.7490    -8.2410    -0.5730 N.pl3 1 <1>   0.0330 
 21 C        2.7370    -6.8470     0.0460 C.3   1 <1>  -0.0600 
 22 C       -4.0960    -3.8380    -1.6120 C.3   1 <1>   0.2630 
 23 C       -2.1800    -5.3880    -1.8210 C.3   1 <1>   0.2630 
 24 H        5.3050    -3.2370    -0.9000 H     1 <1>   0.1500 
 25 H        1.9940    -2.4380     1.6800 H     1 <1>   0.1500 
 26 H        1.3290    -4.0890    -2.2100 H     1 <1>   0.1500 
 27 H       -0.2320    -5.5670     2.4940 H     1 <1>   0.0800 
 28 H        1.2230    -5.0190     1.7460 H     1 <1>   0.0800 
 29 H       -2.2340    -2.9910     1.3870 H     1 <1>   0.0800 
 30 H       -2.0980    -4.4230     2.3450 H     1 <1>   0.0800 
 31 H       -3.9730    -4.5370     0.7550 H     1 <1>   0.0800 
 32 H       -2.8330    -5.8190     0.4940 H     1 <1>   0.0800 
 33 H       -2.1400    -3.5240    -0.9800 H     1 <1>   0.4500 
 34 H       -1.2370    -8.9780    -0.7040 H     1 <1>   0.1500 
 35 H        1.2650    -8.9470    -1.1080 H     1 <1>   0.2700 
 36 H        2.9520    -5.9610     0.6140 H     1 <1>   0.0800 
 37 H        3.0750    -6.6940    -0.9640 H     1 <1>   0.0800 
 38 H        3.2920    -7.6630     0.4750 H     1 <1>   0.0800 
 39 H       -4.8170    -4.6370    -1.6460 H     1 <1>   0.0800 
 40 H       -3.9200    -3.4840    -2.6150 H     1 <1>   0.0800 
 41 H       -4.5010    -3.0260    -1.0290 H     1 <1>   0.0800 
 42 H       -2.7800    -6.2830    -1.8040 H     1 <1>   0.0800 
 43 H       -1.2080    -5.6200    -1.4170 H     1 <1>   0.0800 
 44 H       -2.0580    -5.0630    -2.8400 H     1 <1>   0.0800 
@<TRIPOS>BOND
  1   1   2  1   
  2   2   3  ar  
  3   2   4  ar  
  4   3   5  ar  
  5   3  24  1   
  6   4   6  ar  
  7   4  25  1   
  8   5   7  1   
  9   5   8  ar  
 10   6   8  ar  
 11   6   9  1   
 12   8  26  1   
 13   9  10  2   
 14   9  11  am  
 15  11  12  1   
 16  11  13  1   
 17  12  14  1   
 18  12  27  1   
 19  12  28  1   
 20  13  15  1   
 21  13  29  1   
 22  13  30  1   
 23  14  16  1   
 24  14  17  2   
 25  15  18  1   
 26  15  31  1   
 27  15  32  1   
 28  16  19  2   
 29  17  20  1   
 30  17  21  1   
 31  18  22  1   
 32  18  23  1   
 33  18  33  1   
 34  19  20  1   
 35  19  34  1   
 36  20  35  1   
 37  21  36  1   
 38  21  37  1   
 39  21  38  1   
 40  22  39  1   
 41  22  40  1   
 42  22  41  1   
 43  23  42  1   
 44  23  43  1   
 45  23  44  1   
@<TRIPOS>SUBSTRUCTURE
  1 ****   9 GROUP 4 **** **** 0

# MOE 2024.06 (io_trps.svl 2023.06)
