@<TRIPOS>MOLECULE
NONAME
45 48 1 0 0 
SMALL
USER_CHARGES


@<TRIPOS>ATOM
  1 O       -2.7530     0.4750    -2.1230 O.2   1 <1>  -0.5700 
  2 C       -2.3890     0.4400    -0.9730 C.2   1 <1>   0.6300 
  3 N       -2.0680    -0.7230    -0.3600 N.am  1 <1>  -0.7300 
  4 C       -2.3260     1.7260    -0.1510 C.3   1 <1>  -0.0950 
  5 C       -2.0980    -2.0630    -0.9890 C.3   1 <1>   0.2200 
  6 C       -1.0800     2.0370     0.6280 C.3   1 <1>  -0.2000 
  7 C       -1.4140     2.8240    -0.6070 C.3   1 <1>  -0.2000 
  8 C       -3.6850     2.1070     0.4480 C.3   1 <1>  -0.1450 
  9 C       -3.3530    -2.8330    -0.5960 C.3   1 <1>  -0.0800 
 10 C       -1.0280    -2.9280    -0.3410 C.3   1 <1>   0.1200 
 11 C       -2.9760    -3.4010     0.7790 C.3   1 <1>   0.1200 
 12 C       -4.6590    -2.0090    -0.6170 C.3   1 <1>  -0.0170 
 13 O       -1.5810    -3.3420     0.8720 O.3   1 <1>  -0.5600 
 14 C       -5.9600    -2.7660    -0.3290 C.ar  1 <1>  -0.1440 
 15 C       -7.1630    -2.0380    -0.1520 C.ar  1 <1>   0.0000 
 16 C       -6.0410    -4.1270    -0.2330 C.ar  1 <1>  -0.1500 
 17 C       -8.3430    -2.7640     0.1460 C.ar  1 <1>   0.3100 
 18 C       -7.2680    -0.6300    -0.2620 C.ar  1 <1>  -0.1500 
 19 C       -7.2630    -4.7470     0.0550 C.ar  1 <1>   0.1600 
 20 N       -8.3750    -4.1150     0.2460 N.ar  1 <1>  -0.6200 
 21 C       -9.5440    -2.0630     0.3430 C.ar  1 <1>  -0.1500 
 22 C       -8.4550     0.0220    -0.0670 C.ar  1 <1>  -0.1500 
 23 C       -9.6090    -0.7000     0.2430 C.ar  1 <1>  -0.1500 
 24 H       -1.7980    -0.7190     0.6250 H     1 <1>   0.3700 
 25 H       -1.9730    -1.9830    -2.0570 H     1 <1>   0.0800 
 26 H       -1.1640     2.5250     1.5830 H     1 <1>   0.1000 
 27 H       -0.2420     1.3640     0.5820 H     1 <1>   0.1000 
 28 H       -0.8370     2.6650    -1.5030 H     1 <1>   0.1000 
 29 H       -1.7350     3.8460    -0.5030 H     1 <1>   0.1000 
 30 H       -3.6140     3.0210     1.0100 H     1 <1>   0.0800 
 31 H       -4.0330     1.3270     1.1010 H     1 <1>   0.0800 
 32 H       -4.4030     2.2440    -0.3410 H     1 <1>   0.0800 
 33 H       -3.4520    -3.6520    -1.2860 H     1 <1>   0.0800 
 34 H       -0.1100    -2.3960    -0.1620 H     1 <1>   0.0800 
 35 H       -0.8350    -3.8060    -0.9330 H     1 <1>   0.0800 
 36 H       -3.2870    -4.4230     0.8970 H     1 <1>   0.0800 
 37 H       -3.3810    -2.8030     1.5770 H     1 <1>   0.0800 
 38 H       -4.7490    -1.5430    -1.5830 H     1 <1>   0.0800 
 39 H       -4.5710    -1.2260     0.1140 H     1 <1>   0.0800 
 40 H       -5.1960    -4.7720    -0.3720 H     1 <1>   0.1500 
 41 H       -6.3980    -0.0510    -0.5100 H     1 <1>   0.1500 
 42 H       -7.2770    -5.8220     0.1230 H     1 <1>   0.1500 
 43 H      -10.4190    -2.6410     0.5770 H     1 <1>   0.1500 
 44 H       -8.5170     1.0940    -0.1530 H     1 <1>   0.1500 
 45 H      -10.5370    -0.1770     0.3960 H     1 <1>   0.1500 
@<TRIPOS>BOND
  1   1   2  2   
  2   2   3  am  
  3   2   4  1   
  4   3   5  1   
  5   3  24  1   
  6   4   6  1   
  7   4   7  1   
  8   4   8  1   
  9   5   9  1   
 10   5  10  1   
 11   5  25  1   
 12   6   7  1   
 13   6  26  1   
 14   6  27  1   
 15   7  28  1   
 16   7  29  1   
 17   8  30  1   
 18   8  31  1   
 19   8  32  1   
 20   9  11  1   
 21   9  12  1   
 22   9  33  1   
 23  10  13  1   
 24  10  34  1   
 25  10  35  1   
 26  11  13  1   
 27  11  36  1   
 28  11  37  1   
 29  12  14  1   
 30  12  38  1   
 31  12  39  1   
 32  14  15  ar  
 33  14  16  ar  
 34  15  17  ar  
 35  15  18  ar  
 36  16  19  ar  
 37  16  40  1   
 38  17  20  ar  
 39  17  21  ar  
 40  18  22  ar  
 41  18  41  1   
 42  19  20  ar  
 43  19  42  1   
 44  21  23  ar  
 45  21  43  1   
 46  22  23  ar  
 47  22  44  1   
 48  23  45  1   
@<TRIPOS>SUBSTRUCTURE
  1 ****  12 GROUP 4 **** **** 0

# MOE 2024.06 (io_trps.svl 2023.06)
