@<TRIPOS>MOLECULE
NONAME
47 50 1 0 0 
SMALL
USER_CHARGES


@<TRIPOS>ATOM
  1 O       -2.3360     0.9360    -2.2410 O.2   1 <1>  -0.5700 
  2 C       -2.1430     1.1550    -1.0630 C.2   1 <1>   0.7150 
  3 N       -2.2360     0.1220    -0.1820 N.am  1 <1>  -0.7300 
  4 C       -1.8210     2.4770    -0.5980 C.2   1 <1>  -0.2370 
  5 C       -2.5480    -1.2790    -0.5410 C.3   1 <1>   0.2200 
  6 N       -1.9340     2.8820     0.7130 N.pl3 1 <1>   0.0330 
  7 C       -1.3760     3.5480    -1.3190 C.2   1 <1>  -0.1500 
  8 C       -3.9510    -1.6110    -0.0610 C.3   1 <1>  -0.0800 
  9 C       -1.7040    -2.2150     0.3120 C.3   1 <1>   0.1200 
 10 C       -1.5560     4.1940     0.8140 C.ar  1 <1>  -0.1520 
 11 C       -1.1980     4.6400    -0.4510 C.ar  1 <1>   0.0000 
 12 C       -3.7190    -2.0420     1.3950 C.3   1 <1>   0.1200 
 13 C       -4.5870    -2.7290    -0.9080 C.3   1 <1>  -0.0160 
 14 O       -2.3450    -2.2590     1.5490 O.3   1 <1>  -0.5600 
 15 C       -1.4960     5.0460     1.9200 C.ar  1 <1>  -0.1500 
 16 C       -0.7700     5.9610    -0.6290 C.ar  1 <1>  -0.1500 
 17 C       -6.0050    -3.0330    -0.4480 C.ar  1 <1>  -0.1440 
 18 C       -1.0740     6.3410     1.7330 C.ar  1 <1>  -0.1500 
 19 C       -0.7090     6.8070     0.4620 C.ar  1 <1>   0.0820 
 20 C       -6.3180    -4.1680     0.2730 C.ar  1 <1>  -0.1500 
 21 C       -7.0550    -2.1830    -0.7310 C.ar  1 <1>  -0.1500 
 22 O       -0.3070     8.1070     0.4000 O.3   1 <1>  -0.3630 
 23 C       -7.6260    -4.3880     0.6700 C.ar  1 <1>   0.1600 
 24 C       -8.3290    -2.4960    -0.2870 C.ar  1 <1>   0.1600 
 25 C        0.0750     8.6770    -0.8320 C.3   1 <1>   0.0400 
 26 N       -8.6390    -3.5770     0.4090 N.ar  1 <1>  -0.6200 
 27 H       -1.9330     0.2400     0.7840 H     1 <1>   0.3700 
 28 H       -2.4040    -1.4450    -1.5960 H     1 <1>   0.0800 
 29 H       -2.3000     2.3230     1.4890 H     1 <1>   0.2700 
 30 H       -1.1880     3.5770    -2.3780 H     1 <1>   0.1500 
 31 H       -4.5880    -0.7450    -0.1070 H     1 <1>   0.0800 
 32 H       -0.6920    -1.8710     0.4370 H     1 <1>   0.0800 
 33 H       -1.7030    -3.2110    -0.0950 H     1 <1>   0.0800 
 34 H       -4.2400    -2.9480     1.6500 H     1 <1>   0.0800 
 35 H       -4.0060    -1.2620     2.0780 H     1 <1>   0.0800 
 36 H       -3.9900    -3.6230    -0.8580 H     1 <1>   0.0800 
 37 H       -4.6210    -2.4190    -1.9390 H     1 <1>   0.0800 
 38 H       -1.7760     4.6910     2.8950 H     1 <1>   0.1500 
 39 H       -0.5020     6.2710    -1.6200 H     1 <1>   0.1500 
 40 H       -1.0150     7.0260     2.5600 H     1 <1>   0.1500 
 41 H       -5.5590    -4.8850     0.5310 H     1 <1>   0.1500 
 42 H       -6.8950    -1.2810    -1.2930 H     1 <1>   0.1500 
 43 H       -7.8520    -5.2780     1.2320 H     1 <1>   0.1500 
 44 H       -9.1350    -1.8210    -0.5180 H     1 <1>   0.1500 
 45 H        0.3500     9.7010    -0.6540 H     1 <1>   0.0800 
 46 H       -0.7580     8.6340    -1.5100 H     1 <1>   0.0800 
 47 H        0.9190     8.1340    -1.2210 H     1 <1>   0.0800 
@<TRIPOS>BOND
  1   1   2  2   
  2   2   3  am  
  3   2   4  1   
  4   3   5  1   
  5   3  27  1   
  6   4   6  1   
  7   4   7  2   
  8   5   8  1   
  9   5   9  1   
 10   5  28  1   
 11   6  10  1   
 12   6  29  1   
 13   7  11  1   
 14   7  30  1   
 15   8  12  1   
 16   8  13  1   
 17   8  31  1   
 18   9  14  1   
 19   9  32  1   
 20   9  33  1   
 21  10  11  ar  
 22  10  15  ar  
 23  11  16  ar  
 24  12  14  1   
 25  12  34  1   
 26  12  35  1   
 27  13  17  1   
 28  13  36  1   
 29  13  37  1   
 30  15  18  ar  
 31  15  38  1   
 32  16  19  ar  
 33  16  39  1   
 34  17  20  ar  
 35  17  21  ar  
 36  18  19  ar  
 37  18  40  1   
 38  19  22  1   
 39  20  23  ar  
 40  20  41  1   
 41  21  24  ar  
 42  21  42  1   
 43  22  25  1   
 44  23  26  ar  
 45  23  43  1   
 46  24  26  ar  
 47  24  44  1   
 48  25  45  1   
 49  25  46  1   
 50  25  47  1   
@<TRIPOS>SUBSTRUCTURE
  1 ****   3 GROUP 4 **** **** 0

# MOE 2024.06 (io_trps.svl 2023.06)
