@<TRIPOS>MOLECULE
NONAME
54 58 1 0 0 
SMALL
USER_CHARGES


@<TRIPOS>ATOM
  1 N       -0.0420    -0.1820     0.7080 N.ar  1 <1>  -0.1790 
  2 C       -0.1230    -1.5140     0.7220 C.ar  1 <1>   0.4610 
  3 C        1.0670     0.5460     0.3180 C.ar  1 <1>   0.3610 
  4 N       -1.2610    -2.1090     1.1490 N.pl3 1 <1>  -0.8380 
  5 C        1.0340    -2.2130     0.2830 C.ar  1 <1>  -0.1500 
  6 C        2.2190    -0.1470    -0.1060 C.ar  1 <1>   0.0000 
  7 C        1.0470     1.9460     0.3480 C.ar  1 <1>  -0.1500 
  8 C       -1.3810    -3.5700     1.5080 C.3   1 <1>   0.2090 
  9 C       -2.6100    -1.4500     1.3090 C.3   1 <1>   0.2090 
 10 C        2.1690    -1.5750    -0.1160 C.ar  1 <1>  -0.1430 
 11 C        3.3400     0.6090    -0.4930 C.ar  1 <1>  -0.1500 
 12 C        2.1610     2.6450    -0.0380 C.ar  1 <1>  -0.1430 
 13 C       -2.4720    -4.2660     0.6720 C.3   1 <1>   0.1100 
 14 C       -3.6890    -2.1800     0.4830 C.3   1 <1>   0.1100 
 15 C        3.3800    -2.3760    -0.5780 C.3   1 <1>  -0.0970 
 16 C        3.2960     1.9790    -0.4540 C.ar  1 <1>  -0.1430 
 17 C        2.3650     4.1420    -0.0830 C.3   1 <1>  -0.0170 
 18 N       -3.7890    -3.6090     0.8430 N.3   1 <1>  -0.8100 
 19 C        4.3900     2.9510    -0.8250 C.3   1 <1>  -0.0170 
 20 C        3.8850     4.2890    -0.2610 C.3   1 <1>  -0.1600 
 21 C       -4.8400    -4.2710     0.0460 C.3   1 <1>   0.1100 
 22 C       -5.2940    -5.5740     0.7080 C.3   1 <1>   0.0960 
 23 N       -6.4040    -6.1600    -0.0580 N.pl3 1 <1>   0.3140 
 24 N       -6.2560    -6.6280    -1.2900 N.2   1 <1>  -0.7070 
 25 C       -7.6800    -6.3140     0.3060 C.2   1 <1>   0.0360 
 26 C       -7.4500    -7.0320    -1.5780 C.2   1 <1>   0.3660 
 27 N       -8.3750    -6.8600    -0.6250 N.2   1 <1>  -0.5650 
 28 H       -0.8410     0.3280     1.0600 H     1 <1>   0.4570 
 29 H        1.0010    -3.2840     0.2530 H     1 <1>   0.1500 
 30 H        0.1720     2.4800     0.6710 H     1 <1>   0.1500 
 31 H       -1.6520    -3.6520     2.5470 H     1 <1>   0.0800 
 32 H       -0.4560    -4.0970     1.3880 H     1 <1>   0.0800 
 33 H       -2.5880    -0.4240     0.9940 H     1 <1>   0.0800 
 34 H       -2.8980    -1.4740     2.3480 H     1 <1>   0.0800 
 35 H        4.2410     0.1220    -0.8220 H     1 <1>   0.1500 
 36 H       -2.5350    -5.2920     0.9880 H     1 <1>   0.0800 
 37 H       -2.1840    -4.2540    -0.3660 H     1 <1>   0.0800 
 38 H       -3.4600    -2.0830    -0.5650 H     1 <1>   0.0800 
 39 H       -4.6380    -1.7050     0.6620 H     1 <1>   0.0800 
 40 H        3.1890    -3.4340    -0.5340 H     1 <1>   0.0800 
 41 H        4.2280    -2.1640     0.0500 H     1 <1>   0.0800 
 42 H        3.6270    -2.1240    -1.5940 H     1 <1>   0.0800 
 43 H        2.0260     4.6230     0.8180 H     1 <1>   0.0800 
 44 H        1.8480     4.5520    -0.9330 H     1 <1>   0.0800 
 45 H        4.4770     3.0030    -1.8960 H     1 <1>   0.0800 
 46 H        5.3360     2.6720    -0.3950 H     1 <1>   0.0800 
 47 H        4.3330     4.4480     0.7050 H     1 <1>   0.0800 
 48 H        4.1370     5.1160    -0.9020 H     1 <1>   0.0800 
 49 H       -4.4820    -4.4670    -0.9520 H     1 <1>   0.0800 
 50 H       -5.6950    -3.6190    -0.0230 H     1 <1>   0.0800 
 51 H       -5.6250    -5.3800     1.7110 H     1 <1>   0.0800 
 52 H       -4.4930    -6.2880     0.7260 H     1 <1>   0.0800 
 53 H       -8.0590    -6.0110     1.2650 H     1 <1>   0.1500 
 54 H       -7.7110    -7.4820    -2.5230 H     1 <1>   0.1500 
@<TRIPOS>BOND
  1   1   2  ar  
  2   1   3  ar  
  3   1  28  1   
  4   2   4  1   
  5   2   5  ar  
  6   3   6  ar  
  7   3   7  ar  
  8   4   8  1   
  9   4   9  1   
 10   5  10  ar  
 11   5  29  1   
 12   6  10  ar  
 13   6  11  ar  
 14   7  12  ar  
 15   7  30  1   
 16   8  13  1   
 17   8  31  1   
 18   8  32  1   
 19   9  14  1   
 20   9  33  1   
 21   9  34  1   
 22  10  15  1   
 23  11  16  ar  
 24  11  35  1   
 25  12  16  ar  
 26  12  17  1   
 27  13  18  1   
 28  13  36  1   
 29  13  37  1   
 30  14  18  1   
 31  14  38  1   
 32  14  39  1   
 33  15  40  1   
 34  15  41  1   
 35  15  42  1   
 36  16  19  1   
 37  17  20  1   
 38  17  43  1   
 39  17  44  1   
 40  18  21  1   
 41  19  20  1   
 42  19  45  1   
 43  19  46  1   
 44  20  47  1   
 45  20  48  1   
 46  21  22  1   
 47  21  49  1   
 48  21  50  1   
 49  22  23  1   
 50  22  51  1   
 51  22  52  1   
 52  23  24  1   
 53  23  25  1   
 54  24  26  2   
 55  25  27  2   
 56  25  53  1   
 57  26  27  1   
 58  26  54  1   
@<TRIPOS>SUBSTRUCTURE
  1 ****   4 GROUP 4 **** **** 0

# MOE 2024.06 (io_trps.svl 2023.06)
