@<TRIPOS>MOLECULE
NONAME
44 46 1 0 0 
SMALL
USER_CHARGES


@<TRIPOS>ATOM
  1 O        4.1020    -1.5240    -2.0440 O.2   1 <1>  -0.5700 
  2 C        3.2020    -1.4440    -1.2270 C.2   1 <1>   0.5440 
  3 N        3.1150    -0.2550    -0.5490 N.am  1 <1>  -0.6600 
  4 C        2.3310    -2.5680    -0.9230 C.ar  1 <1>   0.0860 
  5 C        3.7270    -0.2080     0.8250 C.3   1 <1>   0.2200 
  6 C        3.0060     1.0080    -1.3430 C.3   1 <1>   0.1400 
  7 C        1.2040    -2.4230    -0.1150 C.ar  1 <1>  -0.1500 
  8 C        2.5950    -3.8440    -1.4250 C.ar  1 <1>  -0.1500 
  9 C        3.1810     0.9400     1.6890 C.3   1 <1>   0.1200 
 10 C        5.2750    -0.1470     0.7390 C.3   1 <1>   0.3430 
 11 C        3.9960     2.1180    -0.9420 C.3   1 <1>  -0.0800 
 12 C        0.3870    -3.4930     0.2000 C.ar  1 <1>   0.0820 
 13 C        1.7840    -4.9230    -1.1220 C.ar  1 <1>  -0.1500 
 14 O        3.9150     2.1080     1.4740 O.3   1 <1>  -0.5600 
 15 N        5.7700     0.2870    -0.6140 N.4   1 <1>  -0.9590 
 16 C        3.5700     2.8390     0.3460 C.3   1 <1>   0.1200 
 17 C        5.4900     1.7230    -0.9320 C.3   1 <1>   0.3430 
 18 O       -0.6720    -3.2290     1.0040 O.3   1 <1>  -0.3630 
 19 C        0.6790    -4.7540    -0.3080 C.ar  1 <1>  -0.1500 
 20 C        7.2020    -0.0590    -0.8190 C.3   1 <1>   0.2630 
 21 C       -1.6020    -4.2330     1.3460 C.3   1 <1>   0.0400 
 22 H        3.4620    -1.1200     1.3320 H     1 <1>   0.0800 
 23 H        3.1500     0.7790    -2.3870 H     1 <1>   0.0800 
 24 H        1.9990     1.3800    -1.2470 H     1 <1>   0.0800 
 25 H        0.9420    -1.4600     0.2810 H     1 <1>   0.1500 
 26 H        3.4500    -3.9940    -2.0630 H     1 <1>   0.1500 
 27 H        3.3070     0.6890     2.7280 H     1 <1>   0.0800 
 28 H        2.1330     1.1160     1.5100 H     1 <1>   0.0800 
 29 H        5.6520    -1.1350     0.9470 H     1 <1>   0.0800 
 30 H        5.6550     0.5100     1.5040 H     1 <1>   0.0800 
 31 H        3.9020     2.8690    -1.7050 H     1 <1>   0.0800 
 32 H        2.0120    -5.8960    -1.5230 H     1 <1>   0.1500 
 33 H        5.1980    -0.2780    -1.2850 H     1 <1>   0.4500 
 34 H        2.5100     3.0350     0.3640 H     1 <1>   0.0800 
 35 H        4.0820     3.7830     0.4210 H     1 <1>   0.0800 
 36 H        6.0110     2.3540    -0.2300 H     1 <1>   0.0800 
 37 H        5.8890     1.9300    -1.9110 H     1 <1>   0.0800 
 38 H        0.0650    -5.6050    -0.0850 H     1 <1>   0.1500 
 39 H        7.8230     0.4880    -0.1290 H     1 <1>   0.0800 
 40 H        7.5030     0.1820    -1.8260 H     1 <1>   0.0800 
 41 H        7.3540    -1.1150    -0.6640 H     1 <1>   0.0800 
 42 H       -2.3580    -3.7900     1.9690 H     1 <1>   0.0800 
 43 H       -1.0940    -5.0120     1.8870 H     1 <1>   0.0800 
 44 H       -2.0500    -4.6170     0.4460 H     1 <1>   0.0800 
@<TRIPOS>BOND
  1   1   2  2   
  2   2   3  am  
  3   2   4  1   
  4   3   5  1   
  5   3   6  1   
  6   4   7  ar  
  7   4   8  ar  
  8   5   9  1   
  9   5  10  1   
 10   5  22  1   
 11   6  11  1   
 12   6  23  1   
 13   6  24  1   
 14   7  12  ar  
 15   7  25  1   
 16   8  13  ar  
 17   8  26  1   
 18   9  14  1   
 19   9  27  1   
 20   9  28  1   
 21  10  15  1   
 22  10  29  1   
 23  10  30  1   
 24  11  16  1   
 25  11  17  1   
 26  11  31  1   
 27  12  18  1   
 28  12  19  ar  
 29  13  19  ar  
 30  13  32  1   
 31  14  16  1   
 32  15  17  1   
 33  15  20  1   
 34  15  33  1   
 35  16  34  1   
 36  16  35  1   
 37  17  36  1   
 38  17  37  1   
 39  18  21  1   
 40  19  38  1   
 41  20  39  1   
 42  20  40  1   
 43  20  41  1   
 44  21  42  1   
 45  21  43  1   
 46  21  44  1   
@<TRIPOS>SUBSTRUCTURE
  1 ****   3 GROUP 4 **** **** 0

# MOE 2024.06 (io_trps.svl 2023.06)
