@<TRIPOS>MOLECULE
NONAME
38 38 1 0 0 
SMALL
USER_CHARGES


@<TRIPOS>ATOM
  1 S        0.3790     0.9520     0.9660 S.3   1 <1>  -0.3320 
  2 C        0.1420     2.5610     0.1880 C.ar  1 <1>   0.1020 
  3 C       -1.3050     0.2730     1.3060 C.3   1 <1>  -0.0100 
  4 C        1.2800     3.2720    -0.1490 C.ar  1 <1>  -0.1500 
  5 C       -1.1180     3.0780    -0.0670 C.ar  1 <1>  -0.1500 
  6 C        1.1700     4.5170    -0.7500 C.ar  1 <1>  -0.1430 
  7 C       -1.2300     4.3210    -0.6660 C.ar  1 <1>  -0.1500 
  8 C       -0.0920     5.0350    -1.0050 C.ar  1 <1>  -0.1500 
  9 C        2.4210     5.3010    -1.1280 C.3   1 <1>   0.2530 
 10 N        3.3130     5.4900     0.0340 N.3   1 <1>  -0.8100 
 11 C        4.6210     6.0630    -0.3880 C.3   1 <1>   0.1710 
 12 C        2.6710     6.2710     1.1010 C.3   1 <1>   0.0300 
 13 C        4.5750     7.4610    -1.0230 C.2   1 <1>   0.5690 
 14 O        4.4600     7.5630    -2.2230 O.2   1 <1>  -0.5700 
 15 N        4.6650     8.5570    -0.2260 N.am  1 <1>  -0.7300 
 16 C        4.6490     9.9440    -0.7040 C.3   1 <1>   0.2780 
 17 C        5.5070    10.7520     0.2440 C.2   1 <1>  -0.2880 
 18 C        5.0690    11.7260     1.0480 C.2   1 <1>  -0.3000 
 19 H       -1.1780    -0.6860     1.7750 H     1 <1>   0.0800 
 20 H       -1.8180     0.1740     0.3660 H     1 <1>   0.0800 
 21 H       -1.8110     0.9570     1.9630 H     1 <1>   0.0800 
 22 H        2.2500     2.8580     0.0630 H     1 <1>   0.1500 
 23 H       -2.0060     2.5370     0.1900 H     1 <1>   0.1500 
 24 H       -2.2020     4.7340    -0.8700 H     1 <1>   0.1500 
 25 H       -0.1930     6.0000    -1.4710 H     1 <1>   0.1500 
 26 H        2.1460     6.2590    -1.5370 H     1 <1>   0.0800 
 27 H        2.9450     4.7540    -1.8930 H     1 <1>   0.0800 
 28 H        5.0740     5.3950    -1.0990 H     1 <1>   0.0800 
 29 H        5.2730     6.0980     0.4650 H     1 <1>   0.0800 
 30 H        1.8090     5.7430     1.4750 H     1 <1>   0.0800 
 31 H        2.3550     7.2320     0.7330 H     1 <1>   0.0800 
 32 H        3.3560     6.4080     1.9200 H     1 <1>   0.0800 
 33 H        4.7210     8.4590     0.7880 H     1 <1>   0.3700 
 34 H        3.6370    10.3100    -0.7040 H     1 <1>   0.0800 
 35 H        5.0390    10.0000    -1.7070 H     1 <1>   0.0800 
 36 H        6.5420    10.4550     0.2050 H     1 <1>   0.1500 
 37 H        5.7050    12.2870     1.7130 H     1 <1>   0.1500 
 38 H        4.0440    12.0490     1.1120 H     1 <1>   0.1500 
@<TRIPOS>BOND
  1   1   2  1   
  2   1   3  1   
  3   2   4  ar  
  4   2   5  ar  
  5   3  19  1   
  6   3  20  1   
  7   3  21  1   
  8   4   6  ar  
  9   4  22  1   
 10   5   7  ar  
 11   5  23  1   
 12   6   8  ar  
 13   6   9  1   
 14   7   8  ar  
 15   7  24  1   
 16   8  25  1   
 17   9  10  1   
 18   9  26  1   
 19   9  27  1   
 20  10  11  1   
 21  10  12  1   
 22  11  13  1   
 23  11  28  1   
 24  11  29  1   
 25  12  30  1   
 26  12  31  1   
 27  12  32  1   
 28  13  14  2   
 29  13  15  am  
 30  15  16  1   
 31  15  33  1   
 32  16  17  1   
 33  16  34  1   
 34  16  35  1   
 35  17  18  2   
 36  17  36  1   
 37  18  37  1   
 38  18  38  1   
@<TRIPOS>SUBSTRUCTURE
  1 ****   9 GROUP 4 **** **** 0

# MOE 2024.06 (io_trps.svl 2023.06)
