@<TRIPOS>MOLECULE
NONAME
47 49 1 0 0 
SMALL
USER_CHARGES


@<TRIPOS>ATOM
  1 O       -0.8350    -0.3370    -1.9420 O.2   1 <1>  -0.5700 
  2 C       -1.5960    -0.7590    -1.1030 C.2   1 <1>   0.5690 
  3 N       -1.7360    -0.1650     0.1160 N.am  1 <1>  -0.6600 
  4 C       -2.4020    -1.9910    -1.4450 C.3   1 <1>  -0.0190 
  5 C       -2.7530    -0.6270     1.1040 C.3   1 <1>   0.2200 
  6 C       -0.9330     1.0280     0.5100 C.3   1 <1>   0.0600 
  7 C       -2.0500    -3.1490    -0.4920 C.3   1 <1>   0.1200 
  8 C       -3.8930    -1.6470    -1.6380 C.3   1 <1>   0.1400 
  9 C       -2.4410    -2.0590     1.6150 C.3   1 <1>   0.1200 
 10 C       -4.1840    -0.4000     0.5620 C.3   1 <1>   0.1400 
 11 O       -2.7320    -3.1040     0.7230 O.3   1 <1>  -0.5600 
 12 N       -4.6770    -1.4630    -0.3740 N.am  1 <1>  -0.6600 
 13 C       -5.6980    -2.2920     0.0310 C.2   1 <1>   0.5690 
 14 O       -6.3780    -2.0290     0.9970 O.2   1 <1>  -0.5700 
 15 C       -6.0020    -3.5780    -0.7350 C.3   1 <1>  -0.0990 
 16 C       -7.0020    -4.5210    -0.0380 C.3   1 <1>  -0.1600 
 17 C       -7.2220    -5.8070    -0.8440 C.3   1 <1>  -0.0170 
 18 C       -8.2170    -6.7200    -0.1450 C.ar  1 <1>  -0.1440 
 19 C       -7.7830    -7.6240     0.8120 C.ar  1 <1>  -0.1500 
 20 C       -9.5660    -6.6580    -0.4570 C.ar  1 <1>  -0.1500 
 21 C       -8.6860    -8.4590     1.4470 C.ar  1 <1>  -0.1500 
 22 C      -10.4710    -7.4930     0.1760 C.ar  1 <1>  -0.1500 
 23 C      -10.0310    -8.3960     1.1280 C.ar  1 <1>  -0.1500 
 24 H       -2.0460    -2.2980    -2.4120 H     1 <1>   0.0800 
 25 H       -2.6620     0.0150     1.9620 H     1 <1>   0.0800 
 26 H       -0.4000     0.8250     1.4220 H     1 <1>   0.0800 
 27 H       -1.5830     1.8730     0.6570 H     1 <1>   0.0800 
 28 H       -0.2160     1.2770    -0.2540 H     1 <1>   0.0800 
 29 H       -0.9920    -3.1700    -0.2890 H     1 <1>   0.0800 
 30 H       -2.3210    -4.0810    -0.9560 H     1 <1>   0.0800 
 31 H       -4.3380    -2.4160    -2.2400 H     1 <1>   0.0800 
 32 H       -3.9620    -0.7360    -2.2100 H     1 <1>   0.0800 
 33 H       -3.0390    -2.2420     2.4900 H     1 <1>   0.0800 
 34 H       -1.4060    -2.1330     1.8990 H     1 <1>   0.0800 
 35 H       -4.2280     0.5530     0.0660 H     1 <1>   0.0800 
 36 H       -4.8400    -0.3360     1.4110 H     1 <1>   0.0800 
 37 H       -6.3900    -3.3080    -1.6990 H     1 <1>   0.0800 
 38 H       -5.0770    -4.1070    -0.8690 H     1 <1>   0.0800 
 39 H       -6.6300    -4.7730     0.9410 H     1 <1>   0.0800 
 40 H       -7.9440    -4.0150     0.0910 H     1 <1>   0.0800 
 41 H       -6.2870    -6.3260    -0.9640 H     1 <1>   0.0800 
 42 H       -7.5890    -5.5620    -1.8250 H     1 <1>   0.0800 
 43 H       -6.7400    -7.6780     1.0680 H     1 <1>   0.1500 
 44 H       -9.9180    -5.9570    -1.1940 H     1 <1>   0.1500 
 45 H       -8.3400    -9.1570     2.1880 H     1 <1>   0.1500 
 46 H      -11.5160    -7.4400    -0.0720 H     1 <1>   0.1500 
 47 H      -10.7330    -9.0450     1.6210 H     1 <1>   0.1500 
@<TRIPOS>BOND
  1   1   2  2   
  2   2   3  am  
  3   2   4  1   
  4   3   5  1   
  5   3   6  1   
  6   4   7  1   
  7   4   8  1   
  8   4  24  1   
  9   5   9  1   
 10   5  10  1   
 11   5  25  1   
 12   6  26  1   
 13   6  27  1   
 14   6  28  1   
 15   7  11  1   
 16   7  29  1   
 17   7  30  1   
 18   8  12  1   
 19   8  31  1   
 20   8  32  1   
 21   9  11  1   
 22   9  33  1   
 23   9  34  1   
 24  10  12  1   
 25  10  35  1   
 26  10  36  1   
 27  12  13  am  
 28  13  14  2   
 29  13  15  1   
 30  15  16  1   
 31  15  37  1   
 32  15  38  1   
 33  16  17  1   
 34  16  39  1   
 35  16  40  1   
 36  17  18  1   
 37  17  41  1   
 38  17  42  1   
 39  18  19  ar  
 40  18  20  ar  
 41  19  21  ar  
 42  19  43  1   
 43  20  22  ar  
 44  20  44  1   
 45  21  23  ar  
 46  21  45  1   
 47  22  23  ar  
 48  22  46  1   
 49  23  47  1   
@<TRIPOS>SUBSTRUCTURE
  1 ****  15 GROUP 4 **** **** 0

# MOE 2024.06 (io_trps.svl 2023.06)
