@<TRIPOS>MOLECULE
NONAME
52 55 1 0 0 
SMALL
USER_CHARGES


@<TRIPOS>ATOM
  1 O       -0.3100     0.2160     2.1270 O.2   1 <1>  -0.5700 
  2 C       -0.8870     1.0560     1.4740 C.2   1 <1>   0.5690 
  3 N       -1.6040     0.7640     0.3210 N.am  1 <1>  -0.4770 
  4 C       -0.8140     2.4910     2.0250 C.3   1 <1>   0.1710 
  5 C       -1.7070    -0.5230    -0.2860 C.ar  1 <1>   0.1170 
  6 C       -2.4940     1.8320    -0.2410 C.3   1 <1>   0.1400 
  7 N       -0.1510     3.5090     1.1460 N.3   1 <1>  -0.8100 
  8 C       -2.8440    -0.8510    -1.0380 C.ar  1 <1>   0.0820 
  9 C       -0.7160    -1.4970    -0.1760 C.ar  1 <1>  -0.1500 
 10 C       -3.3150     1.3900    -1.4580 C.3   1 <1>   0.1200 
 11 C       -0.6100     4.8690     1.4740 C.3   1 <1>   0.2540 
 12 C        1.3320     3.4240     1.2160 C.3   1 <1>   0.1100 
 13 O       -3.8000     0.0770    -1.2840 O.3   1 <1>  -0.3630 
 14 C       -3.0130    -2.1110    -1.5840 C.ar  1 <1>  -0.1500 
 15 C       -0.8740    -2.7540    -0.7340 C.ar  1 <1>  -0.1500 
 16 C       -1.9990     5.0830     0.8920 C.ar  1 <1>  -0.1440 
 17 C        1.9280     2.2140     0.4750 C.3   1 <1>   0.2000 
 18 C       -2.0270    -3.0680    -1.4300 C.ar  1 <1>  -0.1500 
 19 C       -3.1470     5.0630     1.6610 C.ar  1 <1>  -0.1500 
 20 C       -2.1750     5.2990    -0.4600 C.ar  1 <1>  -0.1500 
 21 O        3.3100     2.3530     0.4300 O.3   1 <1>  -0.5600 
 22 C        1.5260     2.0960    -0.9910 C.3   1 <1>  -0.1600 
 23 C       -4.3800     5.2310     1.0520 C.ar  1 <1>   0.1600 
 24 C       -3.4520     5.4600    -0.9690 C.ar  1 <1>   0.1600 
 25 C        3.8270     1.5410    -0.5730 C.3   1 <1>   0.1200 
 26 C        2.7360     1.4380    -1.6350 C.3   1 <1>  -0.1600 
 27 N       -4.5590     5.4200    -0.2460 N.ar  1 <1>  -0.6200 
 28 H       -0.3060     2.4610     2.9730 H     1 <1>   0.0800 
 29 H       -1.8240     2.7890     2.2310 H     1 <1>   0.0800 
 30 H       -1.8920     2.6690    -0.5380 H     1 <1>   0.0800 
 31 H       -3.1770     2.1610     0.5220 H     1 <1>   0.0800 
 32 H        0.1940    -1.2840     0.3520 H     1 <1>   0.1500 
 33 H       -2.7030     1.4000    -2.3430 H     1 <1>   0.0800 
 34 H       -4.1550     2.0440    -1.6060 H     1 <1>   0.0800 
 35 H        0.0500     5.5970     1.0340 H     1 <1>   0.0800 
 36 H       -0.6090     5.0200     2.5410 H     1 <1>   0.0800 
 37 H        1.6520     3.4000     2.2430 H     1 <1>   0.0800 
 38 H        1.7540     4.3020     0.7570 H     1 <1>   0.0800 
 39 H       -3.9100    -2.3320    -2.1340 H     1 <1>   0.1500 
 40 H       -0.0970    -3.4900    -0.6210 H     1 <1>   0.1500 
 41 H        1.7250     1.3000     1.0030 H     1 <1>   0.0800 
 42 H       -2.1540    -4.0490    -1.8550 H     1 <1>   0.1500 
 43 H       -3.0960     4.9130     2.7240 H     1 <1>   0.1500 
 44 H       -1.3250     5.3340    -1.1180 H     1 <1>   0.1500 
 45 H        1.3670     3.0770    -1.4040 H     1 <1>   0.0800 
 46 H        0.6310     1.5140    -1.1100 H     1 <1>   0.0800 
 47 H       -5.2660     5.2100     1.6640 H     1 <1>   0.1500 
 48 H       -3.5690     5.6280    -2.0260 H     1 <1>   0.1500 
 49 H        4.0450     0.5780    -0.1430 H     1 <1>   0.0800 
 50 H        4.7290     1.9910    -0.9510 H     1 <1>   0.0800 
 51 H        3.0270     1.9500    -2.5360 H     1 <1>   0.0800 
 52 H        2.5440     0.4040    -1.8630 H     1 <1>   0.0800 
@<TRIPOS>BOND
  1   1   2  2   
  2   2   3  am  
  3   2   4  1   
  4   3   5  1   
  5   3   6  1   
  6   4   7  1   
  7   4  28  1   
  8   4  29  1   
  9   5   8  ar  
 10   5   9  ar  
 11   6  10  1   
 12   6  30  1   
 13   6  31  1   
 14   7  11  1   
 15   7  12  1   
 16   8  13  1   
 17   8  14  ar  
 18   9  15  ar  
 19   9  32  1   
 20  10  13  1   
 21  10  33  1   
 22  10  34  1   
 23  11  16  1   
 24  11  35  1   
 25  11  36  1   
 26  12  17  1   
 27  12  37  1   
 28  12  38  1   
 29  14  18  ar  
 30  14  39  1   
 31  15  18  ar  
 32  15  40  1   
 33  16  19  ar  
 34  16  20  ar  
 35  17  21  1   
 36  17  22  1   
 37  17  41  1   
 38  18  42  1   
 39  19  23  ar  
 40  19  43  1   
 41  20  24  ar  
 42  20  44  1   
 43  21  25  1   
 44  22  26  1   
 45  22  45  1   
 46  22  46  1   
 47  23  27  ar  
 48  23  47  1   
 49  24  27  ar  
 50  24  48  1   
 51  25  26  1   
 52  25  49  1   
 53  25  50  1   
 54  26  51  1   
 55  26  52  1   
@<TRIPOS>SUBSTRUCTURE
  1 ****   3 GROUP 4 **** **** 0

# MOE 2024.06 (io_trps.svl 2023.06)
