@<TRIPOS>MOLECULE
NONAME
53 55 1 0 0 
SMALL
USER_CHARGES


@<TRIPOS>ATOM
  1 O        1.8330    -0.6130     2.8440 O.2   1 <1>  -0.5700 
  2 C        2.4540    -1.1710     1.9600 C.2   1 <1>   0.5440 
  3 N        3.7210    -0.7260     1.6440 N.am  1 <1>  -0.6600 
  4 C        1.8390    -2.2870     1.2740 C.ar  1 <1>   0.0860 
  5 C        4.6870    -1.4630     0.7650 C.3   1 <1>   0.1400 
  6 C        4.3000     0.4830     2.2910 C.3   1 <1>   0.1400 
  7 C        1.6340    -2.3090    -0.0950 C.ar  1 <1>  -0.1500 
  8 C        1.4000    -3.4150     1.9510 C.ar  1 <1>  -0.1500 
  9 C        4.9520    -0.7430    -0.5680 C.3   1 <1>   0.1400 
 10 C        4.0010     1.7390     1.4640 C.3   1 <1>  -0.1600 
 11 C        1.0610    -3.4100    -0.7020 C.ar  1 <1>   0.3920 
 12 C        0.8330    -4.4670     1.2580 C.ar  1 <1>   0.1600 
 13 N        5.3370     0.6930    -0.3800 N.am  1 <1>  -0.6600 
 14 C        4.1850     1.5820    -0.0530 C.3   1 <1>   0.1400 
 15 O        0.9120    -3.3560    -2.0420 O.3   1 <1>  -0.3630 
 16 N        0.6600    -4.4980    -0.0520 N.ar  1 <1>  -0.6200 
 17 C        6.6500     1.0850    -0.4870 C.2   1 <1>   0.5690 
 18 C        0.3120    -4.4250    -2.7500 C.3   1 <1>   0.0400 
 19 O        7.5210     0.2760    -0.7110 O.2   1 <1>  -0.5700 
 20 C        7.0580     2.5590    -0.3380 C.3   1 <1>  -0.0190 
 21 C        7.0530     3.2640    -1.7100 C.3   1 <1>  -0.1600 
 22 C        8.4340     2.7260     0.3450 C.3   1 <1>  -0.1600 
 23 C        7.4480     4.7440    -1.5900 C.3   1 <1>  -0.1600 
 24 C        8.8270     4.2060     0.4740 C.3   1 <1>  -0.1600 
 25 C        8.8040     4.8930    -0.8940 C.3   1 <1>   0.2000 
 26 O        9.0490     6.2350    -0.7080 O.3   1 <1>  -0.6800 
 27 H        4.3270    -2.4560     0.5620 H     1 <1>   0.0800 
 28 H        5.6230    -1.5730     1.2850 H     1 <1>   0.0800 
 29 H        5.3650     0.3610     2.3860 H     1 <1>   0.0800 
 30 H        3.9010     0.6000     3.2850 H     1 <1>   0.0800 
 31 H        1.9130    -1.4670    -0.6970 H     1 <1>   0.1500 
 32 H        1.5040    -3.4610     3.0200 H     1 <1>   0.1500 
 33 H        4.0760    -0.7980    -1.1880 H     1 <1>   0.0800 
 34 H        5.7330    -1.2680    -1.0910 H     1 <1>   0.0800 
 35 H        4.6280     2.5340     1.8210 H     1 <1>   0.0800 
 36 H        2.9860     2.0380     1.6540 H     1 <1>   0.0800 
 37 H        0.5020    -5.3310     1.8110 H     1 <1>   0.1500 
 38 H        4.3100     2.5460    -0.5140 H     1 <1>   0.0800 
 39 H        3.2870     1.1520    -0.4640 H     1 <1>   0.0800 
 40 H        0.2890    -4.1700    -3.7930 H     1 <1>   0.0800 
 41 H       -0.6890    -4.5670    -2.3800 H     1 <1>   0.0800 
 42 H        0.8970    -5.3150    -2.5980 H     1 <1>   0.0800 
 43 H        6.3460     3.0510     0.2930 H     1 <1>   0.0800 
 44 H        6.0760     3.1880    -2.1540 H     1 <1>   0.0800 
 45 H        7.7470     2.7620    -2.3640 H     1 <1>   0.0800 
 46 H        9.1850     2.2130    -0.2320 H     1 <1>   0.0800 
 47 H        8.4080     2.2710     1.3200 H     1 <1>   0.0800 
 48 H        6.6920     5.2640    -1.0280 H     1 <1>   0.0800 
 49 H        7.5050     5.1770    -2.5730 H     1 <1>   0.0800 
 50 H        9.8170     4.2750     0.8890 H     1 <1>   0.0800 
 51 H        8.1390     4.6940     1.1410 H     1 <1>   0.0800 
 52 H        9.5870     4.4990    -1.5200 H     1 <1>   0.0800 
 53 H        8.3640     6.6220    -0.1340 H     1 <1>   0.4000 
@<TRIPOS>BOND
  1   1   2  2   
  2   2   3  am  
  3   2   4  1   
  4   3   5  1   
  5   3   6  1   
  6   4   7  ar  
  7   4   8  ar  
  8   5   9  1   
  9   5  27  1   
 10   5  28  1   
 11   6  10  1   
 12   6  29  1   
 13   6  30  1   
 14   7  11  ar  
 15   7  31  1   
 16   8  12  ar  
 17   8  32  1   
 18   9  13  1   
 19   9  33  1   
 20   9  34  1   
 21  10  14  1   
 22  10  35  1   
 23  10  36  1   
 24  11  15  1   
 25  11  16  ar  
 26  12  16  ar  
 27  12  37  1   
 28  13  14  1   
 29  13  17  am  
 30  14  38  1   
 31  14  39  1   
 32  15  18  1   
 33  17  19  2   
 34  17  20  1   
 35  18  40  1   
 36  18  41  1   
 37  18  42  1   
 38  20  21  1   
 39  20  22  1   
 40  20  43  1   
 41  21  23  1   
 42  21  44  1   
 43  21  45  1   
 44  22  24  1   
 45  22  46  1   
 46  22  47  1   
 47  23  25  1   
 48  23  48  1   
 49  23  49  1   
 50  24  25  1   
 51  24  50  1   
 52  24  51  1   
 53  25  26  1   
 54  25  52  1   
 55  26  53  1   
@<TRIPOS>SUBSTRUCTURE
  1 ****   9 GROUP 4 **** **** 0

# MOE 2024.06 (io_trps.svl 2023.06)
