@<TRIPOS>MOLECULE
NONAME
41 42 1 0 0 
SMALL
USER_CHARGES


@<TRIPOS>ATOM
  1 S       -0.2510     0.1450     0.4940 S.o2  1 <1>   1.3330 
  2 O       -0.9240     1.4200     0.5850 O.2   1 <1>  -0.6500 
  3 O       -0.0440    -0.6390     1.6910 O.2   1 <1>  -0.6500 
  4 N       -1.1040    -0.8240    -0.6110 N.am  1 <1>  -0.8490 
  5 C        1.3080     0.4100    -0.3520 C.3   1 <1>  -0.0550 
  6 C       -2.5540    -0.6310    -0.5140 C.3   1 <1>   0.1160 
  7 C       -0.7830    -2.2510    -0.5010 C.3   1 <1>   0.1160 
  8 C        2.2800     1.3390     0.4050 C.3   1 <1>  -0.0800 
  9 C        3.4750     1.6950    -0.4630 C.3   1 <1>   0.2200 
 10 C        2.9600     0.6220     1.5710 C.3   1 <1>   0.1200 
 11 N        4.0740     2.9560     0.0240 N.am  1 <1>  -0.7300 
 12 C        4.4300     0.5300    -0.2030 C.3   1 <1>   0.1200 
 13 O        4.0650    -0.0320     1.0250 O.3   1 <1>  -0.5600 
 14 C        4.2320     4.1110    -0.6840 C.2   1 <1>   0.7160 
 15 O        3.8140     4.1560    -1.8290 O.2   1 <1>  -0.5700 
 16 C        4.8950     5.2450    -0.0600 C.2   1 <1>   0.2030 
 17 N        5.3890     5.2660     1.1680 N.2   1 <1>  -0.7070 
 18 C        5.1080     6.4820    -0.6830 C.2   1 <1>  -0.1500 
 19 N        5.9060     6.4940     1.3250 N.pl3 1 <1>   0.3000 
 20 C        5.7500     7.2480     0.2240 C.2   1 <1>  -0.3320 
 21 C        6.2560     8.6720     0.1660 C.3   1 <1>   0.7800 
 22 F        7.5550     8.6790     0.4250 F     1 <1>  -0.3400 
 23 F        5.7140     9.3620     1.1590 F     1 <1>  -0.3400 
 24 H        1.7830    -0.5350    -0.5310 H     1 <1>   0.0800 
 25 H        1.0900     0.8510    -1.3050 H     1 <1>   0.0800 
 26 H       -3.0610    -1.2480    -1.2360 H     1 <1>   0.0800 
 27 H       -2.8040     0.3970    -0.7170 H     1 <1>   0.0800 
 28 H       -2.9000    -0.8830     0.4750 H     1 <1>   0.0800 
 29 H       -1.2770    -2.8020    -1.2820 H     1 <1>   0.0800 
 30 H       -1.1000    -2.6370     0.4550 H     1 <1>   0.0800 
 31 H        0.2780    -2.4030    -0.5980 H     1 <1>   0.0800 
 32 H        1.7510     2.2190     0.7300 H     1 <1>   0.0800 
 33 H        3.2270     1.7820    -1.5080 H     1 <1>   0.0800 
 34 H        2.3360    -0.0990     2.0690 H     1 <1>   0.0800 
 35 H        3.3260     1.3320     2.2930 H     1 <1>   0.0800 
 36 H        4.4740     2.9520     0.9670 H     1 <1>   0.3700 
 37 H        5.4590     0.8440    -0.1620 H     1 <1>   0.0800 
 38 H        4.3120    -0.2310    -0.9530 H     1 <1>   0.0800 
 39 H        4.7990     6.7180    -1.6870 H     1 <1>   0.1500 
 40 H        6.3630     6.8010     2.1950 H     1 <1>   0.2700 
 41 H        6.0790     9.1900    -0.7600 H     1 <1>   0.0800 
@<TRIPOS>BOND
  1   1   2  2   
  2   1   3  2   
  3   1   4  am  
  4   1   5  1   
  5   4   6  1   
  6   4   7  1   
  7   5   8  1   
  8   5  24  1   
  9   5  25  1   
 10   6  26  1   
 11   6  27  1   
 12   6  28  1   
 13   7  29  1   
 14   7  30  1   
 15   7  31  1   
 16   8   9  1   
 17   8  10  1   
 18   8  32  1   
 19   9  11  1   
 20   9  12  1   
 21   9  33  1   
 22  10  13  1   
 23  10  34  1   
 24  10  35  1   
 25  11  14  am  
 26  11  36  1   
 27  12  13  1   
 28  12  37  1   
 29  12  38  1   
 30  14  15  2   
 31  14  16  1   
 32  16  17  2   
 33  16  18  1   
 34  17  19  1   
 35  18  20  2   
 36  18  39  1   
 37  19  20  1   
 38  19  40  1   
 39  20  21  1   
 40  21  22  1   
 41  21  23  1   
 42  21  41  1   
@<TRIPOS>SUBSTRUCTURE
  1 ****  11 GROUP 4 **** **** 0

# MOE 2024.06 (io_trps.svl 2023.06)
