@<TRIPOS>MOLECULE
NONAME
43 46 1 0 0 
SMALL
USER_CHARGES


@<TRIPOS>ATOM
  1 S       -0.0750    -0.0970    -1.1780 S.3   1 <1>  -0.0800 
  2 C       -1.2350     0.9530    -0.3780 C.2   1 <1>  -0.1400 
  3 C       -1.2980    -1.3440    -1.3820 C.2   1 <1>  -0.1100 
  4 C       -2.4350     0.3650    -0.3060 C.2   1 <1>  -0.1810 
  5 C       -0.8640     2.3350     0.1510 C.3   1 <1>   0.4600 
  6 C       -2.4800    -0.9480    -0.8710 C.2   1 <1>  -0.1500 
  7 C       -3.5860     1.1010     0.3410 C.3   1 <1>   0.0210 
  8 O       -1.9730     2.8660     0.8500 O.3   1 <1>  -0.5600 
  9 C        0.2690     2.2370     1.1920 C.3   1 <1>  -0.1600 
 10 C       -0.5210     3.2950    -1.0000 C.3   1 <1>  -0.1600 
 11 C       -3.2690     2.6090     0.3570 C.3   1 <1>   0.1200 
 12 C        1.6200     2.6970     0.6420 C.3   1 <1>   0.1400 
 13 C        0.2330     4.5160    -0.4780 C.3   1 <1>   0.1400 
 14 N        1.5290     4.1020     0.1390 N.am  1 <1>  -0.6600 
 15 C        2.6480     4.9130     0.1470 C.2   1 <1>   0.6160 
 16 O        3.7350     4.3910     0.3230 O.2   1 <1>  -0.5700 
 17 C        2.6010     6.3490    -0.0630 C.2   1 <1>   0.0910 
 18 O        1.4870     6.9950     0.3430 O.3   1 <1>  -0.1530 
 19 C        3.6120     7.0780    -0.6150 C.2   1 <1>  -0.1360 
 20 C        1.3350     8.3170     0.2150 C.2   1 <1>  -0.0620 
 21 C        3.5160     8.4800    -0.7880 C.2   1 <1>   0.5410 
 22 C        2.3090     9.0760    -0.3360 C.2   1 <1>  -0.1360 
 23 C        0.0100     8.8400     0.7350 C.3   1 <1>  -0.1020 
 24 O        4.4060     9.1370    -1.2970 O.2   1 <1>  -0.5700 
 25 H       -0.9980    -2.2550    -1.8690 H     1 <1>   0.1500 
 26 H       -3.3870    -1.5270    -0.8680 H     1 <1>   0.1500 
 27 H       -3.7270     0.7460     1.3460 H     1 <1>   0.0800 
 28 H       -4.4920     0.9330    -0.2120 H     1 <1>   0.0800 
 29 H        0.3570     1.2250     1.5400 H     1 <1>   0.0800 
 30 H        0.0380     2.8510     2.0440 H     1 <1>   0.0800 
 31 H       -1.4110     3.6000    -1.5160 H     1 <1>   0.0800 
 32 H        0.1040     2.7970    -1.7190 H     1 <1>   0.0800 
 33 H       -3.9680     3.1270     0.9900 H     1 <1>   0.0800 
 34 H       -3.3440     3.0130    -0.6370 H     1 <1>   0.0800 
 35 H        1.9320     2.0540    -0.1640 H     1 <1>   0.0800 
 36 H        2.3610     2.6360     1.4210 H     1 <1>   0.0800 
 37 H       -0.3660     5.0210     0.2620 H     1 <1>   0.0800 
 38 H        0.4180     5.1950    -1.2920 H     1 <1>   0.0800 
 39 H        4.5260     6.6170    -0.9400 H     1 <1>   0.1500 
 40 H        2.2290    10.1390    -0.4580 H     1 <1>   0.1500 
 41 H       -0.0880     8.6090     1.7810 H     1 <1>   0.0800 
 42 H       -0.8010     8.3790     0.2010 H     1 <1>   0.0800 
 43 H       -0.0530     9.9060     0.6100 H     1 <1>   0.0800 
@<TRIPOS>BOND
  1   1   2  1   
  2   1   3  1   
  3   2   4  2   
  4   2   5  1   
  5   3   6  2   
  6   3  25  1   
  7   4   6  1   
  8   4   7  1   
  9   5   8  1   
 10   5   9  1   
 11   5  10  1   
 12   6  26  1   
 13   7  11  1   
 14   7  27  1   
 15   7  28  1   
 16   8  11  1   
 17   9  12  1   
 18   9  29  1   
 19   9  30  1   
 20  10  13  1   
 21  10  31  1   
 22  10  32  1   
 23  11  33  1   
 24  11  34  1   
 25  12  14  1   
 26  12  35  1   
 27  12  36  1   
 28  13  14  1   
 29  13  37  1   
 30  13  38  1   
 31  14  15  am  
 32  15  16  2   
 33  15  17  1   
 34  17  18  1   
 35  17  19  2   
 36  18  20  1   
 37  19  21  1   
 38  19  39  1   
 39  20  22  2   
 40  20  23  1   
 41  21  22  1   
 42  21  24  2   
 43  22  40  1   
 44  23  41  1   
 45  23  42  1   
 46  23  43  1   
@<TRIPOS>SUBSTRUCTURE
  1 ****  13 GROUP 4 **** **** 0

# MOE 2024.06 (io_trps.svl 2023.06)
