@<TRIPOS>MOLECULE
NONAME
42 43 1 0 0 
SMALL
USER_CHARGES


@<TRIPOS>ATOM
  1 O        1.4060    -1.2930     2.7970 O.3   1 <1>  -0.6800 
  2 C        1.7570    -0.7180     1.5870 C.3   1 <1>   0.1200 
  3 C        3.2780    -0.8640     1.4310 C.3   1 <1>   0.3430 
  4 N        3.7220    -0.8300    -0.0030 N.4   1 <1>  -0.9590 
  5 C        3.9800    -2.1950    -0.5230 C.3   1 <1>   0.5230 
  6 C        4.9070     0.0520    -0.2130 C.3   1 <1>   0.3430 
  7 C        2.6350    -2.8230    -0.7680 C.2   1 <1>  -0.3320 
  8 C        4.5510     1.5390    -0.0590 C.3   1 <1>  -0.0800 
  9 N        2.0360    -3.7510     0.0150 N.pl3 1 <1>   0.0480 
 10 C        1.7890    -2.5810    -1.7950 C.2   1 <1>   0.0770 
 11 C        3.4610     1.9810    -1.0610 C.3   1 <1>  -0.0220 
 12 C        5.8180     2.4000    -0.2300 C.3   1 <1>  -0.1600 
 13 C        0.8510    -3.9850    -0.5900 C.2   1 <1>   0.0360 
 14 C        2.5170    -4.4080     1.2480 C.3   1 <1>   0.0160 
 15 N        0.6650    -3.2990    -1.6690 N.2   1 <1>  -0.5650 
 16 C        3.3290     3.4920    -1.0970 C.2   1 <1>  -0.2880 
 17 C        5.5360     3.8830     0.0580 C.3   1 <1>  -0.0220 
 18 C        4.2390     4.3290    -0.5930 C.2   1 <1>  -0.2880 
 19 H        0.4490    -1.1740     2.9830 H     1 <1>   0.4000 
 20 H        1.4710     0.3200     1.6070 H     1 <1>   0.0800 
 21 H        1.2160    -1.2340     0.8140 H     1 <1>   0.0800 
 22 H        3.5780    -1.7980     1.8760 H     1 <1>   0.0800 
 23 H        3.7490    -0.0700     1.9860 H     1 <1>   0.0800 
 24 H        2.9430    -0.4720    -0.5690 H     1 <1>   0.4500 
 25 H        4.5620    -2.7750     0.1740 H     1 <1>   0.0800 
 26 H        4.5130    -2.1390    -1.4590 H     1 <1>   0.0800 
 27 H        5.2990    -0.0980    -1.2060 H     1 <1>   0.0800 
 28 H        5.6830    -0.2050     0.4910 H     1 <1>   0.0800 
 29 H        4.1890     1.7170     0.9390 H     1 <1>   0.0800 
 30 H        1.9160    -1.9190    -2.6370 H     1 <1>   0.1500 
 31 H        2.5110     1.5660    -0.7760 H     1 <1>   0.0800 
 32 H        3.6980     1.6420    -2.0550 H     1 <1>   0.0800 
 33 H        6.1760     2.3130    -1.2430 H     1 <1>   0.0800 
 34 H        6.6000     2.0640     0.4290 H     1 <1>   0.0800 
 35 H        0.1340    -4.6860    -0.1960 H     1 <1>   0.1500 
 36 H        3.5580    -4.6510     1.1510 H     1 <1>   0.0800 
 37 H        1.9610    -5.3150     1.4090 H     1 <1>   0.0800 
 38 H        2.3680    -3.7540     2.0880 H     1 <1>   0.0800 
 39 H        2.4250     3.8360    -1.5750 H     1 <1>   0.1500 
 40 H        6.3510     4.4790    -0.3180 H     1 <1>   0.0800 
 41 H        5.4660     4.0490     1.1190 H     1 <1>   0.0800 
 42 H        4.1220     5.4010    -0.6130 H     1 <1>   0.1500 
@<TRIPOS>BOND
  1   1   2  1   
  2   1  19  1   
  3   2   3  1   
  4   2  20  1   
  5   2  21  1   
  6   3   4  1   
  7   3  22  1   
  8   3  23  1   
  9   4   5  1   
 10   4   6  1   
 11   4  24  1   
 12   5   7  1   
 13   5  25  1   
 14   5  26  1   
 15   6   8  1   
 16   6  27  1   
 17   6  28  1   
 18   7   9  1   
 19   7  10  2   
 20   8  11  1   
 21   8  12  1   
 22   8  29  1   
 23   9  13  1   
 24   9  14  1   
 25  10  15  1   
 26  10  30  1   
 27  11  16  1   
 28  11  31  1   
 29  11  32  1   
 30  12  17  1   
 31  12  33  1   
 32  12  34  1   
 33  13  15  2   
 34  13  35  1   
 35  14  36  1   
 36  14  37  1   
 37  14  38  1   
 38  16  18  2   
 39  16  39  1   
 40  17  18  1   
 41  17  40  1   
 42  17  41  1   
 43  18  42  1   
@<TRIPOS>SUBSTRUCTURE
  1 ****   4 GROUP 4 **** **** 0

# MOE 2024.06 (io_trps.svl 2023.06)
