@<TRIPOS>MOLECULE
NONAME
47 49 1 0 0 
SMALL
USER_CHARGES


@<TRIPOS>ATOM
  1 O       -1.4440     0.3840     2.5050 O.2   1 <1>  -0.5700 
  2 C       -1.9660     0.9370     1.5560 C.2   1 <1>   0.5440 
  3 N       -3.0320     0.3260     0.9410 N.am  1 <1>  -0.6600 
  4 C       -1.4580     2.2080     1.0940 C.ar  1 <1>   0.0860 
  5 C       -3.7630     0.8640    -0.2370 C.3   1 <1>   0.1400 
  6 C       -3.4290    -1.0790     1.2030 C.3   1 <1>   0.1400 
  7 C       -0.8030     2.3660    -0.1370 C.ar  1 <1>   0.0830 
  8 C       -1.6370     3.3450     1.8830 C.ar  1 <1>  -0.1500 
  9 C       -4.8340    -0.1860    -0.5390 C.3   1 <1>   0.2000 
 10 C       -4.2290    -1.4990    -0.0370 C.3   1 <1>  -0.0800 
 11 O       -0.5400     1.3320    -0.9670 O.3   1 <1>  -0.3630 
 12 C       -0.3990     3.6210    -0.5650 C.ar  1 <1>  -0.1500 
 13 C       -1.2190     4.5930     1.4600 C.ar  1 <1>  -0.1500 
 14 O       -5.9520     0.0990     0.2270 O.3   1 <1>  -0.6800 
 15 C       -3.3160    -2.1270    -1.1080 C.3   1 <1>   0.0210 
 16 C        0.2340     0.2510    -0.4920 C.3   1 <1>   0.1200 
 17 C       -0.6040     4.7340     0.2290 C.ar  1 <1>  -0.1500 
 18 C       -2.7020    -3.4260    -0.6250 C.2   1 <1>   0.1080 
 19 C        0.8260    -0.4690    -1.7000 C.3   1 <1>  -0.2400 
 20 N       -3.4030    -4.4950    -0.4070 N.2   1 <1>  -0.7070 
 21 C       -1.3510    -3.6210    -0.3580 C.2   1 <1>  -0.1500 
 22 N       -2.5080    -5.4100     0.0090 N.pl3 1 <1>   0.3000 
 23 C       -1.2580    -4.9040     0.0480 C.2   1 <1>  -0.3320 
 24 C       -0.0330    -5.6890     0.4790 C.3   1 <1>  -0.0600 
 25 H       -4.1930     1.8290    -0.0320 H     1 <1>   0.0800 
 26 H       -3.0870     0.9410    -1.0700 H     1 <1>   0.0800 
 27 H       -2.5660    -1.7010     1.3740 H     1 <1>   0.0800 
 28 H       -4.0540    -1.1080     2.0790 H     1 <1>   0.0800 
 29 H       -2.1170     3.2370     2.8410 H     1 <1>   0.1500 
 30 H       -5.1290    -0.2070    -1.5740 H     1 <1>   0.0800 
 31 H       -4.9950    -2.2120     0.2180 H     1 <1>   0.0800 
 32 H        0.0830     3.7190    -1.5210 H     1 <1>   0.1500 
 33 H       -1.3720     5.4560     2.0860 H     1 <1>   0.1500 
 34 H       -5.6760     0.2060     1.1590 H     1 <1>   0.4000 
 35 H       -2.5300    -1.4470    -1.3820 H     1 <1>   0.0800 
 36 H       -3.8940    -2.3410    -1.9890 H     1 <1>   0.0800 
 37 H        1.0120     0.6360     0.1450 H     1 <1>   0.0800 
 38 H       -0.3980    -0.4150     0.0660 H     1 <1>   0.0800 
 39 H       -0.2830     5.7050    -0.1070 H     1 <1>   0.1500 
 40 H        1.4490     0.2050    -2.2620 H     1 <1>   0.0800 
 41 H        0.0410    -0.8440    -2.3310 H     1 <1>   0.0800 
 42 H        1.4280    -1.2960    -1.3700 H     1 <1>   0.0800 
 43 H       -0.5710    -2.8890    -0.4600 H     1 <1>   0.1500 
 44 H       -2.7830    -6.3680     0.2590 H     1 <1>   0.2700 
 45 H        0.8420    -5.0660     0.4270 H     1 <1>   0.0800 
 46 H        0.1120    -6.5380    -0.1650 H     1 <1>   0.0800 
 47 H       -0.1480    -6.0320     1.4920 H     1 <1>   0.0800 
@<TRIPOS>BOND
  1   1   2  2   
  2   2   3  am  
  3   2   4  1   
  4   3   5  1   
  5   3   6  1   
  6   4   7  ar  
  7   4   8  ar  
  8   5   9  1   
  9   5  25  1   
 10   5  26  1   
 11   6  10  1   
 12   6  27  1   
 13   6  28  1   
 14   7  11  1   
 15   7  12  ar  
 16   8  13  ar  
 17   8  29  1   
 18   9  10  1   
 19   9  14  1   
 20   9  30  1   
 21  10  15  1   
 22  10  31  1   
 23  11  16  1   
 24  12  17  ar  
 25  12  32  1   
 26  13  17  ar  
 27  13  33  1   
 28  14  34  1   
 29  15  18  1   
 30  15  35  1   
 31  15  36  1   
 32  16  19  1   
 33  16  37  1   
 34  16  38  1   
 35  17  39  1   
 36  18  20  2   
 37  18  21  1   
 38  19  40  1   
 39  19  41  1   
 40  19  42  1   
 41  20  22  1   
 42  21  23  2   
 43  21  43  1   
 44  22  23  1   
 45  22  44  1   
 46  23  24  1   
 47  24  45  1   
 48  24  46  1   
 49  24  47  1   
@<TRIPOS>SUBSTRUCTURE
  1 ****   3 GROUP 4 **** **** 0

# MOE 2024.06 (io_trps.svl 2023.06)
