@<TRIPOS>MOLECULE
NONAME
39 41 1 0 0 
SMALL
USER_CHARGES


@<TRIPOS>ATOM
  1 O        0.6650    -2.2720     1.9900 O.2   1 <1>  -0.5700 
  2 C       -0.4500    -2.0100     1.5490 C.2   1 <1>   0.6160 
  3 N       -1.0780    -2.8310     0.6180 N.am  1 <1>  -0.2980 
  4 C       -1.1530    -0.8500     1.9530 C.2   1 <1>  -0.1360 
  5 N       -2.3350    -2.5920     0.1160 N.2   1 <1>  -0.5120 
  6 C       -0.3930    -4.0700     0.1380 C.3   1 <1>   0.2010 
  7 C       -2.3870    -0.6000     1.4400 C.2   1 <1>  -0.1240 
  8 C       -2.9510    -1.5260     0.5190 C.2   1 <1>   0.3750 
  9 C        0.7220    -3.7940    -0.8660 C.2   1 <1>   0.5690 
 10 C       -3.1680     0.6500     1.8160 C.3   1 <1>   0.2580 
 11 C       -4.3500    -1.2840    -0.0150 C.3   1 <1>  -0.0990 
 12 O        0.6330    -4.2340    -1.9880 O.2   1 <1>  -0.5700 
 13 N        1.8120    -3.0860    -0.4750 N.am  1 <1>  -0.7300 
 14 O       -4.5260     0.4800     1.5560 O.3   1 <1>  -0.5600 
 15 C       -4.8170     0.1470     0.2370 C.3   1 <1>   0.1200 
 16 C        2.9740    -2.7740    -1.3180 C.3   1 <1>   0.2840 
 17 C        4.1990    -2.6670    -0.4280 C.ar  1 <1>  -0.1440 
 18 C        4.4330    -1.5130     0.3040 C.ar  1 <1>  -0.1500 
 19 C        5.0940    -3.7230    -0.3370 C.ar  1 <1>  -0.1500 
 20 C        5.5510    -1.4130     1.1140 C.ar  1 <1>  -0.1500 
 21 C        6.2130    -3.6240     0.4720 C.ar  1 <1>  -0.1500 
 22 C        6.4420    -2.4680     1.1980 C.ar  1 <1>  -0.1500 
 23 H       -0.6610    -0.2070     2.6570 H     1 <1>   0.1500 
 24 H       -1.1200    -4.7100    -0.3280 H     1 <1>   0.0800 
 25 H        0.0180    -4.5940     0.9800 H     1 <1>   0.0800 
 26 H       -2.8200     1.4990     1.2520 H     1 <1>   0.0800 
 27 H       -3.0620     0.8620     2.8660 H     1 <1>   0.0800 
 28 H       -5.0240    -1.9650     0.4720 H     1 <1>   0.0800 
 29 H       -4.3760    -1.4910    -1.0690 H     1 <1>   0.0800 
 30 H        1.8590    -2.7320     0.4920 H     1 <1>   0.3700 
 31 H       -5.8820     0.2260     0.1010 H     1 <1>   0.0800 
 32 H       -4.3250     0.8460    -0.4190 H     1 <1>   0.0800 
 33 H        2.8040    -1.8400    -1.8260 H     1 <1>   0.0800 
 34 H        3.1080    -3.5440    -2.0580 H     1 <1>   0.0800 
 35 H        3.7430    -0.6890     0.2490 H     1 <1>   0.1500 
 36 H        4.9200    -4.6270    -0.8940 H     1 <1>   0.1500 
 37 H        5.7260    -0.5150     1.6810 H     1 <1>   0.1500 
 38 H        6.9040    -4.4460     0.5380 H     1 <1>   0.1500 
 39 H        7.3110    -2.3910     1.8270 H     1 <1>   0.1500 
@<TRIPOS>BOND
  1   1   2  2   
  2   2   3  am  
  3   2   4  1   
  4   3   5  1   
  5   3   6  1   
  6   4   7  2   
  7   4  23  1   
  8   5   8  2   
  9   6   9  1   
 10   6  24  1   
 11   6  25  1   
 12   7   8  1   
 13   7  10  1   
 14   8  11  1   
 15   9  12  2   
 16   9  13  am  
 17  10  14  1   
 18  10  26  1   
 19  10  27  1   
 20  11  15  1   
 21  11  28  1   
 22  11  29  1   
 23  13  16  1   
 24  13  30  1   
 25  14  15  1   
 26  15  31  1   
 27  15  32  1   
 28  16  17  1   
 29  16  33  1   
 30  16  34  1   
 31  17  18  ar  
 32  17  19  ar  
 33  18  20  ar  
 34  18  35  1   
 35  19  21  ar  
 36  19  36  1   
 37  20  22  ar  
 38  20  37  1   
 39  21  22  ar  
 40  21  38  1   
 41  22  39  1   
@<TRIPOS>SUBSTRUCTURE
  1 ****   2 GROUP 4 **** **** 0

# MOE 2024.06 (io_trps.svl 2023.06)
