@<TRIPOS>MOLECULE
NONAME
48 51 1 0 0 
SMALL
USER_CHARGES


@<TRIPOS>ATOM
  1 O        1.0740    -0.1030    -1.6780 O.2   1 <1>  -0.5700 
  2 C        1.7840    -0.5360    -0.7840 C.2   1 <1>   0.5440 
  3 N        2.4580     0.3800     0.0130 N.am  1 <1>  -0.6600 
  4 C        1.8620    -1.9860    -0.5680 C.ar  1 <1>   0.3960 
  5 C        3.2850    -0.0350     1.1850 C.3   1 <1>   0.1400 
  6 C        2.3620     1.8450    -0.2570 C.3   1 <1>   0.1400 
  7 N        3.0580    -2.5930    -0.6900 N.ar  1 <1>  -0.6200 
  8 C        0.7050    -2.7110    -0.2310 C.ar  1 <1>  -0.1430 
  9 C        4.7650    -0.1870     0.8010 C.3   1 <1>   0.1100 
 10 C        3.6410     2.6260     0.0710 C.3   1 <1>  -0.1600 
 11 C        3.0990    -3.8970    -0.5030 C.ar  1 <1>   0.1600 
 12 C        0.7770    -4.0750    -0.0340 C.ar  1 <1>  -0.1500 
 13 C       -0.6510    -2.0280    -0.0730 C.3   1 <1>  -0.0960 
 14 N        5.4850     1.0970     0.6610 N.3   1 <1>  -0.8100 
 15 C        4.9260     1.9470    -0.4070 C.3   1 <1>   0.1100 
 16 C        2.0060    -4.6750    -0.1770 C.ar  1 <1>  -0.1500 
 17 C        6.9270     0.8340     0.4280 C.3   1 <1>   0.2900 
 18 C        7.8010     2.0810     0.5220 C.2   1 <1>   0.2980 
 19 O        7.8480     2.7340     1.6570 O.3   1 <1>  -0.0190 
 20 N        8.5150     2.5630    -0.4180 N.2   1 <1>  -0.5650 
 21 N        8.6620     3.7170     1.4200 N.2   1 <1>  -0.4100 
 22 C        9.0410     3.6050     0.2100 C.2   1 <1>   0.4300 
 23 C       10.0000     4.5430    -0.5070 C.3   1 <1>  -0.0140 
 24 C       11.4350     4.1560    -0.7000 C.3   1 <1>  -0.2000 
 25 C       11.0820     5.2780     0.2280 C.3   1 <1>  -0.2000 
 26 H        2.9290    -0.9790     1.5560 H     1 <1>   0.0800 
 27 H        3.1860     0.6770     1.9850 H     1 <1>   0.0800 
 28 H        1.5390     2.2490     0.3060 H     1 <1>   0.0800 
 29 H        2.1440     1.9940    -1.3010 H     1 <1>   0.0800 
 30 H        4.8420    -0.7540    -0.1110 H     1 <1>   0.0800 
 31 H        5.2380    -0.7560     1.5820 H     1 <1>   0.0800 
 32 H        3.7010     2.8290     1.1250 H     1 <1>   0.0800 
 33 H        3.5620     3.5780    -0.4210 H     1 <1>   0.0800 
 34 H        4.0560    -4.3770    -0.6140 H     1 <1>   0.1500 
 35 H       -0.0920    -4.6580     0.2200 H     1 <1>   0.1500 
 36 H       -0.5680    -1.1730     0.5750 H     1 <1>   0.0800 
 37 H       -1.3790    -2.6980     0.3470 H     1 <1>   0.0800 
 38 H       -1.0080    -1.6980    -1.0330 H     1 <1>   0.0800 
 39 H        5.6270     2.7280    -0.6490 H     1 <1>   0.0800 
 40 H        4.7500     1.3730    -1.3020 H     1 <1>   0.0800 
 41 H        2.1170    -5.7360    -0.0390 H     1 <1>   0.1500 
 42 H        7.0580     0.3890    -0.5430 H     1 <1>   0.0800 
 43 H        7.2830     0.1370     1.1650 H     1 <1>   0.0800 
 44 H        9.5150     5.0570    -1.3170 H     1 <1>   0.1000 
 45 H       11.9040     4.3810    -1.6420 H     1 <1>   0.1000 
 46 H       11.7730     3.2230    -0.2810 H     1 <1>   0.1000 
 47 H       11.1780     5.1250     1.2890 H     1 <1>   0.1000 
 48 H       11.3040     6.2890    -0.0650 H     1 <1>   0.1000 
@<TRIPOS>BOND
  1   1   2  2   
  2   2   3  am  
  3   2   4  1   
  4   3   5  1   
  5   3   6  1   
  6   4   7  ar  
  7   4   8  ar  
  8   5   9  1   
  9   5  26  1   
 10   5  27  1   
 11   6  10  1   
 12   6  28  1   
 13   6  29  1   
 14   7  11  ar  
 15   8  12  ar  
 16   8  13  1   
 17   9  14  1   
 18   9  30  1   
 19   9  31  1   
 20  10  15  1   
 21  10  32  1   
 22  10  33  1   
 23  11  16  ar  
 24  11  34  1   
 25  12  16  ar  
 26  12  35  1   
 27  13  36  1   
 28  13  37  1   
 29  13  38  1   
 30  14  15  1   
 31  14  17  1   
 32  15  39  1   
 33  15  40  1   
 34  16  41  1   
 35  17  18  1   
 36  17  42  1   
 37  17  43  1   
 38  18  19  1   
 39  18  20  2   
 40  19  21  1   
 41  20  22  1   
 42  21  22  2   
 43  22  23  1   
 44  23  24  1   
 45  23  25  1   
 46  23  44  1   
 47  24  25  1   
 48  24  45  1   
 49  24  46  1   
 50  25  47  1   
 51  25  48  1   
@<TRIPOS>SUBSTRUCTURE
  1 ****  14 GROUP 4 **** **** 0

# MOE 2024.06 (io_trps.svl 2023.06)
