@<TRIPOS>MOLECULE
NONAME
43 44 1 0 0 
SMALL
USER_CHARGES


@<TRIPOS>ATOM
  1 O       -0.4850    -0.0660     0.4330 O.2   1 <1>  -0.5700 
  2 C       -1.6790     0.0520     0.3080 C.2   1 <1>   0.5690 
  3 N       -2.3690     1.1920     0.0460 N.am  1 <1>  -0.6600 
  4 C       -2.6090    -1.1200     0.4570 C.3   1 <1>  -0.0990 
  5 C       -3.8210     0.9590    -0.0290 C.3   1 <1>   0.1400 
  6 C       -1.8730     2.5910    -0.1490 C.3   1 <1>   0.1400 
  7 C       -3.9750    -0.5700     0.0080 C.3   1 <1>  -0.0800 
  8 C       -0.3480     2.7280    -0.1730 C.3   1 <1>   0.1200 
  9 C       -5.1420    -1.0090     0.9010 C.3   1 <1>   0.1400 
 10 O       -0.0310     4.0660    -0.4060 O.3   1 <1>  -0.5600 
 11 N       -5.3200    -2.4800     0.8270 N.am  1 <1>  -0.7300 
 12 C        1.3380     4.3120    -0.4450 C.3   1 <1>   0.0400 
 13 C       -6.1470    -3.1100    -0.0640 C.2   1 <1>   0.5440 
 14 O       -6.7290    -2.4290    -0.8850 O.2   1 <1>  -0.5700 
 15 C       -6.3460    -4.5430    -0.0300 C.ar  1 <1>   0.0860 
 16 C       -5.3580    -5.4140     0.4280 C.ar  1 <1>   0.1600 
 17 C       -7.5350    -5.1240    -0.4550 C.ar  1 <1>  -0.1500 
 18 N       -5.4570    -6.7280     0.5180 N.ar  1 <1>  -0.6200 
 19 C       -7.6610    -6.4920    -0.3790 C.ar  1 <1>  -0.1500 
 20 C       -6.6040    -7.2550     0.1160 C.ar  1 <1>   0.3930 
 21 O       -6.6660    -8.5950     0.2220 O.3   1 <1>  -0.3620 
 22 C       -7.7880    -9.3540    -0.1700 C.3   1 <1>   0.0400 
 23 H       -2.6130    -1.4220     1.4870 H     1 <1>   0.0800 
 24 H       -2.2880    -1.9360    -0.1640 H     1 <1>   0.0800 
 25 H       -4.2240     1.3640    -0.9420 H     1 <1>   0.0800 
 26 H       -4.2980     1.4250     0.8160 H     1 <1>   0.0800 
 27 H       -2.2570     3.2050     0.6470 H     1 <1>   0.0800 
 28 H       -2.2570     2.9620    -1.0830 H     1 <1>   0.0800 
 29 H       -4.1730    -0.8950    -1.0000 H     1 <1>   0.0800 
 30 H        0.0670     2.1310    -0.9670 H     1 <1>   0.0800 
 31 H        0.0690     2.4350     0.7750 H     1 <1>   0.0800 
 32 H       -6.0470    -0.5260     0.5710 H     1 <1>   0.0800 
 33 H       -4.9630    -0.7200     1.9220 H     1 <1>   0.0800 
 34 H       -4.8830    -3.0140     1.5810 H     1 <1>   0.3700 
 35 H        1.4850     5.3610    -0.6280 H     1 <1>   0.0800 
 36 H        1.7790     3.7380    -1.2420 H     1 <1>   0.0800 
 37 H        1.7740     4.0420     0.5020 H     1 <1>   0.0800 
 38 H       -4.4180    -4.9940     0.7370 H     1 <1>   0.1500 
 39 H       -8.3330    -4.5070    -0.8340 H     1 <1>   0.1500 
 40 H       -8.5750    -6.9520    -0.7020 H     1 <1>   0.1500 
 41 H       -7.5690   -10.3900     0.0150 H     1 <1>   0.0800 
 42 H       -7.9640    -9.2000    -1.2200 H     1 <1>   0.0800 
 43 H       -8.6380    -9.0510     0.4140 H     1 <1>   0.0800 
@<TRIPOS>BOND
  1   1   2  2   
  2   2   3  am  
  3   2   4  1   
  4   3   5  1   
  5   3   6  1   
  6   4   7  1   
  7   4  23  1   
  8   4  24  1   
  9   5   7  1   
 10   5  25  1   
 11   5  26  1   
 12   6   8  1   
 13   6  27  1   
 14   6  28  1   
 15   7   9  1   
 16   7  29  1   
 17   8  10  1   
 18   8  30  1   
 19   8  31  1   
 20   9  11  1   
 21   9  32  1   
 22   9  33  1   
 23  10  12  1   
 24  11  13  am  
 25  11  34  1   
 26  12  35  1   
 27  12  36  1   
 28  12  37  1   
 29  13  14  2   
 30  13  15  1   
 31  15  16  ar  
 32  15  17  ar  
 33  16  18  ar  
 34  16  38  1   
 35  17  19  ar  
 36  17  39  1   
 37  18  20  ar  
 38  19  20  ar  
 39  19  40  1   
 40  20  21  1   
 41  21  22  1   
 42  22  41  1   
 43  22  42  1   
 44  22  43  1   
@<TRIPOS>SUBSTRUCTURE
  1 ****  11 GROUP 4 **** **** 0

# MOE 2024.06 (io_trps.svl 2023.06)
