@<TRIPOS>MOLECULE
NONAME
48 50 1 0 0 
SMALL
USER_CHARGES


@<TRIPOS>ATOM
  1 S        0.0130     0.7380    -0.0460 S.3   1 <1>  -0.4600 
  2 C        0.3870     2.4860    -0.3410 C.3   1 <1>   0.0700 
  3 C       -1.3460     0.3980    -1.1960 C.3   1 <1>  -0.0100 
  4 C        1.5010     2.9130     0.6280 C.3   1 <1>  -0.0800 
  5 C        1.7160     4.4340     0.5720 C.3   1 <1>  -0.1600 
  6 C        2.8310     2.1950     0.3320 C.3   1 <1>  -0.1600 
  7 C        2.8490     4.8770     1.4980 C.3   1 <1>   0.3430 
  8 C        3.9460     2.6680     1.2630 C.3   1 <1>   0.3430 
  9 N        4.1040     4.1450     1.1480 N.4   1 <1>  -0.9590 
 10 C        5.2650     4.6280     1.9400 C.3   1 <1>   0.5240 
 11 C        5.5110     6.0730     1.5710 C.2   1 <1>  -0.1810 
 12 C        5.2570     7.1680     2.3870 C.2   1 <1>   0.1390 
 13 C        5.9870     6.6080     0.4250 C.2   1 <1>  -0.3020 
 14 N        5.5310     8.2830     1.7960 N.2   1 <1>  -0.7070 
 15 N        6.0080     7.9590     0.5660 N.pl3 1 <1>   0.5930 
 16 C        6.4060     8.9150    -0.4120 C.ar  1 <1>  -0.0230 
 17 C        7.4380     8.6430    -1.3080 C.ar  1 <1>  -0.1500 
 18 C        5.7660    10.1480    -0.4990 C.ar  1 <1>  -0.1500 
 19 C        7.8040     9.5690    -2.2690 C.ar  1 <1>  -0.1500 
 20 C        6.1330    11.0730    -1.4590 C.ar  1 <1>  -0.1500 
 21 C        7.1520    10.7870    -2.3530 C.ar  1 <1>  -0.1440 
 22 C        7.5540    11.8030    -3.4050 C.3   1 <1>  -0.0970 
 23 H       -0.5230     3.0320    -0.1620 H     1 <1>   0.0800 
 24 H        0.6810     2.5870    -1.3710 H     1 <1>   0.0800 
 25 H       -1.6230    -0.6350    -1.0780 H     1 <1>   0.0800 
 26 H       -0.9960     0.5860    -2.1950 H     1 <1>   0.0800 
 27 H       -2.1680     1.0440    -0.9440 H     1 <1>   0.0800 
 28 H        1.1810     2.6540     1.6250 H     1 <1>   0.0800 
 29 H        0.8110     4.9340     0.8730 H     1 <1>   0.0800 
 30 H        1.9360     4.7450    -0.4340 H     1 <1>   0.0800 
 31 H        3.1230     2.3530    -0.6910 H     1 <1>   0.0800 
 32 H        2.7120     1.1340     0.4690 H     1 <1>   0.0800 
 33 H        2.5780     4.6710     2.5210 H     1 <1>   0.0800 
 34 H        2.9960     5.9410     1.3930 H     1 <1>   0.0800 
 35 H        4.8660     2.1710     0.9960 H     1 <1>   0.0800 
 36 H        3.6980     2.4020     2.2780 H     1 <1>   0.0800 
 37 H        4.3130     4.3700     0.1680 H     1 <1>   0.4500 
 38 H        6.1430     4.0480     1.7030 H     1 <1>   0.0800 
 39 H        5.0660     4.5390     2.9960 H     1 <1>   0.0800 
 40 H        4.8730     7.1250     3.3940 H     1 <1>   0.1500 
 41 H        6.3110     6.1360    -0.4840 H     1 <1>   0.1500 
 42 H        7.9680     7.7090    -1.2600 H     1 <1>   0.1500 
 43 H        4.9760    10.3880     0.1920 H     1 <1>   0.1500 
 44 H        8.6040     9.3400    -2.9520 H     1 <1>   0.1500 
 45 H        5.6230    12.0190    -1.5060 H     1 <1>   0.1500 
 46 H        7.9430    11.3090    -4.2780 H     1 <1>   0.0800 
 47 H        8.3110    12.4560    -3.0090 H     1 <1>   0.0800 
 48 H        6.7060    12.3940    -3.7010 H     1 <1>   0.0800 
@<TRIPOS>BOND
  1   1   2  1   
  2   1   3  1   
  3   2   4  1   
  4   2  23  1   
  5   2  24  1   
  6   3  25  1   
  7   3  26  1   
  8   3  27  1   
  9   4   5  1   
 10   4   6  1   
 11   4  28  1   
 12   5   7  1   
 13   5  29  1   
 14   5  30  1   
 15   6   8  1   
 16   6  31  1   
 17   6  32  1   
 18   7   9  1   
 19   7  33  1   
 20   7  34  1   
 21   8   9  1   
 22   8  35  1   
 23   8  36  1   
 24   9  10  1   
 25   9  37  1   
 26  10  11  1   
 27  10  38  1   
 28  10  39  1   
 29  11  12  1   
 30  11  13  2   
 31  12  14  2   
 32  12  40  1   
 33  13  15  1   
 34  13  41  1   
 35  14  15  1   
 36  15  16  1   
 37  16  17  ar  
 38  16  18  ar  
 39  17  19  ar  
 40  17  42  1   
 41  18  20  ar  
 42  18  43  1   
 43  19  21  ar  
 44  19  44  1   
 45  20  21  ar  
 46  20  45  1   
 47  21  22  1   
 48  22  46  1   
 49  22  47  1   
 50  22  48  1   
@<TRIPOS>SUBSTRUCTURE
  1 ****  13 GROUP 4 **** **** 0

# MOE 2024.06 (io_trps.svl 2023.06)
