@<TRIPOS>MOLECULE
NONAME
46 47 1 0 0 
SMALL
USER_CHARGES


@<TRIPOS>ATOM
  1 O        0.0770    -0.5340     0.2500 O.2   1 <1>  -0.5700 
  2 C        1.0960    -1.0850    -0.1150 C.2   1 <1>   0.5440 
  3 N        2.1730    -0.3160    -0.4610 N.am  1 <1>  -0.7300 
  4 C        1.1600    -2.5330    -0.1980 C.ar  1 <1>   0.0860 
  5 C        2.2220     1.1570    -0.3860 C.3   1 <1>   0.1400 
  6 C        0.0300    -3.3080    -0.3860 C.ar  1 <1>  -0.1500 
  7 C        2.3460    -3.2510    -0.0940 C.ar  1 <1>  -0.1500 
  8 C        3.6220     1.5750     0.0460 C.3   1 <1>  -0.2400 
  9 C        0.1110    -4.6900    -0.4690 C.ar  1 <1>   0.4100 
 10 C        2.3330    -4.6280    -0.1900 C.ar  1 <1>   0.1600 
 11 N        1.2510    -5.3600    -0.3770 N.ar  1 <1>  -0.6200 
 12 N       -1.0380    -5.4180    -0.6630 N.pl3 1 <1>  -0.8690 
 13 C       -1.1150    -6.8720    -0.3690 C.3   1 <1>   0.2090 
 14 C       -2.5560    -7.3240    -0.0310 C.3   1 <1>   0.0000 
 15 C       -3.5470    -6.9310    -1.1540 C.3   1 <1>  -0.1600 
 16 C       -3.0760    -6.6160     1.2450 C.3   1 <1>  -0.1600 
 17 C       -2.5110    -8.8580     0.1600 C.3   1 <1>   0.1200 
 18 C       -4.3900    -5.7810    -0.6050 C.3   1 <1>  -0.1600 
 19 C       -4.4500    -6.0460     0.8940 C.3   1 <1>  -0.1600 
 20 O       -3.7590    -9.3540     0.5410 O.3   1 <1>  -0.5600 
 21 C       -3.7900   -10.7310     0.7270 C.3   1 <1>   0.0400 
 22 H        2.9740    -0.7540    -0.9140 H     1 <1>   0.3700 
 23 H        1.4940     1.5140     0.3250 H     1 <1>   0.0800 
 24 H        1.9870     1.5710    -1.3520 H     1 <1>   0.0800 
 25 H       -0.9290    -2.8330    -0.4710 H     1 <1>   0.1500 
 26 H        3.2750    -2.7400     0.0710 H     1 <1>   0.1500 
 27 H        3.8500     1.1610     1.0120 H     1 <1>   0.0800 
 28 H        3.6690     2.6470     0.1170 H     1 <1>   0.0800 
 29 H        4.3530     1.2490    -0.6710 H     1 <1>   0.0800 
 30 H        3.2650    -5.1620    -0.1070 H     1 <1>   0.1500 
 31 H       -1.9190    -4.9390    -0.4690 H     1 <1>   0.4000 
 32 H       -0.4660    -7.1030     0.4600 H     1 <1>   0.0800 
 33 H       -0.7550    -7.4080    -1.2300 H     1 <1>   0.0800 
 34 H       -4.2070    -7.7530    -1.3730 H     1 <1>   0.0800 
 35 H       -3.0520    -6.6530    -2.0690 H     1 <1>   0.0800 
 36 H       -2.4270    -5.8080     1.5320 H     1 <1>   0.0800 
 37 H       -3.1510    -7.2890     2.0820 H     1 <1>   0.0800 
 38 H       -1.8020    -9.1130     0.9290 H     1 <1>   0.0800 
 39 H       -2.2240    -9.3360    -0.7620 H     1 <1>   0.0800 
 40 H       -5.3710    -5.7570    -1.0470 H     1 <1>   0.0800 
 41 H       -3.8980    -4.8430    -0.7900 H     1 <1>   0.0800 
 42 H       -4.6800    -5.1580     1.4570 H     1 <1>   0.0800 
 43 H       -5.2000    -6.7950     1.0890 H     1 <1>   0.0800 
 44 H       -4.7880   -11.0060     1.0160 H     1 <1>   0.0800 
 45 H       -3.0990   -11.0000     1.5070 H     1 <1>   0.0800 
 46 H       -3.5310   -11.2200    -0.1970 H     1 <1>   0.0800 
@<TRIPOS>BOND
  1   1   2  2   
  2   2   3  am  
  3   2   4  1   
  4   3   5  1   
  5   3  22  1   
  6   4   6  ar  
  7   4   7  ar  
  8   5   8  1   
  9   5  23  1   
 10   5  24  1   
 11   6   9  ar  
 12   6  25  1   
 13   7  10  ar  
 14   7  26  1   
 15   8  27  1   
 16   8  28  1   
 17   8  29  1   
 18   9  11  ar  
 19   9  12  1   
 20  10  11  ar  
 21  10  30  1   
 22  12  13  1   
 23  12  31  1   
 24  13  14  1   
 25  13  32  1   
 26  13  33  1   
 27  14  15  1   
 28  14  16  1   
 29  14  17  1   
 30  15  18  1   
 31  15  34  1   
 32  15  35  1   
 33  16  19  1   
 34  16  36  1   
 35  16  37  1   
 36  17  20  1   
 37  17  38  1   
 38  17  39  1   
 39  18  19  1   
 40  18  40  1   
 41  18  41  1   
 42  19  42  1   
 43  19  43  1   
 44  20  21  1   
 45  21  44  1   
 46  21  45  1   
 47  21  46  1   
@<TRIPOS>SUBSTRUCTURE
  1 ****   9 GROUP 4 **** **** 0

# MOE 2024.06 (io_trps.svl 2023.06)
