@<TRIPOS>MOLECULE
NONAME
51 53 1 0 0 
SMALL
USER_CHARGES


@<TRIPOS>ATOM
  1 S       -0.1080     0.3240    -0.8520 S.o2  1 <1>   1.3330 
  2 O       -0.7830    -0.9070    -1.1920 O.2   1 <1>  -0.6500 
  3 O        0.2760     1.2500    -1.8920 O.2   1 <1>  -0.6500 
  4 N        1.3080    -0.1060    -0.0120 N.am  1 <1>  -0.8490 
  5 C       -1.0780     1.2020     0.3840 C.3   1 <1>  -0.0550 
  6 C        2.4110    -0.3860    -0.9400 C.3   1 <1>   0.1160 
  7 C        1.1270    -1.2690     0.8690 C.3   1 <1>   0.1160 
  8 C       -0.6700     2.6570     0.7130 C.3   1 <1>  -0.0800 
  9 C       -1.0890     3.6740    -0.3390 C.3   1 <1>   0.2000 
 10 C        0.8200     2.9470     0.9020 C.3   1 <1>   0.2090 
 11 O       -2.4540     3.9130    -0.2420 O.3   1 <1>  -0.6800 
 12 C       -0.2640     4.9170    -0.0010 C.3   1 <1>   0.2090 
 13 N        0.9840     4.4160     0.6680 N.pl3 1 <1>  -0.8380 
 14 C        2.1770     5.0790     0.7100 C.ar  1 <1>   0.1000 
 15 C        2.3180     6.5100     0.6250 C.ar  1 <1>   0.0000 
 16 C        3.3650     4.3440     0.7740 C.ar  1 <1>  -0.1500 
 17 C        3.5770     7.0680     0.3100 C.ar  1 <1>   0.3610 
 18 C        1.2890     7.4280     0.8940 C.ar  1 <1>  -0.1500 
 19 C        4.5850     4.9240     0.5650 C.ar  1 <1>   0.2110 
 20 N        4.6730     6.2370     0.3010 N.ar  1 <1>  -0.1790 
 21 C        3.7340     8.4510     0.0730 C.ar  1 <1>  -0.1440 
 22 C        1.4520     8.7740     0.7130 C.ar  1 <1>  -0.1500 
 23 C        2.6670     9.3020     0.2790 C.ar  1 <1>  -0.1440 
 24 C        5.0920     8.9920    -0.3970 C.3   1 <1>  -0.0970 
 25 C        2.7380    10.8130     0.0800 C.3   1 <1>  -0.0970 
 26 H       -2.0990     1.2210     0.0520 H     1 <1>   0.0800 
 27 H       -1.0660     0.6340     1.2920 H     1 <1>   0.0800 
 28 H        3.2990    -0.6570    -0.3960 H     1 <1>   0.0800 
 29 H        2.6300     0.4880    -1.5300 H     1 <1>   0.0800 
 30 H        2.1450    -1.1910    -1.6050 H     1 <1>   0.0800 
 31 H        2.0310    -1.4590     1.4210 H     1 <1>   0.0800 
 32 H        0.8810    -2.1460     0.2920 H     1 <1>   0.0800 
 33 H        0.3340    -1.0880     1.5730 H     1 <1>   0.0800 
 34 H       -1.1470     2.9250     1.6390 H     1 <1>   0.0800 
 35 H       -0.8690     3.3490    -1.3400 H     1 <1>   0.0800 
 36 H        1.4070     2.4270     0.1670 H     1 <1>   0.0800 
 37 H        1.1490     2.6740     1.8900 H     1 <1>   0.0800 
 38 H       -2.6900     4.2370     0.6480 H     1 <1>   0.4000 
 39 H       -0.8260     5.5190     0.6870 H     1 <1>   0.0800 
 40 H       -0.0280     5.4750    -0.8910 H     1 <1>   0.0800 
 41 H        3.3330     3.2870     0.9600 H     1 <1>   0.1500 
 42 H        0.3510     7.0780     1.2720 H     1 <1>   0.1500 
 43 H        5.4880     4.3340     0.5970 H     1 <1>   0.1500 
 44 H        5.5770     6.6790     0.1260 H     1 <1>   0.4570 
 45 H        0.6250     9.4370     0.9140 H     1 <1>   0.1500 
 46 H        5.0140     9.9840    -0.8030 H     1 <1>   0.0800 
 47 H        5.5000     8.3800    -1.1810 H     1 <1>   0.0800 
 48 H        5.7840     9.0320     0.4260 H     1 <1>   0.0800 
 49 H        1.8460    11.2970     0.4360 H     1 <1>   0.0800 
 50 H        2.8470    11.0450    -0.9650 H     1 <1>   0.0800 
 51 H        3.5700    11.2260     0.6220 H     1 <1>   0.0800 
@<TRIPOS>BOND
  1   1   2  2   
  2   1   3  2   
  3   1   4  am  
  4   1   5  1   
  5   4   6  1   
  6   4   7  1   
  7   5   8  1   
  8   5  26  1   
  9   5  27  1   
 10   6  28  1   
 11   6  29  1   
 12   6  30  1   
 13   7  31  1   
 14   7  32  1   
 15   7  33  1   
 16   8   9  1   
 17   8  10  1   
 18   8  34  1   
 19   9  11  1   
 20   9  12  1   
 21   9  35  1   
 22  10  13  1   
 23  10  36  1   
 24  10  37  1   
 25  11  38  1   
 26  12  13  1   
 27  12  39  1   
 28  12  40  1   
 29  13  14  1   
 30  14  15  ar  
 31  14  16  ar  
 32  15  17  ar  
 33  15  18  ar  
 34  16  19  ar  
 35  16  41  1   
 36  17  20  ar  
 37  17  21  ar  
 38  18  22  ar  
 39  18  42  1   
 40  19  20  ar  
 41  19  43  1   
 42  20  44  1   
 43  21  23  ar  
 44  21  24  1   
 45  22  23  ar  
 46  22  45  1   
 47  23  25  1   
 48  24  46  1   
 49  24  47  1   
 50  24  48  1   
 51  25  49  1   
 52  25  50  1   
 53  25  51  1   
@<TRIPOS>SUBSTRUCTURE
  1 ****  13 GROUP 4 **** **** 0

# MOE 2024.06 (io_trps.svl 2023.06)
