@<TRIPOS>MOLECULE
NONAME
41 42 1 0 0 
SMALL
USER_CHARGES


@<TRIPOS>ATOM
  1 BR      -0.7310    -0.7600    -2.1170 Br    1 <1>  -0.1110 
  2 C       -1.7610    -0.8880    -0.4840 C.ar  1 <1>   0.1110 
  3 C       -2.4940     0.2050    -0.0290 C.ar  1 <1>   0.1000 
  4 C       -1.7430    -2.1000     0.1850 C.ar  1 <1>   0.1600 
  5 N       -2.5170     1.4440    -0.6900 N.pl3 1 <1>  -0.8380 
  6 C       -3.1910    -0.0820     1.1440 C.ar  1 <1>   0.1900 
  7 N       -2.4120    -2.3490     1.3070 N.ar  1 <1>  -0.6200 
  8 C       -3.7960     2.0800    -1.1050 C.3   1 <1>   0.2090 
  9 C       -1.2830     2.2590    -0.8190 C.3   1 <1>   0.2090 
 10 F       -3.9340     0.8410     1.7100 F     1 <1>  -0.1900 
 11 C       -3.1260    -1.3210     1.7580 C.ar  1 <1>   0.1600 
 12 C       -3.9640     3.4320    -0.4080 C.3   1 <1>  -0.1600 
 13 C       -1.4700     3.5950    -0.0990 C.3   1 <1>  -0.1600 
 14 C       -2.7270     4.3350    -0.5930 C.3   1 <1>  -0.0190 
 15 C       -2.8710     5.6940     0.0910 C.2   1 <1>   0.6590 
 16 O       -3.7770     5.9410     0.8450 O.2   1 <1>  -0.5700 
 17 O       -1.9240     6.5730    -0.2220 O.3   1 <1>  -0.4300 
 18 C       -1.7820     7.8950     0.2490 C.3   1 <1>   0.2800 
 19 C       -1.5810     7.8910     1.7680 C.3   1 <1>  -0.2400 
 20 C       -0.5230     8.4330    -0.4300 C.3   1 <1>  -0.2400 
 21 C       -2.9910     8.7350    -0.1760 C.3   1 <1>  -0.2400 
 22 H       -1.1540    -2.9030    -0.2240 H     1 <1>   0.1500 
 23 H       -4.6240     1.4350    -0.8600 H     1 <1>   0.0800 
 24 H       -3.7840     2.2170    -2.1720 H     1 <1>   0.0800 
 25 H       -1.0800     2.4260    -1.8630 H     1 <1>   0.0800 
 26 H       -0.4480     1.7310    -0.3910 H     1 <1>   0.0800 
 27 H       -3.6870    -1.4710     2.6640 H     1 <1>   0.1500 
 28 H       -4.1330     3.2620     0.6410 H     1 <1>   0.0800 
 29 H       -4.8360     3.9240    -0.8000 H     1 <1>   0.0800 
 30 H       -0.5980     4.2020    -0.2620 H     1 <1>   0.0800 
 31 H       -1.5500     3.4110     0.9590 H     1 <1>   0.0800 
 32 H       -2.6130     4.5300    -1.6450 H     1 <1>   0.0800 
 33 H       -0.7690     7.2400     2.0380 H     1 <1>   0.0800 
 34 H       -2.4730     7.5720     2.2760 H     1 <1>   0.0800 
 35 H       -1.3510     8.8830     2.1100 H     1 <1>   0.0800 
 36 H        0.3300     7.8370    -0.1610 H     1 <1>   0.0800 
 37 H       -0.3380     9.4470    -0.1240 H     1 <1>   0.0800 
 38 H       -0.6390     8.4180    -1.4990 H     1 <1>   0.0800 
 39 H       -3.8820     8.4160     0.3330 H     1 <1>   0.0800 
 40 H       -3.1440     8.6620    -1.2380 H     1 <1>   0.0800 
 41 H       -2.8260     9.7670     0.0740 H     1 <1>   0.0800 
@<TRIPOS>BOND
  1   1   2  1   
  2   2   3  ar  
  3   2   4  ar  
  4   3   5  1   
  5   3   6  ar  
  6   4   7  ar  
  7   4  22  1   
  8   5   8  1   
  9   5   9  1   
 10   6  10  1   
 11   6  11  ar  
 12   7  11  ar  
 13   8  12  1   
 14   8  23  1   
 15   8  24  1   
 16   9  13  1   
 17   9  25  1   
 18   9  26  1   
 19  11  27  1   
 20  12  14  1   
 21  12  28  1   
 22  12  29  1   
 23  13  14  1   
 24  13  30  1   
 25  13  31  1   
 26  14  15  1   
 27  14  32  1   
 28  15  16  2   
 29  15  17  1   
 30  17  18  1   
 31  18  19  1   
 32  18  20  1   
 33  18  21  1   
 34  19  33  1   
 35  19  34  1   
 36  19  35  1   
 37  20  36  1   
 38  20  37  1   
 39  20  38  1   
 40  21  39  1   
 41  21  40  1   
 42  21  41  1   
@<TRIPOS>SUBSTRUCTURE
  1 ****  13 GROUP 4 **** **** 0

# MOE 2024.06 (io_trps.svl 2023.06)
