@<TRIPOS>MOLECULE
NONAME
52 54 1 0 0 
SMALL
USER_CHARGES


@<TRIPOS>ATOM
  1 S        0.1080    -0.1890    -2.0400 S.o2  1 <1>   1.4470 
  2 O        0.7690    -1.3110    -2.6700 O.2   1 <1>  -0.6500 
  3 O       -0.6630     0.7270    -2.8560 O.2   1 <1>  -0.6500 
  4 N       -0.9330    -0.8050    -0.8550 N.am  1 <1>  -0.8490 
  5 C        1.3310     0.7360    -1.0690 C.ar  1 <1>  -0.0090 
  6 C       -1.7640    -1.9070    -1.3820 C.3   1 <1>   0.1960 
  7 C       -1.7630     0.2400    -0.2420 C.3   1 <1>   0.1960 
  8 C        1.7560     1.9890    -1.4360 C.ar  1 <1>  -0.1500 
  9 C        1.8820     0.1720     0.0960 C.ar  1 <1>  -0.1500 
 10 C       -2.6620    -2.5160    -0.2910 C.3   1 <1>   0.2000 
 11 C       -2.6040    -0.3480     0.8940 C.3   1 <1>  -0.1600 
 12 C        2.7040     2.7160    -0.6900 C.ar  1 <1>   0.0000 
 13 C        2.8050     0.8480     0.8440 C.ar  1 <1>  -0.1500 
 14 O       -3.4430    -3.5160    -0.8460 O.3   1 <1>  -0.6800 
 15 C       -3.5620    -1.4740     0.4170 C.3   1 <1>  -0.1060 
 16 C        3.2420     2.1360     0.4780 C.ar  1 <1>   0.0000 
 17 C        3.1360     4.0040    -1.0660 C.ar  1 <1>  -0.1500 
 18 C       -4.2200    -2.1860     1.6130 C.2   1 <1>   0.9060 
 19 C       -4.6670    -0.9190    -0.5420 C.3   1 <1>  -0.1600 
 20 C        4.1890     2.8610     1.2280 C.ar  1 <1>  -0.1500 
 21 C        4.0550     4.6870    -0.3200 C.ar  1 <1>  -0.1500 
 22 O       -4.1890    -1.6670     2.7350 O.co2 1 <1>  -0.9000 
 23 O       -4.7660    -3.2850     1.4210 O.co2 1 <1>  -0.9000 
 24 C       -5.5670     0.1680     0.0690 C.3   1 <1>  -0.1600 
 25 C        4.5930     4.1170     0.8410 C.ar  1 <1>   0.0830 
 26 C       -6.6990     0.5450    -0.8910 C.3   1 <1>  -0.2400 
 27 O        5.4960     4.8740     1.5090 O.3   1 <1>  -0.3630 
 28 C        6.1150     4.4110     2.6890 C.3   1 <1>   0.0400 
 29 H       -2.3720    -1.5470    -2.1930 H     1 <1>   0.0800 
 30 H       -1.1250    -2.6870    -1.7580 H     1 <1>   0.0800 
 31 H       -1.1300     1.0110     0.1640 H     1 <1>   0.0800 
 32 H       -2.4040     0.6910    -0.9820 H     1 <1>   0.0800 
 33 H        1.3570     2.4450    -2.3250 H     1 <1>   0.1500 
 34 H        1.5560    -0.8130     0.3880 H     1 <1>   0.1500 
 35 H       -2.0320    -2.9890     0.4430 H     1 <1>   0.0800 
 36 H       -1.9350    -0.7470     1.6370 H     1 <1>   0.0800 
 37 H       -3.1570     0.4320     1.3820 H     1 <1>   0.0800 
 38 H        3.2140     0.4010     1.7330 H     1 <1>   0.1500 
 39 H       -4.1080    -3.7440    -0.1310 H     1 <1>   0.4000 
 40 H        2.7270     4.4450    -1.9570 H     1 <1>   0.1500 
 41 H       -4.2290    -0.5370    -1.4450 H     1 <1>   0.0800 
 42 H       -5.3010    -1.7410    -0.8280 H     1 <1>   0.0800 
 43 H        4.5810     2.3950     2.1100 H     1 <1>   0.1500 
 44 H        4.3870     5.6690    -0.6030 H     1 <1>   0.1500 
 45 H       -5.9920    -0.1910     0.9920 H     1 <1>   0.0800 
 46 H       -4.9940     1.0510     0.2890 H     1 <1>   0.0800 
 47 H       -7.3100    -0.3160    -1.0980 H     1 <1>   0.0800 
 48 H       -6.2990     0.9200    -1.8160 H     1 <1>   0.0800 
 49 H       -7.3170     1.3050    -0.4470 H     1 <1>   0.0800 
 50 H        6.7880     5.1750     3.0340 H     1 <1>   0.0800 
 51 H        6.6650     3.5140     2.4660 H     1 <1>   0.0800 
 52 H        5.3590     4.2270     3.4310 H     1 <1>   0.0800 
@<TRIPOS>BOND
  1   1   2  2   
  2   1   3  2   
  3   1   4  am  
  4   1   5  1   
  5   4   6  1   
  6   4   7  1   
  7   5   8  ar  
  8   5   9  ar  
  9   6  10  1   
 10   6  29  1   
 11   6  30  1   
 12   7  11  1   
 13   7  31  1   
 14   7  32  1   
 15   8  12  ar  
 16   8  33  1   
 17   9  13  ar  
 18   9  34  1   
 19  10  14  1   
 20  10  15  1   
 21  10  35  1   
 22  11  15  1   
 23  11  36  1   
 24  11  37  1   
 25  12  16  ar  
 26  12  17  ar  
 27  13  16  ar  
 28  13  38  1   
 29  14  39  1   
 30  15  18  1   
 31  15  19  1   
 32  16  20  ar  
 33  17  21  ar  
 34  17  40  1   
 35  18  22  ar  
 36  18  23  ar  
 37  19  24  1   
 38  19  41  1   
 39  19  42  1   
 40  20  25  ar  
 41  20  43  1   
 42  21  25  ar  
 43  21  44  1   
 44  24  26  1   
 45  24  45  1   
 46  24  46  1   
 47  25  27  1   
 48  26  47  1   
 49  26  48  1   
 50  26  49  1   
 51  27  28  1   
 52  28  50  1   
 53  28  51  1   
 54  28  52  1   
@<TRIPOS>SUBSTRUCTURE
  1 ****   7 GROUP 4 **** **** 0

# MOE 2024.06 (io_trps.svl 2023.06)
