@<TRIPOS>MOLECULE
NONAME
54 57 1 0 0 
SMALL
USER_CHARGES


@<TRIPOS>ATOM
  1 O        0.8100    -4.7790    -0.5320 O.3   1 <1>  -0.6800 
  2 C       -0.3480    -5.2760     0.0440 C.3   1 <1>   0.2000 
  3 C       -1.5160    -5.1640    -0.9510 C.3   1 <1>   0.2090 
  4 C       -0.6230    -4.4620     1.3120 C.3   1 <1>  -0.1600 
  5 N       -2.8020    -5.5810    -0.2990 N.pl3 1 <1>  -0.8380 
  6 C       -1.9820    -4.8490     1.9210 C.3   1 <1>  -0.1600 
  7 C       -3.6600    -6.5120    -0.7950 C.ar  1 <1>   0.4100 
  8 C       -3.1240    -4.7470     0.9020 C.3   1 <1>   0.2090 
  9 N       -4.9470    -6.3710    -0.5230 N.ar  1 <1>  -0.6200 
 10 C       -3.1930    -7.5970    -1.5660 C.ar  1 <1>  -0.1500 
 11 C       -5.7860    -7.2500    -1.0300 C.ar  1 <1>   0.7710 
 12 C       -4.0820    -8.4880    -2.0650 C.ar  1 <1>   0.2110 
 13 N       -5.3880    -8.2780    -1.7940 N.ar  1 <1>  -0.1790 
 14 N       -7.0790    -7.0740    -0.7240 N.pl3 1 <1>  -0.8690 
 15 C       -8.3190    -7.7290    -1.2390 C.3   1 <1>   0.2090 
 16 C       -8.6440    -9.0220    -0.4770 C.3   1 <1>   0.0200 
 17 C       -7.5820   -10.0810    -0.7170 C.2   1 <1>   0.0060 
 18 N       -6.9320   -10.7120     0.2950 N.pl3 1 <1>   0.0330 
 19 N       -7.1860   -10.4370    -1.8910 N.2   1 <1>  -0.5650 
 20 C       -6.0160   -11.5210    -0.2960 C.ar  1 <1>  -0.1520 
 21 C       -6.2160   -11.3650    -1.6530 C.ar  1 <1>   0.2270 
 22 C       -5.0220   -12.3660     0.2080 C.ar  1 <1>  -0.1430 
 23 C       -5.4360   -12.0750    -2.5600 C.ar  1 <1>  -0.1500 
 24 C       -4.2300   -13.0480    -0.7000 C.ar  1 <1>  -0.1430 
 25 C       -4.8550   -12.4990     1.7170 C.3   1 <1>  -0.0970 
 26 C       -4.4500   -12.9040    -2.0790 C.ar  1 <1>  -0.1500 
 27 C       -3.1100   -13.9810    -0.2570 C.3   1 <1>  -0.0970 
 28 H        1.1670    -5.3960    -1.1990 H     1 <1>   0.4000 
 29 H       -0.1780    -6.3080     0.2980 H     1 <1>   0.0800 
 30 H       -1.3140    -5.7530    -1.8250 H     1 <1>   0.0800 
 31 H       -1.6110    -4.1360    -1.2590 H     1 <1>   0.0800 
 32 H       -0.6350    -3.4140     1.0660 H     1 <1>   0.0800 
 33 H        0.1590    -4.6360     2.0310 H     1 <1>   0.0800 
 34 H       -2.1960    -4.2050     2.7550 H     1 <1>   0.0800 
 35 H       -1.9400    -5.8580     2.2900 H     1 <1>   0.0800 
 36 H       -4.0370    -5.0740     1.3680 H     1 <1>   0.0800 
 37 H       -3.2550    -3.7220     0.5960 H     1 <1>   0.0800 
 38 H       -2.1400    -7.7160    -1.7290 H     1 <1>   0.1500 
 39 H       -3.7990    -9.3510    -2.6470 H     1 <1>   0.1500 
 40 H       -6.1140    -8.9600    -2.0520 H     1 <1>   0.4570 
 41 H       -7.2470    -6.2610    -0.1190 H     1 <1>   0.4000 
 42 H       -8.2140    -7.9430    -2.2900 H     1 <1>   0.0800 
 43 H       -9.1430    -7.0420    -1.1330 H     1 <1>   0.0800 
 44 H       -9.5860    -9.4050    -0.8280 H     1 <1>   0.0800 
 45 H       -8.7450    -8.8080     0.5720 H     1 <1>   0.0800 
 46 H       -7.0880   -10.6170     1.3030 H     1 <1>   0.2700 
 47 H       -5.6210   -11.9680    -3.6130 H     1 <1>   0.1500 
 48 H       -5.7940   -12.3570     2.2190 H     1 <1>   0.0800 
 49 H       -4.1540   -11.7660     2.0750 H     1 <1>   0.0800 
 50 H       -4.4970   -13.4770     1.9820 H     1 <1>   0.0800 
 51 H       -3.8410   -13.4600    -2.7720 H     1 <1>   0.1500 
 52 H       -2.5330   -13.5320     0.5300 H     1 <1>   0.0800 
 53 H       -2.4430   -14.1990    -1.0720 H     1 <1>   0.0800 
 54 H       -3.5270   -14.9060     0.0980 H     1 <1>   0.0800 
@<TRIPOS>BOND
  1   1   2  1   
  2   1  28  1   
  3   2   3  1   
  4   2   4  1   
  5   2  29  1   
  6   3   5  1   
  7   3  30  1   
  8   3  31  1   
  9   4   6  1   
 10   4  32  1   
 11   4  33  1   
 12   5   7  1   
 13   5   8  1   
 14   6   8  1   
 15   6  34  1   
 16   6  35  1   
 17   7   9  ar  
 18   7  10  ar  
 19   8  36  1   
 20   8  37  1   
 21   9  11  ar  
 22  10  12  ar  
 23  10  38  1   
 24  11  13  ar  
 25  11  14  1   
 26  12  13  ar  
 27  12  39  1   
 28  13  40  1   
 29  14  15  1   
 30  14  41  1   
 31  15  16  1   
 32  15  42  1   
 33  15  43  1   
 34  16  17  1   
 35  16  44  1   
 36  16  45  1   
 37  17  18  1   
 38  17  19  2   
 39  18  20  1   
 40  18  46  1   
 41  19  21  1   
 42  20  21  ar  
 43  20  22  ar  
 44  21  23  ar  
 45  22  24  ar  
 46  22  25  1   
 47  23  26  ar  
 48  23  47  1   
 49  24  26  ar  
 50  24  27  1   
 51  25  48  1   
 52  25  49  1   
 53  25  50  1   
 54  26  51  1   
 55  27  52  1   
 56  27  53  1   
 57  27  54  1   
@<TRIPOS>SUBSTRUCTURE
  1 ****  13 GROUP 4 **** **** 0

# MOE 2024.06 (io_trps.svl 2023.06)
