@<TRIPOS>MOLECULE
NONAME
50 53 1 0 0 
SMALL
USER_CHARGES


@<TRIPOS>ATOM
  1 O        0.1660    -0.1960    -0.3630 O.2   1 <1>  -0.5700 
  2 C        1.0960    -0.8220     0.1090 C.2   1 <1>   0.7150 
  3 N        2.1450    -0.1660     0.6940 N.am  1 <1>  -0.4940 
  4 C        1.1500    -2.2630     0.0570 C.2   1 <1>  -0.2370 
  5 C        2.3250     1.2150     0.9490 C.2   1 <1>  -0.0880 
  6 N        0.4150    -3.0470    -0.8150 N.pl3 1 <1>   0.0480 
  7 C        1.9090    -3.1020     0.8260 C.2   1 <1>  -0.1500 
  8 N        3.4670     1.9110     0.6880 N.pl3 1 <1>   0.3140 
  9 C        1.4550     2.0990     1.4940 C.2   1 <1>  -0.1810 
 10 C        0.7250    -4.3680    -0.5860 C.ar  1 <1>  -0.1520 
 11 C       -0.5330    -2.5680    -1.8450 C.3   1 <1>   0.0160 
 12 C        1.6620    -4.4260     0.4380 C.ar  1 <1>   0.0000 
 13 N        3.3480     3.2090     1.0680 N.2   1 <1>  -0.7070 
 14 C        4.6980     1.3750     0.0380 C.3   1 <1>   0.1760 
 15 C        2.1430     3.3050     1.5370 C.2   1 <1>   0.1390 
 16 C        0.0330     1.8780     1.9740 C.3   1 <1>  -0.0590 
 17 C        0.2670    -5.5480    -1.1850 C.ar  1 <1>  -0.1500 
 18 C        2.1540    -5.6620     0.8710 C.ar  1 <1>  -0.1500 
 19 C        5.9090     1.3580     0.9740 C.3   1 <1>  -0.1600 
 20 C        5.1700     2.1990    -1.1600 C.3   1 <1>  -0.1600 
 21 C        0.7560    -6.7600    -0.7550 C.ar  1 <1>  -0.1500 
 22 C        1.7080    -6.8210     0.2810 C.ar  1 <1>   0.0830 
 23 C        7.1370     1.3960     0.0560 C.3   1 <1>  -0.1600 
 24 C        6.6380     1.8090    -1.3350 C.3   1 <1>  -0.1600 
 25 O        2.2280    -7.9900     0.7490 O.3   1 <1>  -0.3630 
 26 C        1.8190    -9.2320     0.2210 C.3   1 <1>   0.0400 
 27 H        2.9080    -0.7850     0.9580 H     1 <1>   0.3700 
 28 H        2.5900    -2.8480     1.6190 H     1 <1>   0.1500 
 29 H       -0.0650    -1.7970    -2.4290 H     1 <1>   0.0800 
 30 H       -1.4050    -2.1670    -1.3620 H     1 <1>   0.0800 
 31 H       -0.8210    -3.3730    -2.4930 H     1 <1>   0.0800 
 32 H        4.5070     0.3740    -0.3010 H     1 <1>   0.0800 
 33 H        1.7330     4.2250     1.9180 H     1 <1>   0.1500 
 34 H       -0.1250     0.8430     2.2130 H     1 <1>   0.0800 
 35 H       -0.6580     2.1620     1.2000 H     1 <1>   0.0800 
 36 H       -0.1600     2.4670     2.8520 H     1 <1>   0.0800 
 37 H       -0.4610    -5.5070    -1.9740 H     1 <1>   0.1500 
 38 H        2.8770    -5.6990     1.6620 H     1 <1>   0.1500 
 39 H        5.9100     0.4890     1.6070 H     1 <1>   0.0800 
 40 H        5.9030     2.2460     1.5840 H     1 <1>   0.0800 
 41 H        5.1130     3.2500    -0.9280 H     1 <1>   0.0800 
 42 H        4.5890     1.9940    -2.0420 H     1 <1>   0.0800 
 43 H        0.3990    -7.6570    -1.2220 H     1 <1>   0.1500 
 44 H        7.6040     0.4260     0.0060 H     1 <1>   0.0800 
 45 H        7.8560     2.1050     0.4290 H     1 <1>   0.0800 
 46 H        7.2130     2.6250    -1.7380 H     1 <1>   0.0800 
 47 H        6.7100     0.9690    -2.0060 H     1 <1>   0.0800 
 48 H        2.3510   -10.0070     0.7420 H     1 <1>   0.0800 
 49 H        2.0620    -9.2630    -0.8270 H     1 <1>   0.0800 
 50 H        0.7610    -9.3470     0.3770 H     1 <1>   0.0800 
@<TRIPOS>BOND
  1   1   2  2   
  2   2   3  am  
  3   2   4  1   
  4   3   5  1   
  5   3  27  1   
  6   4   6  1   
  7   4   7  2   
  8   5   8  1   
  9   5   9  2   
 10   6  10  1   
 11   6  11  1   
 12   7  12  1   
 13   7  28  1   
 14   8  13  1   
 15   8  14  1   
 16   9  15  1   
 17   9  16  1   
 18  10  12  ar  
 19  10  17  ar  
 20  11  29  1   
 21  11  30  1   
 22  11  31  1   
 23  12  18  ar  
 24  13  15  2   
 25  14  19  1   
 26  14  20  1   
 27  14  32  1   
 28  15  33  1   
 29  16  34  1   
 30  16  35  1   
 31  16  36  1   
 32  17  21  ar  
 33  17  37  1   
 34  18  22  ar  
 35  18  38  1   
 36  19  23  1   
 37  19  39  1   
 38  19  40  1   
 39  20  24  1   
 40  20  41  1   
 41  20  42  1   
 42  21  22  ar  
 43  21  43  1   
 44  22  25  1   
 45  23  24  1   
 46  23  44  1   
 47  23  45  1   
 48  24  46  1   
 49  24  47  1   
 50  25  26  1   
 51  26  48  1   
 52  26  49  1   
 53  26  50  1   
@<TRIPOS>SUBSTRUCTURE
  1 ****   4 GROUP 4 **** **** 0

# MOE 2024.06 (io_trps.svl 2023.06)
