@<TRIPOS>MOLECULE
NONAME
50 52 1 0 0 
SMALL
USER_CHARGES


@<TRIPOS>ATOM
  1 O        0.8570     0.2820    -0.1950 O.2   1 <1>  -0.5700 
  2 C        1.7280    -0.4780     0.1980 C.2   1 <1>   0.5440 
  3 N        2.7830     0.0740     0.9110 N.am  1 <1>  -0.6600 
  4 C        1.5970    -1.9110    -0.0910 C.ar  1 <1>   0.3960 
  5 C        3.8560    -0.7120     1.5910 C.3   1 <1>   0.1400 
  6 C        2.9640     1.5440     1.0250 C.3   1 <1>   0.1400 
  7 N        2.6640    -2.6330    -0.4900 N.ar  1 <1>  -0.6200 
  8 C        0.3420    -2.4990     0.0440 C.ar  1 <1>  -0.1500 
  9 C        5.1560    -0.7260     0.7760 C.3   1 <1>   0.1400 
 10 C        3.7070     2.0990    -0.1950 C.3   1 <1>  -0.1600 
 11 C        2.4640    -3.9140    -0.7440 C.ar  1 <1>   0.1600 
 12 C        0.1470    -3.8360    -0.2180 C.ar  1 <1>   0.0830 
 13 N        5.6660     0.6520     0.4680 N.am  1 <1>  -0.6600 
 14 C        4.9400     1.3040    -0.6620 C.3   1 <1>   0.1400 
 15 C        1.2500    -4.5610    -0.6270 C.ar  1 <1>  -0.1500 
 16 O       -1.0940    -4.3440    -0.0620 O.3   1 <1>  -0.3630 
 17 C        6.7030     1.1690     1.2110 C.2   1 <1>   0.5690 
 18 C       -1.3820    -5.6960    -0.3450 C.3   1 <1>   0.0400 
 19 O        6.9770     0.6830     2.2840 O.2   1 <1>  -0.5700 
 20 C        7.6050     2.3250     0.7540 C.3   1 <1>  -0.0190 
 21 C        6.9300     3.7060     0.6770 C.3   1 <1>  -0.1600 
 22 C        8.3790     2.0250    -0.5430 C.3   1 <1>  -0.1600 
 23 C        7.9390     4.7660     0.2270 C.3   1 <1>   0.1200 
 24 C        9.2710     3.2100    -0.9280 C.3   1 <1>   0.1200 
 25 O        8.5000     4.3710    -0.9880 O.3   1 <1>  -0.5600 
 26 H        3.5300    -1.7220     1.7570 H     1 <1>   0.0800 
 27 H        4.0580    -0.2850     2.5580 H     1 <1>   0.0800 
 28 H        3.5250     1.7670     1.9170 H     1 <1>   0.0800 
 29 H        2.0050     2.0250     1.1170 H     1 <1>   0.0800 
 30 H       -0.4920    -1.8980     0.3540 H     1 <1>   0.1500 
 31 H        4.9930    -1.2640    -0.1410 H     1 <1>   0.0800 
 32 H        5.9000    -1.2730     1.3290 H     1 <1>   0.0800 
 33 H        3.9910     3.1090     0.0270 H     1 <1>   0.0800 
 34 H        3.0140     2.1540    -1.0150 H     1 <1>   0.0800 
 35 H        3.3200    -4.4840    -1.0660 H     1 <1>   0.1500 
 36 H        5.5910     1.9490    -1.2190 H     1 <1>   0.0800 
 37 H        4.6080     0.5370    -1.3420 H     1 <1>   0.0800 
 38 H        1.1870    -5.6070    -0.8550 H     1 <1>   0.1500 
 39 H       -2.4290    -5.8590    -0.1580 H     1 <1>   0.0800 
 40 H       -0.7940    -6.3220     0.3020 H     1 <1>   0.0800 
 41 H       -1.1620    -5.8910    -1.3790 H     1 <1>   0.0800 
 42 H        8.3550     2.4160     1.5210 H     1 <1>   0.0800 
 43 H        6.5300     3.9700     1.6400 H     1 <1>   0.0800 
 44 H        6.1280     3.7080    -0.0300 H     1 <1>   0.0800 
 45 H        7.7110     1.8230    -1.3580 H     1 <1>   0.0800 
 46 H        8.9900     1.1510    -0.4030 H     1 <1>   0.0800 
 47 H        8.7290     4.8940     0.9480 H     1 <1>   0.0800 
 48 H        7.4510     5.7120     0.0710 H     1 <1>   0.0800 
 49 H        9.7080     3.0550    -1.8990 H     1 <1>   0.0800 
 50 H       10.0590     3.3580    -0.2100 H     1 <1>   0.0800 
@<TRIPOS>BOND
  1   1   2  2   
  2   2   3  am  
  3   2   4  1   
  4   3   5  1   
  5   3   6  1   
  6   4   7  ar  
  7   4   8  ar  
  8   5   9  1   
  9   5  26  1   
 10   5  27  1   
 11   6  10  1   
 12   6  28  1   
 13   6  29  1   
 14   7  11  ar  
 15   8  12  ar  
 16   8  30  1   
 17   9  13  1   
 18   9  31  1   
 19   9  32  1   
 20  10  14  1   
 21  10  33  1   
 22  10  34  1   
 23  11  15  ar  
 24  11  35  1   
 25  12  15  ar  
 26  12  16  1   
 27  13  14  1   
 28  13  17  am  
 29  14  36  1   
 30  14  37  1   
 31  15  38  1   
 32  16  18  1   
 33  17  19  2   
 34  17  20  1   
 35  18  39  1   
 36  18  40  1   
 37  18  41  1   
 38  20  21  1   
 39  20  22  1   
 40  20  42  1   
 41  21  23  1   
 42  21  43  1   
 43  21  44  1   
 44  22  24  1   
 45  22  45  1   
 46  22  46  1   
 47  23  25  1   
 48  23  47  1   
 49  23  48  1   
 50  24  25  1   
 51  24  49  1   
 52  24  50  1   
@<TRIPOS>SUBSTRUCTURE
  1 ****   3 GROUP 4 **** **** 0

# MOE 2024.06 (io_trps.svl 2023.06)
