@<TRIPOS>MOLECULE
NONAME
54 57 1 0 0 
SMALL
USER_CHARGES


@<TRIPOS>ATOM
  1 O       -2.4330     0.7120    -1.9830 O.2   1 <1>  -0.5700 
  2 C       -2.1030     0.7070    -0.8240 C.2   1 <1>   0.5690 
  3 N       -1.8520    -0.4420    -0.1550 N.am  1 <1>  -0.7300 
  4 C       -1.9750     2.0220    -0.0930 C.3   1 <1>  -0.0990 
  5 C       -1.8990    -1.8010    -0.7480 C.3   1 <1>   0.2200 
  6 C       -1.0800     2.9820    -0.8830 C.3   1 <1>   0.0960 
  7 C       -3.1570    -2.5520    -0.3240 C.3   1 <1>  -0.0800 
  8 C       -0.8330    -2.6540    -0.0770 C.3   1 <1>   0.1200 
  9 N       -0.8290     4.2080    -0.0980 N.pl3 1 <1>   0.0480 
 10 C       -2.7720    -3.0950     1.0600 C.3   1 <1>   0.1200 
 11 C       -4.4580    -1.7210    -0.3500 C.3   1 <1>  -0.0170 
 12 O       -1.3800    -2.9980     1.1590 O.3   1 <1>  -0.5600 
 13 C        0.3020     4.6180     0.5310 C.2   1 <1>   0.0060 
 14 C       -1.7320     5.1720     0.1580 C.2   1 <1>  -0.3020 
 15 C       -5.7590    -2.4700    -0.0410 C.ar  1 <1>  -0.1440 
 16 N        0.1670     5.7450     1.1520 N.2   1 <1>  -0.5650 
 17 C        1.6190     3.8560     0.5180 C.3   1 <1>   0.0200 
 18 C       -1.1090     6.0960     0.9190 C.2   1 <1>   0.0770 
 19 C       -6.9620    -1.7390     0.1280 C.ar  1 <1>   0.0000 
 20 C       -5.8420    -3.8300     0.0800 C.ar  1 <1>  -0.1500 
 21 C        1.5870     2.6380     1.4480 C.3   1 <1>  -0.2400 
 22 C       -8.1410    -2.4600     0.4410 C.ar  1 <1>   0.3100 
 23 C       -7.0660    -0.3340    -0.0040 C.ar  1 <1>  -0.1500 
 24 C       -7.0620    -4.4450     0.3830 C.ar  1 <1>   0.1600 
 25 N       -8.1740    -3.8090     0.5660 N.ar  1 <1>  -0.6200 
 26 C       -9.3410    -1.7560     0.6290 C.ar  1 <1>  -0.1500 
 27 C       -8.2530     0.3220     0.1820 C.ar  1 <1>  -0.1500 
 28 C       -9.4060    -0.3950     0.5060 C.ar  1 <1>  -0.1500 
 29 H       -1.6210    -0.4420     0.8420 H     1 <1>   0.3700 
 30 H       -2.9560     2.4460     0.0160 H     1 <1>   0.0800 
 31 H       -1.5590     1.8540     0.8830 H     1 <1>   0.0800 
 32 H       -1.7790    -1.7560    -1.8180 H     1 <1>   0.0800 
 33 H       -1.5570     3.2540    -1.8090 H     1 <1>   0.0800 
 34 H       -0.1440     2.5090    -1.1140 H     1 <1>   0.0800 
 35 H       -3.2670    -3.3840    -0.9950 H     1 <1>   0.0800 
 36 H        0.0960    -2.1300     0.0670 H     1 <1>   0.0800 
 37 H       -0.6620    -3.5620    -0.6290 H     1 <1>   0.0800 
 38 H       -3.0540    -4.1260     1.1830 H     1 <1>   0.0800 
 39 H       -3.1990    -2.5050     1.8530 H     1 <1>   0.0800 
 40 H       -4.5530    -1.2720    -1.3250 H     1 <1>   0.0800 
 41 H       -4.3610    -0.9250     0.3660 H     1 <1>   0.0800 
 42 H       -2.7430     5.1540    -0.2050 H     1 <1>   0.1500 
 43 H        1.8580     3.5560    -0.4850 H     1 <1>   0.0800 
 44 H        2.3970     4.5230     0.8490 H     1 <1>   0.0800 
 45 H       -1.5170     7.0110     1.3160 H     1 <1>   0.1500 
 46 H       -4.9980    -4.4790    -0.0500 H     1 <1>   0.1500 
 47 H        0.8700     1.9150     1.1090 H     1 <1>   0.0800 
 48 H        1.3230     2.9510     2.4440 H     1 <1>   0.0800 
 49 H        2.5570     2.1750     1.4790 H     1 <1>   0.0800 
 50 H       -6.1970     0.2420    -0.2620 H     1 <1>   0.1500 
 51 H       -7.0760    -5.5180     0.4710 H     1 <1>   0.1500 
 52 H      -10.2160    -2.3300     0.8740 H     1 <1>   0.1500 
 53 H       -8.3160     1.3920     0.0800 H     1 <1>   0.1500 
 54 H      -10.3340     0.1310     0.6520 H     1 <1>   0.1500 
@<TRIPOS>BOND
  1   1   2  2   
  2   2   3  am  
  3   2   4  1   
  4   3   5  1   
  5   3  29  1   
  6   4   6  1   
  7   4  30  1   
  8   4  31  1   
  9   5   7  1   
 10   5   8  1   
 11   5  32  1   
 12   6   9  1   
 13   6  33  1   
 14   6  34  1   
 15   7  10  1   
 16   7  11  1   
 17   7  35  1   
 18   8  12  1   
 19   8  36  1   
 20   8  37  1   
 21   9  13  1   
 22   9  14  1   
 23  10  12  1   
 24  10  38  1   
 25  10  39  1   
 26  11  15  1   
 27  11  40  1   
 28  11  41  1   
 29  13  16  2   
 30  13  17  1   
 31  14  18  2   
 32  14  42  1   
 33  15  19  ar  
 34  15  20  ar  
 35  16  18  1   
 36  17  21  1   
 37  17  43  1   
 38  17  44  1   
 39  18  45  1   
 40  19  22  ar  
 41  19  23  ar  
 42  20  24  ar  
 43  20  46  1   
 44  21  47  1   
 45  21  48  1   
 46  21  49  1   
 47  22  25  ar  
 48  22  26  ar  
 49  23  27  ar  
 50  23  50  1   
 51  24  25  ar  
 52  24  51  1   
 53  26  28  ar  
 54  26  52  1   
 55  27  28  ar  
 56  27  53  1   
 57  28  54  1   
@<TRIPOS>SUBSTRUCTURE
  1 ****   3 GROUP 4 **** **** 0

# MOE 2024.06 (io_trps.svl 2023.06)
