@<TRIPOS>MOLECULE
NONAME
55 58 1 0 0 
SMALL
USER_CHARGES


@<TRIPOS>ATOM
  1 F       -1.7060    -0.2150     1.1430 F     1 <1>  -0.1900 
  2 C       -2.5790    -1.1610     0.9310 C.ar  1 <1>   0.1900 
  3 C       -2.3370    -2.0850    -0.0660 C.ar  1 <1>  -0.1500 
  4 C       -3.7180    -1.2090     1.7100 C.ar  1 <1>  -0.1500 
  5 C       -3.2700    -3.0840    -0.2840 C.ar  1 <1>  -0.1500 
  6 C       -4.6400    -2.2150     1.4780 C.ar  1 <1>  -0.1500 
  7 C       -4.4380    -3.1690     0.4770 C.ar  1 <1>   0.0280 
  8 C       -5.3890    -4.2280     0.2130 C.2   1 <1>  -0.1780 
  9 C       -6.6510    -4.3380     0.6640 C.2   1 <1>  -0.2880 
 10 C       -7.5850    -5.4800     0.3440 C.3   1 <1>   0.4810 
 11 N       -8.5670    -4.9780    -0.6420 N.4   1 <1>  -0.9590 
 12 C       -9.5700    -4.0540    -0.0050 C.3   1 <1>   0.3430 
 13 C       -9.2460    -6.0990    -1.3520 C.3   1 <1>   0.3430 
 14 C      -10.5300    -3.4400    -1.0390 C.3   1 <1>   0.1440 
 15 C      -10.1680    -5.5440    -2.4410 C.3   1 <1>  -0.1600 
 16 C      -11.5720    -2.6460    -0.2920 C.ar  1 <1>   0.1670 
 17 C      -11.1990    -4.5500    -1.8750 C.3   1 <1>  -0.1600 
 18 C       -9.8580    -2.3590    -1.9300 C.3   1 <1>  -0.1600 
 19 N      -12.2190    -3.0850     0.7560 N.ar  1 <1>  -0.6200 
 20 C      -11.7440    -1.4050    -0.8220 C.ar  1 <1>  -0.1430 
 21 C      -10.8480    -1.1800    -2.0140 C.3   1 <1>  -0.0170 
 22 C      -13.0900    -2.2170     1.2800 C.ar  1 <1>   0.7200 
 23 C      -12.6580    -0.5820    -0.2160 C.ar  1 <1>   0.1600 
 24 N      -13.3330    -0.9790     0.8370 N.ar  1 <1>  -0.6200 
 25 N      -13.7940    -2.6370     2.3890 N.pl3 1 <1>  -0.8380 
 26 C      -14.0800    -4.0740     2.6550 C.3   1 <1>   0.1290 
 27 C      -14.5240    -1.6740     3.2600 C.3   1 <1>   0.1290 
 28 H       -1.4380    -2.0180    -0.6520 H     1 <1>   0.1500 
 29 H       -3.8710    -0.4740     2.4800 H     1 <1>   0.1500 
 30 H       -3.0820    -3.8050    -1.0600 H     1 <1>   0.1500 
 31 H       -5.5190    -2.2530     2.0940 H     1 <1>   0.1500 
 32 H       -4.9860    -4.9950    -0.4290 H     1 <1>   0.1500 
 33 H       -7.1000    -3.6030     1.3080 H     1 <1>   0.1500 
 34 H       -8.0750    -5.8390     1.2350 H     1 <1>   0.0800 
 35 H       -7.0160    -6.2890    -0.0880 H     1 <1>   0.0800 
 36 H       -8.0290    -4.4340    -1.3280 H     1 <1>   0.4500 
 37 H      -10.1560    -4.5990     0.7170 H     1 <1>   0.0800 
 38 H       -9.0690    -3.2540     0.5160 H     1 <1>   0.0800 
 39 H       -8.5140    -6.7530    -1.8010 H     1 <1>   0.0800 
 40 H       -9.8290    -6.6750    -0.6500 H     1 <1>   0.0800 
 41 H       -9.5760    -5.0760    -3.2080 H     1 <1>   0.0800 
 42 H      -10.6910    -6.3640    -2.9040 H     1 <1>   0.0800 
 43 H      -11.8890    -5.0890    -1.2460 H     1 <1>   0.0800 
 44 H      -11.7760    -4.1160    -2.6750 H     1 <1>   0.0800 
 45 H       -8.9610    -2.0030    -1.4540 H     1 <1>   0.0800 
 46 H       -9.6050    -2.7180    -2.9110 H     1 <1>   0.0800 
 47 H      -11.4320    -1.2320    -2.9170 H     1 <1>   0.0800 
 48 H      -10.3440    -0.2300    -1.9610 H     1 <1>   0.0800 
 49 H      -12.8380     0.4110    -0.5930 H     1 <1>   0.1500 
 50 H      -15.1140    -4.1980     2.9240 H     1 <1>   0.0800 
 51 H      -13.4600    -4.4200     3.4630 H     1 <1>   0.0800 
 52 H      -13.8860    -4.6720     1.7810 H     1 <1>   0.0800 
 53 H      -14.5820    -2.0540     4.2650 H     1 <1>   0.0800 
 54 H      -15.5180    -1.5230     2.8770 H     1 <1>   0.0800 
 55 H      -14.0120    -0.7270     3.2840 H     1 <1>   0.0800 
@<TRIPOS>BOND
  1   1   2  1   
  2   2   3  ar  
  3   2   4  ar  
  4   3   5  ar  
  5   3  28  1   
  6   4   6  ar  
  7   4  29  1   
  8   5   7  ar  
  9   5  30  1   
 10   6   7  ar  
 11   6  31  1   
 12   7   8  1   
 13   8   9  2   
 14   8  32  1   
 15   9  10  1   
 16   9  33  1   
 17  10  11  1   
 18  10  34  1   
 19  10  35  1   
 20  11  12  1   
 21  11  13  1   
 22  11  36  1   
 23  12  14  1   
 24  12  37  1   
 25  12  38  1   
 26  13  15  1   
 27  13  39  1   
 28  13  40  1   
 29  14  16  1   
 30  14  17  1   
 31  14  18  1   
 32  15  17  1   
 33  15  41  1   
 34  15  42  1   
 35  16  19  ar  
 36  16  20  ar  
 37  17  43  1   
 38  17  44  1   
 39  18  21  1   
 40  18  45  1   
 41  18  46  1   
 42  19  22  ar  
 43  20  21  1   
 44  20  23  ar  
 45  21  47  1   
 46  21  48  1   
 47  22  24  ar  
 48  22  25  1   
 49  23  24  ar  
 50  23  49  1   
 51  25  26  1   
 52  25  27  1   
 53  26  50  1   
 54  26  51  1   
 55  26  52  1   
 56  27  53  1   
 57  27  54  1   
 58  27  55  1   
@<TRIPOS>SUBSTRUCTURE
  1 ****  12 GROUP 4 **** **** 0

# MOE 2024.06 (io_trps.svl 2023.06)
