@<TRIPOS>MOLECULE
NONAME
48 49 1 0 0 
SMALL
USER_CHARGES


@<TRIPOS>ATOM
  1 O       -1.2790     0.1020    -1.4370 O.2   1 <1>  -0.5700 
  2 C       -2.2550     0.7100    -1.0630 C.2   1 <1>   0.5690 
  3 N       -3.5020     0.1400    -1.0900 N.am  1 <1>  -0.6600 
  4 C       -2.0700     2.1350    -0.5460 C.3   1 <1>  -0.0990 
  5 C       -3.6970    -1.2170    -1.6750 C.3   1 <1>   0.3200 
  6 C       -4.7570     0.8250    -0.6500 C.3   1 <1>   0.1400 
  7 C       -0.6000     2.5380    -0.3090 C.3   1 <1>  -0.1600 
  8 C       -4.0640    -2.2020    -0.5830 C.2   1 <1>  -0.3320 
  9 C       -5.0400     0.5730     0.8370 C.3   1 <1>   0.1200 
 10 C       -0.4330     3.9250     0.3420 C.3   1 <1>  -0.0800 
 11 N       -3.2240    -2.6280     0.3820 N.pl3 1 <1>   0.0480 
 12 C       -5.2440    -2.8260    -0.3680 C.2   1 <1>   0.0770 
 13 O       -6.0250     1.4530     1.2680 O.3   1 <1>  -0.6800 
 14 C       -0.9510     5.0610    -0.5610 C.3   1 <1>  -0.1600 
 15 C        1.0500     4.1530     0.6850 C.3   1 <1>  -0.1600 
 16 C       -3.9630    -3.4820     1.1240 C.2   1 <1>   0.0360 
 17 C       -1.8080    -2.2700     0.5880 C.3   1 <1>   0.0160 
 18 N       -5.1790    -3.6280     0.7100 N.2   1 <1>  -0.5650 
 19 C       -0.7110     6.4410     0.0660 C.3   1 <1>  -0.1600 
 20 C        1.2850     5.5320     1.3170 C.3   1 <1>  -0.1600 
 21 C        0.7690     6.6510     0.4060 C.3   1 <1>  -0.1600 
 22 H       -2.6010     2.2380     0.3810 H     1 <1>   0.0800 
 23 H       -2.5100     2.7960    -1.2680 H     1 <1>   0.0800 
 24 H       -2.8080    -1.5540    -2.1800 H     1 <1>   0.0800 
 25 H       -4.4840    -1.1760    -2.4070 H     1 <1>   0.0800 
 26 H       -5.5890     0.4640    -1.2290 H     1 <1>   0.0800 
 27 H       -4.6690     1.8820    -0.8260 H     1 <1>   0.0800 
 28 H       -0.0700     2.5140    -1.2470 H     1 <1>   0.0800 
 29 H       -0.1480     1.8000     0.3320 H     1 <1>   0.0800 
 30 H       -4.1630     0.7290     1.4380 H     1 <1>   0.0800 
 31 H       -5.4060    -0.4270     0.9900 H     1 <1>   0.0800 
 32 H       -0.9910     3.9400     1.2630 H     1 <1>   0.0800 
 33 H       -6.1540    -2.7400    -0.9370 H     1 <1>   0.1500 
 34 H       -5.6710     2.3560     1.3800 H     1 <1>   0.4000 
 35 H       -2.0060     4.9490    -0.7360 H     1 <1>   0.0800 
 36 H       -0.4510     5.0170    -1.5140 H     1 <1>   0.0800 
 37 H        1.6420     4.0750    -0.2110 H     1 <1>   0.0800 
 38 H        1.3870     3.3930     1.3680 H     1 <1>   0.0800 
 39 H       -3.5560    -3.9890     1.9820 H     1 <1>   0.1500 
 40 H       -1.2830    -2.3340    -0.3470 H     1 <1>   0.0800 
 41 H       -1.3620    -2.9450     1.2950 H     1 <1>   0.0800 
 42 H       -1.7470    -1.2650     0.9620 H     1 <1>   0.0800 
 43 H       -1.2980     6.5310     0.9650 H     1 <1>   0.0800 
 44 H       -1.0350     7.2080    -0.6160 H     1 <1>   0.0800 
 45 H        2.3370     5.6710     1.4970 H     1 <1>   0.0800 
 46 H        0.7780     5.5810     2.2660 H     1 <1>   0.0800 
 47 H        0.8970     7.6020     0.8930 H     1 <1>   0.0800 
 48 H        1.3450     6.6640    -0.5030 H     1 <1>   0.0800 
@<TRIPOS>BOND
  1   1   2  2   
  2   2   3  am  
  3   2   4  1   
  4   3   5  1   
  5   3   6  1   
  6   4   7  1   
  7   4  22  1   
  8   4  23  1   
  9   5   8  1   
 10   5  24  1   
 11   5  25  1   
 12   6   9  1   
 13   6  26  1   
 14   6  27  1   
 15   7  10  1   
 16   7  28  1   
 17   7  29  1   
 18   8  11  1   
 19   8  12  2   
 20   9  13  1   
 21   9  30  1   
 22   9  31  1   
 23  10  14  1   
 24  10  15  1   
 25  10  32  1   
 26  11  16  1   
 27  11  17  1   
 28  12  18  1   
 29  12  33  1   
 30  13  34  1   
 31  14  19  1   
 32  14  35  1   
 33  14  36  1   
 34  15  20  1   
 35  15  37  1   
 36  15  38  1   
 37  16  18  2   
 38  16  39  1   
 39  17  40  1   
 40  17  41  1   
 41  17  42  1   
 42  19  21  1   
 43  19  43  1   
 44  19  44  1   
 45  20  21  1   
 46  20  45  1   
 47  20  46  1   
 48  21  47  1   
 49  21  48  1   
@<TRIPOS>SUBSTRUCTURE
  1 ****   2 GROUP 4 **** **** 0

# MOE 2024.06 (io_trps.svl 2023.06)
