@<TRIPOS>MOLECULE
NONAME
56 60 1 0 0 
SMALL
USER_CHARGES


@<TRIPOS>ATOM
  1 O       -1.7420    -0.2300     0.3920 O.3   1 <1>  -0.5600 
  2 C       -1.9790    -0.9850    -0.7630 C.3   1 <1>   0.1200 
  3 C       -2.8360    -0.1920     1.2640 C.3   1 <1>   0.1200 
  4 C       -2.2970    -2.4500    -0.4150 C.3   1 <1>   0.2090 
  5 C       -3.2120    -1.6030     1.7490 C.3   1 <1>   0.2090 
  6 N       -3.3980    -2.5420     0.5970 N.pl3 1 <1>  -0.8380 
  7 C       -4.2710    -3.6050     0.6440 C.ar  1 <1>   0.7200 
  8 N       -5.0430    -3.7180     1.7240 N.ar  1 <1>  -0.6200 
  9 N       -4.2820    -4.4380    -0.3960 N.ar  1 <1>  -0.6200 
 10 C       -5.8770    -4.7230     1.7540 C.ar  1 <1>   0.1600 
 11 C       -5.1240    -5.4360    -0.3450 C.ar  1 <1>   0.1600 
 12 C       -5.9770    -5.6200     0.7170 C.ar  1 <1>  -0.1430 
 13 C       -6.9850    -6.7440     0.7350 C.3   1 <1>   0.4860 
 14 N       -8.1420    -6.3630    -0.1260 N.4   1 <1>  -0.9590 
 15 C       -8.8740    -5.1680     0.4310 C.3   1 <1>   0.3430 
 16 C       -9.0750    -7.5090    -0.3350 C.3   1 <1>   0.3430 
 17 C       -9.9990    -4.6880    -0.5010 C.3   1 <1>   0.1430 
 18 C      -10.1780    -7.1030    -1.3180 C.3   1 <1>  -0.1600 
 19 C      -10.7500    -3.5910     0.2110 C.ar  1 <1>   0.1670 
 20 C      -10.9470    -5.8560    -0.8450 C.3   1 <1>  -0.1600 
 21 C       -9.4670    -3.9660    -1.7700 C.3   1 <1>  -0.1600 
 22 N      -11.1700    -3.6670     1.4490 N.ar  1 <1>  -0.6200 
 23 C      -10.9200    -2.4940    -0.5780 C.ar  1 <1>  -0.1430 
 24 C      -10.3190    -2.6930    -1.9470 C.3   1 <1>  -0.0170 
 25 C      -11.7810    -2.5670     1.8710 C.ar  1 <1>   0.7200 
 26 C      -11.5790    -1.4170    -0.0340 C.ar  1 <1>   0.1600 
 27 N      -12.0200    -1.4480     1.2030 N.ar  1 <1>  -0.6200 
 28 N      -12.2300    -2.5940     3.1260 N.pl3 1 <1>  -0.9000 
 29 H       -1.0970    -0.9340    -1.3750 H     1 <1>   0.0800 
 30 H       -2.7990    -0.5420    -1.3010 H     1 <1>   0.0800 
 31 H       -3.6680     0.2610     0.7540 H     1 <1>   0.0800 
 32 H       -2.5670     0.4260     2.1020 H     1 <1>   0.0800 
 33 H       -1.4130    -2.9170    -0.0180 H     1 <1>   0.0800 
 34 H       -2.5630    -2.9620    -1.3220 H     1 <1>   0.0800 
 35 H       -4.1130    -1.5300     2.3330 H     1 <1>   0.0800 
 36 H       -2.4320    -1.9780     2.3870 H     1 <1>   0.0800 
 37 H       -6.4980    -4.8150     2.6310 H     1 <1>   0.1500 
 38 H       -5.1260    -6.1140    -1.1830 H     1 <1>   0.1500 
 39 H       -7.3160    -6.9280     1.7450 H     1 <1>   0.0800 
 40 H       -6.5230    -7.6430     0.3600 H     1 <1>   0.0800 
 41 H       -7.7710    -6.0850    -1.0430 H     1 <1>   0.4500 
 42 H       -8.1920    -4.3480     0.5900 H     1 <1>   0.0800 
 43 H       -9.3100    -5.4220     1.3830 H     1 <1>   0.0800 
 44 H       -9.5220    -7.7930     0.6050 H     1 <1>   0.0800 
 45 H       -8.5410    -8.3590    -0.7280 H     1 <1>   0.0800 
 46 H      -10.8700    -7.9220    -1.4190 H     1 <1>   0.0800 
 47 H       -9.7480    -6.9340    -2.2900 H     1 <1>   0.0800 
 48 H      -11.6560    -5.5490    -1.5960 H     1 <1>   0.0800 
 49 H      -11.5130    -6.1140     0.0350 H     1 <1>   0.0800 
 50 H       -9.5080    -4.5800    -2.6530 H     1 <1>   0.0800 
 51 H       -8.4460    -3.6600    -1.6140 H     1 <1>   0.0800 
 52 H      -11.1040    -2.8520    -2.6670 H     1 <1>   0.0800 
 53 H       -9.7180    -1.8500    -2.2450 H     1 <1>   0.0800 
 54 H      -11.7440    -0.5250    -0.6150 H     1 <1>   0.1500 
 55 H      -12.8850    -1.8510     3.3530 H     1 <1>   0.4000 
 56 H      -12.4450    -3.5100     3.5070 H     1 <1>   0.4000 
@<TRIPOS>BOND
  1   1   2  1   
  2   1   3  1   
  3   2   4  1   
  4   2  29  1   
  5   2  30  1   
  6   3   5  1   
  7   3  31  1   
  8   3  32  1   
  9   4   6  1   
 10   4  33  1   
 11   4  34  1   
 12   5   6  1   
 13   5  35  1   
 14   5  36  1   
 15   6   7  1   
 16   7   8  ar  
 17   7   9  ar  
 18   8  10  ar  
 19   9  11  ar  
 20  10  12  ar  
 21  10  37  1   
 22  11  12  ar  
 23  11  38  1   
 24  12  13  1   
 25  13  14  1   
 26  13  39  1   
 27  13  40  1   
 28  14  15  1   
 29  14  16  1   
 30  14  41  1   
 31  15  17  1   
 32  15  42  1   
 33  15  43  1   
 34  16  18  1   
 35  16  44  1   
 36  16  45  1   
 37  17  19  1   
 38  17  20  1   
 39  17  21  1   
 40  18  20  1   
 41  18  46  1   
 42  18  47  1   
 43  19  22  ar  
 44  19  23  ar  
 45  20  48  1   
 46  20  49  1   
 47  21  24  1   
 48  21  50  1   
 49  21  51  1   
 50  22  25  ar  
 51  23  24  1   
 52  23  26  ar  
 53  24  52  1   
 54  24  53  1   
 55  25  27  ar  
 56  25  28  1   
 57  26  27  ar  
 58  26  54  1   
 59  28  55  1   
 60  28  56  1   
@<TRIPOS>SUBSTRUCTURE
  1 ****  15 GROUP 4 **** **** 0

# MOE 2024.06 (io_trps.svl 2023.06)
