@<TRIPOS>MOLECULE
Untitled Document
55 59 1 0 0 
SMALL
USER_CHARGES


@<TRIPOS>ATOM
  1 O        4.3140     8.4180     3.8850 O.2   1 <1>  -0.5700 
  2 C        3.4550     8.1110     3.0940 C.2   1 <1>   0.7800 
  3 O        3.3550     6.8470     2.6910 O.3   1 <1>  -0.4300 
  4 N        2.5860     9.0130     2.5990 N.am  1 <1>  -0.5470 
  5 C        2.6410     6.5050     1.5230 C.3   1 <1>   0.2640 
  6 C        1.4930     8.6720     1.8560 C.ar  1 <1>   0.4270 
  7 C        1.4160     7.3930     1.3090 C.ar  1 <1>  -0.1440 
  8 N        0.5830     9.6130     1.7440 N.ar  1 <1>  -0.6200 
  9 C        0.2750     7.0320     0.6060 C.ar  1 <1>  -0.1430 
 10 C       -0.5120     9.2820     1.0630 C.ar  1 <1>   0.3100 
 11 C       -0.6850     8.0220     0.5010 C.ar  1 <1>  -0.1500 
 12 C       -0.0440     5.6790    -0.0410 C.3   1 <1>   0.0630 
 13 C       -1.5610    10.2610     0.9090 C.ar  1 <1>   0.0000 
 14 C       -0.3540     4.6050     1.0120 C.3   1 <1>  -0.1600 
 15 C        1.0070     5.1850    -1.0470 C.3   1 <1>  -0.1600 
 16 C       -1.4460    11.3280     0.0110 C.ar  1 <1>   0.0820 
 17 C       -2.7520    10.1630     1.6370 C.ar  1 <1>   0.0820 
 18 C       -0.7550     3.2850     0.3520 C.3   1 <1>   0.3430 
 19 C        0.5710     3.8620    -1.6800 C.3   1 <1>   0.3430 
 20 O       -0.3420    11.4690    -0.7490 O.3   1 <1>  -0.3630 
 21 C       -2.4700    12.2470    -0.1500 C.ar  1 <1>  -0.1500 
 22 O       -2.9350     9.1480     2.4990 O.3   1 <1>  -0.5330 
 23 C       -3.7700    11.0920     1.4900 C.ar  1 <1>  -0.1500 
 24 N        0.3000     2.8580    -0.6110 N.4   1 <1>  -0.9060 
 25 C        0.7360    12.1870    -0.1860 C.3   1 <1>   0.2150 
 26 C       -3.6310    12.1360     0.5940 C.ar  1 <1>  -0.1500 
 27 C        0.6440    13.6540    -0.6170 C.3   1 <1>  -0.1950 
 28 C        1.0170    14.0820    -2.0010 C.3   1 <1>  -0.2000 
 29 C        1.8850    14.4620    -0.8350 C.3   1 <1>  -0.2000 
 30 H        2.5970     9.9400     3.0100 H     1 <1>   0.3700 
 31 H        2.3720     5.4720     1.6200 H     1 <1>   0.0800 
 32 H        3.3180     6.6170     0.6940 H     1 <1>   0.0800 
 33 H       -1.6090     7.8490    -0.0190 H     1 <1>   0.1500 
 34 H       -0.9500     5.8120    -0.6090 H     1 <1>   0.0800 
 35 H       -1.1680     4.9450     1.6290 H     1 <1>   0.0800 
 36 H        0.4840     4.4400     1.6620 H     1 <1>   0.0800 
 37 H        1.9660     5.0470    -0.5880 H     1 <1>   0.0800 
 38 H        1.1240     5.9230    -1.8230 H     1 <1>   0.0800 
 39 H       -1.6900     3.4160    -0.1690 H     1 <1>   0.0800 
 40 H       -0.8960     2.5290     1.1100 H     1 <1>   0.0800 
 41 H        1.3450     3.5020    -2.3400 H     1 <1>   0.0800 
 42 H       -0.3220     4.0210    -2.2640 H     1 <1>   0.0800 
 43 H       -2.3530    13.0460    -0.8600 H     1 <1>   0.1500 
 44 H       -3.7490     9.2270     3.0260 H     1 <1>   0.4500 
 45 H       -4.6760    11.0070     2.0630 H     1 <1>   0.1500 
 46 H        0.0220     1.9660    -1.0440 H     1 <1>   0.4500 
 47 H        1.1680     2.6700    -0.0950 H     1 <1>   0.4500 
 48 H        1.6420    11.7390    -0.5510 H     1 <1>   0.0800 
 49 H        0.7070    12.0990     0.8870 H     1 <1>   0.0800 
 50 H       -4.4210    12.8570     0.4700 H     1 <1>   0.1500 
 51 H       -0.1730    14.1630    -0.1360 H     1 <1>   0.1000 
 52 H        0.4210    14.8390    -2.4800 H     1 <1>   0.1000 
 53 H        1.3670    13.3350    -2.6930 H     1 <1>   0.1000 
 54 H        2.8480    13.9910    -0.7410 H     1 <1>   0.1000 
 55 H        1.8960    15.4890    -0.5140 H     1 <1>   0.1000 
@<TRIPOS>BOND
  1   1   2  2   
  2   2   3  1   
  3   2   4  am  
  4   3   5  1   
  5   4   6  1   
  6   4  30  1   
  7   5   7  1   
  8   5  31  1   
  9   5  32  1   
 10   6   7  ar  
 11   6   8  ar  
 12   7   9  ar  
 13   8  10  ar  
 14   9  11  ar  
 15   9  12  1   
 16  10  11  ar  
 17  10  13  1   
 18  11  33  1   
 19  12  14  1   
 20  12  15  1   
 21  12  34  1   
 22  13  16  ar  
 23  13  17  ar  
 24  14  18  1   
 25  14  35  1   
 26  14  36  1   
 27  15  19  1   
 28  15  37  1   
 29  15  38  1   
 30  16  20  1   
 31  16  21  ar  
 32  17  22  1   
 33  17  23  ar  
 34  18  24  1   
 35  18  39  1   
 36  18  40  1   
 37  19  24  1   
 38  19  41  1   
 39  19  42  1   
 40  20  25  1   
 41  21  26  ar  
 42  21  43  1   
 43  22  44  1   
 44  23  26  ar  
 45  23  45  1   
 46  24  46  1   
 47  24  47  1   
 48  25  27  1   
 49  25  48  1   
 50  25  49  1   
 51  26  50  1   
 52  27  28  1   
 53  27  29  1   
 54  27  51  1   
 55  28  29  1   
 56  28  52  1   
 57  28  53  1   
 58  29  54  1   
 59  29  55  1   
@<TRIPOS>SUBSTRUCTURE
  1 ****  10 GROUP 4 **** **** 0

# MOE 2024.06 (io_trps.svl 2023.06)
