@<TRIPOS>MOLECULE
NONAME
44 45 1 0 0 
SMALL
USER_CHARGES


@<TRIPOS>ATOM
  1 CL       0.0460    -3.2050    -2.2340 Cl    1 <1>  -0.1770 
  2 C       -1.2220    -2.5150    -1.2470 C.ar  1 <1>   0.1770 
  3 C       -1.8640    -3.2820    -0.2840 C.ar  1 <1>  -0.1440 
  4 C       -1.5540    -1.1920    -1.4700 C.ar  1 <1>  -0.1500 
  5 C       -2.8920    -2.7000     0.4710 C.ar  1 <1>   0.0860 
  6 C       -1.4480    -4.7380    -0.0700 C.3   1 <1>  -0.0970 
  7 C       -2.5550    -0.6090    -0.7180 C.ar  1 <1>  -0.1500 
  8 C       -3.6420    -3.4300     1.4760 C.2   1 <1>   0.5440 
  9 C       -3.2110    -1.3610     0.2400 C.ar  1 <1>  -0.1500 
 10 O       -3.4000    -3.2310     2.6520 O.2   1 <1>  -0.5700 
 11 N       -4.6190    -4.3350     1.1240 N.am  1 <1>  -0.6600 
 12 C       -5.0540    -4.5490    -0.3000 C.3   1 <1>   0.1400 
 13 C       -5.2680    -5.2150     2.1530 C.3   1 <1>   0.1400 
 14 C       -5.5480    -5.9850    -0.4910 C.3   1 <1>   0.2000 
 15 C       -6.7030    -5.5500     1.7350 C.3   1 <1>  -0.1600 
 16 O       -5.8040    -6.2570    -1.8230 O.3   1 <1>  -0.6800 
 17 C       -6.7740    -6.3450     0.3890 C.3   1 <1>  -0.1060 
 18 C       -6.6040    -7.8600     0.5990 C.2   1 <1>   0.9060 
 19 C       -8.1730    -6.0950    -0.2650 C.3   1 <1>  -0.1600 
 20 O       -6.4180    -8.3240     1.7300 O.co2 1 <1>  -0.9000 
 21 O       -6.6050    -8.5860    -0.4070 O.co2 1 <1>  -0.9000 
 22 C       -8.4540    -4.6840    -0.8200 C.3   1 <1>  -0.1600 
 23 C       -9.8810    -4.5910    -1.3680 C.3   1 <1>  -0.2400 
 24 H       -1.0320    -0.6300    -2.2240 H     1 <1>   0.1500 
 25 H       -1.7940    -5.1230     0.8730 H     1 <1>   0.0800 
 26 H       -0.3770    -4.8290    -0.0760 H     1 <1>   0.0800 
 27 H       -1.8510    -5.3530    -0.8550 H     1 <1>   0.0800 
 28 H       -2.8220     0.4220    -0.8750 H     1 <1>   0.1500 
 29 H       -3.9900    -0.9110     0.8300 H     1 <1>   0.1500 
 30 H       -5.8420    -3.8570    -0.5300 H     1 <1>   0.0800 
 31 H       -4.2350    -4.3800    -0.9740 H     1 <1>   0.0800 
 32 H       -4.7010    -6.1250     2.2580 H     1 <1>   0.0800 
 33 H       -5.2830    -4.7180     3.1080 H     1 <1>   0.0800 
 34 H       -4.7240    -6.6250    -0.2180 H     1 <1>   0.0800 
 35 H       -7.1770    -6.1160     2.5180 H     1 <1>   0.0800 
 36 H       -7.2340    -4.6220     1.6720 H     1 <1>   0.0800 
 37 H       -6.1470    -7.1890    -1.8300 H     1 <1>   0.4000 
 38 H       -8.3020    -6.7930    -1.0750 H     1 <1>   0.0800 
 39 H       -8.9250    -6.3410     0.4650 H     1 <1>   0.0800 
 40 H       -8.3280    -3.9370    -0.0600 H     1 <1>   0.0800 
 41 H       -7.7670    -4.4700    -1.6200 H     1 <1>   0.0800 
 42 H      -10.5950    -4.7840    -0.5870 H     1 <1>   0.0800 
 43 H      -10.0240    -5.3110    -2.1550 H     1 <1>   0.0800 
 44 H      -10.0600    -3.6080    -1.7650 H     1 <1>   0.0800 
@<TRIPOS>BOND
  1   1   2  1   
  2   2   3  ar  
  3   2   4  ar  
  4   3   5  ar  
  5   3   6  1   
  6   4   7  ar  
  7   4  24  1   
  8   5   8  1   
  9   5   9  ar  
 10   6  25  1   
 11   6  26  1   
 12   6  27  1   
 13   7   9  ar  
 14   7  28  1   
 15   8  10  2   
 16   8  11  am  
 17   9  29  1   
 18  11  12  1   
 19  11  13  1   
 20  12  14  1   
 21  12  30  1   
 22  12  31  1   
 23  13  15  1   
 24  13  32  1   
 25  13  33  1   
 26  14  16  1   
 27  14  17  1   
 28  14  34  1   
 29  15  17  1   
 30  15  35  1   
 31  15  36  1   
 32  16  37  1   
 33  17  18  1   
 34  17  19  1   
 35  18  20  ar  
 36  18  21  ar  
 37  19  22  1   
 38  19  38  1   
 39  19  39  1   
 40  22  23  1   
 41  22  40  1   
 42  22  41  1   
 43  23  42  1   
 44  23  43  1   
 45  23  44  1   
@<TRIPOS>SUBSTRUCTURE
  1 ****  12 GROUP 4 **** **** 0

# MOE 2024.06 (io_trps.svl 2023.06)
