@<TRIPOS>MOLECULE
NONAME
44 45 1 0 0 
SMALL
USER_CHARGES


@<TRIPOS>ATOM
  1 O        0.2910     1.0900    -0.9120 O.co2 1 <1>  -0.9000 
  2 C       -0.1690     1.5440     0.1380 C.2   1 <1>   0.9060 
  3 O       -0.3900     0.8770     1.1470 O.co2 1 <1>  -0.9000 
  4 C       -0.5010     3.0000     0.1890 C.3   1 <1>  -0.1860 
  5 C       -1.9880     3.1630     0.5080 C.3   1 <1>   0.2000 
  6 C       -0.1660     3.6300    -1.1470 C.3   1 <1>   0.3430 
  7 O       -2.0790     3.2720     1.8740 O.3   1 <1>  -0.6800 
  8 C       -2.5970     4.4240    -0.1110 C.3   1 <1>  -0.1600 
  9 N       -0.4180     5.1170    -1.1120 N.4   1 <1>  -0.9590 
 10 C       -1.5380     5.5170    -0.1840 C.3   1 <1>   0.3430 
 11 C        0.8620     5.8040    -0.7450 C.3   1 <1>   0.3430 
 12 C        0.8020     7.3210    -0.9410 C.3   1 <1>   0.1200 
 13 O        2.0600     7.8360    -0.5830 O.3   1 <1>  -0.3630 
 14 C        2.2950     9.1740    -0.5340 C.ar  1 <1>   0.0830 
 15 C        3.4790     9.6030     0.0640 C.ar  1 <1>  -0.1430 
 16 C        1.4030    10.1120    -1.0500 C.ar  1 <1>  -0.1500 
 17 C        3.7480    10.9610     0.1440 C.ar  1 <1>  -0.1500 
 18 C        4.4910     8.6180     0.6400 C.3   1 <1>  -0.0170 
 19 C        1.6850    11.4630    -0.9640 C.ar  1 <1>  -0.1500 
 20 C        2.8570    11.8880    -0.3660 C.ar  1 <1>  -0.1500 
 21 C        4.1310     8.2550     2.0820 C.3   1 <1>  -0.2400 
 22 H        0.1190     3.4390     0.9470 H     1 <1>   0.0800 
 23 H       -2.5540     2.2930     0.2110 H     1 <1>   0.0800 
 24 H       -0.7840     3.1650    -1.8990 H     1 <1>   0.0800 
 25 H        0.8610     3.4160    -1.4000 H     1 <1>   0.0800 
 26 H       -1.6990     2.4380     2.2510 H     1 <1>   0.4000 
 27 H       -2.9570     4.2090    -1.1010 H     1 <1>   0.0800 
 28 H       -3.4360     4.7500     0.4770 H     1 <1>   0.0800 
 29 H       -0.6730     5.3800    -2.0720 H     1 <1>   0.4500 
 30 H       -1.1490     5.6620     0.8120 H     1 <1>   0.0800 
 31 H       -1.9830     6.4410    -0.5130 H     1 <1>   0.0800 
 32 H        1.0970     5.5930     0.2860 H     1 <1>   0.0800 
 33 H        1.6610     5.4170    -1.3560 H     1 <1>   0.0800 
 34 H        0.0670     7.7700    -0.2980 H     1 <1>   0.0800 
 35 H        0.6220     7.5680    -1.9720 H     1 <1>   0.0800 
 36 H        0.4880     9.8210    -1.5260 H     1 <1>   0.1500 
 37 H        4.6560    11.3050     0.6070 H     1 <1>   0.1500 
 38 H        4.5260     7.7280     0.0370 H     1 <1>   0.0800 
 39 H        5.4750     9.0550     0.6180 H     1 <1>   0.0800 
 40 H        0.9960    12.1880    -1.3630 H     1 <1>   0.1500 
 41 H        3.0780    12.9390    -0.2980 H     1 <1>   0.1500 
 42 H        3.1570     7.8020     2.1180 H     1 <1>   0.0800 
 43 H        4.1220     9.1400     2.6950 H     1 <1>   0.0800 
 44 H        4.8520     7.5640     2.4820 H     1 <1>   0.0800 
@<TRIPOS>BOND
  1   1   2  ar  
  2   2   3  ar  
  3   2   4  1   
  4   4   5  1   
  5   4   6  1   
  6   4  22  1   
  7   5   7  1   
  8   5   8  1   
  9   5  23  1   
 10   6   9  1   
 11   6  24  1   
 12   6  25  1   
 13   7  26  1   
 14   8  10  1   
 15   8  27  1   
 16   8  28  1   
 17   9  10  1   
 18   9  11  1   
 19   9  29  1   
 20  10  30  1   
 21  10  31  1   
 22  11  12  1   
 23  11  32  1   
 24  11  33  1   
 25  12  13  1   
 26  12  34  1   
 27  12  35  1   
 28  13  14  1   
 29  14  15  ar  
 30  14  16  ar  
 31  15  17  ar  
 32  15  18  1   
 33  16  19  ar  
 34  16  36  1   
 35  17  20  ar  
 36  17  37  1   
 37  18  21  1   
 38  18  38  1   
 39  18  39  1   
 40  19  20  ar  
 41  19  40  1   
 42  20  41  1   
 43  21  42  1   
 44  21  43  1   
 45  21  44  1   
@<TRIPOS>SUBSTRUCTURE
  1 ****  11 GROUP 4 **** **** 0

# MOE 2024.06 (io_trps.svl 2023.06)
