@<TRIPOS>MOLECULE
NONAME
48 50 1 0 0 
SMALL
USER_CHARGES


@<TRIPOS>ATOM
  1 O       -1.0570    -3.9770    -0.1580 O.co2 1 <1>  -0.9000 
  2 C       -0.0280    -4.5170    -0.5850 C.2   1 <1>   1.0330 
  3 O       -0.1890    -5.5300    -1.2960 O.co2 1 <1>  -0.9000 
  4 C        1.2380    -4.2320    -0.0070 C.2   1 <1>  -0.2330 
  5 C        1.9320    -5.2200     0.6760 C.2   1 <1>   0.3720 
  6 C        2.0180    -3.1300     0.1430 C.2   1 <1>   0.0870 
  7 N        3.0030    -4.7690     1.2130 N.2   1 <1>  -0.4100 
  8 N        1.4800    -6.5280     0.7720 N.pl3 1 <1>  -0.8520 
  9 O        3.0470    -3.5050     0.8720 O.3   1 <1>  -0.0190 
 10 C        1.9180    -1.7620    -0.3130 C.ar  1 <1>   0.0530 
 11 C        0.6190    -6.7710     1.9630 C.3   1 <1>   0.2090 
 12 C        0.7070    -1.1930    -0.7120 C.ar  1 <1>  -0.1500 
 13 C        3.0500    -0.9460    -0.3710 C.ar  1 <1>  -0.1500 
 14 C       -0.8970    -6.6050     1.6800 C.3   1 <1>   0.3430 
 15 C        0.6300     0.1160    -1.1480 C.ar  1 <1>  -0.1500 
 16 C        2.9810     0.3650    -0.8050 C.ar  1 <1>  -0.1500 
 17 N       -1.3940    -7.2480     0.4080 N.4   1 <1>  -0.9590 
 18 C        1.7680     0.9010    -1.1970 C.ar  1 <1>  -0.1500 
 19 C       -2.8810    -7.1380     0.2240 C.3   1 <1>   0.4230 
 20 C       -0.8670    -8.6280     0.2070 C.3   1 <1>   0.3430 
 21 C       -3.2760    -7.7100    -1.1500 C.3   1 <1>  -0.1600 
 22 C       -3.4150    -5.6900     0.3410 C.3   1 <1>   0.1200 
 23 C       -1.2360    -9.1470    -1.1790 C.3   1 <1>  -0.1600 
 24 C       -2.7500    -9.1280    -1.3880 C.3   1 <1>  -0.1600 
 25 O       -4.7980    -5.7110     0.5000 O.3   1 <1>  -0.6800 
 26 H        0.9360    -6.6790    -0.0970 H     1 <1>   0.4000 
 27 H        0.9020    -6.0940     2.7520 H     1 <1>   0.0800 
 28 H        0.8090    -7.7660     2.3240 H     1 <1>   0.0800 
 29 H       -0.1940    -1.7760    -0.6770 H     1 <1>   0.1500 
 30 H        4.0030    -1.3470    -0.0730 H     1 <1>   0.1500 
 31 H       -1.0990    -5.5470     1.6330 H     1 <1>   0.0800 
 32 H       -1.4460    -6.9990     2.5180 H     1 <1>   0.0800 
 33 H       -0.3200     0.5230    -1.4490 H     1 <1>   0.1500 
 34 H        3.8710     0.9680    -0.8390 H     1 <1>   0.1500 
 35 H       -1.0130    -6.6530    -0.3740 H     1 <1>   0.4500 
 36 H        1.7080     1.9200    -1.5360 H     1 <1>   0.1500 
 37 H       -3.3570    -7.7230     0.9930 H     1 <1>   0.0800 
 38 H       -1.2760    -9.2840     0.9570 H     1 <1>   0.0800 
 39 H        0.2070    -8.6310     0.3000 H     1 <1>   0.0800 
 40 H       -2.8990    -7.0560    -1.9190 H     1 <1>   0.0800 
 41 H       -4.3490    -7.7150    -1.2340 H     1 <1>   0.0800 
 42 H       -3.1880    -5.1340    -0.5530 H     1 <1>   0.0800 
 43 H       -3.0080    -5.1730     1.1900 H     1 <1>   0.0800 
 44 H       -0.8680   -10.1520    -1.2910 H     1 <1>   0.0800 
 45 H       -0.7510    -8.5370    -1.9240 H     1 <1>   0.0800 
 46 H       -2.9850    -9.4380    -2.3930 H     1 <1>   0.0800 
 47 H       -3.2260    -9.8130    -0.7060 H     1 <1>   0.0800 
 48 H       -5.1510    -4.7980     0.4540 H     1 <1>   0.4000 
@<TRIPOS>BOND
  1   1   2  ar  
  2   2   3  ar  
  3   2   4  1   
  4   4   5  1   
  5   4   6  2   
  6   5   7  2   
  7   5   8  1   
  8   6   9  1   
  9   6  10  1   
 10   7   9  1   
 11   8  11  1   
 12   8  26  1   
 13  10  12  ar  
 14  10  13  ar  
 15  11  14  1   
 16  11  27  1   
 17  11  28  1   
 18  12  15  ar  
 19  12  29  1   
 20  13  16  ar  
 21  13  30  1   
 22  14  17  1   
 23  14  31  1   
 24  14  32  1   
 25  15  18  ar  
 26  15  33  1   
 27  16  18  ar  
 28  16  34  1   
 29  17  19  1   
 30  17  20  1   
 31  17  35  1   
 32  18  36  1   
 33  19  21  1   
 34  19  22  1   
 35  19  37  1   
 36  20  23  1   
 37  20  38  1   
 38  20  39  1   
 39  21  24  1   
 40  21  40  1   
 41  21  41  1   
 42  22  25  1   
 43  22  42  1   
 44  22  43  1   
 45  23  24  1   
 46  23  44  1   
 47  23  45  1   
 48  24  46  1   
 49  24  47  1   
 50  25  48  1   
@<TRIPOS>SUBSTRUCTURE
  1 ****   2 GROUP 4 **** **** 0

# MOE 2024.06 (io_trps.svl 2023.06)
