@<TRIPOS>MOLECULE
NONAME
59 61 1 0 0 
SMALL
USER_CHARGES


@<TRIPOS>ATOM
  1 F       -0.8760    -0.5810     1.1840 F     1 <1>  -0.1900 
  2 C       -2.0480    -0.0670     0.9090 C.ar  1 <1>   0.1900 
  3 C       -2.1870     1.1090     0.1630 C.ar  1 <1>   0.0830 
  4 C       -3.1470    -0.7470     1.3980 C.ar  1 <1>  -0.1500 
  5 O       -1.1860     1.8670    -0.3700 O.3   1 <1>  -0.3630 
  6 C       -3.4710     1.5730    -0.0710 C.ar  1 <1>  -0.1500 
  7 C       -4.4140    -0.2560     1.1450 C.ar  1 <1>  -0.1500 
  8 C        0.1780     1.5220    -0.2680 C.3   1 <1>   0.0400 
  9 C       -4.6050     0.9100     0.4030 C.ar  1 <1>   0.0530 
 10 C       -5.9190     1.4400     0.1410 C.2   1 <1>   0.0870 
 11 O       -6.1240     2.7260     0.2810 O.3   1 <1>  -0.0190 
 12 C       -7.1010     0.8890    -0.2520 C.2   1 <1>  -0.0860 
 13 N       -7.3520     3.0800     0.0190 N.2   1 <1>  -0.4100 
 14 C       -7.9620     1.9960    -0.3050 C.2   1 <1>   0.3720 
 15 C       -7.4480    -0.4630    -0.5780 C.2   1 <1>   0.7160 
 16 N       -9.3170     1.9730    -0.6750 N.pl3 1 <1>  -0.8210 
 17 O       -6.6210    -1.3560    -0.5970 O.2   1 <1>  -0.5700 
 18 N       -8.7360    -0.7900    -0.8780 N.am  1 <1>  -0.7300 
 19 C       -9.5440     2.6080    -2.0040 C.3   1 <1>   0.1290 
 20 C      -10.2060     2.5820     0.3570 C.3   1 <1>   0.1290 
 21 C       -9.1860    -2.0580    -1.4770 C.3   1 <1>   0.1400 
 22 C       -9.3660    -3.0900    -0.3590 C.3   1 <1>  -0.1600 
 23 C       -9.8940    -4.4520    -0.8450 C.3   1 <1>   0.4230 
 24 N       -9.9840    -5.3930     0.3090 N.4   1 <1>  -0.9590 
 25 C       -8.9700    -5.0680    -1.9030 C.3   1 <1>  -0.2400 
 26 C      -10.5420    -6.7310    -0.0240 C.3   1 <1>   0.3430 
 27 C      -10.7980    -4.9130     1.4560 C.3   1 <1>   0.3430 
 28 C      -10.9280    -7.3380     1.3170 C.3   1 <1>  -0.1600 
 29 C      -11.0760    -6.1600     2.2820 C.3   1 <1>  -0.1600 
 30 H       -3.0080    -1.6490     1.9670 H     1 <1>   0.1500 
 31 H       -3.5920     2.4760    -0.6410 H     1 <1>   0.1500 
 32 H       -5.2700    -0.7830     1.5280 H     1 <1>   0.1500 
 33 H        0.7510     2.2670    -0.7900 H     1 <1>   0.0800 
 34 H        0.3310     0.5590    -0.7240 H     1 <1>   0.0800 
 35 H        0.4600     1.5080     0.7700 H     1 <1>   0.0800 
 36 H       -9.3740     0.0220    -0.9130 H     1 <1>   0.3700 
 37 H       -8.8910     2.1650    -2.7370 H     1 <1>   0.0800 
 38 H       -9.3360     3.6640    -1.9510 H     1 <1>   0.0800 
 39 H      -10.5640     2.4630    -2.3150 H     1 <1>   0.0800 
 40 H       -9.9810     2.1660     1.3250 H     1 <1>   0.0800 
 41 H      -11.2370     2.3790     0.1230 H     1 <1>   0.0800 
 42 H      -10.0560     3.6480     0.3980 H     1 <1>   0.0800 
 43 H       -8.4400    -2.3820    -2.1840 H     1 <1>   0.0800 
 44 H      -10.1130    -1.8930    -2.0020 H     1 <1>   0.0800 
 45 H      -10.0560    -2.6650     0.3470 H     1 <1>   0.0800 
 46 H       -8.4150    -3.2330     0.1240 H     1 <1>   0.0800 
 47 H      -10.8750    -4.3150    -1.2720 H     1 <1>   0.0800 
 48 H       -9.0290    -5.5410     0.6580 H     1 <1>   0.4500 
 49 H       -7.9700    -5.1780    -1.5210 H     1 <1>   0.0800 
 50 H       -8.9250    -4.4390    -2.7730 H     1 <1>   0.0800 
 51 H       -9.3300    -6.0210    -2.2420 H     1 <1>   0.0800 
 52 H       -9.8240    -7.3460    -0.5430 H     1 <1>   0.0800 
 53 H      -11.4230    -6.6160    -0.6340 H     1 <1>   0.0800 
 54 H      -11.7290    -4.5050     1.0960 H     1 <1>   0.0800 
 55 H      -10.2770    -4.1640     2.0320 H     1 <1>   0.0800 
 56 H      -10.1530    -8.0060     1.6540 H     1 <1>   0.0800 
 57 H      -11.8430    -7.8970     1.2250 H     1 <1>   0.0800 
 58 H      -12.0610    -6.1150     2.7140 H     1 <1>   0.0800 
 59 H      -10.3570    -6.2350     3.0800 H     1 <1>   0.0800 
@<TRIPOS>BOND
  1   1   2  1   
  2   2   3  ar  
  3   2   4  ar  
  4   3   5  1   
  5   3   6  ar  
  6   4   7  ar  
  7   4  30  1   
  8   5   8  1   
  9   6   9  ar  
 10   6  31  1   
 11   7   9  ar  
 12   7  32  1   
 13   8  33  1   
 14   8  34  1   
 15   8  35  1   
 16   9  10  1   
 17  10  11  1   
 18  10  12  2   
 19  11  13  1   
 20  12  14  1   
 21  12  15  1   
 22  13  14  2   
 23  14  16  1   
 24  15  17  2   
 25  15  18  am  
 26  16  19  1   
 27  16  20  1   
 28  18  21  1   
 29  18  36  1   
 30  19  37  1   
 31  19  38  1   
 32  19  39  1   
 33  20  40  1   
 34  20  41  1   
 35  20  42  1   
 36  21  22  1   
 37  21  43  1   
 38  21  44  1   
 39  22  23  1   
 40  22  45  1   
 41  22  46  1   
 42  23  24  1   
 43  23  25  1   
 44  23  47  1   
 45  24  26  1   
 46  24  27  1   
 47  24  48  1   
 48  25  49  1   
 49  25  50  1   
 50  25  51  1   
 51  26  28  1   
 52  26  52  1   
 53  26  53  1   
 54  27  29  1   
 55  27  54  1   
 56  27  55  1   
 57  28  29  1   
 58  28  56  1   
 59  28  57  1   
 60  29  58  1   
 61  29  59  1   
@<TRIPOS>SUBSTRUCTURE
  1 ****  17 GROUP 4 **** **** 0

# MOE 2024.06 (io_trps.svl 2023.06)
