@<TRIPOS>MOLECULE
NONAME
51 53 1 0 0 
SMALL
USER_CHARGES


@<TRIPOS>ATOM
  1 O       -2.1230    -1.0280    -2.7320 O.2   1 <1>  -0.5700 
  2 C       -2.2340    -1.2960    -1.5630 C.2   1 <1>   0.5690 
  3 N       -2.0510    -0.3670    -0.5790 N.am  1 <1>  -0.6600 
  4 C       -2.6330    -2.7070    -1.2150 C.3   1 <1>  -0.0190 
  5 C       -2.2540    -0.6660     0.8670 C.3   1 <1>   0.2200 
  6 C       -1.5780     1.0170    -0.8990 C.3   1 <1>   0.0600 
  7 C       -1.5790    -3.4120    -0.3350 C.3   1 <1>   0.1200 
  8 C       -4.0780    -2.6950    -0.7010 C.3   1 <1>   0.3430 
  9 C       -1.2610    -1.7510     1.3510 C.3   1 <1>   0.1200 
 10 C       -3.7450    -0.9890     1.1630 C.3   1 <1>   0.3430 
 11 O       -1.6630    -3.0540     1.0170 O.3   1 <1>  -0.5600 
 12 N       -4.1960    -2.3670     0.7590 N.4   1 <1>  -0.9590 
 13 C       -5.5220    -2.7310     1.3220 C.3   1 <1>   0.4860 
 14 C       -5.7210    -4.2250     1.1530 C.ar  1 <1>  -0.1440 
 15 C       -6.6780    -4.7000     0.2670 C.ar  1 <1>  -0.1500 
 16 C       -4.9480    -5.1280     1.8710 C.ar  1 <1>  -0.1500 
 17 C       -6.8600    -6.0610     0.0880 C.ar  1 <1>   0.0820 
 18 C       -5.1160    -6.4890     1.6870 C.ar  1 <1>  -0.1500 
 19 O       -7.8340    -6.4400    -0.7750 O.3   1 <1>  -0.3620 
 20 C       -6.0530    -6.9660     0.7870 C.ar  1 <1>   0.0820 
 21 C       -8.8960    -7.2060    -0.2450 C.3   1 <1>   0.0400 
 22 O       -6.1390    -8.3080     0.6310 O.3   1 <1>  -0.3630 
 23 C       -5.7740    -8.8290    -0.6260 C.3   1 <1>   0.1200 
 24 C       -5.8690   -10.3500    -0.5520 C.3   1 <1>  -0.2400 
 25 H       -2.6500    -3.2420    -2.1470 H     1 <1>   0.0800 
 26 H       -2.0170     0.2330     1.4100 H     1 <1>   0.0800 
 27 H       -2.3060     1.7410    -0.5780 H     1 <1>   0.0800 
 28 H       -1.4250     1.1390    -1.9580 H     1 <1>   0.0800 
 29 H       -0.6430     1.2090    -0.4020 H     1 <1>   0.0800 
 30 H       -0.5820    -3.2060    -0.6890 H     1 <1>   0.0800 
 31 H       -1.7320    -4.4780    -0.3820 H     1 <1>   0.0800 
 32 H       -4.4850    -3.6790    -0.8710 H     1 <1>   0.0800 
 33 H       -4.6580    -1.9980    -1.2850 H     1 <1>   0.0800 
 34 H       -1.1980    -1.7160     2.4250 H     1 <1>   0.0800 
 35 H       -0.2740    -1.5730     0.9570 H     1 <1>   0.0800 
 36 H       -4.3590    -0.2470     0.6800 H     1 <1>   0.0800 
 37 H       -3.8880    -0.8860     2.2260 H     1 <1>   0.0800 
 38 H       -3.5010    -3.0070     1.1940 H     1 <1>   0.4500 
 39 H       -5.5610    -2.4870     2.3710 H     1 <1>   0.0800 
 40 H       -6.3050    -2.1930     0.8130 H     1 <1>   0.0800 
 41 H       -7.3040    -4.0300    -0.2960 H     1 <1>   0.1500 
 42 H       -4.2080    -4.7910     2.5790 H     1 <1>   0.1500 
 43 H       -4.5180    -7.1950     2.2370 H     1 <1>   0.1500 
 44 H       -9.6600    -7.2880    -0.9970 H     1 <1>   0.0800 
 45 H       -9.2870    -6.7070     0.6240 H     1 <1>   0.0800 
 46 H       -8.5390    -8.1850     0.0170 H     1 <1>   0.0800 
 47 H       -6.4430    -8.4430    -1.3750 H     1 <1>   0.0800 
 48 H       -4.7670    -8.5180    -0.8430 H     1 <1>   0.0800 
 49 H       -6.8770   -10.6470    -0.3230 H     1 <1>   0.0800 
 50 H       -5.2030   -10.7250     0.2030 H     1 <1>   0.0800 
 51 H       -5.5920   -10.7780    -1.4980 H     1 <1>   0.0800 
@<TRIPOS>BOND
  1   1   2  2   
  2   2   3  am  
  3   2   4  1   
  4   3   5  1   
  5   3   6  1   
  6   4   7  1   
  7   4   8  1   
  8   4  25  1   
  9   5   9  1   
 10   5  10  1   
 11   5  26  1   
 12   6  27  1   
 13   6  28  1   
 14   6  29  1   
 15   7  11  1   
 16   7  30  1   
 17   7  31  1   
 18   8  12  1   
 19   8  32  1   
 20   8  33  1   
 21   9  11  1   
 22   9  34  1   
 23   9  35  1   
 24  10  12  1   
 25  10  36  1   
 26  10  37  1   
 27  12  13  1   
 28  12  38  1   
 29  13  14  1   
 30  13  39  1   
 31  13  40  1   
 32  14  15  ar  
 33  14  16  ar  
 34  15  17  ar  
 35  15  41  1   
 36  16  18  ar  
 37  16  42  1   
 38  17  19  1   
 39  17  20  ar  
 40  18  20  ar  
 41  18  43  1   
 42  19  21  1   
 43  20  22  1   
 44  21  44  1   
 45  21  45  1   
 46  21  46  1   
 47  22  23  1   
 48  23  24  1   
 49  23  47  1   
 50  23  48  1   
 51  24  49  1   
 52  24  50  1   
 53  24  51  1   
@<TRIPOS>SUBSTRUCTURE
  1 ****   8 GROUP 4 **** **** 0

# MOE 2024.06 (io_trps.svl 2023.06)
