@<TRIPOS>MOLECULE
NONAME
40 43 1 0 0 
SMALL
USER_CHARGES


@<TRIPOS>ATOM
  1 S       -2.8210    -0.0910    -0.9230 S.3   1 <1>  -0.1570 
  2 C       -2.3220    -1.6480    -0.2340 C.2   1 <1>   0.2420 
  3 C       -1.5790     0.7510     0.0410 C.2   1 <1>  -0.0490 
  4 N       -2.7380    -2.8530    -0.4110 N.2   1 <1>  -0.5650 
  5 N       -1.3110    -1.4700     0.6340 N.pl3 1 <1>   0.3340 
  6 C       -0.8940    -0.1310     0.7880 C.2   1 <1>  -0.1810 
  7 C       -1.9210    -3.5790     0.4280 C.2   1 <1>   0.1410 
  8 C       -1.0550    -2.7180     1.0570 C.2   1 <1>  -0.3020 
  9 C       -1.9570    -5.0300     0.6110 C.2   1 <1>   0.7160 
 10 O       -1.0880    -5.5590     1.2860 O.2   1 <1>  -0.5700 
 11 N       -2.9220    -5.8600     0.0730 N.am  1 <1>  -0.6600 
 12 C       -4.1710    -5.4430    -0.6160 C.3   1 <1>   0.1400 
 13 C       -2.8360    -7.3430     0.1200 C.3   1 <1>   0.1400 
 14 C       -5.0620    -6.6840    -0.5720 C.3   1 <1>   0.2000 
 15 C       -4.0640    -7.8430    -0.6480 C.3   1 <1>  -0.0800 
 16 O       -5.7060    -6.7070     0.6570 O.3   1 <1>  -0.6800 
 17 C       -4.5920    -9.2040    -0.1600 C.3   1 <1>   0.0210 
 18 C       -3.5310   -10.2770    -0.2990 C.2   1 <1>   0.1080 
 19 N       -3.1080   -10.7050    -1.4480 N.2   1 <1>  -0.7070 
 20 C       -2.8930   -10.9080     0.7640 C.2   1 <1>  -0.1500 
 21 N       -2.1810   -11.6320    -1.1450 N.pl3 1 <1>   0.3000 
 22 C       -2.0310   -11.7730     0.1890 C.2   1 <1>  -0.3320 
 23 C       -1.0600   -12.7380     0.8410 C.3   1 <1>  -0.0600 
 24 H       -1.5180     1.8200    -0.0760 H     1 <1>   0.1500 
 25 H       -0.0870     0.0690     1.4690 H     1 <1>   0.1500 
 26 H       -0.2860    -2.9510     1.7700 H     1 <1>   0.1500 
 27 H       -4.6420    -4.6040    -0.1320 H     1 <1>   0.0800 
 28 H       -3.9390    -5.1880    -1.6360 H     1 <1>   0.0800 
 29 H       -1.9230    -7.6890    -0.3350 H     1 <1>   0.0800 
 30 H       -2.8640    -7.6640     1.1480 H     1 <1>   0.0800 
 31 H       -5.8040    -6.7030    -1.3520 H     1 <1>   0.0800 
 32 H       -3.7700    -7.9530    -1.6770 H     1 <1>   0.0800 
 33 H       -5.0500    -6.4970     1.3520 H     1 <1>   0.4000 
 34 H       -5.4470    -9.4880    -0.7470 H     1 <1>   0.0800 
 35 H       -4.9010    -9.1470     0.8680 H     1 <1>   0.0800 
 36 H       -3.0690   -10.7250     1.8090 H     1 <1>   0.1500 
 37 H       -1.6700   -12.1510    -1.8700 H     1 <1>   0.2700 
 38 H       -1.1270   -12.6630     1.9120 H     1 <1>   0.0800 
 39 H       -0.0510   -12.5090     0.5450 H     1 <1>   0.0800 
 40 H       -1.2900   -13.7490     0.5540 H     1 <1>   0.0800 
@<TRIPOS>BOND
  1   1   2  1   
  2   1   3  1   
  3   2   4  2   
  4   2   5  1   
  5   3   6  2   
  6   3  24  1   
  7   4   7  1   
  8   5   6  1   
  9   5   8  1   
 10   6  25  1   
 11   7   8  2   
 12   7   9  1   
 13   8  26  1   
 14   9  10  2   
 15   9  11  am  
 16  11  12  1   
 17  11  13  1   
 18  12  14  1   
 19  12  27  1   
 20  12  28  1   
 21  13  15  1   
 22  13  29  1   
 23  13  30  1   
 24  14  15  1   
 25  14  16  1   
 26  14  31  1   
 27  15  17  1   
 28  15  32  1   
 29  16  33  1   
 30  17  18  1   
 31  17  34  1   
 32  17  35  1   
 33  18  19  2   
 34  18  20  1   
 35  19  21  1   
 36  20  22  2   
 37  20  36  1   
 38  21  22  1   
 39  21  37  1   
 40  22  23  1   
 41  23  38  1   
 42  23  39  1   
 43  23  40  1   
@<TRIPOS>SUBSTRUCTURE
  1 ****  11 GROUP 4 **** **** 0

# MOE 2024.06 (io_trps.svl 2023.06)
