@<TRIPOS>MOLECULE
NONAME
49 52 1 0 0 
SMALL
USER_CHARGES


@<TRIPOS>ATOM
  1 O       -0.4470    -0.0990    -1.9590 O.2   1 <1>  -0.5700 
  2 C        0.1620     0.8070    -1.4370 C.2   1 <1>   0.5690 
  3 N       -0.3130     1.4380    -0.3120 N.am  1 <1>  -0.6600 
  4 C        1.4720     1.2260    -2.0960 C.3   1 <1>   0.0440 
  5 C       -1.5880     1.0110     0.3330 C.3   1 <1>   0.1400 
  6 C        0.3830     2.5730     0.3710 C.3   1 <1>   0.1400 
  7 C        2.6850     1.1480    -1.1710 C.ar  1 <1>  -0.1440 
  8 C       -2.6240     2.1580     0.3080 C.3   1 <1>   0.0000 
  9 C       -0.5810     3.4050     1.2350 C.3   1 <1>  -0.1600 
 10 C        3.5300     2.2140    -1.0110 C.ar  1 <1>  -0.1500 
 11 C        2.9360    -0.0380    -0.4680 C.ar  1 <1>  -0.1500 
 12 C       -3.7580     1.8510     1.3040 C.3   1 <1>   0.2000 
 13 C       -1.9500     3.5470     0.5490 C.3   1 <1>  -0.1600 
 14 C       -3.4070     2.1970    -1.0150 C.3   1 <1>  -0.1600 
 15 C        4.6410     2.1550    -0.1450 C.ar  1 <1>   0.0000 
 16 C        4.0070    -0.1250     0.3780 C.ar  1 <1>  -0.1500 
 17 O       -3.4420     2.2150     2.6010 O.3   1 <1>  -0.6800 
 18 C       -4.9850     2.6190     0.8100 C.3   1 <1>  -0.1600 
 19 C       -4.7280     2.8970    -0.6790 C.3   1 <1>  -0.1600 
 20 C        4.8830     0.9610     0.5660 C.ar  1 <1>   0.0000 
 21 C        5.5190     3.2430     0.0380 C.ar  1 <1>  -0.1500 
 22 C        5.9910     0.9030     1.4360 C.ar  1 <1>  -0.1500 
 23 C        6.5870     3.1580     0.8890 C.ar  1 <1>  -0.1500 
 24 C        6.8250     1.9750     1.5960 C.ar  1 <1>  -0.1500 
 25 H        1.6490     0.5820    -2.9380 H     1 <1>   0.0800 
 26 H        1.3520     2.2220    -2.4770 H     1 <1>   0.0800 
 27 H       -1.9900     0.1340    -0.1450 H     1 <1>   0.0800 
 28 H       -1.3740     0.7440     1.3540 H     1 <1>   0.0800 
 29 H        1.1800     2.1870     0.9840 H     1 <1>   0.0800 
 30 H        0.8140     3.2180    -0.3740 H     1 <1>   0.0800 
 31 H       -0.6990     2.9300     2.1940 H     1 <1>   0.0800 
 32 H       -0.1500     4.3750     1.4080 H     1 <1>   0.0800 
 33 H        3.3640     3.1320    -1.5460 H     1 <1>   0.1500 
 34 H        2.2750    -0.8790    -0.5980 H     1 <1>   0.1500 
 35 H       -3.9760     0.7950     1.3020 H     1 <1>   0.0800 
 36 H       -1.7760     4.0330    -0.3950 H     1 <1>   0.0800 
 37 H       -2.5860     4.2020     1.1160 H     1 <1>   0.0800 
 38 H       -2.8710     2.6870    -1.8090 H     1 <1>   0.0800 
 39 H       -3.6230     1.1910    -1.3350 H     1 <1>   0.0800 
 40 H        4.1970    -1.0350     0.9180 H     1 <1>   0.1500 
 41 H       -3.1810     3.1540     2.6180 H     1 <1>   0.4000 
 42 H       -5.8680     2.0190     0.9380 H     1 <1>   0.0800 
 43 H       -5.1050     3.5490     1.3390 H     1 <1>   0.0800 
 44 H       -5.5300     2.5300    -1.2960 H     1 <1>   0.0800 
 45 H       -4.6270     3.9570    -0.8360 H     1 <1>   0.0800 
 46 H        5.3330     4.1490    -0.5080 H     1 <1>   0.1500 
 47 H        6.1700    -0.0090     1.9750 H     1 <1>   0.1500 
 48 H        7.2540     3.9920     1.0250 H     1 <1>   0.1500 
 49 H        7.6700     1.9240     2.2620 H     1 <1>   0.1500 
@<TRIPOS>BOND
  1   1   2  2   
  2   2   3  am  
  3   2   4  1   
  4   3   5  1   
  5   3   6  1   
  6   4   7  1   
  7   4  25  1   
  8   4  26  1   
  9   5   8  1   
 10   5  27  1   
 11   5  28  1   
 12   6   9  1   
 13   6  29  1   
 14   6  30  1   
 15   7  10  ar  
 16   7  11  ar  
 17   8  12  1   
 18   8  13  1   
 19   8  14  1   
 20   9  13  1   
 21   9  31  1   
 22   9  32  1   
 23  10  15  ar  
 24  10  33  1   
 25  11  16  ar  
 26  11  34  1   
 27  12  17  1   
 28  12  18  1   
 29  12  35  1   
 30  13  36  1   
 31  13  37  1   
 32  14  19  1   
 33  14  38  1   
 34  14  39  1   
 35  15  20  ar  
 36  15  21  ar  
 37  16  20  ar  
 38  16  40  1   
 39  17  41  1   
 40  18  19  1   
 41  18  42  1   
 42  18  43  1   
 43  19  44  1   
 44  19  45  1   
 45  20  22  ar  
 46  21  23  ar  
 47  21  46  1   
 48  22  24  ar  
 49  22  47  1   
 50  23  24  ar  
 51  23  48  1   
 52  24  49  1   
@<TRIPOS>SUBSTRUCTURE
  1 ****   6 GROUP 4 **** **** 0

# MOE 2024.06 (io_trps.svl 2023.06)
