@<TRIPOS>MOLECULE
NONAME
48 51 1 0 0 
SMALL
USER_CHARGES


@<TRIPOS>ATOM
  1 F        1.8510     1.7850     0.5470 F     1 <1>  -0.1900 
  2 C        2.5910     0.7130     0.4820 C.ar  1 <1>   0.1900 
  3 C        3.8280     0.7860    -0.0930 C.ar  1 <1>  -0.1500 
  4 C        2.0790    -0.4710     1.0080 C.ar  1 <1>  -0.1500 
  5 C        4.6580    -0.3570    -0.1540 C.ar  1 <1>   0.0000 
  6 C        2.8500    -1.5980     0.9230 C.ar  1 <1>  -0.1500 
  7 C        4.1280    -1.5790     0.3330 C.ar  1 <1>   0.3100 
  8 C        5.9780    -0.3710    -0.6840 C.ar  1 <1>   0.0860 
  9 N        4.7900    -2.7530     0.2480 N.ar  1 <1>  -0.6200 
 10 C        6.7090     0.8210    -1.0730 C.2   1 <1>   0.5440 
 11 C        6.5790    -1.6020    -0.7860 C.ar  1 <1>  -0.1500 
 12 C        5.9540    -2.7570    -0.3130 C.ar  1 <1>   0.1660 
 13 O        7.5470     0.7850    -1.9560 O.2   1 <1>  -0.5700 
 14 N        6.6310     2.0010    -0.3770 N.am  1 <1>  -0.6600 
 15 C        6.6520    -4.0960    -0.4360 C.3   1 <1>  -0.0970 
 16 C        7.1850     2.0030     1.0220 C.3   1 <1>   0.2200 
 17 C        6.5920     3.2920    -1.1400 C.3   1 <1>   0.1400 
 18 C        6.6520     3.1590     1.8840 C.3   1 <1>   0.1200 
 19 C        8.7370     2.0040     0.9910 C.3   1 <1>   0.3430 
 20 C        7.6170     4.3490    -0.6870 C.3   1 <1>  -0.0800 
 21 O        7.4460     4.2960     1.7230 O.3   1 <1>  -0.5600 
 22 N        9.2940     2.4360    -0.3410 N.4   1 <1>  -0.9590 
 23 C        7.1800     5.0660     0.6000 C.3   1 <1>   0.1200 
 24 C        9.0900     3.8890    -0.6360 C.3   1 <1>   0.3430 
 25 C       10.7200     2.0390    -0.5030 C.3   1 <1>   0.2630 
 26 H        4.1440     1.7240    -0.5030 H     1 <1>   0.1500 
 27 H        1.1010    -0.4760     1.4570 H     1 <1>   0.1500 
 28 H        2.4950    -2.5390     1.3030 H     1 <1>   0.1500 
 29 H        7.5560    -1.6900    -1.2260 H     1 <1>   0.1500 
 30 H        7.5840    -4.0080    -0.9620 H     1 <1>   0.0800 
 31 H        6.0180    -4.7820    -0.9680 H     1 <1>   0.0800 
 32 H        6.8400    -4.4940     0.5450 H     1 <1>   0.0800 
 33 H        6.8640     1.0960     1.5070 H     1 <1>   0.0800 
 34 H        6.7490     3.0890    -2.1870 H     1 <1>   0.0800 
 35 H        5.6010     3.7050    -1.0550 H     1 <1>   0.0800 
 36 H        6.7210     2.8860     2.9220 H     1 <1>   0.0800 
 37 H        5.6210     3.3860     1.6650 H     1 <1>   0.0800 
 38 H        9.0690     1.0010     1.1990 H     1 <1>   0.0800 
 39 H        9.1150     2.6380     1.7760 H     1 <1>   0.0800 
 40 H        7.5800     5.1180    -1.4390 H     1 <1>   0.0800 
 41 H        8.7230     1.9170    -1.0480 H     1 <1>   0.4500 
 42 H        6.1310     5.3150     0.5840 H     1 <1>   0.0800 
 43 H        7.7350     5.9820     0.7140 H     1 <1>   0.0800 
 44 H        9.6140     4.4820     0.0960 H     1 <1>   0.0800 
 45 H        9.5310     4.1000    -1.5970 H     1 <1>   0.0800 
 46 H       11.3360     2.5490     0.2200 H     1 <1>   0.0800 
 47 H       11.0660     2.2890    -1.4930 H     1 <1>   0.0800 
 48 H       10.8280     0.9750    -0.3640 H     1 <1>   0.0800 
@<TRIPOS>BOND
  1   1   2  1   
  2   2   3  ar  
  3   2   4  ar  
  4   3   5  ar  
  5   3  26  1   
  6   4   6  ar  
  7   4  27  1   
  8   5   7  ar  
  9   5   8  ar  
 10   6   7  ar  
 11   6  28  1   
 12   7   9  ar  
 13   8  10  1   
 14   8  11  ar  
 15   9  12  ar  
 16  10  13  2   
 17  10  14  am  
 18  11  12  ar  
 19  11  29  1   
 20  12  15  1   
 21  14  16  1   
 22  14  17  1   
 23  15  30  1   
 24  15  31  1   
 25  15  32  1   
 26  16  18  1   
 27  16  19  1   
 28  16  33  1   
 29  17  20  1   
 30  17  34  1   
 31  17  35  1   
 32  18  21  1   
 33  18  36  1   
 34  18  37  1   
 35  19  22  1   
 36  19  38  1   
 37  19  39  1   
 38  20  23  1   
 39  20  24  1   
 40  20  40  1   
 41  21  23  1   
 42  22  24  1   
 43  22  25  1   
 44  22  41  1   
 45  23  42  1   
 46  23  43  1   
 47  24  44  1   
 48  24  45  1   
 49  25  46  1   
 50  25  47  1   
 51  25  48  1   
@<TRIPOS>SUBSTRUCTURE
  1 ****  14 GROUP 4 **** **** 0

# MOE 2024.06 (io_trps.svl 2023.06)
