@<TRIPOS>MOLECULE
NONAME
51 54 1 0 0 
SMALL
USER_CHARGES


@<TRIPOS>ATOM
  1 S        0.9770     1.2100    -0.3940 S.3   1 <1>  -0.0800 
  2 C        2.2380     0.5390    -1.4030 C.2   1 <1>   0.4620 
  3 C        0.8780    -0.3100     0.4380 C.2   1 <1>  -0.1100 
  4 N        2.5360    -0.6750    -1.1390 N.2   1 <1>  -0.5650 
  5 N        2.7920     1.3190    -2.3590 N.pl3 1 <1>  -0.8840 
  6 C        1.7650    -1.1870    -0.0840 C.2   1 <1>   0.1410 
  7 C        1.9320    -2.5600     0.3900 C.2   1 <1>   0.7160 
  8 O        1.2270    -2.9890     1.2870 O.2   1 <1>  -0.5700 
  9 N        2.8140    -3.4680    -0.1620 N.am  1 <1>  -0.6600 
 10 C        3.3910    -4.5510     0.7160 C.3   1 <1>   0.2200 
 11 C        2.9580    -3.5840    -1.6450 C.3   1 <1>   0.1400 
 12 C        4.7980    -4.9950     0.2840 C.3   1 <1>   0.1200 
 13 C        2.4340    -5.7640     0.7980 C.3   1 <1>   0.3430 
 14 C        3.0760    -5.0330    -2.1570 C.3   1 <1>  -0.0800 
 15 O        4.7190    -6.0070    -0.6750 O.3   1 <1>  -0.5600 
 16 N        1.4150    -5.7520    -0.3100 N.4   1 <1>  -0.9590 
 17 C        4.4980    -5.5890    -1.9790 C.3   1 <1>   0.1200 
 18 C        1.9940    -6.0270    -1.6720 C.3   1 <1>   0.3430 
 19 C        0.2160    -6.5800     0.0030 C.3   1 <1>   0.3430 
 20 C        0.5550    -8.0700     0.0920 C.3   1 <1>  -0.1600 
 21 C       -0.7110    -8.9120     0.3150 C.3   1 <1>   0.0960 
 22 N       -0.4040   -10.3460     0.1600 N.pl3 1 <1>   0.3140 
 23 N       -0.0020   -10.8450    -1.0220 N.2   1 <1>  -0.7070 
 24 C       -0.4580   -11.3040     1.1050 C.2   1 <1>  -0.3020 
 25 C        0.1840   -12.1110    -0.8020 C.2   1 <1>   0.1390 
 26 C       -0.0840   -12.4590     0.5160 C.2   1 <1>  -0.1500 
 27 H        0.1660    -0.4020     1.2390 H     1 <1>   0.1500 
 28 H        2.5640     2.3100    -2.4390 H     1 <1>   0.4000 
 29 H        3.6040     0.9880    -2.8810 H     1 <1>   0.4000 
 30 H        3.4960    -4.1460     1.7090 H     1 <1>   0.0800 
 31 H        2.1020    -3.1270    -2.1140 H     1 <1>   0.0800 
 32 H        3.8220    -3.0190    -1.9520 H     1 <1>   0.0800 
 33 H        5.3090    -5.4190     1.1310 H     1 <1>   0.0800 
 34 H        5.3860    -4.1710    -0.0850 H     1 <1>   0.0800 
 35 H        1.9240    -5.7110     1.7450 H     1 <1>   0.0800 
 36 H        3.0000    -6.6810     0.7800 H     1 <1>   0.0800 
 37 H        2.9540    -4.9680    -3.2230 H     1 <1>   0.0800 
 38 H        1.1170    -4.7620    -0.3170 H     1 <1>   0.4500 
 39 H        5.2490    -4.8630    -2.2480 H     1 <1>   0.0800 
 40 H        4.6340    -6.4530    -2.6080 H     1 <1>   0.0800 
 41 H        2.4130    -7.0200    -1.6890 H     1 <1>   0.0800 
 42 H        1.1890    -6.0090    -2.3880 H     1 <1>   0.0800 
 43 H       -0.2100    -6.2530     0.9390 H     1 <1>   0.0800 
 44 H       -0.5260    -6.4330    -0.7650 H     1 <1>   0.0800 
 45 H        1.2380    -8.2550     0.9010 H     1 <1>   0.0800 
 46 H        1.0090    -8.3880    -0.8300 H     1 <1>   0.0800 
 47 H       -1.4610    -8.6660    -0.4150 H     1 <1>   0.0800 
 48 H       -1.1160    -8.7480     1.2980 H     1 <1>   0.0800 
 49 H       -0.7530   -11.1200     2.1220 H     1 <1>   0.1500 
 50 H        0.5100   -12.8050    -1.5590 H     1 <1>   0.1500 
 51 H       -0.0030   -13.4440     0.9420 H     1 <1>   0.1500 
@<TRIPOS>BOND
  1   1   2  1   
  2   1   3  1   
  3   2   4  2   
  4   2   5  1   
  5   3   6  2   
  6   3  27  1   
  7   4   6  1   
  8   5  28  1   
  9   5  29  1   
 10   6   7  1   
 11   7   8  2   
 12   7   9  am  
 13   9  10  1   
 14   9  11  1   
 15  10  12  1   
 16  10  13  1   
 17  10  30  1   
 18  11  14  1   
 19  11  31  1   
 20  11  32  1   
 21  12  15  1   
 22  12  33  1   
 23  12  34  1   
 24  13  16  1   
 25  13  35  1   
 26  13  36  1   
 27  14  17  1   
 28  14  18  1   
 29  14  37  1   
 30  15  17  1   
 31  16  18  1   
 32  16  19  1   
 33  16  38  1   
 34  17  39  1   
 35  17  40  1   
 36  18  41  1   
 37  18  42  1   
 38  19  20  1   
 39  19  43  1   
 40  19  44  1   
 41  20  21  1   
 42  20  45  1   
 43  20  46  1   
 44  21  22  1   
 45  21  47  1   
 46  21  48  1   
 47  22  23  1   
 48  22  24  1   
 49  23  25  2   
 50  24  26  2   
 51  24  49  1   
 52  25  26  1   
 53  25  50  1   
 54  26  51  1   
@<TRIPOS>SUBSTRUCTURE
  1 ****  16 GROUP 4 **** **** 0

# MOE 2024.06 (io_trps.svl 2023.06)
