@<TRIPOS>MOLECULE
NONAME
53 55 1 0 0 
SMALL
USER_CHARGES


@<TRIPOS>ATOM
  1 S        0.0540     0.9760    -0.0200 S.o2  1 <1>   1.2040 
  2 O       -0.2630     0.4580    -1.3320 O.2   1 <1>  -0.6500 
  3 O       -0.3510     0.2500     1.1630 O.2   1 <1>  -0.6500 
  4 C        1.8210     1.3490     0.0760 C.ar  1 <1>  -0.0090 
  5 C       -0.6710     2.5990     0.0900 C.3   1 <1>  -0.1350 
  6 C        2.5610     1.6140    -1.0690 C.ar  1 <1>  -0.1500 
  7 C        2.4760     1.4130     1.2990 C.ar  1 <1>  -0.1500 
  8 C        3.9050     1.9370    -0.9970 C.ar  1 <1>  -0.1500 
  9 C        3.8190     1.7360     1.3790 C.ar  1 <1>  -0.1500 
 10 C        4.5480     2.0040     0.2310 C.ar  1 <1>  -0.1430 
 11 C        6.0240     2.3700     0.3330 C.3   1 <1>   0.4330 
 12 N        6.1960     3.7070    -0.2470 N.pl3 1 <1>  -0.8690 
 13 C        6.9090     1.3880    -0.4270 C.3   1 <1>  -0.2400 
 14 C        7.0280     4.7030     0.0790 C.ar  1 <1>   0.4100 
 15 N        6.7710     5.8460    -0.5120 N.ar  1 <1>  -0.6200 
 16 C        8.0960     4.5480     0.9800 C.ar  1 <1>  -0.1500 
 17 C        7.5540     6.8830    -0.2430 C.ar  1 <1>   0.7710 
 18 C        8.8810     5.6180     1.2510 C.ar  1 <1>   0.2180 
 19 N        8.5800     6.7790     0.6220 N.ar  1 <1>  -0.1790 
 20 N        7.3200     8.0830    -0.8420 N.pl3 1 <1>  -0.8380 
 21 C       10.0610     5.5800     2.2070 C.3   1 <1>  -0.0970 
 22 C        6.0910     8.3220    -1.6710 C.3   1 <1>   0.2090 
 23 C        8.1680     9.3140    -0.7740 C.3   1 <1>   0.2090 
 24 C        5.2540     9.4260    -1.0150 C.3   1 <1>  -0.1600 
 25 C        7.3790    10.4280    -0.0820 C.3   1 <1>  -0.1600 
 26 C        6.0620    10.7170    -0.8170 C.3   1 <1>  -0.1600 
 27 H       -1.7400     2.5260     0.0450 H     1 <1>   0.0800 
 28 H       -0.3370     3.2140    -0.7230 H     1 <1>   0.0800 
 29 H       -0.4010     3.0690     1.0160 H     1 <1>   0.0800 
 30 H        2.0810     1.5630    -2.0330 H     1 <1>   0.1500 
 31 H        1.9270     1.2030     2.2030 H     1 <1>   0.1500 
 32 H        4.4450     2.1330    -1.9080 H     1 <1>   0.1500 
 33 H        4.2890     1.7770     2.3470 H     1 <1>   0.1500 
 34 H        6.3170     2.3860     1.3700 H     1 <1>   0.0800 
 35 H        5.4440     3.9420    -0.8990 H     1 <1>   0.4000 
 36 H        6.6730     1.3930    -1.4750 H     1 <1>   0.0800 
 37 H        6.7530     0.3950    -0.0470 H     1 <1>   0.0800 
 38 H        7.9440     1.6440    -0.3000 H     1 <1>   0.0800 
 39 H        8.2690     3.5880     1.4280 H     1 <1>   0.1500 
 40 H        9.0960     7.6320     0.7840 H     1 <1>   0.4570 
 41 H       10.1750     4.5950     2.6250 H     1 <1>   0.0800 
 42 H        9.9120     6.2720     3.0170 H     1 <1>   0.0800 
 43 H       10.9720     5.8320     1.6920 H     1 <1>   0.0800 
 44 H        5.4850     7.4370    -1.7710 H     1 <1>   0.0800 
 45 H        6.3820     8.6260    -2.6620 H     1 <1>   0.0800 
 46 H        8.4160     9.6240    -1.7770 H     1 <1>   0.0800 
 47 H        9.0920     9.1440    -0.2530 H     1 <1>   0.0800 
 48 H        4.8940     9.0700    -0.0660 H     1 <1>   0.0800 
 49 H        4.3960     9.6310    -1.6310 H     1 <1>   0.0800 
 50 H        7.9730    11.3250    -0.0560 H     1 <1>   0.0800 
 51 H        7.1700    10.1430     0.9340 H     1 <1>   0.0800 
 52 H        5.4780    11.4290    -0.2590 H     1 <1>   0.0800 
 53 H        6.2780    11.1500    -1.7790 H     1 <1>   0.0800 
@<TRIPOS>BOND
  1   1   2  2   
  2   1   3  2   
  3   1   4  1   
  4   1   5  1   
  5   4   6  ar  
  6   4   7  ar  
  7   5  27  1   
  8   5  28  1   
  9   5  29  1   
 10   6   8  ar  
 11   6  30  1   
 12   7   9  ar  
 13   7  31  1   
 14   8  10  ar  
 15   8  32  1   
 16   9  10  ar  
 17   9  33  1   
 18  10  11  1   
 19  11  12  1   
 20  11  13  1   
 21  11  34  1   
 22  12  14  1   
 23  12  35  1   
 24  13  36  1   
 25  13  37  1   
 26  13  38  1   
 27  14  15  ar  
 28  14  16  ar  
 29  15  17  ar  
 30  16  18  ar  
 31  16  39  1   
 32  17  19  ar  
 33  17  20  1   
 34  18  19  ar  
 35  18  21  1   
 36  19  40  1   
 37  20  22  1   
 38  20  23  1   
 39  21  41  1   
 40  21  42  1   
 41  21  43  1   
 42  22  24  1   
 43  22  44  1   
 44  22  45  1   
 45  23  25  1   
 46  23  46  1   
 47  23  47  1   
 48  24  26  1   
 49  24  48  1   
 50  24  49  1   
 51  25  26  1   
 52  25  50  1   
 53  25  51  1   
 54  26  52  1   
 55  26  53  1   
@<TRIPOS>SUBSTRUCTURE
  1 ****  12 GROUP 4 **** **** 0

# MOE 2024.06 (io_trps.svl 2023.06)
