@<TRIPOS>MOLECULE
NONAME
50 52 1 0 0 
SMALL
USER_CHARGES


@<TRIPOS>ATOM
  1 O        0.9530     1.3020     2.4050 O.2   1 <1>  -0.5700 
  2 C        0.6640     2.3280     1.8290 C.2   1 <1>   0.5690 
  3 N       -0.5900     2.5320     1.3060 N.am  1 <1>  -0.6600 
  4 C        1.7540     3.4110     1.7220 C.3   1 <1>   0.2700 
  5 C       -0.9140     3.7910     0.5730 C.3   1 <1>   0.1400 
  6 C       -1.6390     1.4800     1.3320 C.3   1 <1>   0.1400 
  7 N        1.3640     4.7230     1.0710 N.pl3 1 <1>  -0.8380 
  8 C       -0.1020     4.9900     1.0930 C.3   1 <1>   0.2090 
  9 C       -1.6910     0.7620    -0.0190 C.3   1 <1>  -0.1600 
 10 C        2.0140     5.0490    -0.0970 C.ar  1 <1>   0.4100 
 11 C       -2.7460    -0.3500    -0.0180 C.3   1 <1>  -0.2400 
 12 N        1.9330     4.1790    -1.0930 N.ar  1 <1>  -0.6200 
 13 C        2.7000     6.2500    -0.1800 C.ar  1 <1>  -0.1500 
 14 C        2.5580     4.5240    -2.2050 C.ar  1 <1>   0.1600 
 15 C        3.3720     6.6070    -1.3340 C.ar  1 <1>   0.0860 
 16 C        3.2700     5.6940    -2.3750 C.ar  1 <1>  -0.1500 
 17 C        4.1160     7.8440    -1.4690 C.2   1 <1>   0.5440 
 18 O        3.9430     8.5250    -2.4620 O.2   1 <1>  -0.5700 
 19 N        5.0220     8.2650    -0.5160 N.am  1 <1>  -0.6600 
 20 C        5.6750     7.3620     0.4710 C.3   1 <1>   0.1400 
 21 C        5.5410     9.6610    -0.4980 C.3   1 <1>   0.1400 
 22 C        5.4940     7.9260     1.8840 C.3   1 <1>  -0.1600 
 23 C        5.3730    10.2520     0.9070 C.3   1 <1>  -0.1600 
 24 C        6.0190     9.3660     1.9820 C.3   1 <1>  -0.1600 
 25 H        2.5820     2.9800     1.1890 H     1 <1>   0.0800 
 26 H        2.0940     3.6220     2.7180 H     1 <1>   0.0800 
 27 H       -1.9620     4.0090     0.6790 H     1 <1>   0.0800 
 28 H       -0.7050     3.6510    -0.4740 H     1 <1>   0.0800 
 29 H       -2.5920     1.9270     1.5560 H     1 <1>   0.0800 
 30 H       -1.4180     0.7670     2.1090 H     1 <1>   0.0800 
 31 H       -0.4050     5.2160     2.1010 H     1 <1>   0.0800 
 32 H       -0.3190     5.8510     0.4840 H     1 <1>   0.0800 
 33 H       -0.7260     0.3310    -0.2220 H     1 <1>   0.0800 
 34 H       -1.9230     1.4660    -0.7980 H     1 <1>   0.0800 
 35 H       -2.5200    -1.0800     0.7390 H     1 <1>   0.0800 
 36 H       -2.7590    -0.8440    -0.9740 H     1 <1>   0.0800 
 37 H       -3.7240     0.0560     0.1710 H     1 <1>   0.0800 
 38 H        2.7020     6.9020     0.6710 H     1 <1>   0.1500 
 39 H        2.4980     3.8330    -3.0290 H     1 <1>   0.1500 
 40 H        3.7500     5.9100    -3.3120 H     1 <1>   0.1500 
 41 H        6.7250     7.3020     0.2400 H     1 <1>   0.0800 
 42 H        5.2720     6.3660     0.4160 H     1 <1>   0.0800 
 43 H        5.0120    10.2730    -1.2090 H     1 <1>   0.0800 
 44 H        6.5820     9.6510    -0.7740 H     1 <1>   0.0800 
 45 H        6.0190     7.3020     2.5850 H     1 <1>   0.0800 
 46 H        4.4500     7.9020     2.1410 H     1 <1>   0.0800 
 47 H        4.3220    10.3610     1.1090 H     1 <1>   0.0800 
 48 H        5.8140    11.2320     0.9330 H     1 <1>   0.0800 
 49 H        7.0870     9.3660     1.8480 H     1 <1>   0.0800 
 50 H        5.8070     9.7660     2.9590 H     1 <1>   0.0800 
@<TRIPOS>BOND
  1   1   2  2   
  2   2   3  am  
  3   2   4  1   
  4   3   5  1   
  5   3   6  1   
  6   4   7  1   
  7   4  25  1   
  8   4  26  1   
  9   5   8  1   
 10   5  27  1   
 11   5  28  1   
 12   6   9  1   
 13   6  29  1   
 14   6  30  1   
 15   7   8  1   
 16   7  10  1   
 17   8  31  1   
 18   8  32  1   
 19   9  11  1   
 20   9  33  1   
 21   9  34  1   
 22  10  12  ar  
 23  10  13  ar  
 24  11  35  1   
 25  11  36  1   
 26  11  37  1   
 27  12  14  ar  
 28  13  15  ar  
 29  13  38  1   
 30  14  16  ar  
 31  14  39  1   
 32  15  16  ar  
 33  15  17  1   
 34  16  40  1   
 35  17  18  2   
 36  17  19  am  
 37  19  20  1   
 38  19  21  1   
 39  20  22  1   
 40  20  41  1   
 41  20  42  1   
 42  21  23  1   
 43  21  43  1   
 44  21  44  1   
 45  22  24  1   
 46  22  45  1   
 47  22  46  1   
 48  23  24  1   
 49  23  47  1   
 50  23  48  1   
 51  24  49  1   
 52  24  50  1   
@<TRIPOS>SUBSTRUCTURE
  1 ****  10 GROUP 4 **** **** 0

# MOE 2024.06 (io_trps.svl 2023.06)
