@<TRIPOS>MOLECULE
NONAME
58 62 1 0 0 
SMALL
USER_CHARGES


@<TRIPOS>ATOM
  1 O        0.6920    -0.0690     1.3740 O.3   1 <1>  -0.5600 
  2 C        0.5660    -1.4210     1.0170 C.3   1 <1>   0.1200 
  3 C        1.5270     0.6580     0.5250 C.3   1 <1>   0.1200 
  4 C        1.9420    -2.1220     0.9990 C.3   1 <1>   0.3340 
  5 C        2.9460     0.0560     0.5500 C.3   1 <1>   0.1900 
  6 N        2.9110    -1.3730     0.1550 N.3   1 <1>  -0.8100 
  7 C        1.7920    -3.5530     0.4890 C.ar  1 <1>  -0.1440 
  8 C        3.8830     0.8460    -0.3870 C.3   1 <1>   0.3430 
  9 C        4.2600    -1.9750     0.1800 C.3   1 <1>   0.1100 
 10 C        1.5000    -3.8070    -0.8450 C.ar  1 <1>  -0.1500 
 11 C        1.9530    -4.6220     1.3600 C.ar  1 <1>  -0.1500 
 12 N        5.2710     0.2510    -0.4390 N.4   1 <1>  -0.9590 
 13 C        5.2230    -1.2180    -0.7550 C.3   1 <1>   0.3430 
 14 C        1.3750    -5.1070    -1.3020 C.ar  1 <1>  -0.1500 
 15 C        1.8290    -5.9230     0.9030 C.ar  1 <1>  -0.1500 
 16 C        6.1570     0.9920    -1.3750 C.3   1 <1>   0.4860 
 17 C        1.5410    -6.1660    -0.4280 C.ar  1 <1>  -0.1500 
 18 C        6.2500     2.4330    -0.9070 C.ar  1 <1>  -0.1440 
 19 C        7.0250     2.8100     0.1860 C.ar  1 <1>  -0.1440 
 20 C        5.5150     3.3930    -1.5890 C.ar  1 <1>  -0.1500 
 21 C        7.0250     4.1360     0.5930 C.ar  1 <1>  -0.1500 
 22 C        7.8870     1.8210     0.9630 C.3   1 <1>  -0.0970 
 23 C        5.5270     4.7100    -1.1750 C.ar  1 <1>  -0.1500 
 24 C        6.2780     5.1020    -0.0740 C.ar  1 <1>  -0.0230 
 25 N        6.2750     6.4620     0.3530 N.pl3 1 <1>   0.5930 
 26 N        5.1820     7.2630     0.2720 N.2   1 <1>  -0.7070 
 27 C        7.3110     7.1590     0.8850 C.2   1 <1>  -0.3020 
 28 C        5.5500     8.4100     0.7480 C.2   1 <1>   0.1390 
 29 C        6.8790     8.4080     1.1510 C.2   1 <1>  -0.1500 
 30 H       -0.0780    -1.8940     1.7360 H     1 <1>   0.0800 
 31 H        0.0980    -1.4780     0.0500 H     1 <1>   0.0800 
 32 H        1.1110     0.6350    -0.4680 H     1 <1>   0.0800 
 33 H        1.5380     1.6740     0.8770 H     1 <1>   0.0800 
 34 H        2.3050    -2.1490     2.0120 H     1 <1>   0.0800 
 35 H        3.3160     0.1450     1.5570 H     1 <1>   0.0800 
 36 H        3.9350     1.8680    -0.0480 H     1 <1>   0.0800 
 37 H        3.4520     0.8460    -1.3740 H     1 <1>   0.0800 
 38 H        4.6480    -1.9770     1.1850 H     1 <1>   0.0800 
 39 H        4.2080    -2.9990    -0.1530 H     1 <1>   0.0800 
 40 H        1.3730    -2.9890    -1.5320 H     1 <1>   0.1500 
 41 H        2.1750    -4.4530     2.3990 H     1 <1>   0.1500 
 42 H        5.6710     0.3730     0.4980 H     1 <1>   0.4500 
 43 H        4.8820    -1.3600    -1.7680 H     1 <1>   0.0800 
 44 H        6.2070    -1.6480    -0.6720 H     1 <1>   0.0800 
 45 H        1.1470    -5.2950    -2.3370 H     1 <1>   0.1500 
 46 H        1.9550    -6.7470     1.5830 H     1 <1>   0.1500 
 47 H        7.1410     0.5520    -1.3870 H     1 <1>   0.0800 
 48 H        5.7560     0.9560    -2.3740 H     1 <1>   0.0800 
 49 H        1.4430    -7.1770    -0.7830 H     1 <1>   0.1500 
 50 H        4.9210     3.1320    -2.4490 H     1 <1>   0.1500 
 51 H        7.6110     4.4320     1.4460 H     1 <1>   0.1500 
 52 H        8.6220     2.3440     1.5510 H     1 <1>   0.0800 
 53 H        8.4200     1.1670     0.2980 H     1 <1>   0.0800 
 54 H        7.2830     1.2390     1.6340 H     1 <1>   0.0800 
 55 H        4.9480     5.4480    -1.7070 H     1 <1>   0.1500 
 56 H        8.2820     6.7280     1.0340 H     1 <1>   0.1500 
 57 H        4.8950     9.2630     0.8190 H     1 <1>   0.1500 
 58 H        7.4140     9.2400     1.5750 H     1 <1>   0.1500 
@<TRIPOS>BOND
  1   1   2  1   
  2   1   3  1   
  3   2   4  1   
  4   2  30  1   
  5   2  31  1   
  6   3   5  1   
  7   3  32  1   
  8   3  33  1   
  9   4   6  1   
 10   4   7  1   
 11   4  34  1   
 12   5   6  1   
 13   5   8  1   
 14   5  35  1   
 15   6   9  1   
 16   7  10  ar  
 17   7  11  ar  
 18   8  12  1   
 19   8  36  1   
 20   8  37  1   
 21   9  13  1   
 22   9  38  1   
 23   9  39  1   
 24  10  14  ar  
 25  10  40  1   
 26  11  15  ar  
 27  11  41  1   
 28  12  13  1   
 29  12  16  1   
 30  12  42  1   
 31  13  43  1   
 32  13  44  1   
 33  14  17  ar  
 34  14  45  1   
 35  15  17  ar  
 36  15  46  1   
 37  16  18  1   
 38  16  47  1   
 39  16  48  1   
 40  17  49  1   
 41  18  19  ar  
 42  18  20  ar  
 43  19  21  ar  
 44  19  22  1   
 45  20  23  ar  
 46  20  50  1   
 47  21  24  ar  
 48  21  51  1   
 49  22  52  1   
 50  22  53  1   
 51  22  54  1   
 52  23  24  ar  
 53  23  55  1   
 54  24  25  1   
 55  25  26  1   
 56  25  27  1   
 57  26  28  2   
 58  27  29  2   
 59  27  56  1   
 60  28  29  1   
 61  28  57  1   
 62  29  58  1   
@<TRIPOS>SUBSTRUCTURE
  1 ****   8 GROUP 4 **** **** 0

# MOE 2024.06 (io_trps.svl 2023.06)
