@<TRIPOS>MOLECULE
NONAME
49 51 1 0 0 
SMALL
USER_CHARGES


@<TRIPOS>ATOM
  1 F       -0.7610     2.8290    -1.4900 F     1 <1>  -0.1900 
  2 C        0.1090     3.6450    -0.9610 C.ar  1 <1>   0.1900 
  3 C        1.3020     3.8700    -1.6180 C.ar  1 <1>  -0.1500 
  4 C       -0.1920     4.2570     0.2390 C.ar  1 <1>  -0.1500 
  5 C        2.2180     4.7370    -1.0480 C.ar  1 <1>  -0.1500 
  6 C        0.7370     5.1210     0.7940 C.ar  1 <1>  -0.1500 
  7 C        1.9620     5.3840     0.1680 C.ar  1 <1>   0.0540 
  8 C        2.9370     6.2920     0.7500 C.2   1 <1>   0.4620 
  9 N        2.7120     6.9700     1.8840 N.2   1 <1>  -0.2270 
 10 N        4.1040     6.5410     0.2480 N.2   1 <1>  -0.7070 
 11 N        3.7520     7.6640     2.1100 N.2   1 <1>  -0.4180 
 12 N        4.5810     7.3980     1.1200 N.pl3 1 <1>   0.5800 
 13 C        5.9180     8.0120     1.0020 C.3   1 <1>   0.0960 
 14 C        5.8440     9.3720     0.2870 C.3   1 <1>  -0.1600 
 15 C        7.2260    10.0420     0.2060 C.3   1 <1>  -0.0990 
 16 C        7.1700    11.3570    -0.5440 C.2   1 <1>   0.5690 
 17 O        7.5320    11.3920    -1.6930 O.2   1 <1>  -0.5700 
 18 N        6.7260    12.4560     0.1060 N.am  1 <1>  -0.7300 
 19 C        6.6400    13.7950    -0.4770 C.3   1 <1>   0.4000 
 20 C        7.6400    14.6530     0.2760 C.2   1 <1>  -0.3320 
 21 C        5.1910    14.2840    -0.3510 C.3   1 <1>  -0.1600 
 22 N        8.9660    14.6340     0.0070 N.pl3 1 <1>   0.3140 
 23 C        7.4650    15.5340     1.2870 C.2   1 <1>  -0.1500 
 24 C        4.9530    15.6290    -1.0550 C.3   1 <1>  -0.2400 
 25 N        9.6410    15.4720     0.8130 N.2   1 <1>  -0.7070 
 26 C        9.6730    13.8340    -1.0050 C.3   1 <1>   0.0160 
 27 C        8.7380    16.0070     1.5730 C.2   1 <1>   0.1390 
 28 H        1.5050     3.3770    -2.5510 H     1 <1>   0.1500 
 29 H       -1.1310     4.0590     0.7240 H     1 <1>   0.1500 
 30 H        3.1510     4.9200    -1.5520 H     1 <1>   0.1500 
 31 H        0.5050     5.6000     1.7300 H     1 <1>   0.1500 
 32 H        6.5490     7.3370     0.4540 H     1 <1>   0.0800 
 33 H        6.3170     8.1320     1.9920 H     1 <1>   0.0800 
 34 H        5.1650    10.0190     0.8170 H     1 <1>   0.0800 
 35 H        5.4650     9.2260    -0.7110 H     1 <1>   0.0800 
 36 H        7.9130     9.3920    -0.3070 H     1 <1>   0.0800 
 37 H        7.6130    10.2200     1.1920 H     1 <1>   0.0800 
 38 H        6.5360    12.4330     1.1060 H     1 <1>   0.3700 
 39 H        6.8980    13.7610    -1.5230 H     1 <1>   0.0800 
 40 H        4.9250    14.3710     0.6870 H     1 <1>   0.0800 
 41 H        4.5440    13.5510    -0.8020 H     1 <1>   0.0800 
 42 H        6.5620    15.8340     1.7880 H     1 <1>   0.1500 
 43 H        5.5660    16.4020    -0.6260 H     1 <1>   0.0800 
 44 H        3.9220    15.9200    -0.9540 H     1 <1>   0.0800 
 45 H        5.1830    15.5510    -2.1030 H     1 <1>   0.0800 
 46 H        9.1780    13.9310    -1.9530 H     1 <1>   0.0800 
 47 H        9.6790    12.8050    -0.7000 H     1 <1>   0.0800 
 48 H       10.6840    14.1880    -1.0900 H     1 <1>   0.0800 
 49 H        8.9630    16.7330     2.3360 H     1 <1>   0.1500 
@<TRIPOS>BOND
  1   1   2  1   
  2   2   3  ar  
  3   2   4  ar  
  4   3   5  ar  
  5   3  28  1   
  6   4   6  ar  
  7   4  29  1   
  8   5   7  ar  
  9   5  30  1   
 10   6   7  ar  
 11   6  31  1   
 12   7   8  1   
 13   8   9  1   
 14   8  10  2   
 15   9  11  2   
 16  10  12  1   
 17  11  12  1   
 18  12  13  1   
 19  13  14  1   
 20  13  32  1   
 21  13  33  1   
 22  14  15  1   
 23  14  34  1   
 24  14  35  1   
 25  15  16  1   
 26  15  36  1   
 27  15  37  1   
 28  16  17  2   
 29  16  18  am  
 30  18  19  1   
 31  18  38  1   
 32  19  20  1   
 33  19  21  1   
 34  19  39  1   
 35  20  22  1   
 36  20  23  2   
 37  21  24  1   
 38  21  40  1   
 39  21  41  1   
 40  22  25  1   
 41  22  26  1   
 42  23  27  1   
 43  23  42  1   
 44  24  43  1   
 45  24  44  1   
 46  24  45  1   
 47  25  27  2   
 48  26  46  1   
 49  26  47  1   
 50  26  48  1   
 51  27  49  1   
@<TRIPOS>SUBSTRUCTURE
  1 ****  14 GROUP 4 **** **** 0

# MOE 2024.06 (io_trps.svl 2023.06)
