@<TRIPOS>MOLECULE
NONAME
47 49 1 0 0 
SMALL
USER_CHARGES


@<TRIPOS>ATOM
  1 S        1.6330     1.5620     1.0480 S.o2  1 <1>   1.3330 
  2 O        0.5920     0.6970     0.5390 O.2   1 <1>  -0.6500 
  3 O        1.3220     2.5230     2.0820 O.2   1 <1>  -0.6500 
  4 N        2.8790     0.5710     1.6440 N.am  1 <1>  -0.8490 
  5 C        2.3710     2.4180    -0.3430 C.3   1 <1>  -0.0550 
  6 C        3.8990     1.3110     2.3960 C.3   1 <1>   0.1160 
  7 C        2.3530    -0.5200     2.4690 C.3   1 <1>   0.1160 
  8 C        2.7240     1.5220    -1.5520 C.3   1 <1>  -0.0800 
  9 C        3.1740     2.2830    -2.7940 C.3   1 <1>   0.2200 
 10 C        3.8820     0.5450    -1.3080 C.3   1 <1>   0.1200 
 11 N        4.0540     3.4120    -2.4140 N.am  1 <1>  -0.7300 
 12 C        4.0070     1.2190    -3.4930 C.3   1 <1>   0.1200 
 13 O        4.6680     0.5490    -2.4650 O.3   1 <1>  -0.5600 
 14 C        3.6700     4.7100    -2.3390 C.2   1 <1>   0.5690 
 15 O        2.5940     5.0770    -2.7430 O.2   1 <1>  -0.5700 
 16 C        4.5990     5.7080    -1.6750 C.3   1 <1>   0.0440 
 17 C        4.8790     5.2960    -0.2340 C.ar  1 <1>  -0.1430 
 18 C        6.1180     4.7710     0.1220 C.ar  1 <1>  -0.1500 
 19 C        3.8740     5.4240     0.7250 C.ar  1 <1>  -0.1500 
 20 C        6.3070     4.3830     1.4330 C.ar  1 <1>   0.0820 
 21 C        4.0820     5.0230     2.0390 C.ar  1 <1>  -0.1500 
 22 O        7.4010     3.8530     1.9890 O.3   1 <1>  -0.3630 
 23 C        5.3190     4.5030     2.3650 C.ar  1 <1>   0.0820 
 24 C        7.1080     3.6660     3.3720 C.3   1 <1>   0.4000 
 25 O        5.7440     4.0460     3.5470 O.3   1 <1>  -0.3630 
 26 H        1.6790     3.1670    -0.6780 H     1 <1>   0.0800 
 27 H        3.2510     2.9250    -0.0070 H     1 <1>   0.0800 
 28 H        4.6760     0.6420     2.7230 H     1 <1>   0.0800 
 29 H        3.4650     1.7910     3.2590 H     1 <1>   0.0800 
 30 H        4.3460     2.0620     1.7710 H     1 <1>   0.0800 
 31 H        3.1570    -1.1460     2.8170 H     1 <1>   0.0800 
 32 H        1.6790    -1.1290     1.8900 H     1 <1>   0.0800 
 33 H        1.8180    -0.1230     3.3160 H     1 <1>   0.0800 
 34 H        1.8560     0.9410    -1.8140 H     1 <1>   0.0800 
 35 H        2.3510     2.6260    -3.3990 H     1 <1>   0.0800 
 36 H        3.5280    -0.4550    -1.1270 H     1 <1>   0.0800 
 37 H        4.5110     0.8590    -0.4930 H     1 <1>   0.0800 
 38 H        4.9530     3.1160    -2.0230 H     1 <1>   0.3700 
 39 H        4.7240     1.6330    -4.1800 H     1 <1>   0.0800 
 40 H        3.3760     0.5100    -3.9990 H     1 <1>   0.0800 
 41 H        5.5100     5.7660    -2.2400 H     1 <1>   0.0800 
 42 H        4.1400     6.6800    -1.6890 H     1 <1>   0.0800 
 43 H        6.9200     4.6600    -0.5860 H     1 <1>   0.1500 
 44 H        2.9150     5.8320     0.4490 H     1 <1>   0.1500 
 45 H        3.3100     5.1070     2.7830 H     1 <1>   0.1500 
 46 H        7.2340     2.6310     3.6330 H     1 <1>   0.0800 
 47 H        7.7380     4.3070     3.9630 H     1 <1>   0.0800 
@<TRIPOS>BOND
  1   1   2  2   
  2   1   3  2   
  3   1   4  am  
  4   1   5  1   
  5   4   6  1   
  6   4   7  1   
  7   5   8  1   
  8   5  26  1   
  9   5  27  1   
 10   6  28  1   
 11   6  29  1   
 12   6  30  1   
 13   7  31  1   
 14   7  32  1   
 15   7  33  1   
 16   8   9  1   
 17   8  10  1   
 18   8  34  1   
 19   9  11  1   
 20   9  12  1   
 21   9  35  1   
 22  10  13  1   
 23  10  36  1   
 24  10  37  1   
 25  11  14  am  
 26  11  38  1   
 27  12  13  1   
 28  12  39  1   
 29  12  40  1   
 30  14  15  2   
 31  14  16  1   
 32  16  17  1   
 33  16  41  1   
 34  16  42  1   
 35  17  18  ar  
 36  17  19  ar  
 37  18  20  ar  
 38  18  43  1   
 39  19  21  ar  
 40  19  44  1   
 41  20  22  1   
 42  20  23  ar  
 43  21  23  ar  
 44  21  45  1   
 45  22  24  1   
 46  23  25  1   
 47  24  25  1   
 48  24  46  1   
 49  24  47  1   
@<TRIPOS>SUBSTRUCTURE
  1 ****   5 GROUP 4 **** **** 0

# MOE 2024.06 (io_trps.svl 2023.06)
