@<TRIPOS>MOLECULE
NONAME
54 57 1 0 0 
SMALL
USER_CHARGES


@<TRIPOS>ATOM
  1 O        0.8780    -0.0350     2.4090 O.2   1 <1>  -0.5700 
  2 C        1.3150    -0.6820     1.4850 C.2   1 <1>   0.5690 
  3 N        2.0830    -0.1240     0.4690 N.am  1 <1>  -0.4770 
  4 C        0.9680    -2.1820     1.5140 C.3   1 <1>   0.1710 
  5 C        2.2390     1.2700     0.2400 C.ar  1 <1>   0.1170 
  6 C        2.8980    -0.9950    -0.4230 C.3   1 <1>   0.1400 
  7 N        0.3820    -2.7350     0.2600 N.3   1 <1>  -0.8100 
  8 C        3.4120     1.7750    -0.3330 C.ar  1 <1>  -0.1430 
  9 C        1.2280     2.1780     0.5510 C.ar  1 <1>  -0.1500 
 10 C        4.3630    -0.5810    -0.3010 C.3   1 <1>  -0.1600 
 11 C       -0.8520    -2.0450    -0.1780 C.3   1 <1>   0.1100 
 12 C        0.1010    -4.1760     0.3450 C.3   1 <1>   0.1100 
 13 C        3.5600     3.1360    -0.5460 C.ar  1 <1>  -0.1500 
 14 C        4.5520     0.8630    -0.7720 C.3   1 <1>  -0.0170 
 15 C        1.3810     3.5340     0.3350 C.ar  1 <1>  -0.1500 
 16 C       -1.9610    -3.0970    -0.2080 C.3   1 <1>   0.2000 
 17 C       -1.1920    -4.3950    -0.4400 C.3   1 <1>  -0.0800 
 18 C        2.5520     4.0240    -0.2140 C.ar  1 <1>  -0.1430 
 19 O       -2.5710    -3.1240     1.0370 O.3   1 <1>  -0.6800 
 20 C       -1.9380    -5.6910    -0.0720 C.3   1 <1>  -0.0170 
 21 C        2.7300     5.5130    -0.4470 C.3   1 <1>  -0.0970 
 22 C       -1.0500    -6.9070    -0.2900 C.ar  1 <1>  -0.1430 
 23 C       -0.7600    -7.3790    -1.5540 C.ar  1 <1>  -0.1500 
 24 C       -0.4820    -7.5960     0.7630 C.ar  1 <1>  -0.1500 
 25 C        0.0680    -8.4800    -1.7010 C.ar  1 <1>   0.1600 
 26 C        0.3320    -8.6870     0.5080 C.ar  1 <1>   0.1600 
 27 N        0.6240    -9.1420    -0.7000 N.ar  1 <1>  -0.6200 
 28 H        0.2750    -2.3400     2.3220 H     1 <1>   0.0800 
 29 H        1.8650    -2.7230     1.7530 H     1 <1>   0.0800 
 30 H        2.8120    -2.0330    -0.1640 H     1 <1>   0.0800 
 31 H        2.5560    -0.8740    -1.4360 H     1 <1>   0.0800 
 32 H        0.3040     1.8280     0.9690 H     1 <1>   0.1500 
 33 H        4.6650    -0.6690     0.7280 H     1 <1>   0.0800 
 34 H        4.9810    -1.2370    -0.8880 H     1 <1>   0.0800 
 35 H       -1.1160    -1.2120     0.4530 H     1 <1>   0.0800 
 36 H       -0.6910    -1.6760    -1.1760 H     1 <1>   0.0800 
 37 H        0.9140    -4.7480    -0.0700 H     1 <1>   0.0800 
 38 H       -0.0470    -4.4680     1.3710 H     1 <1>   0.0800 
 39 H        4.4690     3.5110    -0.9800 H     1 <1>   0.1500 
 40 H        4.5910     0.8770    -1.8470 H     1 <1>   0.0800 
 41 H        5.4880     1.2420    -0.4000 H     1 <1>   0.0800 
 42 H        0.5830     4.2050     0.5980 H     1 <1>   0.1500 
 43 H       -2.7120    -2.9020    -0.9550 H     1 <1>   0.0800 
 44 H       -0.9280    -4.4380    -1.4810 H     1 <1>   0.0800 
 45 H       -1.8790    -3.0550     1.7220 H     1 <1>   0.4000 
 46 H       -2.8210    -5.7790    -0.6790 H     1 <1>   0.0800 
 47 H       -2.2560    -5.6630     0.9550 H     1 <1>   0.0800 
 48 H        1.7770     5.9860    -0.6020 H     1 <1>   0.0800 
 49 H        3.3400     5.6870    -1.3150 H     1 <1>   0.0800 
 50 H        3.2040     5.9600     0.4080 H     1 <1>   0.0800 
 51 H       -1.1680    -6.9010    -2.4260 H     1 <1>   0.1500 
 52 H       -0.6640    -7.2960     1.7780 H     1 <1>   0.1500 
 53 H        0.2840    -8.8340    -2.6940 H     1 <1>   0.1500 
 54 H        0.7660    -9.2130     1.3400 H     1 <1>   0.1500 
@<TRIPOS>BOND
  1   1   2  2   
  2   2   3  am  
  3   2   4  1   
  4   3   5  1   
  5   3   6  1   
  6   4   7  1   
  7   4  28  1   
  8   4  29  1   
  9   5   8  ar  
 10   5   9  ar  
 11   6  10  1   
 12   6  30  1   
 13   6  31  1   
 14   7  11  1   
 15   7  12  1   
 16   8  13  ar  
 17   8  14  1   
 18   9  15  ar  
 19   9  32  1   
 20  10  14  1   
 21  10  33  1   
 22  10  34  1   
 23  11  16  1   
 24  11  35  1   
 25  11  36  1   
 26  12  17  1   
 27  12  37  1   
 28  12  38  1   
 29  13  18  ar  
 30  13  39  1   
 31  14  40  1   
 32  14  41  1   
 33  15  18  ar  
 34  15  42  1   
 35  16  17  1   
 36  16  19  1   
 37  16  43  1   
 38  17  20  1   
 39  17  44  1   
 40  18  21  1   
 41  19  45  1   
 42  20  22  1   
 43  20  46  1   
 44  20  47  1   
 45  21  48  1   
 46  21  49  1   
 47  21  50  1   
 48  22  23  ar  
 49  22  24  ar  
 50  23  25  ar  
 51  23  51  1   
 52  24  26  ar  
 53  24  52  1   
 54  25  27  ar  
 55  25  53  1   
 56  26  27  ar  
 57  26  54  1   
@<TRIPOS>SUBSTRUCTURE
  1 ****   7 GROUP 4 **** **** 0

# MOE 2024.06 (io_trps.svl 2023.06)
