@<TRIPOS>MOLECULE
NONAME
54 57 1 0 0 
SMALL
USER_CHARGES


@<TRIPOS>ATOM
  1 O        0.1450     1.2270    -0.8150 O.2   1 <1>  -0.5700 
  2 C       -0.2390     2.3710    -0.8730 C.2   1 <1>   0.5690 
  3 N       -1.0710     2.9450     0.0560 N.am  1 <1>  -0.6600 
  4 C        0.2420     3.2190    -2.0470 C.3   1 <1>   0.1810 
  5 C       -1.4640     4.3900    -0.0670 C.3   1 <1>   0.3640 
  6 C       -1.5610     2.2700     1.2900 C.3   1 <1>   0.2200 
  7 O        0.4460     4.5510    -1.6620 O.3   1 <1>  -0.5600 
  8 C       -2.9730     4.5110    -0.2780 C.ar  1 <1>  -0.1440 
  9 C       -0.7210     5.1910    -1.1710 C.3   1 <1>   0.2610 
 10 C       -0.3890     1.9820     2.2280 C.3   1 <1>  -0.2400 
 11 C       -2.3560     1.0040     0.9640 C.3   1 <1>  -0.2400 
 12 C       -3.6570     3.6600    -1.1370 C.ar  1 <1>  -0.1500 
 13 C       -3.6800     5.5030     0.3890 C.ar  1 <1>  -0.1500 
 14 C       -0.4170     6.5960    -0.6340 C.2   1 <1>   0.5690 
 15 C       -5.0230     3.7900    -1.3170 C.ar  1 <1>  -0.1500 
 16 C       -5.0460     5.6350     0.2080 C.ar  1 <1>  -0.1500 
 17 O       -1.1610     7.4840    -0.9840 O.2   1 <1>  -0.5700 
 18 N        0.6130     6.8520     0.2450 N.am  1 <1>  -0.6600 
 19 C       -5.7190     4.7780    -0.6440 C.ar  1 <1>  -0.1500 
 20 C        0.9810     8.2580     0.5860 C.3   1 <1>   0.2840 
 21 C        1.5400     5.8360     0.8180 C.3   1 <1>   0.1400 
 22 C        2.4930     8.4940     0.5700 C.ar  1 <1>  -0.1430 
 23 C        2.9250     6.0280     0.2060 C.3   1 <1>  -0.0170 
 24 C        3.4060     7.4590     0.3980 C.ar  1 <1>  -0.1430 
 25 C        2.9600     9.7890     0.7380 C.ar  1 <1>  -0.1500 
 26 C        4.7660     7.7290     0.3940 C.ar  1 <1>  -0.1500 
 27 C        4.3180    10.0550     0.7360 C.ar  1 <1>  -0.1500 
 28 C        5.2220     9.0240     0.5630 C.ar  1 <1>  -0.1500 
 29 H       -0.4780     3.1910    -2.8440 H     1 <1>   0.0800 
 30 H        1.1790     2.8350    -2.4060 H     1 <1>   0.0800 
 31 H       -1.2330     4.8520     0.8770 H     1 <1>   0.0800 
 32 H       -2.2330     2.9380     1.8050 H     1 <1>   0.0800 
 33 H       -1.3800     5.3080    -2.0130 H     1 <1>   0.0800 
 34 H        0.2840     1.2680     1.7880 H     1 <1>   0.0800 
 35 H       -0.7550     1.5720     3.1510 H     1 <1>   0.0800 
 36 H        0.1450     2.8880     2.4450 H     1 <1>   0.0800 
 37 H       -1.7280     0.2470     0.5320 H     1 <1>   0.0800 
 38 H       -3.1570     1.2320     0.2850 H     1 <1>   0.0800 
 39 H       -2.7840     0.6050     1.8640 H     1 <1>   0.0800 
 40 H       -3.1330     2.8850    -1.6680 H     1 <1>   0.1500 
 41 H       -3.1740     6.1870     1.0490 H     1 <1>   0.1500 
 42 H       -5.5450     3.1240    -1.9820 H     1 <1>   0.1500 
 43 H       -5.5850     6.4070     0.7280 H     1 <1>   0.1500 
 44 H       -6.7810     4.8810    -0.7840 H     1 <1>   0.1500 
 45 H        0.5240     8.9400    -0.1100 H     1 <1>   0.0800 
 46 H        0.6020     8.4850     1.5670 H     1 <1>   0.0800 
 47 H        1.6000     5.9800     1.8840 H     1 <1>   0.0800 
 48 H        1.1990     4.8340     0.6400 H     1 <1>   0.0800 
 49 H        3.6120     5.3430     0.6690 H     1 <1>   0.0800 
 50 H        2.8840     5.8020    -0.8450 H     1 <1>   0.0800 
 51 H        2.2670    10.6010     0.8710 H     1 <1>   0.1500 
 52 H        5.4760     6.9330     0.2560 H     1 <1>   0.1500 
 53 H        4.6700    11.0630     0.8660 H     1 <1>   0.1500 
 54 H        6.2780     9.2280     0.5590 H     1 <1>   0.1500 
@<TRIPOS>BOND
  1   1   2  2   
  2   2   3  am  
  3   2   4  1   
  4   3   5  1   
  5   3   6  1   
  6   4   7  1   
  7   4  29  1   
  8   4  30  1   
  9   5   8  1   
 10   5   9  1   
 11   5  31  1   
 12   6  10  1   
 13   6  11  1   
 14   6  32  1   
 15   7   9  1   
 16   8  12  ar  
 17   8  13  ar  
 18   9  14  1   
 19   9  33  1   
 20  10  34  1   
 21  10  35  1   
 22  10  36  1   
 23  11  37  1   
 24  11  38  1   
 25  11  39  1   
 26  12  15  ar  
 27  12  40  1   
 28  13  16  ar  
 29  13  41  1   
 30  14  17  2   
 31  14  18  am  
 32  15  19  ar  
 33  15  42  1   
 34  16  19  ar  
 35  16  43  1   
 36  18  20  1   
 37  18  21  1   
 38  19  44  1   
 39  20  22  1   
 40  20  45  1   
 41  20  46  1   
 42  21  23  1   
 43  21  47  1   
 44  21  48  1   
 45  22  24  ar  
 46  22  25  ar  
 47  23  24  1   
 48  23  49  1   
 49  23  50  1   
 50  24  26  ar  
 51  25  27  ar  
 52  25  51  1   
 53  26  28  ar  
 54  26  52  1   
 55  27  28  ar  
 56  27  53  1   
 57  28  54  1   
@<TRIPOS>SUBSTRUCTURE
  1 ****   9 GROUP 4 **** **** 0

# MOE 2024.06 (io_trps.svl 2023.06)
