@<TRIPOS>MOLECULE
NONAME
50 53 1 0 0 
SMALL
USER_CHARGES


@<TRIPOS>ATOM
  1 S        1.7490    -0.1810     2.5300 S.3   1 <1>  -0.0800 
  2 C        1.2130    -0.4710     0.8930 C.2   1 <1>   0.1980 
  3 C        1.3270    -1.8130     2.9300 C.2   1 <1>  -0.1100 
  4 N        0.7740    -1.6510     0.6970 N.2   1 <1>  -0.5650 
  5 C        1.3290     0.6940    -0.0880 C.3   1 <1>   0.1000 
  6 C        0.8220    -2.4540     1.8530 C.2   1 <1>   0.1410 
  7 C        0.3830     0.5240    -1.2850 C.3   1 <1>  -0.2400 
  8 C        2.7740     0.8400    -0.5800 C.3   1 <1>  -0.2400 
  9 C        0.3820    -3.8510     1.8720 C.2   1 <1>   0.7160 
 10 O        0.6650    -4.5410     2.8370 O.2   1 <1>  -0.5700 
 11 N       -0.3500    -4.4560     0.8670 N.am  1 <1>  -0.6600 
 12 C       -0.9330    -3.7990    -0.3320 C.3   1 <1>   0.1400 
 13 C       -0.6350    -5.9120     0.8430 C.3   1 <1>   0.1400 
 14 C       -1.9130    -4.8270    -0.8950 C.3   1 <1>   0.2000 
 15 C       -1.2750    -6.1720    -0.5270 C.3   1 <1>  -0.0800 
 16 O       -3.1200    -4.6840    -0.2260 O.3   1 <1>  -0.6800 
 17 C       -2.2450    -7.3730    -0.5520 C.3   1 <1>  -0.0170 
 18 C       -1.6280    -8.7590    -0.3270 C.ar  1 <1>  -0.1440 
 19 C       -2.4730    -9.8790    -0.1220 C.ar  1 <1>   0.0000 
 20 C       -0.2800    -8.9950    -0.3220 C.ar  1 <1>  -0.1500 
 21 C       -1.8670   -11.1400     0.1000 C.ar  1 <1>   0.3100 
 22 C       -3.8880    -9.8230    -0.1310 C.ar  1 <1>  -0.1500 
 23 C        0.2160   -10.2840    -0.0980 C.ar  1 <1>   0.1600 
 24 N       -0.5240   -11.3250     0.1100 N.ar  1 <1>  -0.6200 
 25 C       -2.6830   -12.2620     0.3150 C.ar  1 <1>  -0.1500 
 26 C       -4.6550   -10.9360     0.0800 C.ar  1 <1>  -0.1500 
 27 C       -4.0480   -12.1730     0.3090 C.ar  1 <1>  -0.1500 
 28 H        1.4950    -2.1520     3.9360 H     1 <1>   0.1500 
 29 H        1.0490     1.5930     0.4330 H     1 <1>   0.0800 
 30 H        0.6380    -0.3610    -1.8420 H     1 <1>   0.0800 
 31 H        0.4440     1.3760    -1.9380 H     1 <1>   0.0800 
 32 H       -0.6320     0.4290    -0.9400 H     1 <1>   0.0800 
 33 H        3.0850    -0.0550    -1.0900 H     1 <1>   0.0800 
 34 H        3.4360     1.0060     0.2510 H     1 <1>   0.0800 
 35 H        2.8590     1.6720    -1.2560 H     1 <1>   0.0800 
 36 H       -1.4260    -2.8740    -0.0860 H     1 <1>   0.0800 
 37 H       -0.1470    -3.6100    -1.0430 H     1 <1>   0.0800 
 38 H        0.2720    -6.4760     0.9800 H     1 <1>   0.0800 
 39 H       -1.3190    -6.1480     1.6400 H     1 <1>   0.0800 
 40 H       -2.0890    -4.7090    -1.9500 H     1 <1>   0.0800 
 41 H       -0.4890    -6.3450    -1.2390 H     1 <1>   0.0800 
 42 H       -2.9400    -4.5940     0.7320 H     1 <1>   0.4000 
 43 H       -2.7510    -7.3830    -1.5010 H     1 <1>   0.0800 
 44 H       -2.9890    -7.2120     0.2080 H     1 <1>   0.0800 
 45 H        0.4480    -8.2260    -0.4860 H     1 <1>   0.1500 
 46 H       -4.3820    -8.8870    -0.3100 H     1 <1>   0.1500 
 47 H        1.2840   -10.4180    -0.0980 H     1 <1>   0.1500 
 48 H       -2.1930   -13.2030     0.4860 H     1 <1>   0.1500 
 49 H       -5.7300   -10.8760     0.0720 H     1 <1>   0.1500 
 50 H       -4.6610   -13.0420     0.4750 H     1 <1>   0.1500 
@<TRIPOS>BOND
  1   1   2  1   
  2   1   3  1   
  3   2   4  2   
  4   2   5  1   
  5   3   6  2   
  6   3  28  1   
  7   4   6  1   
  8   5   7  1   
  9   5   8  1   
 10   5  29  1   
 11   6   9  1   
 12   7  30  1   
 13   7  31  1   
 14   7  32  1   
 15   8  33  1   
 16   8  34  1   
 17   8  35  1   
 18   9  10  2   
 19   9  11  am  
 20  11  12  1   
 21  11  13  1   
 22  12  14  1   
 23  12  36  1   
 24  12  37  1   
 25  13  15  1   
 26  13  38  1   
 27  13  39  1   
 28  14  15  1   
 29  14  16  1   
 30  14  40  1   
 31  15  17  1   
 32  15  41  1   
 33  16  42  1   
 34  17  18  1   
 35  17  43  1   
 36  17  44  1   
 37  18  19  ar  
 38  18  20  ar  
 39  19  21  ar  
 40  19  22  ar  
 41  20  23  ar  
 42  20  45  1   
 43  21  24  ar  
 44  21  25  ar  
 45  22  26  ar  
 46  22  46  1   
 47  23  24  ar  
 48  23  47  1   
 49  25  27  ar  
 50  25  48  1   
 51  26  27  ar  
 52  26  49  1   
 53  27  50  1   
@<TRIPOS>SUBSTRUCTURE
  1 ****  13 GROUP 4 **** **** 0

# MOE 2024.06 (io_trps.svl 2023.06)
