@<TRIPOS>MOLECULE
NONAME
49 52 1 0 0 
SMALL
USER_CHARGES


@<TRIPOS>ATOM
  1 S       -1.2040     2.1940    -0.6920 S.3   1 <1>  -0.0800 
  2 C       -0.2000     3.6490    -0.6380 C.2   1 <1>  -0.0450 
  3 C       -1.4870     2.3550    -2.4090 C.2   1 <1>  -0.1100 
  4 C        0.3600     4.0470     0.6250 C.2   1 <1>   0.5940 
  5 C       -0.1320     4.1640    -1.8960 C.2   1 <1>  -0.1500 
  6 C       -0.8530     3.4400    -2.8880 C.2   1 <1>  -0.1500 
  7 O        0.3170     3.3590     1.6160 O.2   1 <1>  -0.5700 
  8 C        1.0670     5.3950     0.7200 C.3   1 <1>  -0.0190 
  9 C        2.5650     5.1640     0.4760 C.3   1 <1>   0.2090 
 10 C        0.7890     6.1570     2.0460 C.3   1 <1>  -0.1600 
 11 N        3.3210     6.3590     0.9340 N.pl3 1 <1>  -0.8380 
 12 C        1.9760     6.0600     3.0220 C.3   1 <1>  -0.1600 
 13 C        4.2950     6.9400     0.1420 C.ar  1 <1>   0.4100 
 14 C        3.2840     6.5920     2.4060 C.3   1 <1>   0.2090 
 15 N        5.4940     7.0360     0.7170 N.ar  1 <1>  -0.6200 
 16 C        4.0270     7.3930    -1.1660 C.ar  1 <1>   0.0860 
 17 C        6.4690     7.5310    -0.0170 C.ar  1 <1>   0.1600 
 18 C        2.7030     7.3730    -1.7340 C.2   1 <1>   0.5440 
 19 C        5.0820     7.8980    -1.9110 C.ar  1 <1>  -0.1500 
 20 C        6.3240     7.9640    -1.3230 C.ar  1 <1>  -0.1500 
 21 O        2.4180     6.5510    -2.5870 O.2   1 <1>  -0.5700 
 22 N        1.7430     8.2880    -1.3660 N.am  1 <1>  -0.6600 
 23 C        0.4330     8.4160    -2.0350 C.3   1 <1>   0.1400 
 24 C        1.9080     9.3000    -0.3010 C.3   1 <1>   0.1400 
 25 C       -0.1380     9.7300    -1.5140 C.3   1 <1>  -0.1600 
 26 C        0.5280     9.9310    -0.1550 C.3   1 <1>  -0.1600 
 27 H       -2.1020     1.6120    -2.8860 H     1 <1>   0.1500 
 28 H        0.4190     5.0450    -2.1790 H     1 <1>   0.1500 
 29 H       -0.8610     3.7650    -3.9140 H     1 <1>   0.1500 
 30 H        0.6980     6.0130    -0.0750 H     1 <1>   0.0800 
 31 H        2.7550     4.9590    -0.5640 H     1 <1>   0.0800 
 32 H        2.9010     4.3110     1.0420 H     1 <1>   0.0800 
 33 H       -0.1090     5.7910     2.5150 H     1 <1>   0.0800 
 34 H        0.6320     7.1960     1.8160 H     1 <1>   0.0800 
 35 H        2.1170     5.0310     3.3030 H     1 <1>   0.0800 
 36 H        1.7620     6.6080     3.9230 H     1 <1>   0.0800 
 37 H        3.3620     7.6510     2.5830 H     1 <1>   0.0800 
 38 H        4.1310     6.1140     2.8700 H     1 <1>   0.0800 
 39 H        7.4410     7.5940     0.4420 H     1 <1>   0.1500 
 40 H        4.9210     8.2290    -2.9230 H     1 <1>   0.1500 
 41 H        7.1700     8.3490    -1.8620 H     1 <1>   0.1500 
 42 H       -0.1930     7.5900    -1.7470 H     1 <1>   0.0800 
 43 H        0.5490     8.4260    -3.1060 H     1 <1>   0.0800 
 44 H        2.6280    10.0340    -0.6190 H     1 <1>   0.0800 
 45 H        2.2310     8.8460     0.6200 H     1 <1>   0.0800 
 46 H       -1.2110     9.7010    -1.4470 H     1 <1>   0.0800 
 47 H        0.1490    10.5230    -2.1830 H     1 <1>   0.0800 
 48 H        0.5910    10.9690     0.1220 H     1 <1>   0.0800 
 49 H       -0.0210     9.4000     0.6020 H     1 <1>   0.0800 
@<TRIPOS>BOND
  1   1   2  1   
  2   1   3  1   
  3   2   4  1   
  4   2   5  2   
  5   3   6  2   
  6   3  27  1   
  7   4   7  2   
  8   4   8  1   
  9   5   6  1   
 10   5  28  1   
 11   6  29  1   
 12   8   9  1   
 13   8  10  1   
 14   8  30  1   
 15   9  11  1   
 16   9  31  1   
 17   9  32  1   
 18  10  12  1   
 19  10  33  1   
 20  10  34  1   
 21  11  13  1   
 22  11  14  1   
 23  12  14  1   
 24  12  35  1   
 25  12  36  1   
 26  13  15  ar  
 27  13  16  ar  
 28  14  37  1   
 29  14  38  1   
 30  15  17  ar  
 31  16  18  1   
 32  16  19  ar  
 33  17  20  ar  
 34  17  39  1   
 35  18  21  2   
 36  18  22  am  
 37  19  20  ar  
 38  19  40  1   
 39  20  41  1   
 40  22  23  1   
 41  22  24  1   
 42  23  25  1   
 43  23  42  1   
 44  23  43  1   
 45  24  26  1   
 46  24  44  1   
 47  24  45  1   
 48  25  26  1   
 49  25  46  1   
 50  25  47  1   
 51  26  48  1   
 52  26  49  1   
@<TRIPOS>SUBSTRUCTURE
  1 ****   9 GROUP 4 **** **** 0

# MOE 2024.06 (io_trps.svl 2023.06)
