@<TRIPOS>MOLECULE
NONAME
44 46 1 0 0 
SMALL
USER_CHARGES


@<TRIPOS>ATOM
  1 F        2.4100    -0.0770     2.8040 F     1 <1>  -0.1900 
  2 C        3.0610     0.7620     2.0250 C.ar  1 <1>   0.1900 
  3 C        3.4130     0.4270     0.7190 C.ar  1 <1>   0.4100 
  4 C        3.4100     1.9880     2.5170 C.ar  1 <1>   0.1600 
  5 N        4.0840     1.2950    -0.0160 N.ar  1 <1>  -0.6200 
  6 N        3.0990    -0.7880     0.1230 N.pl3 1 <1>  -0.8380 
  7 N        4.0710     2.8620     1.7820 N.ar  1 <1>  -0.6200 
  8 C        4.3700     2.4510     0.5540 C.ar  1 <1>   0.7200 
  9 C        1.6750    -1.2240     0.0160 C.3   1 <1>   0.2090 
 10 C        3.9340    -1.3130    -1.0000 C.3   1 <1>   0.2090 
 11 N        5.0570     3.2900    -0.2590 N.pl3 1 <1>  -0.8690 
 12 C        1.5880    -2.7440    -0.2090 C.3   1 <1>   0.1200 
 13 C        3.7210    -2.8270    -1.1800 C.3   1 <1>   0.1200 
 14 C        4.9130     4.7650    -0.3020 C.3   1 <1>   0.2890 
 15 O        2.3590    -3.1350    -1.3120 O.3   1 <1>  -0.5600 
 16 C        5.5520     5.3890     0.9530 C.3   1 <1>   0.0960 
 17 C        3.4290     5.1180    -0.5320 C.3   1 <1>  -0.1600 
 18 N        5.8710     6.8180     0.7690 N.pl3 1 <1>   0.0480 
 19 C        3.1920     6.5380    -1.0680 C.3   1 <1>  -0.2400 
 20 C        5.3930     7.8640     1.4790 C.2   1 <1>   0.0360 
 21 C        6.7140     7.3690    -0.1230 C.2   1 <1>  -0.3020 
 22 N        5.8530     9.0120     1.1000 N.2   1 <1>  -0.5650 
 23 C        6.6870     8.7030     0.0910 C.2   1 <1>   0.0770 
 24 H        3.1450     2.2580     3.5240 H     1 <1>   0.1500 
 25 H        1.2110    -0.7190    -0.8140 H     1 <1>   0.0800 
 26 H        1.1320    -0.9660     0.9060 H     1 <1>   0.0800 
 27 H        4.9740    -1.1200    -0.7980 H     1 <1>   0.0800 
 28 H        3.6700    -0.8040    -1.9110 H     1 <1>   0.0800 
 29 H        5.1410     2.8630    -1.1800 H     1 <1>   0.4000 
 30 H        0.5700    -3.0330    -0.4020 H     1 <1>   0.0800 
 31 H        1.9390    -3.2710     0.6610 H     1 <1>   0.0800 
 32 H        4.1130    -3.3610    -0.3320 H     1 <1>   0.0800 
 33 H        4.2230    -3.1680    -2.0670 H     1 <1>   0.0800 
 34 H        5.4750     5.0970    -1.1580 H     1 <1>   0.0800 
 35 H        6.4680     4.8740     1.1750 H     1 <1>   0.0800 
 36 H        4.8900     5.2910     1.7930 H     1 <1>   0.0800 
 37 H        2.8780     4.9900     0.3830 H     1 <1>   0.0800 
 38 H        3.0260     4.4310    -1.2560 H     1 <1>   0.0800 
 39 H        3.4270     7.2810    -0.3290 H     1 <1>   0.0800 
 40 H        2.1570     6.6570    -1.3350 H     1 <1>   0.0800 
 41 H        3.7900     6.7190    -1.9440 H     1 <1>   0.0800 
 42 H        4.6910     7.7330     2.2830 H     1 <1>   0.1500 
 43 H        7.2770     6.8030    -0.8430 H     1 <1>   0.1500 
 44 H        7.2350     9.4680    -0.4330 H     1 <1>   0.1500 
@<TRIPOS>BOND
  1   1   2  1   
  2   2   3  ar  
  3   2   4  ar  
  4   3   5  ar  
  5   3   6  1   
  6   4   7  ar  
  7   4  24  1   
  8   5   8  ar  
  9   6   9  1   
 10   6  10  1   
 11   7   8  ar  
 12   8  11  1   
 13   9  12  1   
 14   9  25  1   
 15   9  26  1   
 16  10  13  1   
 17  10  27  1   
 18  10  28  1   
 19  11  14  1   
 20  11  29  1   
 21  12  15  1   
 22  12  30  1   
 23  12  31  1   
 24  13  15  1   
 25  13  32  1   
 26  13  33  1   
 27  14  16  1   
 28  14  17  1   
 29  14  34  1   
 30  16  18  1   
 31  16  35  1   
 32  16  36  1   
 33  17  19  1   
 34  17  37  1   
 35  17  38  1   
 36  18  20  1   
 37  18  21  1   
 38  19  39  1   
 39  19  40  1   
 40  19  41  1   
 41  20  22  2   
 42  20  42  1   
 43  21  23  2   
 44  21  43  1   
 45  22  23  1   
 46  23  44  1   
@<TRIPOS>SUBSTRUCTURE
  1 ****   8 GROUP 4 **** **** 0

# MOE 2024.06 (io_trps.svl 2023.06)
