@<TRIPOS>MOLECULE
NONAME
58 61 1 0 0 
SMALL
USER_CHARGES


@<TRIPOS>ATOM
  1 O       -1.5320     1.3900    -2.1880 O.2   1 <1>  -0.5700 
  2 C       -2.1320     1.4150    -1.1310 C.2   1 <1>   0.7160 
  3 N       -3.1220     0.4720    -0.9200 N.am  1 <1>  -0.6600 
  4 C       -1.7880     2.3830    -0.1400 C.2   1 <1>  -0.0860 
  5 C       -3.5000    -0.5260    -1.9680 C.3   1 <1>   0.1400 
  6 C       -3.9300     0.3940     0.3370 C.3   1 <1>   0.1400 
  7 C       -2.6230     3.4020     0.3270 C.2   1 <1>   0.3720 
  8 C       -0.6660     2.5150     0.6140 C.2   1 <1>   0.0870 
  9 C       -3.4950    -1.9520    -1.3890 C.3   1 <1>   0.3430 
 10 C       -3.9420    -1.0410     0.8960 C.3   1 <1>   0.3430 
 11 N       -2.0580     4.0530     1.2830 N.2   1 <1>  -0.4100 
 12 N       -3.9120     3.6540    -0.1700 N.pl3 1 <1>  -0.8210 
 13 O       -0.8790     3.5090     1.4360 O.3   1 <1>  -0.0190 
 14 C        0.5650     1.7720     0.6690 C.ar  1 <1>   0.0530 
 15 N       -4.3400    -2.0610    -0.1430 N.4   1 <1>  -0.9590 
 16 C       -3.9300     4.0720    -1.6010 C.3   1 <1>   0.2090 
 17 C       -4.7840     4.5900     0.6050 C.3   1 <1>   0.2090 
 18 C        1.1390     1.4440     1.8970 C.ar  1 <1>  -0.1500 
 19 C        1.2270     1.3490    -0.4830 C.ar  1 <1>  -0.1500 
 20 C       -4.3600    -3.4600     0.4120 C.3   1 <1>   0.3430 
 21 C       -5.0280     5.1190    -1.7220 C.3   1 <1>  -0.1600 
 22 C       -5.0990     5.7430    -0.3380 C.3   1 <1>  -0.1600 
 23 C        2.3090     0.7110     1.9710 C.ar  1 <1>  -0.1500 
 24 C        2.3980     0.6160    -0.4180 C.ar  1 <1>  -0.1500 
 25 C       -2.9860    -3.9780     0.8750 C.3   1 <1>   0.1200 
 26 C        2.9480     0.2870     0.8180 C.ar  1 <1>   0.0830 
 27 O       -3.1710    -5.2550     1.3690 O.3   1 <1>  -0.6800 
 28 O        4.0870    -0.4260     0.9730 O.3   1 <1>  -0.3630 
 29 C        4.8600    -0.8350    -0.1340 C.3   1 <1>   0.0400 
 30 H       -2.8160    -0.4890    -2.7990 H     1 <1>   0.0800 
 31 H       -4.4780    -0.2870    -2.3470 H     1 <1>   0.0800 
 32 H       -4.9360     0.7190     0.1310 H     1 <1>   0.0800 
 33 H       -3.5340     1.0470     1.0950 H     1 <1>   0.0800 
 34 H       -2.4750    -2.2160    -1.1640 H     1 <1>   0.0800 
 35 H       -3.8560    -2.6370    -2.1390 H     1 <1>   0.0800 
 36 H       -4.6190    -1.0860     1.7340 H     1 <1>   0.0800 
 37 H       -2.9530    -1.2640     1.2620 H     1 <1>   0.0800 
 38 H       -5.3050    -1.8350    -0.4210 H     1 <1>   0.4500 
 39 H       -4.1260     3.2310    -2.2430 H     1 <1>   0.0800 
 40 H       -2.9800     4.5090    -1.8670 H     1 <1>   0.0800 
 41 H       -4.3240     4.9500     1.5090 H     1 <1>   0.0800 
 42 H       -5.6920     4.0750     0.8650 H     1 <1>   0.0800 
 43 H        0.6630     1.7700     2.8060 H     1 <1>   0.1500 
 44 H        0.8280     1.6060    -1.4480 H     1 <1>   0.1500 
 45 H       -4.7340    -4.1350    -0.3410 H     1 <1>   0.0800 
 46 H       -5.0330    -3.4990     1.2530 H     1 <1>   0.0800 
 47 H       -5.9580     4.6290    -1.9540 H     1 <1>   0.0800 
 48 H       -4.8090     5.8410    -2.4880 H     1 <1>   0.0800 
 49 H       -4.3350     6.4940    -0.2330 H     1 <1>   0.0800 
 50 H       -6.0580     6.1810    -0.1290 H     1 <1>   0.0800 
 51 H        2.7400     0.4640     2.9250 H     1 <1>   0.1500 
 52 H        2.8700     0.3140    -1.3340 H     1 <1>   0.1500 
 53 H       -2.5830    -3.3740     1.6700 H     1 <1>   0.0800 
 54 H       -2.2900    -4.0390     0.0570 H     1 <1>   0.0800 
 55 H       -2.3300    -5.6570     1.6780 H     1 <1>   0.4000 
 56 H        5.7240    -1.3550     0.2370 H     1 <1>   0.0800 
 57 H        5.1660     0.0360    -0.6860 H     1 <1>   0.0800 
 58 H        4.2710    -1.4940    -0.7470 H     1 <1>   0.0800 
@<TRIPOS>BOND
  1   1   2  2   
  2   2   3  am  
  3   2   4  1   
  4   3   5  1   
  5   3   6  1   
  6   4   7  1   
  7   4   8  2   
  8   5   9  1   
  9   5  30  1   
 10   5  31  1   
 11   6  10  1   
 12   6  32  1   
 13   6  33  1   
 14   7  11  2   
 15   7  12  1   
 16   8  13  1   
 17   8  14  1   
 18   9  15  1   
 19   9  34  1   
 20   9  35  1   
 21  10  15  1   
 22  10  36  1   
 23  10  37  1   
 24  11  13  1   
 25  12  16  1   
 26  12  17  1   
 27  14  18  ar  
 28  14  19  ar  
 29  15  20  1   
 30  15  38  1   
 31  16  21  1   
 32  16  39  1   
 33  16  40  1   
 34  17  22  1   
 35  17  41  1   
 36  17  42  1   
 37  18  23  ar  
 38  18  43  1   
 39  19  24  ar  
 40  19  44  1   
 41  20  25  1   
 42  20  45  1   
 43  20  46  1   
 44  21  22  1   
 45  21  47  1   
 46  21  48  1   
 47  22  49  1   
 48  22  50  1   
 49  23  26  ar  
 50  23  51  1   
 51  24  26  ar  
 52  24  52  1   
 53  25  27  1   
 54  25  53  1   
 55  25  54  1   
 56  26  28  1   
 57  27  55  1   
 58  28  29  1   
 59  29  56  1   
 60  29  57  1   
 61  29  58  1   
@<TRIPOS>SUBSTRUCTURE
  1 ****   2 GROUP 4 **** **** 0

# MOE 2024.06 (io_trps.svl 2023.06)
