@<TRIPOS>MOLECULE
NONAME
53 55 1 0 0 
SMALL
USER_CHARGES


@<TRIPOS>ATOM
  1 O        0.6020    -3.0170    -2.4230 O.2   1 <1>  -0.5700 
  2 C        1.3920    -3.2140    -1.5240 C.2   1 <1>   0.6900 
  3 N        0.9710    -3.6400    -0.2820 N.am  1 <1>  -0.4200 
  4 N        2.7290    -3.0410    -1.7460 N.am  1 <1>  -0.5390 
  5 C        1.9010    -4.0000     0.6770 C.2   1 <1>   0.6160 
  6 C       -0.4800    -3.7400     0.0210 C.3   1 <1>   0.1400 
  7 C        3.6870    -3.3050    -0.7900 C.2   1 <1>  -0.0290 
  8 O        1.5190    -4.5460     1.6970 O.2   1 <1>  -0.5700 
  9 C        3.2840    -3.7790     0.4090 C.2   1 <1>  -0.1360 
 10 C       -0.8980    -5.2160     0.0240 C.3   1 <1>   0.3430 
 11 C        5.1300    -3.0420    -1.1700 C.3   1 <1>  -0.1020 
 12 N       -2.3120    -5.4140     0.4700 N.4   1 <1>  -0.9590 
 13 C       -2.5860    -6.8060     0.9660 C.3   1 <1>   0.4230 
 14 C       -3.2100    -5.0490    -0.6730 C.3   1 <1>   0.3430 
 15 C       -4.0640    -6.9000     1.3880 C.3   1 <1>  -0.1600 
 16 C       -1.7110    -7.2130     2.1830 C.3   1 <1>  -0.1600 
 17 C       -4.6730    -5.1040    -0.2460 C.3   1 <1>  -0.1600 
 18 C       -5.0340    -6.4950     0.2740 C.3   1 <1>  -0.1600 
 19 C       -0.2910    -7.7630     1.9160 C.3   1 <1>   0.0960 
 20 N       -0.2070    -8.4820     0.6240 N.pl3 1 <1>   0.0480 
 21 C        0.6410    -8.2860    -0.4210 C.2   1 <1>   0.0060 
 22 C       -1.0490    -9.4450     0.2000 C.2   1 <1>  -0.3020 
 23 N        0.3530    -9.0000    -1.4560 N.2   1 <1>  -0.5650 
 24 C        1.8380    -7.3540    -0.4210 C.3   1 <1>  -0.0600 
 25 C       -0.6970    -9.7420    -1.0680 C.2   1 <1>   0.0770 
 26 H        2.9710    -2.7020    -2.6800 H     1 <1>   0.3700 
 27 H       -1.0500    -3.1860    -0.7030 H     1 <1>   0.0800 
 28 H       -0.6540    -3.3100     0.9920 H     1 <1>   0.0800 
 29 H        3.9680    -4.0140     1.2030 H     1 <1>   0.1500 
 30 H       -0.2370    -5.7220     0.6970 H     1 <1>   0.0800 
 31 H       -0.7600    -5.6380    -0.9590 H     1 <1>   0.0800 
 32 H        5.4050    -3.6450    -2.0170 H     1 <1>   0.0800 
 33 H        5.7880    -3.2810    -0.3540 H     1 <1>   0.0800 
 34 H        5.2630    -2.0050    -1.4220 H     1 <1>   0.0800 
 35 H       -2.5170    -4.7830     1.2530 H     1 <1>   0.4500 
 36 H       -2.4310    -7.5010     0.1570 H     1 <1>   0.0800 
 37 H       -3.0520    -5.7350    -1.4900 H     1 <1>   0.0800 
 38 H       -2.9840    -4.0550    -1.0230 H     1 <1>   0.0800 
 39 H       -4.2340    -6.2830     2.2530 H     1 <1>   0.0800 
 40 H       -4.2880    -7.9150     1.6700 H     1 <1>   0.0800 
 41 H       -2.2210    -8.0120     2.6940 H     1 <1>   0.0800 
 42 H       -1.6570    -6.4040     2.8900 H     1 <1>   0.0800 
 43 H       -5.2960    -4.8690    -1.0930 H     1 <1>   0.0800 
 44 H       -4.8610    -4.3610     0.5090 H     1 <1>   0.0800 
 45 H       -6.0450    -6.4980     0.6470 H     1 <1>   0.0800 
 46 H       -4.9780    -7.2090    -0.5320 H     1 <1>   0.0800 
 47 H       -0.0140    -8.4470     2.6990 H     1 <1>   0.0800 
 48 H        0.4290    -6.9660     1.9300 H     1 <1>   0.0800 
 49 H       -1.8320    -9.8690     0.8010 H     1 <1>   0.1500 
 50 H        2.2110    -7.1880     0.5720 H     1 <1>   0.0800 
 51 H        1.5810    -6.4210    -0.8810 H     1 <1>   0.0800 
 52 H        2.6270    -7.8010    -1.0010 H     1 <1>   0.0800 
 53 H       -1.1420   -10.4670    -1.7310 H     1 <1>   0.1500 
@<TRIPOS>BOND
  1   1   2  2   
  2   2   3  am  
  3   2   4  am  
  4   3   5  am  
  5   3   6  1   
  6   4   7  1   
  7   4  26  1   
  8   5   8  2   
  9   5   9  1   
 10   6  10  1   
 11   6  27  1   
 12   6  28  1   
 13   7   9  2   
 14   7  11  1   
 15   9  29  1   
 16  10  12  1   
 17  10  30  1   
 18  10  31  1   
 19  11  32  1   
 20  11  33  1   
 21  11  34  1   
 22  12  13  1   
 23  12  14  1   
 24  12  35  1   
 25  13  15  1   
 26  13  16  1   
 27  13  36  1   
 28  14  17  1   
 29  14  37  1   
 30  14  38  1   
 31  15  18  1   
 32  15  39  1   
 33  15  40  1   
 34  16  19  1   
 35  16  41  1   
 36  16  42  1   
 37  17  18  1   
 38  17  43  1   
 39  17  44  1   
 40  18  45  1   
 41  18  46  1   
 42  19  20  1   
 43  19  47  1   
 44  19  48  1   
 45  20  21  1   
 46  20  22  1   
 47  21  23  2   
 48  21  24  1   
 49  22  25  2   
 50  22  49  1   
 51  23  25  1   
 52  24  50  1   
 53  24  51  1   
 54  24  52  1   
 55  25  53  1   
@<TRIPOS>SUBSTRUCTURE
  1 ****  10 GROUP 4 **** **** 0

# MOE 2024.06 (io_trps.svl 2023.06)
