@<TRIPOS>MOLECULE
NONAME
45 48 1 0 0 
SMALL
USER_CHARGES


@<TRIPOS>ATOM
  1 CL       0.6430    -0.6550     1.1740 Cl    1 <1>  -0.1770 
  2 C       -0.4930    -1.9730     1.2940 C.ar  1 <1>   0.1770 
  3 C       -0.2730    -2.9790     2.2150 C.ar  1 <1>  -0.1500 
  4 C       -1.6000    -1.9970     0.4680 C.ar  1 <1>  -0.1500 
  5 C       -1.1770    -4.0220     2.3050 C.ar  1 <1>  -0.1500 
  6 C       -2.4980    -3.0440     0.5700 C.ar  1 <1>  -0.1500 
  7 C       -2.3080    -4.0830     1.4860 C.ar  1 <1>   0.0530 
  8 C       -3.2390    -5.1810     1.5930 C.2   1 <1>   0.0870 
  9 O       -3.3100    -5.8920     2.6970 O.3   1 <1>  -0.0190 
 10 C       -4.1470    -5.7080     0.7360 C.2   1 <1>  -0.2330 
 11 N       -4.2070    -6.8450     2.6330 N.2   1 <1>  -0.4100 
 12 C       -4.7270    -6.7430     1.4640 C.2   1 <1>   0.3720 
 13 C       -4.5090    -5.3880    -0.6020 C.2   1 <1>   1.0330 
 14 N       -5.7460    -7.5850     1.0130 N.pl3 1 <1>  -0.8210 
 15 O       -4.1160    -6.0960    -1.5470 O.co2 1 <1>  -0.9000 
 16 O       -5.3100    -4.4690    -0.8310 O.co2 1 <1>  -0.9000 
 17 C       -5.3090    -8.3930    -0.1720 C.3   1 <1>   0.2090 
 18 C       -6.9990    -6.8360     0.7350 C.3   1 <1>   0.2090 
 19 C       -5.7880    -9.8430    -0.0130 C.3   1 <1>   0.4230 
 20 C       -8.2050    -7.7590     0.9090 C.3   1 <1>  -0.1600 
 21 N       -7.1470    -9.9860     0.5890 N.4   1 <1>  -0.9590 
 22 C       -5.8640   -10.6610    -1.2970 C.3   1 <1>  -0.1600 
 23 C       -8.1520    -9.0230     0.0480 C.3   1 <1>   0.3430 
 24 C       -7.5250   -11.3960     0.3500 C.3   1 <1>   0.3430 
 25 C       -6.9020   -11.7510    -1.0020 C.3   1 <1>  -0.1600 
 26 H        0.5940    -2.9420     2.8490 H     1 <1>   0.1500 
 27 H       -1.7590    -1.2080    -0.2440 H     1 <1>   0.1500 
 28 H       -1.0060    -4.8080     3.0200 H     1 <1>   0.1500 
 29 H       -3.3620    -3.0510    -0.0730 H     1 <1>   0.1500 
 30 H       -5.7000    -7.9720    -1.0830 H     1 <1>   0.0800 
 31 H       -4.2350    -8.3870    -0.2600 H     1 <1>   0.0800 
 32 H       -7.0820    -6.0050     1.4180 H     1 <1>   0.0800 
 33 H       -6.9810    -6.4280    -0.2640 H     1 <1>   0.0800 
 34 H       -5.0870   -10.3310     0.6440 H     1 <1>   0.0800 
 35 H       -9.0780    -7.1970     0.6270 H     1 <1>   0.0800 
 36 H       -8.3170    -8.0140     1.9470 H     1 <1>   0.0800 
 37 H       -7.0220    -9.7490     1.5850 H     1 <1>   0.4500 
 38 H       -6.1930   -10.0410    -2.1130 H     1 <1>   0.0800 
 39 H       -4.9010   -11.0720    -1.5450 H     1 <1>   0.0800 
 40 H       -7.9210    -8.7700    -0.9740 H     1 <1>   0.0800 
 41 H       -9.1270    -9.4820     0.0670 H     1 <1>   0.0800 
 42 H       -7.0930   -12.0190     1.1170 H     1 <1>   0.0800 
 43 H       -8.5950   -11.5290     0.3470 H     1 <1>   0.0800 
 44 H       -6.4460   -12.7250    -0.9490 H     1 <1>   0.0800 
 45 H       -7.6590   -11.7700    -1.7670 H     1 <1>   0.0800 
@<TRIPOS>BOND
  1   1   2  1   
  2   2   3  ar  
  3   2   4  ar  
  4   3   5  ar  
  5   3  26  1   
  6   4   6  ar  
  7   4  27  1   
  8   5   7  ar  
  9   5  28  1   
 10   6   7  ar  
 11   6  29  1   
 12   7   8  1   
 13   8   9  1   
 14   8  10  2   
 15   9  11  1   
 16  10  12  1   
 17  10  13  1   
 18  11  12  2   
 19  12  14  1   
 20  13  15  ar  
 21  13  16  ar  
 22  14  17  1   
 23  14  18  1   
 24  17  19  1   
 25  17  30  1   
 26  17  31  1   
 27  18  20  1   
 28  18  32  1   
 29  18  33  1   
 30  19  21  1   
 31  19  22  1   
 32  19  34  1   
 33  20  23  1   
 34  20  35  1   
 35  20  36  1   
 36  21  23  1   
 37  21  24  1   
 38  21  37  1   
 39  22  25  1   
 40  22  38  1   
 41  22  39  1   
 42  23  40  1   
 43  23  41  1   
 44  24  25  1   
 45  24  42  1   
 46  24  43  1   
 47  25  44  1   
 48  25  45  1   
@<TRIPOS>SUBSTRUCTURE
  1 ****  10 GROUP 4 **** **** 0

# MOE 2024.06 (io_trps.svl 2023.06)
