@<TRIPOS>MOLECULE
NONAME
53 56 1 0 0 
SMALL
USER_CHARGES


@<TRIPOS>ATOM
  1 O       -1.0560     0.7970    -1.9670 O.2   1 <1>  -0.5700 
  2 C       -1.9660     1.2460    -1.2940 C.2   1 <1>   0.5440 
  3 N       -3.1570     0.5520    -1.2310 N.am  1 <1>  -0.6600 
  4 C       -1.7690     2.4920    -0.5870 C.ar  1 <1>   0.0860 
  5 C       -4.3300     0.9670    -0.4010 C.3   1 <1>   0.1400 
  6 C       -3.3410    -0.7920    -1.8570 C.3   1 <1>   0.1400 
  7 C       -1.6740     2.5790     0.8110 C.ar  1 <1>   0.0830 
  8 C       -1.6980     3.6790    -1.3160 C.ar  1 <1>  -0.1500 
  9 C       -4.6520    -0.1130     0.6480 C.3   1 <1>   0.1900 
 10 C       -3.7220    -1.8390    -0.7960 C.3   1 <1>   0.1100 
 11 O       -1.6920     1.5020     1.6280 O.3   1 <1>  -0.3630 
 12 C       -1.5670     3.8140     1.4300 C.ar  1 <1>  -0.1500 
 13 C       -1.5750     4.9110    -0.6990 C.ar  1 <1>  -0.1430 
 14 N       -4.9060    -1.4210    -0.0100 N.3   1 <1>  -0.8100 
 15 C       -5.8610     0.3120     1.5040 C.3   1 <1>   0.1200 
 16 C       -0.8100     0.4250     1.3830 C.3   1 <1>   0.0400 
 17 C       -1.5170     4.9750     0.6830 C.ar  1 <1>  -0.1500 
 18 C       -1.5050     6.1890    -1.5170 C.3   1 <1>  -0.0970 
 19 C       -5.2830    -2.4300     1.0070 C.3   1 <1>   0.3330 
 20 O       -6.1700    -0.6760     2.4470 O.3   1 <1>  -0.5600 
 21 C       -5.6730    -3.7550     0.3530 C.ar  1 <1>  -0.1430 
 22 C       -6.4580    -1.9210     1.8690 C.3   1 <1>   0.1200 
 23 C       -6.5440    -3.7870    -0.7270 C.ar  1 <1>  -0.1500 
 24 C       -5.1610    -4.9490     0.8410 C.ar  1 <1>  -0.1500 
 25 C       -6.8990    -4.9900    -1.3110 C.ar  1 <1>  -0.1500 
 26 C       -5.5150    -6.1540     0.2590 C.ar  1 <1>  -0.1500 
 27 C       -6.3840    -6.1760    -0.8170 C.ar  1 <1>  -0.1500 
 28 H       -4.1430     1.9010     0.0930 H     1 <1>   0.0800 
 29 H       -5.1820     1.1000    -1.0440 H     1 <1>   0.0800 
 30 H       -4.1230    -0.7330    -2.5920 H     1 <1>   0.0800 
 31 H       -2.4420    -1.1060    -2.3580 H     1 <1>   0.0800 
 32 H       -1.7460     3.6170    -2.3900 H     1 <1>   0.1500 
 33 H       -3.8030    -0.1990     1.3050 H     1 <1>   0.0800 
 34 H       -2.8820    -1.9970    -0.1420 H     1 <1>   0.0800 
 35 H       -3.9290    -2.7680    -1.3000 H     1 <1>   0.0800 
 36 H       -1.5160     3.8590     2.5030 H     1 <1>   0.1500 
 37 H       -6.7250     0.4780     0.8850 H     1 <1>   0.0800 
 38 H       -5.6370     1.2150     2.0420 H     1 <1>   0.0800 
 39 H       -0.6020    -0.0580     2.3200 H     1 <1>   0.0800 
 40 H        0.1030     0.8020     0.9540 H     1 <1>   0.0800 
 41 H       -1.2800    -0.2720     0.7130 H     1 <1>   0.0800 
 42 H       -1.4290     5.9270     1.1780 H     1 <1>   0.1500 
 43 H       -0.6390     6.7600    -1.2320 H     1 <1>   0.0800 
 44 H       -2.3850     6.7820    -1.3450 H     1 <1>   0.0800 
 45 H       -1.4370     5.9700    -2.5670 H     1 <1>   0.0800 
 46 H       -4.4440    -2.5960     1.6610 H     1 <1>   0.0800 
 47 H       -6.6560    -2.6160     2.6650 H     1 <1>   0.0800 
 48 H       -7.3460    -1.8240     1.2690 H     1 <1>   0.0800 
 49 H       -6.9420    -2.8650    -1.1180 H     1 <1>   0.1500 
 50 H       -4.4850    -4.9490     1.6780 H     1 <1>   0.1500 
 51 H       -7.5740    -5.0030    -2.1480 H     1 <1>   0.1500 
 52 H       -5.1140    -7.0760     0.6430 H     1 <1>   0.1500 
 53 H       -6.6590    -7.1120    -1.2700 H     1 <1>   0.1500 
@<TRIPOS>BOND
  1   1   2  2   
  2   2   3  am  
  3   2   4  1   
  4   3   5  1   
  5   3   6  1   
  6   4   7  ar  
  7   4   8  ar  
  8   5   9  1   
  9   5  28  1   
 10   5  29  1   
 11   6  10  1   
 12   6  30  1   
 13   6  31  1   
 14   7  11  1   
 15   7  12  ar  
 16   8  13  ar  
 17   8  32  1   
 18   9  14  1   
 19   9  15  1   
 20   9  33  1   
 21  10  14  1   
 22  10  34  1   
 23  10  35  1   
 24  11  16  1   
 25  12  17  ar  
 26  12  36  1   
 27  13  17  ar  
 28  13  18  1   
 29  14  19  1   
 30  15  20  1   
 31  15  37  1   
 32  15  38  1   
 33  16  39  1   
 34  16  40  1   
 35  16  41  1   
 36  17  42  1   
 37  18  43  1   
 38  18  44  1   
 39  18  45  1   
 40  19  21  1   
 41  19  22  1   
 42  19  46  1   
 43  20  22  1   
 44  21  23  ar  
 45  21  24  ar  
 46  22  47  1   
 47  22  48  1   
 48  23  25  ar  
 49  23  49  1   
 50  24  26  ar  
 51  24  50  1   
 52  25  27  ar  
 53  25  51  1   
 54  26  27  ar  
 55  26  52  1   
 56  27  53  1   
@<TRIPOS>SUBSTRUCTURE
  1 ****   9 GROUP 4 **** **** 0

# MOE 2024.06 (io_trps.svl 2023.06)
