@<TRIPOS>MOLECULE
NONAME
46 49 1 0 0 
SMALL
USER_CHARGES


@<TRIPOS>ATOM
  1 O       -0.4390     0.1840     0.0680 O.2   1 <1>  -0.5700 
  2 C       -1.4590     0.8220    -0.1520 C.2   1 <1>   0.7160 
  3 N       -2.6450     0.1110    -0.1020 N.am  1 <1>  -0.6600 
  4 C       -1.3920     2.2590    -0.4400 C.2   1 <1>   0.2030 
  5 C       -4.0130     0.6830    -0.1760 C.3   1 <1>   0.1400 
  6 C       -2.7080    -1.3660     0.0130 C.3   1 <1>   0.1400 
  7 N       -2.3490     2.9980    -0.9900 N.2   1 <1>  -0.7070 
  8 C       -0.2750     3.0740    -0.1770 C.2   1 <1>  -0.1810 
  9 C       -4.9190    -0.4350     0.3390 C.3   1 <1>   0.2000 
 10 C       -4.1970    -1.7130    -0.1000 C.3   1 <1>  -0.0800 
 11 N       -1.8490     4.2390    -1.0800 N.pl3 1 <1>   0.3000 
 12 C       -0.5970     4.3070    -0.5990 C.2   1 <1>  -0.3320 
 13 C        1.0700     2.7340     0.4430 C.3   1 <1>   0.0210 
 14 O       -4.9420    -0.3690     1.7240 O.3   1 <1>  -0.6800 
 15 C       -4.5970    -2.9930     0.6570 C.3   1 <1>  -0.0170 
 16 C        0.2940     5.5330    -0.5300 C.3   1 <1>   0.0200 
 17 C        1.8190     4.0170     0.8500 C.3   1 <1>  -0.1600 
 18 C       -3.8720    -4.2040     0.0930 C.ar  1 <1>  -0.1430 
 19 C        1.7440     5.1020    -0.2430 C.3   1 <1>  -0.1600 
 20 C       -4.3200    -4.8570    -1.0380 C.ar  1 <1>  -0.1500 
 21 C       -2.7290    -4.7120     0.6760 C.ar  1 <1>  -0.1500 
 22 C       -3.6210    -5.9510    -1.5190 C.ar  1 <1>   0.1600 
 23 C       -2.1040    -5.8120     0.1140 C.ar  1 <1>   0.1600 
 24 N       -2.5220    -6.4430    -0.9720 N.ar  1 <1>  -0.6200 
 25 H       -4.1080     1.5780     0.4150 H     1 <1>   0.0800 
 26 H       -4.2430     0.9050    -1.2030 H     1 <1>   0.0800 
 27 H       -2.1320    -1.8360    -0.7670 H     1 <1>   0.0800 
 28 H       -2.3140    -1.6580     0.9710 H     1 <1>   0.0800 
 29 H       -5.9300    -0.3640    -0.0260 H     1 <1>   0.0800 
 30 H       -4.4080    -1.8610    -1.1450 H     1 <1>   0.0800 
 31 H       -2.3810     5.0230    -1.4780 H     1 <1>   0.2700 
 32 H        0.9320     2.1090     1.3080 H     1 <1>   0.0800 
 33 H        1.6500     2.1850    -0.2770 H     1 <1>   0.0800 
 34 H       -4.0280    -0.2200     2.0420 H     1 <1>   0.4000 
 35 H       -5.6590    -3.1400     0.5720 H     1 <1>   0.0800 
 36 H       -4.3700    -2.8960     1.7040 H     1 <1>   0.0800 
 37 H        0.2570     6.0780    -1.4570 H     1 <1>   0.0800 
 38 H       -0.0560     6.1750     0.2600 H     1 <1>   0.0800 
 39 H        1.3790     4.4030     1.7530 H     1 <1>   0.0800 
 40 H        2.8470     3.7780     1.0600 H     1 <1>   0.0800 
 41 H        2.1740     4.7090    -1.1480 H     1 <1>   0.0800 
 42 H        2.3210     5.9610     0.0510 H     1 <1>   0.0800 
 43 H       -5.2050    -4.5250    -1.5490 H     1 <1>   0.1500 
 44 H       -2.3160    -4.2630     1.5610 H     1 <1>   0.1500 
 45 H       -3.9850    -6.4480    -2.4020 H     1 <1>   0.1500 
 46 H       -1.2120    -6.1940     0.5820 H     1 <1>   0.1500 
@<TRIPOS>BOND
  1   1   2  2   
  2   2   3  am  
  3   2   4  1   
  4   3   5  1   
  5   3   6  1   
  6   4   7  2   
  7   4   8  1   
  8   5   9  1   
  9   5  25  1   
 10   5  26  1   
 11   6  10  1   
 12   6  27  1   
 13   6  28  1   
 14   7  11  1   
 15   8  12  2   
 16   8  13  1   
 17   9  10  1   
 18   9  14  1   
 19   9  29  1   
 20  10  15  1   
 21  10  30  1   
 22  11  12  1   
 23  11  31  1   
 24  12  16  1   
 25  13  17  1   
 26  13  32  1   
 27  13  33  1   
 28  14  34  1   
 29  15  18  1   
 30  15  35  1   
 31  15  36  1   
 32  16  19  1   
 33  16  37  1   
 34  16  38  1   
 35  17  19  1   
 36  17  39  1   
 37  17  40  1   
 38  18  20  ar  
 39  18  21  ar  
 40  19  41  1   
 41  19  42  1   
 42  20  22  ar  
 43  20  43  1   
 44  21  23  ar  
 45  21  44  1   
 46  22  24  ar  
 47  22  45  1   
 48  23  24  ar  
 49  23  46  1   
@<TRIPOS>SUBSTRUCTURE
  1 ****   3 GROUP 4 **** **** 0

# MOE 2024.06 (io_trps.svl 2023.06)
