@<TRIPOS>MOLECULE
NONAME
60 63 1 0 0 
SMALL
USER_CHARGES


@<TRIPOS>ATOM
  1 O        0.4230    -0.5180     1.1640 O.2   1 <1>  -0.5700 
  2 C        1.1720    -1.3660     0.7090 C.2   1 <1>   0.6900 
  3 N        0.6720    -2.3280    -0.1320 N.am  1 <1>  -0.6600 
  4 N        2.5070    -1.3450     1.0450 N.am  1 <1>  -0.6600 
  5 C        1.3820    -2.7110    -1.3790 C.3   1 <1>   0.1400 
  6 C       -0.7800    -2.6380    -0.1310 C.3   1 <1>   0.1400 
  7 C        3.2880    -2.5900     1.2650 C.3   1 <1>   0.0600 
  8 C        3.1250    -0.1140     1.6040 C.3   1 <1>   0.0600 
  9 C        1.2220    -4.2150    -1.6130 C.3   1 <1>  -0.1600 
 10 C       -0.9770    -4.1400    -0.3530 C.3   1 <1>  -0.1600 
 11 C       -0.2650    -4.6230    -1.6330 C.3   1 <1>  -0.0190 
 12 C       -0.4370    -6.1240    -1.8430 C.2   1 <1>   0.5690 
 13 O       -1.0200    -6.5190    -2.8230 O.2   1 <1>  -0.5700 
 14 N        0.0560    -6.9850    -0.9190 N.am  1 <1>  -0.7300 
 15 C       -0.0830    -8.4550    -0.9890 C.3   1 <1>   0.2200 
 16 C       -1.3050    -8.8730    -0.1910 C.3   1 <1>  -0.0800 
 17 C        1.0430    -9.1240    -0.2100 C.3   1 <1>   0.1200 
 18 C       -0.7480    -8.9700     1.2340 C.3   1 <1>   0.1200 
 19 C       -1.8730   -10.2150    -0.6920 C.3   1 <1>  -0.0170 
 20 O        0.6380    -9.1320     1.1260 O.3   1 <1>  -0.5600 
 21 C       -3.1680   -10.5780     0.0290 C.ar  1 <1>  -0.1440 
 22 C       -4.3990    -9.9450    -0.2660 C.ar  1 <1>   0.0000 
 23 C       -3.1690   -11.5410     0.9950 C.ar  1 <1>  -0.1500 
 24 C       -5.5370   -10.3430     0.4780 C.ar  1 <1>   0.3100 
 25 C       -4.5700    -8.9450    -1.2530 C.ar  1 <1>  -0.1500 
 26 C       -4.3540   -11.8650     1.6660 C.ar  1 <1>   0.1600 
 27 N       -5.4970   -11.3020     1.4380 N.ar  1 <1>  -0.6200 
 28 C       -6.7700    -9.7240     0.2180 C.ar  1 <1>  -0.1500 
 29 C       -5.7870    -8.3630    -1.4830 C.ar  1 <1>  -0.1500 
 30 C       -6.9020    -8.7540    -0.7380 C.ar  1 <1>  -0.1500 
 31 H        0.9540    -2.1640    -2.2020 H     1 <1>   0.0800 
 32 H        2.4240    -2.4510    -1.3170 H     1 <1>   0.0800 
 33 H       -1.2170    -2.3500     0.8110 H     1 <1>   0.0800 
 34 H       -1.2610    -2.0760    -0.9130 H     1 <1>   0.0800 
 35 H        4.1010    -2.6370     0.5620 H     1 <1>   0.0800 
 36 H        2.6610    -3.4550     1.1390 H     1 <1>   0.0800 
 37 H        3.6830    -2.6010     2.2660 H     1 <1>   0.0800 
 38 H        4.1390    -0.0230     1.2590 H     1 <1>   0.0800 
 39 H        3.1120    -0.1580     2.6790 H     1 <1>   0.0800 
 40 H        2.5730     0.7550     1.2870 H     1 <1>   0.0800 
 41 H        1.6780    -4.4770    -2.5510 H     1 <1>   0.0800 
 42 H        1.7440    -4.7430    -0.8350 H     1 <1>   0.0800 
 43 H       -0.5980    -4.6630     0.5070 H     1 <1>   0.0800 
 44 H       -2.0300    -4.3500    -0.4260 H     1 <1>   0.0800 
 45 H       -0.7290    -4.1310    -2.4700 H     1 <1>   0.0800 
 46 H        0.4770    -6.6340    -0.0560 H     1 <1>   0.3700 
 47 H       -0.1150    -8.7740    -2.0170 H     1 <1>   0.0800 
 48 H       -2.0740    -8.1240    -0.2440 H     1 <1>   0.0800 
 49 H        1.9800    -8.6030    -0.3020 H     1 <1>   0.0800 
 50 H        1.1640   -10.1470    -0.5200 H     1 <1>   0.0800 
 51 H       -1.1540    -9.7960     1.7900 H     1 <1>   0.0800 
 52 H       -0.9250    -8.0560     1.7730 H     1 <1>   0.0800 
 53 H       -1.1470   -10.9950    -0.5430 H     1 <1>   0.0800 
 54 H       -2.0630   -10.1640    -1.7500 H     1 <1>   0.0800 
 55 H       -2.2730   -12.0690     1.2670 H     1 <1>   0.1500 
 56 H       -3.7300    -8.6300    -1.8430 H     1 <1>   0.1500 
 57 H       -4.3100   -12.6300     2.4220 H     1 <1>   0.1500 
 58 H       -7.6140   -10.0420     0.8010 H     1 <1>   0.1500 
 59 H       -5.9000    -7.6030    -2.2360 H     1 <1>   0.1500 
 60 H       -7.8550    -8.2890    -0.9270 H     1 <1>   0.1500 
@<TRIPOS>BOND
  1   1   2  2   
  2   2   3  am  
  3   2   4  am  
  4   3   5  1   
  5   3   6  1   
  6   4   7  1   
  7   4   8  1   
  8   5   9  1   
  9   5  31  1   
 10   5  32  1   
 11   6  10  1   
 12   6  33  1   
 13   6  34  1   
 14   7  35  1   
 15   7  36  1   
 16   7  37  1   
 17   8  38  1   
 18   8  39  1   
 19   8  40  1   
 20   9  11  1   
 21   9  41  1   
 22   9  42  1   
 23  10  11  1   
 24  10  43  1   
 25  10  44  1   
 26  11  12  1   
 27  11  45  1   
 28  12  13  2   
 29  12  14  am  
 30  14  15  1   
 31  14  46  1   
 32  15  16  1   
 33  15  17  1   
 34  15  47  1   
 35  16  18  1   
 36  16  19  1   
 37  16  48  1   
 38  17  20  1   
 39  17  49  1   
 40  17  50  1   
 41  18  20  1   
 42  18  51  1   
 43  18  52  1   
 44  19  21  1   
 45  19  53  1   
 46  19  54  1   
 47  21  22  ar  
 48  21  23  ar  
 49  22  24  ar  
 50  22  25  ar  
 51  23  26  ar  
 52  23  55  1   
 53  24  27  ar  
 54  24  28  ar  
 55  25  29  ar  
 56  25  56  1   
 57  26  27  ar  
 58  26  57  1   
 59  28  30  ar  
 60  28  58  1   
 61  29  30  ar  
 62  29  59  1   
 63  30  60  1   
@<TRIPOS>SUBSTRUCTURE
  1 ****  14 GROUP 4 **** **** 0

# MOE 2024.06 (io_trps.svl 2023.06)
