@<TRIPOS>MOLECULE
NONAME
48 50 1 0 0 
SMALL
USER_CHARGES


@<TRIPOS>ATOM
  1 S        0.6750    -0.6610    -0.4810 S.3   1 <1>  -0.0800 
  2 C        0.5090    -2.3990    -0.3280 C.2   1 <1>  -0.1100 
  3 C       -0.7020    -0.3930     0.5690 C.2   1 <1>  -0.1100 
  4 C       -0.5380    -2.7130     0.4610 C.2   1 <1>  -0.1810 
  5 C       -1.2230    -1.5630     0.9800 C.2   1 <1>  -0.1500 
  6 C       -0.9750    -4.1230     0.7930 C.3   1 <1>   0.5240 
  7 N       -1.9020    -4.5730    -0.2770 N.4   1 <1>  -0.9590 
  8 C       -2.1060    -6.0570    -0.2220 C.3   1 <1>   0.5660 
  9 C       -3.2060    -3.8340    -0.2610 C.3   1 <1>   0.3430 
 10 C       -0.7700    -6.7200    -0.5270 C.ar  1 <1>  -0.1430 
 11 C       -3.2210    -6.5660    -1.1760 C.3   1 <1>   0.2000 
 12 C       -4.1900    -4.4040    -1.2970 C.3   1 <1>   0.1200 
 13 C       -0.1920    -7.5340     0.4370 C.ar  1 <1>  -0.1500 
 14 C       -0.1110    -6.5280    -1.7370 C.ar  1 <1>  -0.1500 
 15 O       -4.3780    -5.7700    -1.0760 O.3   1 <1>  -0.5600 
 16 C       -3.5970    -8.0170    -0.8350 C.3   1 <1>   0.1200 
 17 C        1.0310    -8.1410     0.2120 C.ar  1 <1>   0.0830 
 18 C        1.1180    -7.1230    -1.9630 C.ar  1 <1>  -0.1500 
 19 O       -3.7720    -8.1570     0.5400 O.3   1 <1>  -0.6800 
 20 O        1.5120    -8.9370     1.1970 O.3   1 <1>  -0.3630 
 21 C        1.7060    -7.9140    -0.9920 C.ar  1 <1>   0.0830 
 22 C        1.6650   -10.3070     0.8920 C.3   1 <1>   0.0400 
 23 O        2.9250    -8.4350    -1.2700 O.3   1 <1>  -0.3630 
 24 C        4.0040    -8.0000    -0.4700 C.3   1 <1>   0.0400 
 25 H        1.2310    -2.9990    -0.8580 H     1 <1>   0.1500 
 26 H       -0.9720     0.6300     0.7740 H     1 <1>   0.1500 
 27 H       -2.0670    -1.6500     1.6440 H     1 <1>   0.1500 
 28 H       -1.4530    -4.1560     1.7590 H     1 <1>   0.0800 
 29 H       -0.1040    -4.7580     0.8190 H     1 <1>   0.0800 
 30 H       -1.4240    -4.3710    -1.1590 H     1 <1>   0.4500 
 31 H       -2.4000    -6.3260     0.7800 H     1 <1>   0.0800 
 32 H       -3.6600    -3.9100     0.7140 H     1 <1>   0.0800 
 33 H       -3.0390    -2.7890    -0.4700 H     1 <1>   0.0800 
 34 H       -2.8910    -6.5260    -2.1990 H     1 <1>   0.0800 
 35 H       -3.8350    -4.2550    -2.3020 H     1 <1>   0.0800 
 36 H       -5.1490    -3.9240    -1.1980 H     1 <1>   0.0800 
 37 H       -0.6840    -7.7230     1.3770 H     1 <1>   0.1500 
 38 H       -0.5330    -5.9210    -2.5200 H     1 <1>   0.1500 
 39 H       -2.8160    -8.6940    -1.1380 H     1 <1>   0.0800 
 40 H       -4.5130    -8.2900    -1.3330 H     1 <1>   0.0800 
 41 H        1.6360    -6.9780    -2.8960 H     1 <1>   0.1500 
 42 H       -4.2380    -8.9960     0.7450 H     1 <1>   0.4000 
 43 H        1.9400   -10.8240     1.7930 H     1 <1>   0.0800 
 44 H        2.4370   -10.4270     0.1540 H     1 <1>   0.0800 
 45 H        0.7310   -10.6880     0.5190 H     1 <1>   0.0800 
 46 H        4.9080    -8.4280    -0.8640 H     1 <1>   0.0800 
 47 H        3.8560    -8.3280     0.5430 H     1 <1>   0.0800 
 48 H        4.0580    -6.9260    -0.5110 H     1 <1>   0.0800 
@<TRIPOS>BOND
  1   1   2  1   
  2   1   3  1   
  3   2   4  2   
  4   2  25  1   
  5   3   5  2   
  6   3  26  1   
  7   4   5  1   
  8   4   6  1   
  9   5  27  1   
 10   6   7  1   
 11   6  28  1   
 12   6  29  1   
 13   7   8  1   
 14   7   9  1   
 15   7  30  1   
 16   8  10  1   
 17   8  11  1   
 18   8  31  1   
 19   9  12  1   
 20   9  32  1   
 21   9  33  1   
 22  10  13  ar  
 23  10  14  ar  
 24  11  15  1   
 25  11  16  1   
 26  11  34  1   
 27  12  15  1   
 28  12  35  1   
 29  12  36  1   
 30  13  17  ar  
 31  13  37  1   
 32  14  18  ar  
 33  14  38  1   
 34  16  19  1   
 35  16  39  1   
 36  16  40  1   
 37  17  20  1   
 38  17  21  ar  
 39  18  21  ar  
 40  18  41  1   
 41  19  42  1   
 42  20  22  1   
 43  21  23  1   
 44  22  43  1   
 45  22  44  1   
 46  22  45  1   
 47  23  24  1   
 48  24  46  1   
 49  24  47  1   
 50  24  48  1   
@<TRIPOS>SUBSTRUCTURE
  1 ****  10 GROUP 4 **** **** 0

# MOE 2024.06 (io_trps.svl 2023.06)
