@<TRIPOS>MOLECULE
NONAME
54 56 1 0 0 
SMALL
USER_CHARGES


@<TRIPOS>ATOM
  1 S        0.5250    -0.3580     0.4510 S.o2  1 <1>   1.3330 
  2 O        1.4820    -1.3780     0.8160 O.2   1 <1>  -0.6500 
  3 O       -0.0860     0.4470     1.4840 O.2   1 <1>  -0.6500 
  4 N       -0.7130    -1.1080    -0.4370 N.am  1 <1>  -0.8490 
  5 C        1.2470     0.7610    -0.7510 C.3   1 <1>  -0.0550 
  6 C       -1.8280    -1.5320     0.4150 C.3   1 <1>   0.1160 
  7 C       -0.2440    -2.2400    -1.2440 C.3   1 <1>   0.1160 
  8 C        2.4180     1.5960    -0.1940 C.3   1 <1>  -0.0800 
  9 C        2.8100     2.6990    -1.1630 C.3   1 <1>   0.2200 
 10 C        3.7120     0.7820    -0.1260 C.3   1 <1>   0.1200 
 11 N        3.5250     3.7610    -0.4280 N.am  1 <1>  -0.7300 
 12 C        3.7780     1.9770    -2.0990 C.3   1 <1>   0.1200 
 13 O        4.3180     0.9050    -1.3780 O.3   1 <1>  -0.5600 
 14 C        3.7730     5.0130    -0.8970 C.2   1 <1>   0.5440 
 15 O        3.1900     5.3590    -1.9100 O.2   1 <1>  -0.5700 
 16 C        4.7090     5.8930    -0.2200 C.ar  1 <1>   0.0860 
 17 C        5.7280     5.4350     0.6500 C.ar  1 <1>   0.1000 
 18 C        4.6030     7.2720    -0.4280 C.ar  1 <1>  -0.1500 
 19 N        5.9570     4.0800     0.9180 N.pl3 1 <1>  -0.8380 
 20 C        6.5660     6.3670     1.2590 C.ar  1 <1>  -0.1500 
 21 C        5.4420     8.1770     0.1870 C.ar  1 <1>  -0.1500 
 22 C        6.7700     3.2830    -0.0570 C.3   1 <1>   0.2090 
 23 C        6.0250     3.5710     2.3260 C.3   1 <1>   0.2090 
 24 C        6.4310     7.7210     1.0380 C.ar  1 <1>  -0.1500 
 25 C        8.1590     2.9450     0.5110 C.3   1 <1>   0.1200 
 26 C        7.4590     3.1820     2.7340 C.3   1 <1>   0.1200 
 27 O        8.0540     2.3530     1.7760 O.3   1 <1>  -0.5600 
 28 H        1.5800     0.2040    -1.6050 H     1 <1>   0.0800 
 29 H        0.4750     1.4300    -1.0790 H     1 <1>   0.0800 
 30 H       -2.6000    -1.9900    -0.1800 H     1 <1>   0.0800 
 31 H       -2.2540    -0.6800     0.9170 H     1 <1>   0.0800 
 32 H       -1.4860    -2.2360     1.1560 H     1 <1>   0.0800 
 33 H       -1.0480    -2.6160    -1.8550 H     1 <1>   0.0800 
 34 H        0.1130    -3.0340    -0.6080 H     1 <1>   0.0800 
 35 H        0.5580    -1.9300    -1.8920 H     1 <1>   0.0800 
 36 H        2.1440     1.9980     0.7660 H     1 <1>   0.0800 
 37 H        1.9740     3.1250    -1.6930 H     1 <1>   0.0800 
 38 H        3.5620    -0.2610     0.0890 H     1 <1>   0.0800 
 39 H        4.3850     1.1990     0.6030 H     1 <1>   0.0800 
 40 H        4.2210     3.4480     0.2640 H     1 <1>   0.3700 
 41 H        4.5700     2.6190    -2.4420 H     1 <1>   0.0800 
 42 H        3.2520     1.5680    -2.9430 H     1 <1>   0.0800 
 43 H        3.8360     7.6380    -1.0900 H     1 <1>   0.1500 
 44 H        7.3460     6.0240     1.9100 H     1 <1>   0.1500 
 45 H        5.3300     9.2320     0.0050 H     1 <1>   0.1500 
 46 H        6.2560     2.3670    -0.2880 H     1 <1>   0.0800 
 47 H        6.8830     3.8360    -0.9740 H     1 <1>   0.0800 
 48 H        5.6480     4.3190     3.0020 H     1 <1>   0.0800 
 49 H        5.3940     2.7040     2.4140 H     1 <1>   0.0800 
 50 H        7.0910     8.4210     1.5200 H     1 <1>   0.1500 
 51 H        8.7570     3.8360     0.5930 H     1 <1>   0.0800 
 52 H        8.6620     2.2500    -0.1370 H     1 <1>   0.0800 
 53 H        7.4440     2.6470     3.6660 H     1 <1>   0.0800 
 54 H        8.0710     4.0580     2.8540 H     1 <1>   0.0800 
@<TRIPOS>BOND
  1   1   2  2   
  2   1   3  2   
  3   1   4  am  
  4   1   5  1   
  5   4   6  1   
  6   4   7  1   
  7   5   8  1   
  8   5  28  1   
  9   5  29  1   
 10   6  30  1   
 11   6  31  1   
 12   6  32  1   
 13   7  33  1   
 14   7  34  1   
 15   7  35  1   
 16   8   9  1   
 17   8  10  1   
 18   8  36  1   
 19   9  11  1   
 20   9  12  1   
 21   9  37  1   
 22  10  13  1   
 23  10  38  1   
 24  10  39  1   
 25  11  14  am  
 26  11  40  1   
 27  12  13  1   
 28  12  41  1   
 29  12  42  1   
 30  14  15  2   
 31  14  16  1   
 32  16  17  ar  
 33  16  18  ar  
 34  17  19  1   
 35  17  20  ar  
 36  18  21  ar  
 37  18  43  1   
 38  19  22  1   
 39  19  23  1   
 40  20  24  ar  
 41  20  44  1   
 42  21  24  ar  
 43  21  45  1   
 44  22  25  1   
 45  22  46  1   
 46  22  47  1   
 47  23  26  1   
 48  23  48  1   
 49  23  49  1   
 50  24  50  1   
 51  25  27  1   
 52  25  51  1   
 53  25  52  1   
 54  26  27  1   
 55  26  53  1   
 56  26  54  1   
@<TRIPOS>SUBSTRUCTURE
  1 ****  11 GROUP 4 **** **** 0

# MOE 2024.06 (io_trps.svl 2023.06)
