@<TRIPOS>MOLECULE
NONAME
43 44 1 0 0 
SMALL
USER_CHARGES


@<TRIPOS>ATOM
  1 CL      -0.5540    -0.1500    -1.2890 Cl    1 <1>  -0.1770 
  2 C       -1.8390    -1.1380    -0.6190 C.ar  1 <1>   0.1770 
  3 C       -3.1220    -0.6420    -0.4150 C.ar  1 <1>   0.1660 
  4 C       -1.5390    -2.4430    -0.2880 C.ar  1 <1>  -0.1500 
  5 N       -4.1090    -1.3610     0.1000 N.ar  1 <1>  -0.6200 
  6 C       -3.4960     0.7870    -0.7670 C.3   1 <1>  -0.0960 
  7 C       -2.5660    -3.1880     0.2430 C.ar  1 <1>  -0.1500 
  8 C       -3.8260    -2.6190     0.4200 C.ar  1 <1>   0.4100 
  9 N       -4.8500    -3.3890     0.9390 N.pl3 1 <1>  -0.8380 
 10 C       -5.4060    -4.4570     0.0560 C.3   1 <1>   0.2090 
 11 C       -5.8010    -2.7640     1.9010 C.3   1 <1>   0.2090 
 12 C       -6.7150    -4.0050    -0.6180 C.3   1 <1>   0.2000 
 13 C       -7.0900    -2.3270     1.1900 C.3   1 <1>  -0.1600 
 14 O       -7.2300    -5.0600    -1.3710 O.3   1 <1>  -0.6800 
 15 C       -7.7720    -3.4660     0.3890 C.3   1 <1>   0.0000 
 16 C       -8.2120    -4.6070     1.3490 C.3   1 <1>   0.1200 
 17 C       -9.0360    -2.9260    -0.3440 C.3   1 <1>  -0.1600 
 18 O       -9.1110    -4.1580     2.3070 O.3   1 <1>  -0.6800 
 19 C       -8.8020    -1.8780    -1.4500 C.3   1 <1>  -0.1600 
 20 C      -10.1340    -1.4090    -2.0420 C.3   1 <1>  -0.2400 
 21 H       -0.5530    -2.8430    -0.4380 H     1 <1>   0.1500 
 22 H       -2.7970     1.2320    -1.4480 H     1 <1>   0.0800 
 23 H       -3.5350     1.3770     0.1310 H     1 <1>   0.0800 
 24 H       -4.4670     0.8010    -1.2280 H     1 <1>   0.0800 
 25 H       -2.4160    -4.2100     0.5320 H     1 <1>   0.1500 
 26 H       -4.6920    -4.6960    -0.7130 H     1 <1>   0.0800 
 27 H       -5.5720    -5.3410     0.6460 H     1 <1>   0.0800 
 28 H       -6.0200    -3.4680     2.6840 H     1 <1>   0.0800 
 29 H       -5.3370    -1.9060     2.3590 H     1 <1>   0.0800 
 30 H       -6.4480    -3.2290    -1.3130 H     1 <1>   0.0800 
 31 H       -7.7680    -1.9120     1.9120 H     1 <1>   0.0800 
 32 H       -6.8210    -1.5250     0.5270 H     1 <1>   0.0800 
 33 H       -7.6670    -5.7170    -0.8000 H     1 <1>   0.4000 
 34 H       -7.3750    -5.0350     1.8720 H     1 <1>   0.0800 
 35 H       -8.7060    -5.3920     0.8040 H     1 <1>   0.0800 
 36 H       -9.5570    -3.7580    -0.7860 H     1 <1>   0.0800 
 37 H       -9.7030    -2.4980     0.3850 H     1 <1>   0.0800 
 38 H       -8.7550    -3.3800     2.7760 H     1 <1>   0.4000 
 39 H       -8.2810    -1.0220    -1.0590 H     1 <1>   0.0800 
 40 H       -8.2100    -2.3010    -2.2420 H     1 <1>   0.0800 
 41 H      -10.7460    -0.9550    -1.2830 H     1 <1>   0.0800 
 42 H      -10.6680    -2.2390    -2.4690 H     1 <1>   0.0800 
 43 H       -9.9560    -0.6830    -2.8160 H     1 <1>   0.0800 
@<TRIPOS>BOND
  1   1   2  1   
  2   2   3  ar  
  3   2   4  ar  
  4   3   5  ar  
  5   3   6  1   
  6   4   7  ar  
  7   4  21  1   
  8   5   8  ar  
  9   6  22  1   
 10   6  23  1   
 11   6  24  1   
 12   7   8  ar  
 13   7  25  1   
 14   8   9  1   
 15   9  10  1   
 16   9  11  1   
 17  10  12  1   
 18  10  26  1   
 19  10  27  1   
 20  11  13  1   
 21  11  28  1   
 22  11  29  1   
 23  12  14  1   
 24  12  15  1   
 25  12  30  1   
 26  13  15  1   
 27  13  31  1   
 28  13  32  1   
 29  14  33  1   
 30  15  16  1   
 31  15  17  1   
 32  16  18  1   
 33  16  34  1   
 34  16  35  1   
 35  17  19  1   
 36  17  36  1   
 37  17  37  1   
 38  18  38  1   
 39  19  20  1   
 40  19  39  1   
 41  19  40  1   
 42  20  41  1   
 43  20  42  1   
 44  20  43  1   
@<TRIPOS>SUBSTRUCTURE
  1 ****   9 GROUP 4 **** **** 0

# MOE 2024.06 (io_trps.svl 2023.06)
