@<TRIPOS>MOLECULE
NONAME
45 48 1 0 0 
SMALL
USER_CHARGES


@<TRIPOS>ATOM
  1 CL       2.1240    -0.1130    -1.4820 Cl    1 <1>  -0.1770 
  2 C        0.8630     1.0920    -1.3340 C.ar  1 <1>   0.1770 
  3 C        0.9820     2.1700    -0.4610 C.ar  1 <1>  -0.1440 
  4 C       -0.2570     0.9240    -2.1280 C.ar  1 <1>  -0.1500 
  5 C       -0.0620     3.0870    -0.4140 C.ar  1 <1>  -0.1500 
  6 C        2.1950     2.3910     0.4420 C.3   1 <1>   0.3640 
  7 C       -1.2870     1.8440    -2.0640 C.ar  1 <1>  -0.1500 
  8 C       -1.1860     2.9260    -1.2070 C.ar  1 <1>  -0.1500 
  9 N        2.3110     1.2380     1.3680 N.am  1 <1>  -0.7300 
 10 C        3.5040     2.6780    -0.3460 C.3   1 <1>   0.2610 
 11 C        3.4620     0.5650     1.5830 C.2   1 <1>   0.5690 
 12 O        4.6610     2.3450     0.4170 O.3   1 <1>  -0.5600 
 13 C        3.5330     4.1560    -0.7450 C.2   1 <1>   0.5690 
 14 O        3.5010    -0.3640     2.3490 O.2   1 <1>  -0.5700 
 15 C        4.7180     0.9940     0.8220 C.3   1 <1>   0.1810 
 16 O        2.7270     4.5750    -1.5400 O.2   1 <1>  -0.5700 
 17 N        4.4600     4.9690    -0.1820 N.am  1 <1>  -0.7300 
 18 C        4.6740     6.3850    -0.4860 C.3   1 <1>   0.4100 
 19 C        6.1590     6.6220    -0.8390 C.3   1 <1>  -0.1950 
 20 C        4.1790     7.1830     0.7350 C.3   1 <1>  -0.1950 
 21 C        6.9650     5.6440    -1.6410 C.3   1 <1>  -0.2000 
 22 C        7.3110     5.9020    -0.2020 C.3   1 <1>  -0.2000 
 23 C        4.6870     8.5380     1.1270 C.3   1 <1>  -0.2000 
 24 C        4.9680     7.3460     1.9990 C.3   1 <1>  -0.2000 
 25 H       -0.3190     0.0790    -2.7900 H     1 <1>   0.1500 
 26 H       -0.0090     3.9430     0.2380 H     1 <1>   0.1500 
 27 H        2.0030     3.2570     1.0530 H     1 <1>   0.0800 
 28 H       -2.1620     1.7210    -2.6800 H     1 <1>   0.1500 
 29 H       -1.9840     3.6470    -1.1600 H     1 <1>   0.1500 
 30 H        1.4630     0.9150     1.8360 H     1 <1>   0.3700 
 31 H        3.5340     2.1000    -1.2490 H     1 <1>   0.0800 
 32 H        4.8400     0.3780    -0.0500 H     1 <1>   0.0800 
 33 H        5.5770     0.8760     1.4570 H     1 <1>   0.0800 
 34 H        5.1520     4.5550     0.4440 H     1 <1>   0.3700 
 35 H        4.0770     6.6630    -1.3390 H     1 <1>   0.0800 
 36 H        6.3200     7.6530    -1.0990 H     1 <1>   0.1000 
 37 H        3.1170     7.0470     0.8470 H     1 <1>   0.1000 
 38 H        6.5390     4.6910    -1.9050 H     1 <1>   0.1000 
 39 H        7.6210     6.0220    -2.4070 H     1 <1>   0.1000 
 40 H        8.2020     6.4620     0.0250 H     1 <1>   0.1000 
 41 H        7.1330     5.1170     0.5130 H     1 <1>   0.1000 
 42 H        5.5170     8.9870     0.6100 H     1 <1>   0.1000 
 43 H        3.9790     9.2720     1.4720 H     1 <1>   0.1000 
 44 H        4.4530     7.2580     2.9400 H     1 <1>   0.1000 
 45 H        5.9790     6.9840     2.0520 H     1 <1>   0.1000 
@<TRIPOS>BOND
  1   1   2  1   
  2   2   3  ar  
  3   2   4  ar  
  4   3   5  ar  
  5   3   6  1   
  6   4   7  ar  
  7   4  25  1   
  8   5   8  ar  
  9   5  26  1   
 10   6   9  1   
 11   6  10  1   
 12   6  27  1   
 13   7   8  ar  
 14   7  28  1   
 15   8  29  1   
 16   9  11  am  
 17   9  30  1   
 18  10  12  1   
 19  10  13  1   
 20  10  31  1   
 21  11  14  2   
 22  11  15  1   
 23  12  15  1   
 24  13  16  2   
 25  13  17  am  
 26  15  32  1   
 27  15  33  1   
 28  17  18  1   
 29  17  34  1   
 30  18  19  1   
 31  18  20  1   
 32  18  35  1   
 33  19  21  1   
 34  19  22  1   
 35  19  36  1   
 36  20  23  1   
 37  20  24  1   
 38  20  37  1   
 39  21  22  1   
 40  21  38  1   
 41  21  39  1   
 42  22  40  1   
 43  22  41  1   
 44  23  24  1   
 45  23  42  1   
 46  23  43  1   
 47  24  44  1   
 48  24  45  1   
@<TRIPOS>SUBSTRUCTURE
  1 ****  10 GROUP 4 **** **** 0

# MOE 2024.06 (io_trps.svl 2023.06)
