@<TRIPOS>MOLECULE
NONAME
55 56 1 0 0 
SMALL
USER_CHARGES


@<TRIPOS>ATOM
  1 S       -0.9100     0.4760    -0.3750 S.3   1 <1>  -0.4600 
  2 C       -1.4750    -1.2460    -0.3360 C.3   1 <1>   0.0700 
  3 C        0.8060     0.3560     0.1930 C.3   1 <1>  -0.0100 
  4 C       -2.9340    -1.2670    -0.7970 C.3   1 <1>  -0.0990 
  5 C       -3.5270    -2.6660    -0.8200 C.2   1 <1>   0.5690 
  6 O       -2.8900    -3.5690    -0.3290 O.2   1 <1>  -0.5700 
  7 N       -4.7620    -2.8910    -1.3760 N.am  1 <1>  -0.6600 
  8 C       -5.2820    -4.2860    -1.4560 C.3   1 <1>   0.1400 
  9 C       -5.6810    -1.8260    -1.8730 C.3   1 <1>   0.1400 
 10 C       -5.9550    -4.7040    -0.1390 C.3   1 <1>   0.1400 
 11 C       -7.1110    -1.9760    -1.3320 C.3   1 <1>  -0.1600 
 12 N       -7.2600    -4.0050     0.1100 N.am  1 <1>  -0.6600 
 13 C       -7.1880    -2.5110     0.1030 C.3   1 <1>   0.1400 
 14 C       -8.4860    -4.6040     0.2890 C.2   1 <1>   0.5690 
 15 O       -9.4800    -4.0190    -0.0800 O.2   1 <1>  -0.5700 
 16 C       -8.7010    -6.0140     0.9290 C.3   1 <1>   0.0610 
 17 C      -10.0950    -6.1080     1.6130 C.3   1 <1>  -0.1600 
 18 C       -8.6590    -7.1040    -0.1640 C.3   1 <1>  -0.1600 
 19 C       -7.6710    -6.3330     2.0410 C.3   1 <1>  -0.2400 
 20 C      -11.2800    -6.0790     0.6430 C.3   1 <1>   0.3430 
 21 C       -9.8250    -6.9540    -1.1420 C.3   1 <1>   0.3430 
 22 N      -11.1130    -7.1220    -0.4110 N.4   1 <1>  -0.9590 
 23 C      -12.2620    -7.0710    -1.3640 C.3   1 <1>   0.2630 
 24 H       -1.3740    -1.6020     0.6740 H     1 <1>   0.0800 
 25 H       -0.8430    -1.8150    -0.9960 H     1 <1>   0.0800 
 26 H        1.2180     1.3490     0.2020 H     1 <1>   0.0800 
 27 H        1.3410    -0.2750    -0.4940 H     1 <1>   0.0800 
 28 H        0.8000    -0.0650     1.1830 H     1 <1>   0.0800 
 29 H       -2.9850    -0.8520    -1.7860 H     1 <1>   0.0800 
 30 H       -3.5150    -0.6580    -0.1300 H     1 <1>   0.0800 
 31 H       -4.4580    -4.9520    -1.6470 H     1 <1>   0.0800 
 32 H       -5.9720    -4.3840    -2.2750 H     1 <1>   0.0800 
 33 H       -5.6990    -1.8480    -2.9490 H     1 <1>   0.0800 
 34 H       -5.3170    -0.8590    -1.5750 H     1 <1>   0.0800 
 35 H       -5.2820    -4.5160     0.6800 H     1 <1>   0.0800 
 36 H       -6.1090    -5.7610    -0.2000 H     1 <1>   0.0800 
 37 H       -7.6930    -2.6030    -1.9840 H     1 <1>   0.0800 
 38 H       -7.5670    -1.0030    -1.3570 H     1 <1>   0.0800 
 39 H       -8.0720    -2.1130     0.5740 H     1 <1>   0.0800 
 40 H       -6.3430    -2.1800     0.6820 H     1 <1>   0.0800 
 41 H      -10.2030    -5.2880     2.3020 H     1 <1>   0.0800 
 42 H      -10.1700    -7.0130     2.1900 H     1 <1>   0.0800 
 43 H       -8.6900    -8.0840     0.2790 H     1 <1>   0.0800 
 44 H       -7.7440    -7.0370    -0.7210 H     1 <1>   0.0800 
 45 H       -7.6210    -5.5160     2.7410 H     1 <1>   0.0800 
 46 H       -6.6850    -6.5050     1.6590 H     1 <1>   0.0800 
 47 H       -7.9460    -7.2200     2.5840 H     1 <1>   0.0800 
 48 H      -11.3550    -5.1070     0.1830 H     1 <1>   0.0800 
 49 H      -12.1930    -6.2520     1.1900 H     1 <1>   0.0800 
 50 H       -9.7430    -7.6990    -1.9170 H     1 <1>   0.0800 
 51 H       -9.7910    -5.9780    -1.6020 H     1 <1>   0.0800 
 52 H      -11.0990    -8.0400     0.0530 H     1 <1>   0.4500 
 53 H      -12.2950    -6.1120    -1.8560 H     1 <1>   0.0800 
 54 H      -13.1910    -7.2220    -0.8380 H     1 <1>   0.0800 
 55 H      -12.1630    -7.8410    -2.1120 H     1 <1>   0.0800 
@<TRIPOS>BOND
  1   1   2  1   
  2   1   3  1   
  3   2   4  1   
  4   2  24  1   
  5   2  25  1   
  6   3  26  1   
  7   3  27  1   
  8   3  28  1   
  9   4   5  1   
 10   4  29  1   
 11   4  30  1   
 12   5   6  2   
 13   5   7  am  
 14   7   8  1   
 15   7   9  1   
 16   8  10  1   
 17   8  31  1   
 18   8  32  1   
 19   9  11  1   
 20   9  33  1   
 21   9  34  1   
 22  10  12  1   
 23  10  35  1   
 24  10  36  1   
 25  11  13  1   
 26  11  37  1   
 27  11  38  1   
 28  12  13  1   
 29  12  14  am  
 30  13  39  1   
 31  13  40  1   
 32  14  15  2   
 33  14  16  1   
 34  16  17  1   
 35  16  18  1   
 36  16  19  1   
 37  17  20  1   
 38  17  41  1   
 39  17  42  1   
 40  18  21  1   
 41  18  43  1   
 42  18  44  1   
 43  19  45  1   
 44  19  46  1   
 45  19  47  1   
 46  20  22  1   
 47  20  48  1   
 48  20  49  1   
 49  21  22  1   
 50  21  50  1   
 51  21  51  1   
 52  22  23  1   
 53  22  52  1   
 54  23  53  1   
 55  23  54  1   
 56  23  55  1   
@<TRIPOS>SUBSTRUCTURE
  1 ****  12 GROUP 4 **** **** 0

# MOE 2024.06 (io_trps.svl 2023.06)
