@<TRIPOS>MOLECULE
NONAME
35 36 1 0 0 
SMALL
USER_CHARGES


@<TRIPOS>ATOM
  1 O       -1.1170     0.4290    -1.0710 O.2   1 <1>  -0.5700 
  2 C       -1.8530     0.9170    -0.2280 C.2   1 <1>   0.7160 
  3 N       -2.5830     0.0400     0.5660 N.am  1 <1>  -0.6600 
  4 C       -1.9060     2.3750    -0.1350 C.2   1 <1>   0.2030 
  5 C       -2.3820    -1.4290     0.4330 C.3   1 <1>   0.3200 
  6 C       -3.5540     0.4680     1.6250 C.3   1 <1>   0.1400 
  7 N       -2.3810     3.1210     0.8220 N.2   1 <1>  -0.4100 
  8 C       -1.4100     3.2210    -1.1180 C.2   1 <1>  -0.1500 
  9 C       -3.3880    -1.9840    -0.5550 C.2   1 <1>  -0.3320 
 10 C       -4.8660     1.0160     1.0400 C.3   1 <1>   0.1200 
 11 O       -2.2390     4.3910     0.5340 O.3   1 <1>  -0.0190 
 12 C       -1.6500     4.4440    -0.6400 C.2   1 <1>  -0.0400 
 13 N       -4.4650    -2.7390    -0.2530 N.pl3 1 <1>   0.0480 
 14 C       -3.3890    -1.8340    -1.8980 C.2   1 <1>   0.0770 
 15 O       -5.5330     0.0180     0.3490 O.3   1 <1>  -0.6800 
 16 C       -1.3470     5.8000    -1.2410 C.3   1 <1>  -0.0600 
 17 C       -5.0550    -2.9820    -1.4450 C.2   1 <1>   0.0360 
 18 C       -4.9430    -3.1800     1.0700 C.3   1 <1>   0.0160 
 19 N       -4.4410    -2.4590    -2.4550 N.2   1 <1>  -0.5650 
 20 H       -2.4780    -1.9070     1.3910 H     1 <1>   0.0800 
 21 H       -1.3870    -1.6380     0.0750 H     1 <1>   0.0800 
 22 H       -3.0990     1.2180     2.2460 H     1 <1>   0.0800 
 23 H       -3.7880    -0.3590     2.2720 H     1 <1>   0.0800 
 24 H       -0.9470     2.9110    -2.0370 H     1 <1>   0.1500 
 25 H       -4.6830     1.8340     0.3660 H     1 <1>   0.0800 
 26 H       -5.5130     1.3560     1.8300 H     1 <1>   0.0800 
 27 H       -2.6740    -1.2940    -2.4990 H     1 <1>   0.1500 
 28 H       -4.9420    -0.3650    -0.3410 H     1 <1>   0.4000 
 29 H       -0.8670     5.6860    -2.1960 H     1 <1>   0.0800 
 30 H       -0.6960     6.3510    -0.5870 H     1 <1>   0.0800 
 31 H       -2.2600     6.3530    -1.3720 H     1 <1>   0.0800 
 32 H       -5.9580    -3.5600    -1.5270 H     1 <1>   0.1500 
 33 H       -4.1700    -3.7430     1.5600 H     1 <1>   0.0800 
 34 H       -5.8140    -3.7990     0.9500 H     1 <1>   0.0800 
 35 H       -5.2000    -2.3200     1.6600 H     1 <1>   0.0800 
@<TRIPOS>BOND
  1   1   2  2   
  2   2   3  am  
  3   2   4  1   
  4   3   5  1   
  5   3   6  1   
  6   4   7  2   
  7   4   8  1   
  8   5   9  1   
  9   5  20  1   
 10   5  21  1   
 11   6  10  1   
 12   6  22  1   
 13   6  23  1   
 14   7  11  1   
 15   8  12  2   
 16   8  24  1   
 17   9  13  1   
 18   9  14  2   
 19  10  15  1   
 20  10  25  1   
 21  10  26  1   
 22  11  12  1   
 23  12  16  1   
 24  13  17  1   
 25  13  18  1   
 26  14  19  1   
 27  14  27  1   
 28  15  28  1   
 29  16  29  1   
 30  16  30  1   
 31  16  31  1   
 32  17  19  2   
 33  17  32  1   
 34  18  33  1   
 35  18  34  1   
 36  18  35  1   
@<TRIPOS>SUBSTRUCTURE
  1 ****   3 GROUP 4 **** **** 0

# MOE 2024.06 (io_trps.svl 2023.06)
