@<TRIPOS>MOLECULE
NONAME
40 41 1 0 0 
SMALL
USER_CHARGES


@<TRIPOS>ATOM
  1 F       -0.1830    -0.0010    -0.2500 F     1 <1>  -0.3400 
  2 C        0.1170    -1.1770    -0.8000 C.3   1 <1>   1.2010 
  3 F       -0.5030    -1.1890    -1.9790 F     1 <1>  -0.3400 
  4 F        1.4200    -1.1230    -1.0720 F     1 <1>  -0.3400 
  5 C       -0.2610    -2.3950     0.0970 C.2   1 <1>   0.3350 
  6 N       -0.7930    -2.3210     1.2620 N.2   1 <1>  -0.4100 
  7 N       -0.0570    -3.6670    -0.2790 N.2   1 <1>  -0.5650 
  8 O       -0.9670    -3.5310     1.6980 O.3   1 <1>  -0.0190 
  9 C       -0.5200    -4.2910     0.7320 C.2   1 <1>   0.2980 
 10 C       -0.5560    -5.8090     0.9140 C.3   1 <1>   0.2900 
 11 N       -1.8840    -6.4320     0.6630 N.3   1 <1>  -0.8100 
 12 C       -1.7600    -7.8930     0.5610 C.3   1 <1>   0.1100 
 13 C       -2.8810    -6.0300     1.6740 C.3   1 <1>   0.0300 
 14 C       -2.9970    -8.4970    -0.1070 C.3   1 <1>  -0.1600 
 15 C       -2.7440    -9.9560    -0.5050 C.3   1 <1>   0.0960 
 16 N       -3.9740   -10.5770    -1.0340 N.pl3 1 <1>   0.3140 
 17 N       -4.8000   -11.2640    -0.2250 N.2   1 <1>  -0.7070 
 18 C       -4.4330   -10.5620    -2.3080 C.2   1 <1>  -0.3320 
 19 C       -5.7610   -11.6670    -0.9930 C.2   1 <1>   0.1080 
 20 C       -5.5880   -11.2590    -2.3100 C.2   1 <1>  -0.1500 
 21 C       -3.7490    -9.8760    -3.4790 C.3   1 <1>  -0.0600 
 22 C       -6.9190   -12.4850    -0.4750 C.3   1 <1>  -0.0590 
 23 H       -0.2220    -6.0520     1.9080 H     1 <1>   0.0800 
 24 H        0.1550    -6.2200     0.2190 H     1 <1>   0.0800 
 25 H       -1.6080    -8.3260     1.5360 H     1 <1>   0.0800 
 26 H       -0.9040    -8.1270    -0.0510 H     1 <1>   0.0800 
 27 H       -3.0140    -4.9630     1.6650 H     1 <1>   0.0800 
 28 H       -2.5710    -6.3400     2.6580 H     1 <1>   0.0800 
 29 H       -3.8380    -6.4680     1.4550 H     1 <1>   0.0800 
 30 H       -3.2410    -7.9270    -0.9860 H     1 <1>   0.0800 
 31 H       -3.8290    -8.4720     0.5740 H     1 <1>   0.0800 
 32 H       -2.4360   -10.5240     0.3550 H     1 <1>   0.0800 
 33 H       -1.9760   -10.0190    -1.2520 H     1 <1>   0.0800 
 34 H       -6.2490   -11.4690    -3.1300 H     1 <1>   0.1500 
 35 H       -3.6610    -8.8210    -3.2940 H     1 <1>   0.0800 
 36 H       -4.3250   -10.0170    -4.3760 H     1 <1>   0.0800 
 37 H       -2.7690   -10.2910    -3.6340 H     1 <1>   0.0800 
 38 H       -7.4400   -11.9260     0.2800 H     1 <1>   0.0800 
 39 H       -6.5480   -13.3950    -0.0430 H     1 <1>   0.0800 
 40 H       -7.5980   -12.7220    -1.2730 H     1 <1>   0.0800 
@<TRIPOS>BOND
  1   1   2  1   
  2   2   3  1   
  3   2   4  1   
  4   2   5  1   
  5   5   6  2   
  6   5   7  1   
  7   6   8  1   
  8   7   9  2   
  9   8   9  1   
 10   9  10  1   
 11  10  11  1   
 12  10  23  1   
 13  10  24  1   
 14  11  12  1   
 15  11  13  1   
 16  12  14  1   
 17  12  25  1   
 18  12  26  1   
 19  13  27  1   
 20  13  28  1   
 21  13  29  1   
 22  14  15  1   
 23  14  30  1   
 24  14  31  1   
 25  15  16  1   
 26  15  32  1   
 27  15  33  1   
 28  16  17  1   
 29  16  18  1   
 30  17  19  2   
 31  18  20  2   
 32  18  21  1   
 33  19  20  1   
 34  19  22  1   
 35  20  34  1   
 36  21  35  1   
 37  21  36  1   
 38  21  37  1   
 39  22  38  1   
 40  22  39  1   
 41  22  40  1   
@<TRIPOS>SUBSTRUCTURE
  1 ****  11 GROUP 4 **** **** 0

# MOE 2024.06 (io_trps.svl 2023.06)
