@<TRIPOS>MOLECULE
NONAME
46 48 1 0 0 
SMALL
USER_CHARGES


@<TRIPOS>ATOM
  1 O        1.3620    -0.0010     2.7820 O.2   1 <1>  -0.5700 
  2 C        1.1290    -0.5680     1.7400 C.2   1 <1>   0.5690 
  3 N        1.1660     0.0770     0.5450 N.am  1 <1>  -0.7300 
  4 C        0.7960    -2.0640     1.7500 C.3   1 <1>   0.1710 
  5 C        1.4560     1.5080     0.3440 C.3   1 <1>   0.1400 
  6 N        0.0020    -2.5300     0.5730 N.3   1 <1>  -0.8100 
  7 C        2.8880     1.6570    -0.1660 C.3   1 <1>  -0.1600 
  8 C       -1.4040    -2.0630     0.6690 C.3   1 <1>   0.1100 
  9 C        0.0110    -4.0090     0.4930 C.3   1 <1>   0.1100 
 10 C        3.2820     3.1380    -0.2520 C.3   1 <1>   0.0960 
 11 C       -2.2640    -2.5270    -0.5220 C.3   1 <1>   0.2090 
 12 C       -0.7940    -4.5380    -0.7080 C.3   1 <1>   0.2090 
 13 N        4.6520     3.2890    -0.7780 N.pl3 1 <1>   0.3140 
 14 N       -2.1950    -4.0120    -0.6980 N.pl3 1 <1>  -0.8380 
 15 N        4.9070     3.6530    -2.0380 N.2   1 <1>  -0.4180 
 16 C        5.8020     3.1080    -0.1260 C.2   1 <1>  -0.3020 
 17 C       -3.2900    -4.7780    -1.0450 C.ar  1 <1>   0.7200 
 18 N        6.1840     3.7030    -2.1980 N.2   1 <1>  -0.2270 
 19 C        6.7530     3.3720    -1.0350 C.2   1 <1>   0.0770 
 20 N       -3.0890    -6.0840    -1.2240 N.ar  1 <1>  -0.6200 
 21 N       -4.4580    -4.1490    -1.1770 N.ar  1 <1>  -0.6200 
 22 C       -4.1350    -6.7990    -1.5550 C.ar  1 <1>   0.1600 
 23 C       -5.4880    -4.8880    -1.5090 C.ar  1 <1>   0.1600 
 24 C       -5.3790    -6.2410    -1.7130 C.ar  1 <1>  -0.1500 
 25 H        0.9330    -0.4930    -0.2760 H     1 <1>   0.3700 
 26 H        0.2720    -2.2950     2.6600 H     1 <1>   0.0800 
 27 H        1.7340    -2.5890     1.7710 H     1 <1>   0.0800 
 28 H        1.3430     2.0280     1.2810 H     1 <1>   0.0800 
 29 H        0.7550     1.9190    -0.3630 H     1 <1>   0.0800 
 30 H        2.9690     1.2080    -1.1410 H     1 <1>   0.0800 
 31 H        3.5550     1.1540     0.5140 H     1 <1>   0.0800 
 32 H       -1.4260    -0.9880     0.7070 H     1 <1>   0.0800 
 33 H       -1.8520    -2.4350     1.5750 H     1 <1>   0.0800 
 34 H       -0.4050    -4.4280     1.3940 H     1 <1>   0.0800 
 35 H        1.0260    -4.3550     0.4010 H     1 <1>   0.0800 
 36 H        3.2400     3.5940     0.7200 H     1 <1>   0.0800 
 37 H        2.6120     3.6630    -0.9080 H     1 <1>   0.0800 
 38 H       -1.9120    -2.0520    -1.4210 H     1 <1>   0.0800 
 39 H       -3.2750    -2.2030    -0.3520 H     1 <1>   0.0800 
 40 H       -0.7820    -5.6130    -0.6760 H     1 <1>   0.0800 
 41 H       -0.3130    -4.2310    -1.6200 H     1 <1>   0.0800 
 42 H        5.8720     2.8120     0.9030 H     1 <1>   0.1500 
 43 H        7.8220     3.3420    -0.9190 H     1 <1>   0.1500 
 44 H       -3.9970    -7.8560    -1.7040 H     1 <1>   0.1500 
 45 H       -6.4420    -4.4020    -1.6210 H     1 <1>   0.1500 
 46 H       -6.2300    -6.8360    -1.9850 H     1 <1>   0.1500 
@<TRIPOS>BOND
  1   1   2  2   
  2   2   3  am  
  3   2   4  1   
  4   3   5  1   
  5   3  25  1   
  6   4   6  1   
  7   4  26  1   
  8   4  27  1   
  9   5   7  1   
 10   5  28  1   
 11   5  29  1   
 12   6   8  1   
 13   6   9  1   
 14   7  10  1   
 15   7  30  1   
 16   7  31  1   
 17   8  11  1   
 18   8  32  1   
 19   8  33  1   
 20   9  12  1   
 21   9  34  1   
 22   9  35  1   
 23  10  13  1   
 24  10  36  1   
 25  10  37  1   
 26  11  14  1   
 27  11  38  1   
 28  11  39  1   
 29  12  14  1   
 30  12  40  1   
 31  12  41  1   
 32  13  15  1   
 33  13  16  1   
 34  14  17  1   
 35  15  18  2   
 36  16  19  2   
 37  16  42  1   
 38  17  20  ar  
 39  17  21  ar  
 40  18  19  1   
 41  19  43  1   
 42  20  22  ar  
 43  21  23  ar  
 44  22  24  ar  
 45  22  44  1   
 46  23  24  ar  
 47  23  45  1   
 48  24  46  1   
@<TRIPOS>SUBSTRUCTURE
  1 ****   6 GROUP 4 **** **** 0

# MOE 2024.06 (io_trps.svl 2023.06)
