@<TRIPOS>MOLECULE
NONAME
55 57 1 0 0 
SMALL
USER_CHARGES


@<TRIPOS>ATOM
  1 O       -0.3270     0.2750     1.1740 O.2   1 <1>  -0.5700 
  2 C       -1.2680     0.9820     0.8650 C.2   1 <1>   0.7150 
  3 N       -2.4460     0.3800     0.4920 N.am  1 <1>  -0.6600 
  4 C       -1.1350     2.4110     0.8740 C.2   1 <1>  -0.2370 
  5 C       -3.5160     1.0330    -0.3030 C.3   1 <1>   0.1400 
  6 C       -2.6100    -1.0940     0.4760 C.3   1 <1>   0.1400 
  7 N       -0.0020     3.0790     0.5260 N.pl3 1 <1>   0.3140 
  8 C       -2.0330     3.3780     1.2130 C.2   1 <1>  -0.1500 
  9 C       -4.2070    -0.1120    -1.0400 C.3   1 <1>   0.2000 
 10 C       -3.9740    -1.3430    -0.1700 C.3   1 <1>  -0.0800 
 11 N       -0.1610     4.4130     0.6210 N.2   1 <1>  -0.7070 
 12 C        1.2860     2.4630     0.0970 C.3   1 <1>   0.0960 
 13 C       -1.3800     4.5810     1.0310 C.2   1 <1>   0.1080 
 14 O       -5.5650     0.1210    -1.1900 O.3   1 <1>  -0.6800 
 15 C       -4.0520    -2.6650    -0.9500 C.3   1 <1>   0.0210 
 16 C        2.2030     3.4230    -0.6770 C.3   1 <1>  -0.2400 
 17 C       -1.9840     5.9520     1.2760 C.3   1 <1>   0.0210 
 18 C       -3.6530    -3.8430    -0.0800 C.2   1 <1>   0.1080 
 19 C       -3.1500     6.2690     0.3190 C.3   1 <1>  -0.0800 
 20 N       -4.1540    -4.0520     1.0980 N.2   1 <1>  -0.7070 
 21 C       -2.7150    -4.8070    -0.4310 C.2   1 <1>  -0.1500 
 22 C       -2.6900     6.2870    -1.1460 C.3   1 <1>  -0.2400 
 23 C       -3.7840     7.6190     0.6770 C.3   1 <1>  -0.2400 
 24 N       -3.5430    -5.1690     1.5340 N.pl3 1 <1>   0.3000 
 25 C       -2.6650    -5.6450     0.6260 C.2   1 <1>  -0.3320 
 26 C       -1.8200    -6.8890     0.8280 C.3   1 <1>  -0.0600 
 27 H       -4.2030     1.5210     0.3660 H     1 <1>   0.0800 
 28 H       -3.1010     1.7430    -0.9970 H     1 <1>   0.0800 
 29 H       -1.8190    -1.5320    -0.1090 H     1 <1>   0.0800 
 30 H       -2.5730    -1.4950     1.4760 H     1 <1>   0.0800 
 31 H       -3.0420     3.2560     1.5600 H     1 <1>   0.1500 
 32 H       -3.7710    -0.2290    -2.0180 H     1 <1>   0.0800 
 33 H       -4.6960    -1.3650     0.6270 H     1 <1>   0.0800 
 34 H        1.7900     2.1080     0.9780 H     1 <1>   0.0800 
 35 H        1.0640     1.6170    -0.5260 H     1 <1>   0.0800 
 36 H       -6.0160     0.0590    -0.3260 H     1 <1>   0.4000 
 37 H       -3.4050    -2.6260    -1.8070 H     1 <1>   0.0800 
 38 H       -5.0580    -2.8180    -1.2970 H     1 <1>   0.0800 
 39 H        2.4870     4.2510    -0.0510 H     1 <1>   0.0800 
 40 H        1.6970     3.7980    -1.5490 H     1 <1>   0.0800 
 41 H        3.0940     2.9080    -0.9870 H     1 <1>   0.0800 
 42 H       -2.3280     5.9890     2.2930 H     1 <1>   0.0800 
 43 H       -1.2120     6.6940     1.1660 H     1 <1>   0.0800 
 44 H       -3.9000     5.5050     0.4300 H     1 <1>   0.0800 
 45 H       -2.1630    -4.8530    -1.3520 H     1 <1>   0.1500 
 46 H       -1.9240     7.0280    -1.2920 H     1 <1>   0.0800 
 47 H       -3.5160     6.5120    -1.7970 H     1 <1>   0.0800 
 48 H       -2.2900     5.3290    -1.4280 H     1 <1>   0.0800 
 49 H       -3.0650     8.4140     0.5750 H     1 <1>   0.0800 
 50 H       -4.1420     7.6090     1.6910 H     1 <1>   0.0800 
 51 H       -4.6160     7.8250     0.0280 H     1 <1>   0.0800 
 52 H       -3.7450    -5.5800     2.4540 H     1 <1>   0.2700 
 53 H       -1.2030    -7.0600    -0.0360 H     1 <1>   0.0800 
 54 H       -2.4500    -7.7480     0.9740 H     1 <1>   0.0800 
 55 H       -1.1820    -6.7700     1.6860 H     1 <1>   0.0800 
@<TRIPOS>BOND
  1   1   2  2   
  2   2   3  am  
  3   2   4  1   
  4   3   5  1   
  5   3   6  1   
  6   4   7  1   
  7   4   8  2   
  8   5   9  1   
  9   5  27  1   
 10   5  28  1   
 11   6  10  1   
 12   6  29  1   
 13   6  30  1   
 14   7  11  1   
 15   7  12  1   
 16   8  13  1   
 17   8  31  1   
 18   9  10  1   
 19   9  14  1   
 20   9  32  1   
 21  10  15  1   
 22  10  33  1   
 23  11  13  2   
 24  12  16  1   
 25  12  34  1   
 26  12  35  1   
 27  13  17  1   
 28  14  36  1   
 29  15  18  1   
 30  15  37  1   
 31  15  38  1   
 32  16  39  1   
 33  16  40  1   
 34  16  41  1   
 35  17  19  1   
 36  17  42  1   
 37  17  43  1   
 38  18  20  2   
 39  18  21  1   
 40  19  22  1   
 41  19  23  1   
 42  19  44  1   
 43  20  24  1   
 44  21  25  2   
 45  21  45  1   
 46  22  46  1   
 47  22  47  1   
 48  22  48  1   
 49  23  49  1   
 50  23  50  1   
 51  23  51  1   
 52  24  25  1   
 53  24  52  1   
 54  25  26  1   
 55  26  53  1   
 56  26  54  1   
 57  26  55  1   
@<TRIPOS>SUBSTRUCTURE
  1 ****   3 GROUP 4 **** **** 0

# MOE 2024.06 (io_trps.svl 2023.06)
