@<TRIPOS>MOLECULE
NONAME
52 55 1 0 0 
SMALL
USER_CHARGES


@<TRIPOS>ATOM
  1 O        0.9930    -1.4670     2.0430 O.2   1 <1>  -0.5700 
  2 C        2.0090    -1.2940     2.6790 C.2   1 <1>   0.5690 
  3 N        2.2830    -0.0900     3.2850 N.am  1 <1>  -0.6600 
  4 C        3.0120    -2.4490     2.6790 C.3   1 <1>  -0.0190 
  5 C        1.6130     1.1620     2.7940 C.3   1 <1>   0.2840 
  6 C        3.3330     0.1340     4.3200 C.3   1 <1>   0.0600 
  7 C        3.5590    -2.5650     1.2480 C.3   1 <1>   0.3430 
  8 C        2.3900    -3.7790     3.1840 C.3   1 <1>  -0.1600 
  9 C        1.8710     1.3950     1.3040 C.ar  1 <1>  -0.1440 
 10 N        2.6010    -3.3120     0.3940 N.4   1 <1>  -0.9590 
 11 C        2.7710    -4.9670     2.2830 C.3   1 <1>  -0.1600 
 12 C        2.9900     0.8650     0.6860 C.ar  1 <1>  -0.1500 
 13 C        0.9560     2.0930     0.5300 C.ar  1 <1>  -0.1500 
 14 C        2.4070    -4.7320     0.8060 C.3   1 <1>   0.3430 
 15 C        2.9890    -3.1780    -1.0440 C.3   1 <1>   0.5230 
 16 C        3.1510     0.8660    -0.6980 C.ar  1 <1>   0.0410 
 17 C        1.1480     2.2130    -0.8360 C.ar  1 <1>  -0.1500 
 18 C        1.8360    -3.5700    -1.9540 C.2   1 <1>  -0.0400 
 19 C        4.1560     0.0130    -1.2970 C.2   1 <1>   0.6960 
 20 C        2.2270     1.5960    -1.4450 C.ar  1 <1>  -0.1500 
 21 O        1.2840    -4.7700    -1.8790 O.3   1 <1>  -0.2800 
 22 C        1.2350    -2.8330    -2.9130 C.2   1 <1>  -0.1500 
 23 N        4.1190    -0.4210    -2.5180 N.2   1 <1>  -0.6190 
 24 N        5.0850    -0.6080    -0.6210 N.2   1 <1>  -0.6190 
 25 C        0.3220    -4.8200    -2.7810 C.2   1 <1>  -0.0100 
 26 C        0.2380    -3.6530    -3.4540 C.2   1 <1>  -0.1500 
 27 N        5.0350    -1.3170    -2.6120 N.2   1 <1>  -0.2500 
 28 N        5.6190    -1.4350    -1.4540 N.2   1 <1>  -0.2500 
 29 H        3.8520    -2.2080     3.2990 H     1 <1>   0.0800 
 30 H        1.9610     2.0160     3.3480 H     1 <1>   0.0800 
 31 H        0.5530     1.0670     2.9590 H     1 <1>   0.0800 
 32 H        3.4990    -0.7610     4.8930 H     1 <1>   0.0800 
 33 H        3.0190     0.9050     5.0020 H     1 <1>   0.0800 
 34 H        4.2520     0.4370     3.8490 H     1 <1>   0.0800 
 35 H        4.5130    -3.0650     1.2480 H     1 <1>   0.0800 
 36 H        3.7010    -1.5790     0.8530 H     1 <1>   0.0800 
 37 H        1.3150    -3.7020     3.2010 H     1 <1>   0.0800 
 38 H        2.7080    -3.9670     4.1950 H     1 <1>   0.0800 
 39 H        1.6970    -2.8180     0.4970 H     1 <1>   0.4500 
 40 H        2.2760    -5.8590     2.6250 H     1 <1>   0.0800 
 41 H        3.8300    -5.1480     2.3540 H     1 <1>   0.0800 
 42 H        3.7490     0.3930     1.2780 H     1 <1>   0.1500 
 43 H        0.0860     2.5370     0.9830 H     1 <1>   0.1500 
 44 H        3.0090    -5.3790     0.1880 H     1 <1>   0.0800 
 45 H        1.3740    -4.9980     0.6430 H     1 <1>   0.0800 
 46 H        3.8620    -3.7700    -1.2640 H     1 <1>   0.0800 
 47 H        3.2280    -2.1550    -1.2490 H     1 <1>   0.0800 
 48 H        0.4440     2.7690    -1.4310 H     1 <1>   0.1500 
 49 H        2.3510     1.6500    -2.5130 H     1 <1>   0.1500 
 50 H        1.4650    -1.8250    -3.2210 H     1 <1>   0.1500 
 51 H       -0.2550    -5.7230    -2.8800 H     1 <1>   0.1500 
 52 H       -0.4340    -3.3750    -4.2470 H     1 <1>   0.1500 
@<TRIPOS>BOND
  1   1   2  2   
  2   2   3  am  
  3   2   4  1   
  4   3   5  1   
  5   3   6  1   
  6   4   7  1   
  7   4   8  1   
  8   4  29  1   
  9   5   9  1   
 10   5  30  1   
 11   5  31  1   
 12   6  32  1   
 13   6  33  1   
 14   6  34  1   
 15   7  10  1   
 16   7  35  1   
 17   7  36  1   
 18   8  11  1   
 19   8  37  1   
 20   8  38  1   
 21   9  12  ar  
 22   9  13  ar  
 23  10  14  1   
 24  10  15  1   
 25  10  39  1   
 26  11  14  1   
 27  11  40  1   
 28  11  41  1   
 29  12  16  ar  
 30  12  42  1   
 31  13  17  ar  
 32  13  43  1   
 33  14  44  1   
 34  14  45  1   
 35  15  18  1   
 36  15  46  1   
 37  15  47  1   
 38  16  19  1   
 39  16  20  ar  
 40  17  20  ar  
 41  17  48  1   
 42  18  21  1   
 43  18  22  2   
 44  19  23  1   
 45  19  24  2   
 46  20  49  1   
 47  21  25  1   
 48  22  26  1   
 49  22  50  1   
 50  23  27  1   
 51  24  28  1   
 52  25  26  2   
 53  25  51  1   
 54  26  52  1   
 55  27  28  2   
@<TRIPOS>SUBSTRUCTURE
  1 ****  10 GROUP 4 **** **** 0

# MOE 2024.06 (io_trps.svl 2023.06)
