@<TRIPOS>MOLECULE
NONAME
39 40 1 0 0 
SMALL
USER_CHARGES


@<TRIPOS>ATOM
  1 S        0.7370    -0.6570     0.0820 S.o2  1 <1>   1.3330 
  2 O        1.4530    -0.9050     1.3090 O.2   1 <1>  -0.6500 
  3 O        1.3070    -1.0280    -1.1910 O.2   1 <1>  -0.6500 
  4 N       -0.7010    -1.4950     0.2590 N.am  1 <1>  -0.9140 
  5 C        0.1970     1.0530     0.0230 C.3   1 <1>  -0.0550 
  6 C       -0.6720    -2.8440    -0.3000 C.3   1 <1>   0.2760 
  7 C        1.3510     2.0620    -0.1070 C.3   1 <1>  -0.1600 
  8 C       -2.0690    -3.4520    -0.2720 C.3   1 <1>  -0.0800 
  9 C        0.0480    -3.7950     0.6530 C.3   1 <1>   0.1200 
 10 C        0.8300     3.5020    -0.1520 C.3   1 <1>  -0.2400 
 11 C       -2.1740    -4.0270     1.1450 C.3   1 <1>   0.1200 
 12 C       -3.2250    -2.5100    -0.6590 C.3   1 <1>  -0.0160 
 13 O       -0.8770    -4.0440     1.6670 O.3   1 <1>  -0.5600 
 14 C       -4.5480    -3.2590    -0.6770 C.ar  1 <1>  -0.1440 
 15 C       -5.4400    -3.1970     0.3740 C.ar  1 <1>  -0.1500 
 16 C       -4.9230    -4.0430    -1.7500 C.ar  1 <1>  -0.1500 
 17 C       -6.6270    -3.9080     0.3070 C.ar  1 <1>   0.1600 
 18 C       -6.1340    -4.7130    -1.7170 C.ar  1 <1>   0.1600 
 19 N       -6.9930    -4.6660    -0.7120 N.ar  1 <1>  -0.6200 
 20 H       -0.7670    -1.6550     1.2680 H     1 <1>   0.4200 
 21 H       -0.4660     1.1770    -0.8110 H     1 <1>   0.0800 
 22 H       -0.3560     1.2740     0.9150 H     1 <1>   0.0800 
 23 H       -0.2590    -2.8540    -1.2960 H     1 <1>   0.0800 
 24 H        2.0200     1.9490     0.7300 H     1 <1>   0.0800 
 25 H        1.9070     1.8530    -1.0060 H     1 <1>   0.0800 
 26 H       -2.0760    -4.2840    -0.9540 H     1 <1>   0.0800 
 27 H        0.9520    -3.3910     1.0750 H     1 <1>   0.0800 
 28 H        0.2660    -4.7300     0.1670 H     1 <1>   0.0800 
 29 H        0.2900     3.7380     0.7490 H     1 <1>   0.0800 
 30 H        0.1770     3.6420    -0.9960 H     1 <1>   0.0800 
 31 H        1.6550     4.1870    -0.2440 H     1 <1>   0.0800 
 32 H       -2.5630    -5.0310     1.1410 H     1 <1>   0.0800 
 33 H       -2.7740    -3.4060     1.7870 H     1 <1>   0.0800 
 34 H       -3.0380    -2.0950    -1.6340 H     1 <1>   0.0800 
 35 H       -3.2910    -1.6890     0.0340 H     1 <1>   0.0800 
 36 H       -5.2260    -2.6050     1.2450 H     1 <1>   0.1500 
 37 H       -4.2860    -4.1390    -2.6100 H     1 <1>   0.1500 
 38 H       -7.3120    -3.8490     1.1360 H     1 <1>   0.1500 
 39 H       -6.4110    -5.3200    -2.5620 H     1 <1>   0.1500 
@<TRIPOS>BOND
  1   1   2  2   
  2   1   3  2   
  3   1   4  am  
  4   1   5  1   
  5   4   6  1   
  6   4  20  1   
  7   5   7  1   
  8   5  21  1   
  9   5  22  1   
 10   6   8  1   
 11   6   9  1   
 12   6  23  1   
 13   7  10  1   
 14   7  24  1   
 15   7  25  1   
 16   8  11  1   
 17   8  12  1   
 18   8  26  1   
 19   9  13  1   
 20   9  27  1   
 21   9  28  1   
 22  10  29  1   
 23  10  30  1   
 24  10  31  1   
 25  11  13  1   
 26  11  32  1   
 27  11  33  1   
 28  12  14  1   
 29  12  34  1   
 30  12  35  1   
 31  14  15  ar  
 32  14  16  ar  
 33  15  17  ar  
 34  15  36  1   
 35  16  18  ar  
 36  16  37  1   
 37  17  19  ar  
 38  17  38  1   
 39  18  19  ar  
 40  18  39  1   
@<TRIPOS>SUBSTRUCTURE
  1 ****   8 GROUP 4 **** **** 0

# MOE 2024.06 (io_trps.svl 2023.06)
