@<TRIPOS>MOLECULE
NONAME
55 57 1 0 0 
SMALL
USER_CHARGES


@<TRIPOS>ATOM
  1 CL      -4.5430    -1.4400     3.3720 Cl    1 <1>  -0.1770 
  2 C       -3.7520    -2.0300     1.9330 C.ar  1 <1>   0.1770 
  3 C       -3.9330    -3.3440     1.5520 C.ar  1 <1>  -0.1500 
  4 C       -2.9570    -1.1700     1.1990 C.ar  1 <1>  -0.1500 
  5 C       -3.3090    -3.8260     0.4090 C.ar  1 <1>   0.1000 
  6 C       -2.3300    -1.6430     0.0580 C.ar  1 <1>  -0.1500 
  7 N       -3.4970    -5.1540     0.0370 N.pl3 1 <1>  -0.8380 
  8 C       -2.5060    -2.9610    -0.3300 C.ar  1 <1>  -0.1500 
  9 C       -2.7680    -6.2010     0.8160 C.3   1 <1>   0.2090 
 10 C       -3.7710    -5.4870    -1.3910 C.3   1 <1>   0.2090 
 11 C       -3.4180    -7.5880     0.6340 C.3   1 <1>   0.3430 
 12 C       -4.4420    -6.8720    -1.5070 C.3   1 <1>   0.3430 
 13 N       -3.6460    -7.9510    -0.8200 N.4   1 <1>  -0.9590 
 14 C       -4.3150    -9.2690    -0.7700 C.3   1 <1>   0.3430 
 15 C       -4.6700    -9.8980    -2.1150 C.3   1 <1>  -0.1600 
 16 C       -4.9750   -11.3980    -1.9240 C.3   1 <1>   0.3430 
 17 N       -6.3280   -11.7860    -1.3610 N.4   1 <1>  -0.9590 
 18 C       -6.1210   -12.8230    -0.2700 C.3   1 <1>   0.3430 
 19 C       -7.2630   -10.6770    -0.9510 C.3   1 <1>   0.3430 
 20 C       -6.3510   -12.2660     1.1320 C.3   1 <1>  -0.1860 
 21 C       -8.3800   -11.2350    -0.0780 C.3   1 <1>  -0.1600 
 22 C       -5.2340   -11.2750     1.3610 C.2   1 <1>   0.9060 
 23 C       -7.8090   -11.7660     1.2440 C.3   1 <1>   0.2000 
 24 O       -4.1000   -11.5960     1.0020 O.co2 1 <1>  -0.9000 
 25 O       -5.4730   -10.1010     1.6720 O.co2 1 <1>  -0.9000 
 26 O       -7.8920   -10.7580     2.1720 O.3   1 <1>  -0.6800 
 27 H       -4.5610    -3.9900     2.1360 H     1 <1>   0.1500 
 28 H       -2.8330    -0.1500     1.5170 H     1 <1>   0.1500 
 29 H       -1.7060    -0.9850    -0.5230 H     1 <1>   0.1500 
 30 H       -2.0070    -3.3190    -1.2100 H     1 <1>   0.1500 
 31 H       -1.7420    -6.2350     0.4940 H     1 <1>   0.0800 
 32 H       -2.7750    -5.9430     1.8610 H     1 <1>   0.0800 
 33 H       -4.4220    -4.7380    -1.8100 H     1 <1>   0.0800 
 34 H       -2.8510    -5.4800    -1.9480 H     1 <1>   0.0800 
 35 H       -4.3630    -7.5890     1.1540 H     1 <1>   0.0800 
 36 H       -2.8010    -8.3360     1.1060 H     1 <1>   0.0800 
 37 H       -4.5700    -7.1150    -2.5480 H     1 <1>   0.0800 
 38 H       -5.4180    -6.8060    -1.0550 H     1 <1>   0.0800 
 39 H       -2.7240    -8.0440    -1.2610 H     1 <1>   0.4500 
 40 H       -3.6630    -9.9410    -0.2390 H     1 <1>   0.0800 
 41 H       -5.2140    -9.1600    -0.1940 H     1 <1>   0.0800 
 42 H       -5.4870    -9.3940    -2.5970 H     1 <1>   0.0800 
 43 H       -3.8060    -9.8320    -2.7510 H     1 <1>   0.0800 
 44 H       -4.2030   -11.8070    -1.2890 H     1 <1>   0.0800 
 45 H       -4.8650   -11.8810    -2.8810 H     1 <1>   0.0800 
 46 H       -6.8120   -12.2900    -2.1150 H     1 <1>   0.4500 
 47 H       -6.8100   -13.6380    -0.4220 H     1 <1>   0.0800 
 48 H       -5.1220   -13.2290    -0.3270 H     1 <1>   0.0800 
 49 H       -6.7400    -9.9390    -0.3690 H     1 <1>   0.0800 
 50 H       -7.6780   -10.1980    -1.8220 H     1 <1>   0.0800 
 51 H       -6.2090   -13.0570     1.8430 H     1 <1>   0.0800 
 52 H       -8.8780   -12.0280    -0.6060 H     1 <1>   0.0800 
 53 H       -9.1140   -10.4730     0.1190 H     1 <1>   0.0800 
 54 H       -8.4460   -12.5590     1.6000 H     1 <1>   0.0800 
 55 H       -7.0130   -10.2740     2.1860 H     1 <1>   0.4000 
@<TRIPOS>BOND
  1   1   2  1   
  2   2   3  ar  
  3   2   4  ar  
  4   3   5  ar  
  5   3  27  1   
  6   4   6  ar  
  7   4  28  1   
  8   5   7  1   
  9   5   8  ar  
 10   6   8  ar  
 11   6  29  1   
 12   7   9  1   
 13   7  10  1   
 14   8  30  1   
 15   9  11  1   
 16   9  31  1   
 17   9  32  1   
 18  10  12  1   
 19  10  33  1   
 20  10  34  1   
 21  11  13  1   
 22  11  35  1   
 23  11  36  1   
 24  12  13  1   
 25  12  37  1   
 26  12  38  1   
 27  13  14  1   
 28  13  39  1   
 29  14  15  1   
 30  14  40  1   
 31  14  41  1   
 32  15  16  1   
 33  15  42  1   
 34  15  43  1   
 35  16  17  1   
 36  16  44  1   
 37  16  45  1   
 38  17  18  1   
 39  17  19  1   
 40  17  46  1   
 41  18  20  1   
 42  18  47  1   
 43  18  48  1   
 44  19  21  1   
 45  19  49  1   
 46  19  50  1   
 47  20  22  1   
 48  20  23  1   
 49  20  51  1   
 50  21  23  1   
 51  21  52  1   
 52  21  53  1   
 53  22  24  ar  
 54  22  25  ar  
 55  23  26  1   
 56  23  54  1   
 57  26  55  1   
@<TRIPOS>SUBSTRUCTURE
  1 ****  11 GROUP 4 **** **** 0

# MOE 2024.06 (io_trps.svl 2023.06)
