@<TRIPOS>MOLECULE
NONAME
43 44 1 0 0 
SMALL
USER_CHARGES


@<TRIPOS>ATOM
  1 S        0.0700     0.5180    -0.6030 S.o2  1 <1>   1.3330 
  2 O       -0.0960    -0.3240     0.5610 O.2   1 <1>  -0.6500 
  3 O       -1.0930     1.0730    -1.2560 O.2   1 <1>  -0.6500 
  4 N        1.1380     1.7670    -0.1910 N.am  1 <1>  -0.8490 
  5 C        0.9940    -0.3710    -1.8370 C.3   1 <1>  -0.1350 
  6 C        2.1430     1.3300     0.8000 C.3   1 <1>   0.1960 
  7 C        0.4200     2.9570     0.2850 C.3   1 <1>   0.1960 
  8 C        3.5300     1.9930     0.6600 C.3   1 <1>   0.1100 
  9 C        1.2690     4.2330     0.2800 C.3   1 <1>  -0.1600 
 10 N        3.5630     3.4500     0.4330 N.3   1 <1>  -0.8100 
 11 C        2.5280     4.2030     1.1450 C.3   1 <1>   0.1100 
 12 C        4.9240     3.9950     0.5910 C.3   1 <1>   0.2900 
 13 C        5.0490     5.4090     0.0460 C.2   1 <1>  -0.0400 
 14 O        4.8530     5.6460    -1.2230 O.3   1 <1>  -0.0190 
 15 C        5.3530     6.5730     0.6400 C.2   1 <1>  -0.1500 
 16 N        5.0110     6.9070    -1.5100 N.2   1 <1>  -0.4100 
 17 C        5.3120     7.4940    -0.4040 C.2   1 <1>   0.1080 
 18 C        5.5850     8.9870    -0.2520 C.3   1 <1>   0.1010 
 19 C        4.3460     9.8080    -0.6270 C.3   1 <1>  -0.2400 
 20 C        6.7870     9.4110    -1.1060 C.3   1 <1>  -0.2400 
 21 H        0.4160    -1.1960    -2.2040 H     1 <1>   0.0800 
 22 H        1.9090    -0.7450    -1.4240 H     1 <1>   0.0800 
 23 H        1.2250     0.2800    -2.6580 H     1 <1>   0.0800 
 24 H        2.3100     0.2720     0.7030 H     1 <1>   0.0800 
 25 H        1.7660     1.4830     1.7970 H     1 <1>   0.0800 
 26 H        0.0250     2.7750     1.2710 H     1 <1>   0.0800 
 27 H       -0.4180     3.1530    -0.3620 H     1 <1>   0.0800 
 28 H        4.0370     1.5210    -0.1640 H     1 <1>   0.0800 
 29 H        4.0880     1.7620     1.5510 H     1 <1>   0.0800 
 30 H        0.6450     5.0300     0.6380 H     1 <1>   0.0800 
 31 H        1.5390     4.4780    -0.7320 H     1 <1>   0.0800 
 32 H        2.3340     3.7800     2.1160 H     1 <1>   0.0800 
 33 H        2.8450     5.2220     1.2870 H     1 <1>   0.0800 
 34 H        5.6180     3.3720     0.0530 H     1 <1>   0.0800 
 35 H        5.1980     3.9860     1.6320 H     1 <1>   0.0800 
 36 H        5.5810     6.7840     1.6680 H     1 <1>   0.1500 
 37 H        5.8200     9.1830     0.7800 H     1 <1>   0.0800 
 38 H        4.0880     9.6400    -1.6580 H     1 <1>   0.0800 
 39 H        4.5290    10.8570    -0.4810 H     1 <1>   0.0800 
 40 H        3.5120     9.5130    -0.0160 H     1 <1>   0.0800 
 41 H        6.5820     9.2370    -2.1480 H     1 <1>   0.0800 
 42 H        7.6540     8.8370    -0.8300 H     1 <1>   0.0800 
 43 H        7.0020    10.4540    -0.9630 H     1 <1>   0.0800 
@<TRIPOS>BOND
  1   1   2  2   
  2   1   3  2   
  3   1   4  am  
  4   1   5  1   
  5   4   6  1   
  6   4   7  1   
  7   5  21  1   
  8   5  22  1   
  9   5  23  1   
 10   6   8  1   
 11   6  24  1   
 12   6  25  1   
 13   7   9  1   
 14   7  26  1   
 15   7  27  1   
 16   8  10  1   
 17   8  28  1   
 18   8  29  1   
 19   9  11  1   
 20   9  30  1   
 21   9  31  1   
 22  10  11  1   
 23  10  12  1   
 24  11  32  1   
 25  11  33  1   
 26  12  13  1   
 27  12  34  1   
 28  12  35  1   
 29  13  14  1   
 30  13  15  2   
 31  14  16  1   
 32  15  17  1   
 33  15  36  1   
 34  16  17  2   
 35  17  18  1   
 36  18  19  1   
 37  18  20  1   
 38  18  37  1   
 39  19  38  1   
 40  19  39  1   
 41  19  40  1   
 42  20  41  1   
 43  20  42  1   
 44  20  43  1   
@<TRIPOS>SUBSTRUCTURE
  1 ****  10 GROUP 4 **** **** 0

# MOE 2024.06 (io_trps.svl 2023.06)
