@<TRIPOS>MOLECULE
NONAME
40 41 1 0 0 
SMALL
USER_CHARGES


@<TRIPOS>ATOM
  1 O        0.5020     0.4670    -1.2000 O.3   1 <1>  -0.5600 
  2 C        1.4160     0.6370    -0.1630 C.3   1 <1>   0.1200 
  3 C       -0.3700     1.5430    -1.2490 C.3   1 <1>   0.1200 
  4 C        1.4710     2.1400     0.1370 C.3   1 <1>  -0.0800 
  5 C        0.4780     2.7370    -0.8530 C.3   1 <1>  -0.1600 
  6 C        2.8900     2.7190     0.0080 C.3   1 <1>  -0.1600 
  7 C        2.9430     4.2150     0.3600 C.3   1 <1>  -0.1600 
  8 C        4.3690     4.7550     0.2730 C.3   1 <1>   0.2090 
  9 N        4.3580     6.1830     0.6360 N.pl3 1 <1>  -0.8690 
 10 C        5.4670     6.9720     0.3590 C.ar  1 <1>   0.4100 
 11 N        6.6490     6.3940     0.4710 N.ar  1 <1>  -0.6200 
 12 C        5.2850     8.3390    -0.0340 C.ar  1 <1>   0.4100 
 13 C        7.6410     7.2270     0.1810 C.ar  1 <1>   0.1600 
 14 N        6.2930     9.1460    -0.3230 N.ar  1 <1>  -0.6200 
 15 N        3.9980     8.8960    -0.1200 N.pl3 1 <1>  -0.8380 
 16 C        7.4700     8.5450    -0.2000 C.ar  1 <1>   0.1600 
 17 C        3.4190     9.3210     1.1810 C.3   1 <1>   0.1290 
 18 C        3.7460     9.8680    -1.2190 C.3   1 <1>   0.1290 
 19 H        2.3640     0.2450    -0.4880 H     1 <1>   0.0800 
 20 H        1.0640     0.0820     0.6890 H     1 <1>   0.0800 
 21 H       -1.1590     1.3670    -0.5370 H     1 <1>   0.0800 
 22 H       -0.7750     1.6280    -2.2430 H     1 <1>   0.0800 
 23 H        1.1150     2.2890     1.1430 H     1 <1>   0.0800 
 24 H       -0.1130     3.5260    -0.4240 H     1 <1>   0.0800 
 25 H        0.9790     3.1060    -1.7310 H     1 <1>   0.0800 
 26 H        3.2490     2.5710    -0.9970 H     1 <1>   0.0800 
 27 H        3.5450     2.1820     0.6730 H     1 <1>   0.0800 
 28 H        2.5790     4.3590     1.3620 H     1 <1>   0.0800 
 29 H        2.3200     4.7700    -0.3180 H     1 <1>   0.0800 
 30 H        4.7550     4.6400    -0.7270 H     1 <1>   0.0800 
 31 H        5.0140     4.2240     0.9540 H     1 <1>   0.0800 
 32 H        3.5200     6.6790     0.3120 H     1 <1>   0.4000 
 33 H        8.6380     6.8320     0.2530 H     1 <1>   0.1500 
 34 H        8.3390     9.1400    -0.4150 H     1 <1>   0.1500 
 35 H        3.6660     8.6060     1.9480 H     1 <1>   0.0800 
 36 H        2.3480     9.3890     1.1010 H     1 <1>   0.0800 
 37 H        3.8180    10.2800     1.4620 H     1 <1>   0.0800 
 38 H        4.2190     9.5250    -2.1240 H     1 <1>   0.0800 
 39 H        4.1530    10.8300    -0.9600 H     1 <1>   0.0800 
 40 H        2.6880     9.9600    -1.3930 H     1 <1>   0.0800 
@<TRIPOS>BOND
  1   1   2  1   
  2   1   3  1   
  3   2   4  1   
  4   2  19  1   
  5   2  20  1   
  6   3   5  1   
  7   3  21  1   
  8   3  22  1   
  9   4   5  1   
 10   4   6  1   
 11   4  23  1   
 12   5  24  1   
 13   5  25  1   
 14   6   7  1   
 15   6  26  1   
 16   6  27  1   
 17   7   8  1   
 18   7  28  1   
 19   7  29  1   
 20   8   9  1   
 21   8  30  1   
 22   8  31  1   
 23   9  10  1   
 24   9  32  1   
 25  10  11  ar  
 26  10  12  ar  
 27  11  13  ar  
 28  12  14  ar  
 29  12  15  1   
 30  13  16  ar  
 31  13  33  1   
 32  14  16  ar  
 33  15  17  1   
 34  15  18  1   
 35  16  34  1   
 36  17  35  1   
 37  17  36  1   
 38  17  37  1   
 39  18  38  1   
 40  18  39  1   
 41  18  40  1   
@<TRIPOS>SUBSTRUCTURE
  1 ****   8 GROUP 4 **** **** 0

# MOE 2024.06 (io_trps.svl 2023.06)
