@<TRIPOS>MOLECULE
NONAME
54 57 1 0 0 
SMALL
USER_CHARGES


@<TRIPOS>ATOM
  1 O       -1.2790    -0.4600     0.8820 O.3   1 <1>  -0.3630 
  2 C       -2.2010    -1.4390     0.7190 C.ar  1 <1>   0.0830 
  3 C       -0.1150    -0.4040     0.0880 C.3   1 <1>   0.0400 
  4 C       -3.3000    -1.4120     1.5600 C.ar  1 <1>  -0.1500 
  5 C       -2.1030    -2.4510    -0.2300 C.ar  1 <1>  -0.1500 
  6 C       -4.2880    -2.3740     1.4580 C.ar  1 <1>  -0.1500 
  7 C       -3.0950    -3.4090    -0.3260 C.ar  1 <1>  -0.1500 
  8 C       -4.2110    -3.3930     0.5100 C.ar  1 <1>   0.0280 
  9 C       -5.2300    -4.4110     0.3740 C.2   1 <1>  -0.1780 
 10 C       -6.4550    -4.4310     0.9290 C.2   1 <1>  -0.2880 
 11 C       -7.4700    -5.5320     0.7370 C.3   1 <1>   0.4810 
 12 N       -8.4840    -5.0250    -0.2140 N.4   1 <1>  -0.9590 
 13 C       -9.3770    -3.9920     0.4200 C.3   1 <1>   0.3430 
 14 C       -9.2810    -6.1380    -0.8040 C.3   1 <1>   0.3430 
 15 C      -10.3570    -3.3760    -0.5930 C.3   1 <1>   0.1440 
 16 C      -10.2330    -5.5860    -1.8700 C.3   1 <1>  -0.1600 
 17 C      -11.2950    -2.4590     0.1530 C.ar  1 <1>   0.1670 
 18 C      -11.1530    -4.4850    -1.3120 C.3   1 <1>  -0.1600 
 19 C       -9.6680    -2.4080    -1.5940 C.3   1 <1>  -0.1600 
 20 N      -11.9120    -2.7760     1.2680 N.ar  1 <1>  -0.6200 
 21 C      -11.4190    -1.2500    -0.4590 C.ar  1 <1>  -0.1430 
 22 C      -10.5810    -1.1700    -1.7100 C.3   1 <1>  -0.0170 
 23 C      -12.6910    -1.8120     1.7460 C.ar  1 <1>   0.4770 
 24 C      -12.2470    -0.3240     0.1260 C.ar  1 <1>   0.1600 
 25 N      -12.8910    -0.6020     1.2410 N.ar  1 <1>  -0.6200 
 26 C      -13.4350    -2.1220     3.0220 C.3   1 <1>  -0.0970 
 27 H        0.4620     0.4470     0.4020 H     1 <1>   0.0800 
 28 H       -0.4000    -0.2920    -0.9430 H     1 <1>   0.0800 
 29 H        0.4530    -1.3060     0.2370 H     1 <1>   0.0800 
 30 H       -3.3710    -0.6300     2.2950 H     1 <1>   0.1500 
 31 H       -1.2630    -2.5050    -0.8970 H     1 <1>   0.1500 
 32 H       -5.1190    -2.3230     2.1350 H     1 <1>   0.1500 
 33 H       -2.9970    -4.1820    -1.0660 H     1 <1>   0.1500 
 34 H       -4.9200    -5.2260    -0.2590 H     1 <1>   0.1500 
 35 H       -6.8110    -3.6450     1.5700 H     1 <1>   0.1500 
 36 H       -7.9200    -5.8110     1.6770 H     1 <1>   0.0800 
 37 H       -6.9780    -6.3950     0.3180 H     1 <1>   0.0800 
 38 H       -7.9580    -4.5640    -0.9670 H     1 <1>   0.4500 
 39 H       -9.9510    -4.4480     1.2110 H     1 <1>   0.0800 
 40 H       -8.7890    -3.2010     0.8540 H     1 <1>   0.0800 
 41 H       -8.6270    -6.8680    -1.2520 H     1 <1>   0.0800 
 42 H       -9.8560    -6.6250    -0.0320 H     1 <1>   0.0800 
 43 H       -9.6610    -5.2130    -2.7010 H     1 <1>   0.0800 
 44 H      -10.8400    -6.3930    -2.2430 H     1 <1>   0.0800 
 45 H      -11.8370    -4.9320    -0.6080 H     1 <1>   0.0800 
 46 H      -11.7480    -4.0610    -2.1030 H     1 <1>   0.0800 
 47 H       -8.7230    -2.0830    -1.1940 H     1 <1>   0.0800 
 48 H       -9.4960    -2.8490    -2.5590 H     1 <1>   0.0800 
 49 H      -11.2180    -1.2430    -2.5750 H     1 <1>   0.0800 
 50 H      -10.0130    -0.2570    -1.7520 H     1 <1>   0.0800 
 51 H      -12.3850     0.6480    -0.3150 H     1 <1>   0.1500 
 52 H      -14.4140    -1.6830     2.9890 H     1 <1>   0.0800 
 53 H      -12.8960    -1.7150     3.8560 H     1 <1>   0.0800 
 54 H      -13.5360    -3.1840     3.1500 H     1 <1>   0.0800 
@<TRIPOS>BOND
  1   1   2  1   
  2   1   3  1   
  3   2   4  ar  
  4   2   5  ar  
  5   3  27  1   
  6   3  28  1   
  7   3  29  1   
  8   4   6  ar  
  9   4  30  1   
 10   5   7  ar  
 11   5  31  1   
 12   6   8  ar  
 13   6  32  1   
 14   7   8  ar  
 15   7  33  1   
 16   8   9  1   
 17   9  10  2   
 18   9  34  1   
 19  10  11  1   
 20  10  35  1   
 21  11  12  1   
 22  11  36  1   
 23  11  37  1   
 24  12  13  1   
 25  12  14  1   
 26  12  38  1   
 27  13  15  1   
 28  13  39  1   
 29  13  40  1   
 30  14  16  1   
 31  14  41  1   
 32  14  42  1   
 33  15  17  1   
 34  15  18  1   
 35  15  19  1   
 36  16  18  1   
 37  16  43  1   
 38  16  44  1   
 39  17  20  ar  
 40  17  21  ar  
 41  18  45  1   
 42  18  46  1   
 43  19  22  1   
 44  19  47  1   
 45  19  48  1   
 46  20  23  ar  
 47  21  22  1   
 48  21  24  ar  
 49  22  49  1   
 50  22  50  1   
 51  23  25  ar  
 52  23  26  1   
 53  24  25  ar  
 54  24  51  1   
 55  26  52  1   
 56  26  53  1   
 57  26  54  1   
@<TRIPOS>SUBSTRUCTURE
  1 ****  13 GROUP 4 **** **** 0

# MOE 2024.06 (io_trps.svl 2023.06)
