@<TRIPOS>MOLECULE
NONAME
31 33 1 0 0 
SMALL
USER_CHARGES


@<TRIPOS>ATOM
  1 O        4.2710    -0.8020     0.3280 O.2   1 <1>  -0.5700 
  2 C        3.1500    -0.9080    -0.1110 C.2   1 <1>   0.5690 
  3 N        2.3310     0.1610    -0.3170 N.am  1 <1>  -0.4940 
  4 C        2.5960    -2.3010    -0.4400 C.3   1 <1>   0.2610 
  5 C        2.4750     1.5170    -0.0050 C.2   1 <1>   0.2500 
  6 O        1.3250    -2.2300    -1.0310 O.3   1 <1>  -0.5600 
  7 C        2.3800    -3.1860     0.7820 C.3   1 <1>  -0.1600 
  8 N        1.4400     2.2420     0.2820 N.2   1 <1>  -0.3380 
  9 N        3.6170     2.2400     0.0300 N.pl3 1 <1>   0.3340 
 10 C        0.6580    -3.4440    -0.8830 C.3   1 <1>   0.1200 
 11 C        1.2690    -4.1260     0.3400 C.3   1 <1>  -0.1600 
 12 N        1.8700     3.4750     0.5430 N.2   1 <1>  -0.3380 
 13 C        3.1610     3.4740     0.3930 C.2   1 <1>   0.3120 
 14 C        4.9650     2.0810    -0.2780 C.2   1 <1>  -0.1810 
 15 N        3.9900     4.5630     0.5570 N.2   1 <1>  -0.5760 
 16 C        5.7810     3.1530    -0.1340 C.2   1 <1>  -0.1360 
 17 C        5.2420     4.3950     0.3050 C.2   1 <1>   0.3750 
 18 C        6.1850     5.5650     0.4740 C.3   1 <1>  -0.1790 
 19 H        1.3850    -0.1080    -0.6050 H     1 <1>   0.3700 
 20 H        3.2510    -2.7890    -1.1390 H     1 <1>   0.0800 
 21 H        2.0500    -2.5810     1.6100 H     1 <1>   0.0800 
 22 H        3.2810    -3.7030     1.0620 H     1 <1>   0.0800 
 23 H        0.8150    -4.0270    -1.7750 H     1 <1>   0.0800 
 24 H       -0.3920    -3.2440    -0.7540 H     1 <1>   0.0800 
 25 H        0.5360    -4.2640     1.1150 H     1 <1>   0.0800 
 26 H        1.6640    -5.0870     0.0590 H     1 <1>   0.0800 
 27 H        5.2930     1.1160    -0.6150 H     1 <1>   0.1500 
 28 H        6.8340     3.1000    -0.3440 H     1 <1>   0.1500 
 29 H        6.9400     5.3250     1.1990 H     1 <1>   0.0800 
 30 H        5.6450     6.4310     0.8130 H     1 <1>   0.0800 
 31 H        6.6530     5.7970    -0.4650 H     1 <1>   0.0800 
@<TRIPOS>BOND
  1   1   2  2   
  2   2   3  am  
  3   2   4  1   
  4   3   5  1   
  5   3  19  1   
  6   4   6  1   
  7   4   7  1   
  8   4  20  1   
  9   5   8  2   
 10   5   9  1   
 11   6  10  1   
 12   7  11  1   
 13   7  21  1   
 14   7  22  1   
 15   8  12  1   
 16   9  13  1   
 17   9  14  1   
 18  10  11  1   
 19  10  23  1   
 20  10  24  1   
 21  11  25  1   
 22  11  26  1   
 23  12  13  2   
 24  13  15  1   
 25  14  16  2   
 26  14  27  1   
 27  15  17  2   
 28  16  17  1   
 29  16  28  1   
 30  17  18  1   
 31  18  29  1   
 32  18  30  1   
 33  18  31  1   
@<TRIPOS>SUBSTRUCTURE
  1 ****   5 GROUP 4 **** **** 0

# MOE 2024.06 (io_trps.svl 2023.06)
