@<TRIPOS>MOLECULE
NONAME
45 48 1 0 0 
SMALL
USER_CHARGES


@<TRIPOS>ATOM
  1 O       -3.3350     1.2750    -1.0760 O.2   1 <1>  -0.5700 
  2 C       -2.5610     0.9170    -0.2210 C.2   1 <1>   0.6300 
  3 N       -2.1920    -0.3790    -0.0890 N.am  1 <1>  -0.7300 
  4 C       -1.9950     1.9310     0.7730 C.3   1 <1>  -0.0950 
  5 C       -2.6880    -1.4780    -0.9440 C.3   1 <1>   0.2200 
  6 C       -0.5150     1.9680     1.0210 C.3   1 <1>  -0.2000 
  7 C       -1.1760     3.0700     0.2450 C.3   1 <1>  -0.2000 
  8 C       -2.9460     2.1990     1.9450 C.3   1 <1>  -0.1450 
  9 C       -3.9110    -2.0960    -0.2930 C.3   1 <1>  -0.0800 
 10 C       -1.7010    -2.6410    -0.9320 C.3   1 <1>   0.1200 
 11 C       -3.2880    -3.1000     0.6800 C.3   1 <1>   0.1200 
 12 C       -4.8210    -2.7750    -1.3360 C.3   1 <1>  -0.0170 
 13 O       -2.0140    -3.4110     0.1900 O.3   1 <1>  -0.5600 
 14 C       -6.1110    -3.2850    -0.7030 C.ar  1 <1>  -0.1440 
 15 C       -7.1690    -2.4180    -0.3400 C.ar  1 <1>   0.0000 
 16 C       -6.2800    -4.6180    -0.4670 C.ar  1 <1>  -0.1500 
 17 C       -8.3170    -2.9950     0.2570 C.ar  1 <1>   0.3100 
 18 C       -7.1600    -1.0160    -0.5360 C.ar  1 <1>  -0.1500 
 19 C       -7.4590    -5.0870     0.1240 C.ar  1 <1>   0.1600 
 20 N       -8.4450    -4.3280     0.4820 N.ar  1 <1>  -0.6200 
 21 C       -9.3790    -2.1590     0.6370 C.ar  1 <1>  -0.1500 
 22 C       -8.2130    -0.2300    -0.1550 C.ar  1 <1>  -0.1500 
 23 C       -9.3380    -0.8060     0.4400 C.ar  1 <1>  -0.1500 
 24 H       -1.5930    -0.6580     0.6880 H     1 <1>   0.3700 
 25 H       -2.8740    -1.1110    -1.9400 H     1 <1>   0.0800 
 26 H       -0.1510     2.1850     2.0110 H     1 <1>   0.1000 
 27 H        0.1320     1.2950     0.4850 H     1 <1>   0.1000 
 28 H       -1.0190     3.1310    -0.8190 H     1 <1>   0.1000 
 29 H       -1.2780     4.0400     0.7000 H     1 <1>   0.1000 
 30 H       -2.5300     2.9250     2.6210 H     1 <1>   0.0800 
 31 H       -3.1320     1.2890     2.4870 H     1 <1>   0.0800 
 32 H       -3.8830     2.5750     1.5720 H     1 <1>   0.0800 
 33 H       -4.4800    -1.3560     0.2410 H     1 <1>   0.0800 
 34 H       -0.6770    -2.3170    -0.8750 H     1 <1>   0.0800 
 35 H       -1.8390    -3.2610    -1.7990 H     1 <1>   0.0800 
 36 H       -3.8590    -4.0060     0.7770 H     1 <1>   0.0800 
 37 H       -3.1600    -2.6540     1.6510 H     1 <1>   0.0800 
 38 H       -4.2960    -3.5940    -1.7970 H     1 <1>   0.0800 
 39 H       -5.0660    -2.0800    -2.1200 H     1 <1>   0.0800 
 40 H       -5.5220    -5.3370    -0.7220 H     1 <1>   0.1500 
 41 H       -6.3080    -0.5480    -0.9940 H     1 <1>   0.1500 
 42 H       -7.5500    -6.1460     0.2930 H     1 <1>   0.1500 
 43 H      -10.2340    -2.6250     1.0900 H     1 <1>   0.1500 
 44 H       -8.1890     0.8350    -0.3090 H     1 <1>   0.1500 
 45 H      -10.1600    -0.1770     0.7360 H     1 <1>   0.1500 
@<TRIPOS>BOND
  1   1   2  2   
  2   2   3  am  
  3   2   4  1   
  4   3   5  1   
  5   3  24  1   
  6   4   6  1   
  7   4   7  1   
  8   4   8  1   
  9   5   9  1   
 10   5  10  1   
 11   5  25  1   
 12   6   7  1   
 13   6  26  1   
 14   6  27  1   
 15   7  28  1   
 16   7  29  1   
 17   8  30  1   
 18   8  31  1   
 19   8  32  1   
 20   9  11  1   
 21   9  12  1   
 22   9  33  1   
 23  10  13  1   
 24  10  34  1   
 25  10  35  1   
 26  11  13  1   
 27  11  36  1   
 28  11  37  1   
 29  12  14  1   
 30  12  38  1   
 31  12  39  1   
 32  14  15  ar  
 33  14  16  ar  
 34  15  17  ar  
 35  15  18  ar  
 36  16  19  ar  
 37  16  40  1   
 38  17  20  ar  
 39  17  21  ar  
 40  18  22  ar  
 41  18  41  1   
 42  19  20  ar  
 43  19  42  1   
 44  21  23  ar  
 45  21  43  1   
 46  22  23  ar  
 47  22  44  1   
 48  23  45  1   
@<TRIPOS>SUBSTRUCTURE
  1 ****   9 GROUP 4 **** **** 0

# MOE 2024.06 (io_trps.svl 2023.06)
