@<TRIPOS>MOLECULE
NONAME
54 56 1 0 0 
SMALL
USER_CHARGES


@<TRIPOS>ATOM
  1 O        2.7590    -1.1220    -3.4850 O.2   1 <1>  -0.5700 
  2 C        2.6010    -1.2270    -2.2920 C.2   1 <1>   0.5690 
  3 N        2.8100    -0.2010    -1.4390 N.am  1 <1>  -0.7300 
  4 C        2.1070    -2.5480    -1.6940 C.3   1 <1>   0.1710 
  5 C        3.0310     1.2080    -1.7750 C.3   1 <1>   0.2840 
  6 N        1.2470    -2.3710    -0.4850 N.3   1 <1>  -0.8100 
  7 C        3.6170     1.9210    -0.5630 C.ar  1 <1>  -0.1430 
  8 C       -0.0150    -1.6630    -0.7890 C.3   1 <1>   0.1100 
  9 C        0.8990    -3.6360     0.1770 C.3   1 <1>   0.1100 
 10 C        2.9830     1.8940     0.6800 C.ar  1 <1>   0.0830 
 11 C        4.8120     2.6120    -0.6960 C.ar  1 <1>  -0.1500 
 12 C       -1.1270    -2.3570     0.0040 C.3   1 <1>   0.2000 
 13 C       -0.6200    -3.7940     0.0710 C.3   1 <1>  -0.0800 
 14 O        1.8220     1.2060     0.8210 O.3   1 <1>  -0.3630 
 15 C        3.5430     2.5640     1.7610 C.ar  1 <1>  -0.1500 
 16 C        5.3700     3.2730     0.3850 C.ar  1 <1>  -0.1500 
 17 O       -1.2180    -1.8340     1.3010 O.3   1 <1>  -0.5600 
 18 C       -1.2250    -4.6370     1.2080 C.3   1 <1>   0.0200 
 19 C        1.6760     0.3530     1.9380 C.3   1 <1>   0.0400 
 20 C        4.7350     3.2510     1.6140 C.ar  1 <1>  -0.1500 
 21 C       -1.9690    -0.6650     1.4140 C.3   1 <1>   0.0400 
 22 C       -0.7950    -6.0930     1.1560 C.2   1 <1>  -0.0400 
 23 O       -1.0600    -6.8640     2.1760 O.3   1 <1>  -0.0190 
 24 C       -0.1580    -6.8390     0.2370 C.2   1 <1>  -0.1500 
 25 N       -0.6330    -8.0800     1.9930 N.2   1 <1>  -0.4100 
 26 C       -0.0850    -8.0940     0.8320 C.2   1 <1>   0.1080 
 27 C        0.5480    -9.3170     0.2080 C.3   1 <1>  -0.0590 
 28 H        2.5040    -0.3430    -0.4690 H     1 <1>   0.3700 
 29 H        2.9760    -3.1220    -1.4250 H     1 <1>   0.0800 
 30 H        1.5690    -3.0910    -2.4500 H     1 <1>   0.0800 
 31 H        3.6920     1.2740    -2.6220 H     1 <1>   0.0800 
 32 H        2.0900     1.6600    -2.0370 H     1 <1>   0.0800 
 33 H        0.0640    -0.6180    -0.5480 H     1 <1>   0.0800 
 34 H       -0.2400    -1.7560    -1.8380 H     1 <1>   0.0800 
 35 H        1.4190    -4.4740    -0.2530 H     1 <1>   0.0800 
 36 H        1.1790    -3.5530     1.2140 H     1 <1>   0.0800 
 37 H        5.3190     2.6380    -1.6450 H     1 <1>   0.1500 
 38 H       -2.0880    -2.2890    -0.4760 H     1 <1>   0.0800 
 39 H       -0.8420    -4.2640    -0.8700 H     1 <1>   0.0800 
 40 H        3.0520     2.5600     2.7160 H     1 <1>   0.1500 
 41 H        6.2980     3.8050     0.2700 H     1 <1>   0.1500 
 42 H       -2.2980    -4.5950     1.1560 H     1 <1>   0.0800 
 43 H       -0.9290    -4.2270     2.1580 H     1 <1>   0.0800 
 44 H        0.8830    -0.3420     1.7330 H     1 <1>   0.0800 
 45 H        1.4320     0.9440     2.8020 H     1 <1>   0.0800 
 46 H        2.5940    -0.1870     2.0910 H     1 <1>   0.0800 
 47 H        5.1670     3.7680     2.4530 H     1 <1>   0.1500 
 48 H       -1.9760    -0.3730     2.4490 H     1 <1>   0.0800 
 49 H       -2.9760    -0.8560     1.0870 H     1 <1>   0.0800 
 50 H       -1.5180     0.1140     0.8240 H     1 <1>   0.0800 
 51 H        0.2180    -6.5770    -0.7330 H     1 <1>   0.1500 
 52 H        1.5450    -9.0870    -0.1200 H     1 <1>   0.0800 
 53 H       -0.0380    -9.6410    -0.6330 H     1 <1>   0.0800 
 54 H        0.5930   -10.1140     0.9280 H     1 <1>   0.0800 
@<TRIPOS>BOND
  1   1   2  2   
  2   2   3  am  
  3   2   4  1   
  4   3   5  1   
  5   3  28  1   
  6   4   6  1   
  7   4  29  1   
  8   4  30  1   
  9   5   7  1   
 10   5  31  1   
 11   5  32  1   
 12   6   8  1   
 13   6   9  1   
 14   7  10  ar  
 15   7  11  ar  
 16   8  12  1   
 17   8  33  1   
 18   8  34  1   
 19   9  13  1   
 20   9  35  1   
 21   9  36  1   
 22  10  14  1   
 23  10  15  ar  
 24  11  16  ar  
 25  11  37  1   
 26  12  13  1   
 27  12  17  1   
 28  12  38  1   
 29  13  18  1   
 30  13  39  1   
 31  14  19  1   
 32  15  20  ar  
 33  15  40  1   
 34  16  20  ar  
 35  16  41  1   
 36  17  21  1   
 37  18  22  1   
 38  18  42  1   
 39  18  43  1   
 40  19  44  1   
 41  19  45  1   
 42  19  46  1   
 43  20  47  1   
 44  21  48  1   
 45  21  49  1   
 46  21  50  1   
 47  22  23  1   
 48  22  24  2   
 49  23  25  1   
 50  24  26  1   
 51  24  51  1   
 52  25  26  2   
 53  26  27  1   
 54  27  52  1   
 55  27  53  1   
 56  27  54  1   
@<TRIPOS>SUBSTRUCTURE
  1 ****   6 GROUP 4 **** **** 0

# MOE 2024.06 (io_trps.svl 2023.06)
