@<TRIPOS>MOLECULE
NONAME
49 50 1 0 0 
SMALL
USER_CHARGES


@<TRIPOS>ATOM
  1 CL       0.0810     0.2740    -0.4750 Cl    1 <1>  -0.1770 
  2 C       -1.3850     1.0930     0.0480 C.ar  1 <1>   0.1770 
  3 C       -1.5330     2.4710    -0.2450 C.ar  1 <1>   0.4100 
  4 C       -2.3670     0.4370     0.7230 C.ar  1 <1>   0.2170 
  5 N       -2.6090     3.1450     0.1260 N.ar  1 <1>  -0.6200 
  6 N       -0.5640     3.1360    -0.9200 N.pl3 1 <1>  -0.8690 
  7 N       -3.4550     1.1730     1.0770 N.ar  1 <1>  -0.1790 
  8 C       -2.3470    -1.0370     1.1080 C.3   1 <1>  -0.0970 
  9 C       -3.5470     2.4830     0.7730 C.ar  1 <1>   0.7710 
 10 C       -0.5380     4.5630    -1.3100 C.3   1 <1>   0.2090 
 11 N       -4.6280     3.1730     1.1250 N.pl3 1 <1>  -0.9000 
 12 C        0.6550     5.2260    -0.6180 C.3   1 <1>  -0.1600 
 13 C        0.8450     6.7080    -0.9950 C.3   1 <1>  -0.0800 
 14 C        2.1520     7.2360    -0.3790 C.3   1 <1>  -0.1600 
 15 C       -0.3350     7.5840    -0.5350 C.3   1 <1>  -0.1600 
 16 C        2.3530     8.7290    -0.6390 C.3   1 <1>   0.3430 
 17 C       -0.0800     9.0710    -0.7870 C.3   1 <1>   0.3430 
 18 N        1.1810     9.4900    -0.1130 N.4   1 <1>  -0.9590 
 19 C        1.3660    10.9620    -0.2270 C.3   1 <1>   0.3430 
 20 C        2.4060    11.4520     0.7820 C.3   1 <1>  -0.1600 
 21 C        2.5160    12.9810     0.7550 C.3   1 <1>  -0.2400 
 22 H        0.2650     2.6110    -1.2280 H     1 <1>   0.4000 
 23 H       -4.2360     0.7640     1.5800 H     1 <1>   0.4570 
 24 H       -1.4430    -1.5180     0.7790 H     1 <1>   0.0800 
 25 H       -3.1760    -1.5550     0.6580 H     1 <1>   0.0800 
 26 H       -2.4060    -1.1470     2.1770 H     1 <1>   0.0800 
 27 H       -1.4570     5.0450    -1.0240 H     1 <1>   0.0800 
 28 H       -0.4360     4.6340    -2.3800 H     1 <1>   0.0800 
 29 H       -5.4630     2.8560     1.6210 H     1 <1>   0.4000 
 30 H       -4.6610     4.1640     0.8660 H     1 <1>   0.4000 
 31 H        1.5430     4.6840    -0.8920 H     1 <1>   0.0800 
 32 H        0.5270     5.1370     0.4480 H     1 <1>   0.0800 
 33 H        0.9280     6.7780    -2.0690 H     1 <1>   0.0800 
 34 H        2.9860     6.7000    -0.7980 H     1 <1>   0.0800 
 35 H        2.1610     7.0600     0.6830 H     1 <1>   0.0800 
 36 H       -0.5260     7.4310     0.5140 H     1 <1>   0.0800 
 37 H       -1.2270     7.3060    -1.0680 H     1 <1>   0.0800 
 38 H        2.4570     8.9020    -1.6980 H     1 <1>   0.0800 
 39 H        3.2580     9.0530    -0.1520 H     1 <1>   0.0800 
 40 H       -0.9100     9.6450    -0.4080 H     1 <1>   0.0800 
 41 H       -0.0020     9.2480    -1.8480 H     1 <1>   0.0800 
 42 H        1.0850     9.2600     0.8850 H     1 <1>   0.4500 
 43 H        0.4310    11.4590    -0.0230 H     1 <1>   0.0800 
 44 H        1.6720    11.2230    -1.2280 H     1 <1>   0.0800 
 45 H        3.3740    11.0420     0.5560 H     1 <1>   0.0800 
 46 H        2.1230    11.1480     1.7750 H     1 <1>   0.0800 
 47 H        2.8210    13.3270    -0.2190 H     1 <1>   0.0800 
 48 H        3.2500    13.3100     1.4710 H     1 <1>   0.0800 
 49 H        1.5740    13.4390     1.0060 H     1 <1>   0.0800 
@<TRIPOS>BOND
  1   1   2  1   
  2   2   3  ar  
  3   2   4  ar  
  4   3   5  ar  
  5   3   6  1   
  6   4   7  ar  
  7   4   8  1   
  8   5   9  ar  
  9   6  10  1   
 10   6  22  1   
 11   7   9  ar  
 12   7  23  1   
 13   8  24  1   
 14   8  25  1   
 15   8  26  1   
 16   9  11  1   
 17  10  12  1   
 18  10  27  1   
 19  10  28  1   
 20  11  29  1   
 21  11  30  1   
 22  12  13  1   
 23  12  31  1   
 24  12  32  1   
 25  13  14  1   
 26  13  15  1   
 27  13  33  1   
 28  14  16  1   
 29  14  34  1   
 30  14  35  1   
 31  15  17  1   
 32  15  36  1   
 33  15  37  1   
 34  16  18  1   
 35  16  38  1   
 36  16  39  1   
 37  17  18  1   
 38  17  40  1   
 39  17  41  1   
 40  18  19  1   
 41  18  42  1   
 42  19  20  1   
 43  19  43  1   
 44  19  44  1   
 45  20  21  1   
 46  20  45  1   
 47  20  46  1   
 48  21  47  1   
 49  21  48  1   
 50  21  49  1   
@<TRIPOS>SUBSTRUCTURE
  1 ****  12 GROUP 4 **** **** 0

# MOE 2024.06 (io_trps.svl 2023.06)
