@<TRIPOS>MOLECULE
NONAME
46 47 1 0 0 
SMALL
USER_CHARGES


@<TRIPOS>ATOM
  1 O       -0.9670     0.3000     2.3500 O.2   1 <1>  -0.5700 
  2 C       -1.3210     0.6340     1.2430 C.2   1 <1>   0.5690 
  3 N       -1.7440    -0.3010     0.3270 N.am  1 <1>  -0.6600 
  4 C       -1.2960     2.1430     0.9620 C.3   1 <1>  -0.0190 
  5 C       -2.0140    -1.6970     0.7720 C.3   1 <1>   0.3210 
  6 C       -2.1390    -0.0520    -1.0910 C.3   1 <1>   0.0600 
  7 C       -2.6800     2.7230     0.5980 C.3   1 <1>  -0.1600 
  8 C       -0.1750     2.5720    -0.0160 C.3   1 <1>  -0.1600 
  9 C       -3.5160    -1.9160     0.8110 C.2   1 <1>  -0.1810 
 10 C       -2.6680     4.2640     0.5250 C.3   1 <1>   0.2000 
 11 C       -0.4990     3.8690    -0.7810 C.3   1 <1>  -0.1600 
 12 C       -4.3260    -2.7070     0.0700 C.2   1 <1>  -0.3320 
 13 C       -4.3680    -1.2610     1.6900 C.2   1 <1>   0.1390 
 14 O       -3.6470     4.6630    -0.4050 O.3   1 <1>  -0.5600 
 15 C       -1.2900     4.8410     0.0990 C.3   1 <1>   0.2000 
 16 N       -5.5840    -2.4990     0.5230 N.pl3 1 <1>   0.3140 
 17 C       -3.9770    -3.6630    -1.0610 C.3   1 <1>  -0.0600 
 18 N       -5.6080    -1.6020     1.5210 N.2   1 <1>  -0.7070 
 19 C       -4.9590     4.6420     0.0670 C.3   1 <1>   0.0400 
 20 O       -1.4870     6.0010    -0.6210 O.3   1 <1>  -0.6800 
 21 C       -6.8210    -3.1290     0.0440 C.3   1 <1>   0.0160 
 22 H       -1.0460     2.6000     1.9050 H     1 <1>   0.0800 
 23 H       -1.5510    -2.3860     0.0900 H     1 <1>   0.0800 
 24 H       -1.6050    -1.8830     1.7500 H     1 <1>   0.0800 
 25 H       -1.7480    -0.8330    -1.7190 H     1 <1>   0.0800 
 26 H       -1.7630     0.8850    -1.4510 H     1 <1>   0.0800 
 27 H       -3.2130    -0.0480    -1.1700 H     1 <1>   0.0800 
 28 H       -3.3970     2.4090     1.3360 H     1 <1>   0.0800 
 29 H       -2.9950     2.3420    -0.3540 H     1 <1>   0.0800 
 30 H        0.7250     2.7190     0.5570 H     1 <1>   0.0800 
 31 H        0.0420     1.7940    -0.7250 H     1 <1>   0.0800 
 32 H       -2.9140     4.6820     1.4860 H     1 <1>   0.0800 
 33 H       -1.0880     3.6320    -1.6500 H     1 <1>   0.0800 
 34 H        0.4160     4.3330    -1.1070 H     1 <1>   0.0800 
 35 H       -4.0410    -0.5480     2.4280 H     1 <1>   0.1500 
 36 H       -0.7060     5.0870     0.9680 H     1 <1>   0.0800 
 37 H       -2.9200    -3.6550    -1.2540 H     1 <1>   0.0800 
 38 H       -4.4890    -3.3740    -1.9610 H     1 <1>   0.0800 
 39 H       -4.2670    -4.6650    -0.7990 H     1 <1>   0.0800 
 40 H       -5.6030     4.9910    -0.7200 H     1 <1>   0.0800 
 41 H       -5.0420     5.2960     0.9180 H     1 <1>   0.0800 
 42 H       -5.2320     3.6360     0.3340 H     1 <1>   0.0800 
 43 H       -2.3840     5.9130    -1.0180 H     1 <1>   0.4000 
 44 H       -6.7480    -4.1920     0.1760 H     1 <1>   0.0800 
 45 H       -6.9580    -2.8930    -0.9940 H     1 <1>   0.0800 
 46 H       -7.6500    -2.7510     0.6130 H     1 <1>   0.0800 
@<TRIPOS>BOND
  1   1   2  2   
  2   2   3  am  
  3   2   4  1   
  4   3   5  1   
  5   3   6  1   
  6   4   7  1   
  7   4   8  1   
  8   4  22  1   
  9   5   9  1   
 10   5  23  1   
 11   5  24  1   
 12   6  25  1   
 13   6  26  1   
 14   6  27  1   
 15   7  10  1   
 16   7  28  1   
 17   7  29  1   
 18   8  11  1   
 19   8  30  1   
 20   8  31  1   
 21   9  12  2   
 22   9  13  1   
 23  10  14  1   
 24  10  15  1   
 25  10  32  1   
 26  11  15  1   
 27  11  33  1   
 28  11  34  1   
 29  12  16  1   
 30  12  17  1   
 31  13  18  2   
 32  13  35  1   
 33  14  19  1   
 34  15  20  1   
 35  15  36  1   
 36  16  18  1   
 37  16  21  1   
 38  17  37  1   
 39  17  38  1   
 40  17  39  1   
 41  19  40  1   
 42  19  41  1   
 43  19  42  1   
 44  20  43  1   
 45  21  44  1   
 46  21  45  1   
 47  21  46  1   
@<TRIPOS>SUBSTRUCTURE
  1 ****   3 GROUP 4 **** **** 0

# MOE 2024.06 (io_trps.svl 2023.06)
