@<TRIPOS>MOLECULE
NONAME
51 53 1 0 0 
SMALL
USER_CHARGES


@<TRIPOS>ATOM
  1 O        0.2870     0.1260    -0.7590 O.co2 1 <1>  -0.9030 
  2 C        0.8870    -0.9520    -0.6350 C.2   1 <1>   0.9770 
  3 O        0.2620    -2.0200    -0.6090 O.co2 1 <1>  -0.9030 
  4 C        2.3260    -0.9450    -0.5180 C.ar  1 <1>  -0.1860 
  5 C        3.0300    -2.1520    -0.3700 C.ar  1 <1>   0.1530 
  6 C        3.0420     0.2430    -0.5470 C.ar  1 <1>  -0.1170 
  7 N        4.3430    -2.2700    -0.2520 N.ar  1 <1>  -0.5840 
  8 C        4.4080     0.1340    -0.4250 C.ar  1 <1>   0.3030 
  9 C        4.9850    -1.1120    -0.2870 C.ar  1 <1>   0.6150 
 10 N        5.4360     1.0540    -0.4020 N.pl3 1 <1>  -0.7040 
 11 N        6.3490    -0.9330    -0.1810 N.pl3 1 <1>  -0.7670 
 12 C        6.5850     0.3900    -0.2750 C.cat 1 <1>   1.0690 
 13 C        7.2020    -2.0650     0.2630 C.3   1 <1>   0.3480 
 14 N        7.7830     1.0280    -0.2380 N.pl3 1 <1>  -0.5960 
 15 C        7.5140    -1.9060     1.7480 C.3   1 <1>  -0.2470 
 16 C        7.9540     2.3470     0.4720 C.3   1 <1>   0.1600 
 17 C        9.0490     0.3410    -0.6560 C.3   1 <1>   0.1600 
 18 C        8.0420     3.5680    -0.4810 C.3   1 <1>   0.3370 
 19 C        9.9970     1.2440    -1.4450 C.3   1 <1>  -0.2470 
 20 N        8.3400     4.8570     0.2280 N.4   1 <1>  -0.9610 
 21 C        8.2020     6.0210    -0.7240 C.3   1 <1>   0.3370 
 22 C        9.7220     4.8880     0.8390 C.3   1 <1>   0.3370 
 23 C        8.5980     7.3540    -0.0620 C.3   1 <1>   0.1120 
 24 C       10.0530     6.2690     1.4360 C.3   1 <1>   0.1120 
 25 O        9.8850     7.2610     0.4690 O.3   1 <1>  -0.5650 
 26 H        2.4460    -3.0620    -0.3500 H     1 <1>   0.1430 
 27 H        2.5400     1.1900    -0.6580 H     1 <1>   0.1430 
 28 H        5.2870     2.0450    -0.5470 H     1 <1>   0.4450 
 29 H        8.1100    -2.1180    -0.3080 H     1 <1>   0.0720 
 30 H        6.6910    -3.0020     0.1110 H     1 <1>   0.0720 
 31 H        8.0600    -1.0020     1.9410 H     1 <1>   0.0720 
 32 H        8.1130    -2.7380     2.0750 H     1 <1>   0.0720 
 33 H        6.6030    -1.9100     2.3200 H     1 <1>   0.0720 
 34 H        8.8500     2.2900     1.0660 H     1 <1>   0.0720 
 35 H        7.1290     2.4940     1.1490 H     1 <1>   0.0720 
 36 H        8.8070    -0.4840    -1.3030 H     1 <1>   0.0720 
 37 H        9.5580    -0.0440     0.2130 H     1 <1>   0.0720 
 38 H        7.1050     3.6660    -1.0030 H     1 <1>   0.0720 
 39 H        8.8110     3.3980    -1.2140 H     1 <1>   0.0720 
 40 H        9.5030     1.6680    -2.3010 H     1 <1>   0.0720 
 41 H       10.8170     0.6480    -1.8090 H     1 <1>   0.0720 
 42 H       10.4200     2.0150    -0.8270 H     1 <1>   0.0720 
 43 H        7.6670     5.0270     0.9880 H     1 <1>   0.4450 
 44 H        7.1860     6.0920    -1.0770 H     1 <1>   0.0720 
 45 H        8.8400     5.8700    -1.5800 H     1 <1>   0.0720 
 46 H       10.4590     4.6630     0.0860 H     1 <1>   0.0720 
 47 H        9.8020     4.1460     1.6150 H     1 <1>   0.0720 
 48 H        7.9150     7.6210     0.7260 H     1 <1>   0.0720 
 49 H        8.6040     8.1450    -0.7930 H     1 <1>   0.0720 
 50 H       11.0800     6.2980     1.7570 H     1 <1>   0.0720 
 51 H        9.4240     6.4950     2.2800 H     1 <1>   0.0720 
@<TRIPOS>BOND
  1   1   2  ar  
  2   2   3  ar  
  3   2   4  1   
  4   4   5  ar  
  5   4   6  ar  
  6   5   7  ar  
  7   5  26  1   
  8   6   8  ar  
  9   6  27  1   
 10   7   9  ar  
 11   8   9  ar  
 12   8  10  1   
 13   9  11  1   
 14  10  12  ar  
 15  10  28  1   
 16  11  12  ar  
 17  11  13  1   
 18  12  14  ar  
 19  13  15  1   
 20  13  29  1   
 21  13  30  1   
 22  14  16  1   
 23  14  17  1   
 24  15  31  1   
 25  15  32  1   
 26  15  33  1   
 27  16  18  1   
 28  16  34  1   
 29  16  35  1   
 30  17  19  1   
 31  17  36  1   
 32  17  37  1   
 33  18  20  1   
 34  18  38  1   
 35  18  39  1   
 36  19  40  1   
 37  19  41  1   
 38  19  42  1   
 39  20  21  1   
 40  20  22  1   
 41  20  43  1   
 42  21  23  1   
 43  21  44  1   
 44  21  45  1   
 45  22  24  1   
 46  22  46  1   
 47  22  47  1   
 48  23  25  1   
 49  23  48  1   
 50  23  49  1   
 51  24  25  1   
 52  24  50  1   
 53  24  51  1   
@<TRIPOS>SUBSTRUCTURE
  1 ****  10 GROUP 4 **** **** 0

# MOE 2024.06 (io_trps.svl 2023.06)
