@<TRIPOS>MOLECULE
NONAME
51 53 1 0 0 
SMALL
USER_CHARGES


@<TRIPOS>ATOM
  1 CL      -2.0660    -0.4130    -3.2010 Cl    1 <1>  -0.1770 
  2 C       -2.6860    -0.2720    -1.5690 C.ar  1 <1>   0.1770 
  3 C       -2.1320     0.6450    -0.6830 C.ar  1 <1>   0.0820 
  4 C       -3.7330    -1.0940    -1.2010 C.ar  1 <1>  -0.1500 
  5 O       -1.1000     1.4240    -1.1170 O.3   1 <1>  -0.3630 
  6 C       -2.6610     0.7220     0.6020 C.ar  1 <1>  -0.1500 
  7 C       -4.2590    -1.0250     0.0840 C.ar  1 <1>   0.1170 
  8 C       -0.5390     2.4200    -0.2910 C.3   1 <1>   0.0400 
  9 C       -3.7090    -0.1040     0.9720 C.ar  1 <1>  -0.1500 
 10 N       -5.3170    -1.8670     0.4790 N.am  1 <1>  -0.4770 
 11 C       -6.3810    -1.5530     1.2730 C.2   1 <1>   0.5690 
 12 C       -5.3120    -3.3130     0.1730 C.3   1 <1>   0.1400 
 13 O       -6.6520    -0.4680     1.7260 O.2   1 <1>  -0.5700 
 14 C       -7.2380    -2.7560     1.5460 C.3   1 <1>  -0.0990 
 15 C       -6.7330    -3.7830     0.5220 C.3   1 <1>  -0.0190 
 16 C       -6.8160    -5.2220     1.0300 C.2   1 <1>   0.5690 
 17 O       -5.8230    -5.7060     1.5180 O.2   1 <1>  -0.5700 
 18 N       -7.9800    -5.9420     0.9380 N.am  1 <1>  -0.6600 
 19 C       -8.1010    -7.2750     1.5940 C.3   1 <1>   0.3200 
 20 C       -9.2130    -5.4790     0.2280 C.3   1 <1>   0.1400 
 21 C       -8.2950    -8.3410     0.5350 C.2   1 <1>  -0.3320 
 22 C       -9.1210    -5.7680    -1.2760 C.3   1 <1>   0.1200 
 23 N       -7.3360    -8.7580    -0.3160 N.pl3 1 <1>   0.0480 
 24 C       -9.4070    -9.0510     0.2400 C.2   1 <1>   0.0770 
 25 O      -10.0940    -5.0360    -1.9380 O.3   1 <1>  -0.6800 
 26 C       -7.9450    -9.6890    -1.0840 C.2   1 <1>   0.0360 
 27 C       -5.9310    -8.3170    -0.3950 C.3   1 <1>   0.0160 
 28 N       -9.1870    -9.8900    -0.7860 N.2   1 <1>  -0.5650 
 29 H       -4.1360    -1.7750    -1.9250 H     1 <1>   0.1500 
 30 H       -2.2760     1.4140     1.3270 H     1 <1>   0.1500 
 31 H        0.2330     2.9190    -0.8490 H     1 <1>   0.0800 
 32 H       -0.1160     1.9540     0.5810 H     1 <1>   0.0800 
 33 H       -1.3060     3.1240    -0.0210 H     1 <1>   0.0800 
 34 H       -4.1110    -0.0330     1.9670 H     1 <1>   0.1500 
 35 H       -4.5670    -3.7850     0.7900 H     1 <1>   0.0800 
 36 H       -5.0900    -3.4980    -0.8630 H     1 <1>   0.0800 
 37 H       -8.2780    -2.5240     1.4120 H     1 <1>   0.0800 
 38 H       -7.0580    -3.0850     2.5540 H     1 <1>   0.0800 
 39 H       -7.3100    -3.6830    -0.3780 H     1 <1>   0.0800 
 40 H       -8.9460    -7.2640     2.2590 H     1 <1>   0.0800 
 41 H       -7.2290    -7.5030     2.1840 H     1 <1>   0.0800 
 42 H       -9.3420    -4.4220     0.3820 H     1 <1>   0.0800 
 43 H      -10.0760    -5.9780     0.6340 H     1 <1>   0.0800 
 44 H       -9.2730    -6.8120    -1.4910 H     1 <1>   0.0800 
 45 H       -8.1680    -5.4580    -1.6640 H     1 <1>   0.0800 
 46 H      -10.3730    -9.0020     0.7140 H     1 <1>   0.1500 
 47 H      -10.9560    -5.4980    -1.9090 H     1 <1>   0.4000 
 48 H       -7.4240   -10.2080    -1.8700 H     1 <1>   0.1500 
 49 H       -5.5060    -8.2970     0.5920 H     1 <1>   0.0800 
 50 H       -5.8920    -7.3310    -0.8190 H     1 <1>   0.0800 
 51 H       -5.3720    -8.9960    -1.0110 H     1 <1>   0.0800 
@<TRIPOS>BOND
  1   1   2  1   
  2   2   3  ar  
  3   2   4  ar  
  4   3   5  1   
  5   3   6  ar  
  6   4   7  ar  
  7   4  29  1   
  8   5   8  1   
  9   6   9  ar  
 10   6  30  1   
 11   7   9  ar  
 12   7  10  1   
 13   8  31  1   
 14   8  32  1   
 15   8  33  1   
 16   9  34  1   
 17  10  11  am  
 18  10  12  1   
 19  11  13  2   
 20  11  14  1   
 21  12  15  1   
 22  12  35  1   
 23  12  36  1   
 24  14  15  1   
 25  14  37  1   
 26  14  38  1   
 27  15  16  1   
 28  15  39  1   
 29  16  17  2   
 30  16  18  am  
 31  18  19  1   
 32  18  20  1   
 33  19  21  1   
 34  19  40  1   
 35  19  41  1   
 36  20  22  1   
 37  20  42  1   
 38  20  43  1   
 39  21  23  1   
 40  21  24  2   
 41  22  25  1   
 42  22  44  1   
 43  22  45  1   
 44  23  26  1   
 45  23  27  1   
 46  24  28  1   
 47  24  46  1   
 48  25  47  1   
 49  26  28  2   
 50  26  48  1   
 51  27  49  1   
 52  27  50  1   
 53  27  51  1   
@<TRIPOS>SUBSTRUCTURE
  1 ****  12 GROUP 4 **** **** 0

# MOE 2024.06 (io_trps.svl 2023.06)
