@<TRIPOS>MOLECULE
NONAME
54 56 1 0 0 
SMALL
USER_CHARGES


@<TRIPOS>ATOM
  1 O        2.0820     1.9350    -0.8930 O.3   1 <1>  -0.0190 
  2 N        3.2720     1.6600    -1.3340 N.2   1 <1>  -0.4100 
  3 C        2.1040     2.3280     0.3520 C.2   1 <1>  -0.0400 
  4 C        4.0740     1.8600    -0.3500 C.2   1 <1>   0.1080 
  5 C        3.3770     2.2970     0.7730 C.2   1 <1>  -0.1500 
  6 C        0.8150     2.7410     1.0350 C.3   1 <1>   0.0200 
  7 C        5.5710     1.6480    -0.4170 C.3   1 <1>  -0.0590 
  8 C        0.0590     3.7630     0.1630 C.3   1 <1>  -0.0800 
  9 C       -1.1620     4.4400     0.7880 C.3   1 <1>   0.2000 
 10 C        0.9550     4.9190    -0.2970 C.3   1 <1>   0.3430 
 11 O       -0.8870     4.8040     2.1040 O.3   1 <1>  -0.6800 
 12 C       -1.2950     5.7160    -0.0490 C.3   1 <1>   0.3430 
 13 N        0.1020     6.1470    -0.3520 N.4   1 <1>  -0.9590 
 14 C        0.5670     7.1570     0.6330 C.3   1 <1>   0.4810 
 15 C        2.0170     7.5390     0.3480 C.2   1 <1>  -0.2760 
 16 C        3.0380     7.0810     1.0990 C.2   1 <1>  -0.2760 
 17 C        2.2210     8.5150    -0.8350 C.3   1 <1>   0.1380 
 18 C        4.5020     7.4350     0.8470 C.3   1 <1>  -0.0220 
 19 C        2.9260     6.1660     2.3200 C.3   1 <1>  -0.1020 
 20 C        3.6210     9.1610    -0.7450 C.3   1 <1>  -0.1600 
 21 C        2.0930     7.7830    -2.1840 C.3   1 <1>  -0.2400 
 22 C        1.2000     9.6660    -0.8040 C.3   1 <1>  -0.2400 
 23 C        4.7240     8.1300    -0.4960 C.3   1 <1>  -0.1600 
 24 H        3.8030     2.5420     1.7280 H     1 <1>   0.1500 
 25 H        0.2030     1.8690     1.1900 H     1 <1>   0.0800 
 26 H        1.0620     3.1560     1.9960 H     1 <1>   0.0800 
 27 H        5.8720     0.9330     0.3260 H     1 <1>   0.0800 
 28 H        6.0810     2.5770    -0.2440 H     1 <1>   0.0800 
 29 H        5.8460     1.2750    -1.3880 H     1 <1>   0.0800 
 30 H       -0.2690     3.2550    -0.7280 H     1 <1>   0.0800 
 31 H       -2.0550     3.8370     0.7680 H     1 <1>   0.0800 
 32 H        1.3840     4.6990    -1.2620 H     1 <1>   0.0800 
 33 H        1.7590     5.0530     0.4040 H     1 <1>   0.0800 
 34 H       -1.0830     4.0680     2.7240 H     1 <1>   0.4000 
 35 H       -1.8540     6.4720     0.4770 H     1 <1>   0.0800 
 36 H       -1.8020     5.4770    -0.9700 H     1 <1>   0.0800 
 37 H        0.1840     6.5780    -1.2780 H     1 <1>   0.4500 
 38 H       -0.0590     8.0320     0.6000 H     1 <1>   0.0800 
 39 H        0.4830     6.7480     1.6240 H     1 <1>   0.0800 
 40 H        4.8370     8.0860     1.6370 H     1 <1>   0.0800 
 41 H        5.1120     6.5480     0.8730 H     1 <1>   0.0800 
 42 H        3.3340     6.6650     3.1820 H     1 <1>   0.0800 
 43 H        3.4890     5.2650     2.1570 H     1 <1>   0.0800 
 44 H        1.9180     5.8850     2.5560 H     1 <1>   0.0800 
 45 H        3.8400     9.7110    -1.6430 H     1 <1>   0.0800 
 46 H        3.6360     9.8650     0.0700 H     1 <1>   0.0800 
 47 H        2.4710     8.4000    -2.9800 H     1 <1>   0.0800 
 48 H        1.0730     7.5570    -2.4230 H     1 <1>   0.0800 
 49 H        2.6600     6.8700    -2.1730 H     1 <1>   0.0800 
 50 H        1.4460    10.4000    -1.5520 H     1 <1>   0.0800 
 51 H        1.2160    10.1530     0.1560 H     1 <1>   0.0800 
 52 H        0.2010     9.3250    -1.0040 H     1 <1>   0.0800 
 53 H        4.7320     7.3980    -1.2840 H     1 <1>   0.0800 
 54 H        5.6840     8.6150    -0.4930 H     1 <1>   0.0800 
@<TRIPOS>BOND
  1   1   2  1   
  2   1   3  1   
  3   2   4  2   
  4   3   5  2   
  5   3   6  1   
  6   4   5  1   
  7   4   7  1   
  8   5  24  1   
  9   6   8  1   
 10   6  25  1   
 11   6  26  1   
 12   7  27  1   
 13   7  28  1   
 14   7  29  1   
 15   8   9  1   
 16   8  10  1   
 17   8  30  1   
 18   9  11  1   
 19   9  12  1   
 20   9  31  1   
 21  10  13  1   
 22  10  32  1   
 23  10  33  1   
 24  11  34  1   
 25  12  13  1   
 26  12  35  1   
 27  12  36  1   
 28  13  14  1   
 29  13  37  1   
 30  14  15  1   
 31  14  38  1   
 32  14  39  1   
 33  15  16  2   
 34  15  17  1   
 35  16  18  1   
 36  16  19  1   
 37  17  20  1   
 38  17  21  1   
 39  17  22  1   
 40  18  23  1   
 41  18  40  1   
 42  18  41  1   
 43  19  42  1   
 44  19  43  1   
 45  19  44  1   
 46  20  23  1   
 47  20  45  1   
 48  20  46  1   
 49  21  47  1   
 50  21  48  1   
 51  21  49  1   
 52  22  50  1   
 53  22  51  1   
 54  22  52  1   
 55  23  53  1   
 56  23  54  1   
@<TRIPOS>SUBSTRUCTURE
  1 ****  10 GROUP 4 **** **** 0

# MOE 2024.06 (io_trps.svl 2023.06)
