@<TRIPOS>MOLECULE
NONAME
49 50 1 0 0 
SMALL
USER_CHARGES


@<TRIPOS>ATOM
  1 S        0.7150     0.1680    -0.4930 S.o2  1 <1>   1.3330 
  2 O        1.1900     0.0170    -1.8500 O.2   1 <1>  -0.6500 
  3 O        1.6490     0.0620     0.6050 O.2   1 <1>  -0.6500 
  4 N       -0.5260    -0.9590    -0.2330 N.am  1 <1>  -0.8490 
  5 C       -0.1360     1.7400    -0.3950 C.3   1 <1>  -0.0550 
  6 C       -0.8470    -1.1540     1.1850 C.3   1 <1>   0.1160 
  7 C       -0.2370    -2.2530    -0.8590 C.3   1 <1>   0.1160 
  8 C        0.7860     2.9440    -0.6710 C.3   1 <1>  -0.0800 
  9 C        0.0550     4.2830    -0.7890 C.3   1 <1>   0.2000 
 10 C        1.8470     3.1830     0.4130 C.3   1 <1>   0.1400 
 11 O       -0.8650     4.3870     0.2440 O.3   1 <1>  -0.6800 
 12 C        1.1580     5.3100    -0.5470 C.3   1 <1>   0.1400 
 13 N        2.0400     4.6570     0.4540 N.am  1 <1>  -0.6600 
 14 C        2.6070     5.3060     1.5270 C.2   1 <1>   0.5440 
 15 O        2.8540     4.6600     2.5280 O.2   1 <1>  -0.5700 
 16 C        2.8810     6.7320     1.4960 C.ar  1 <1>   0.0860 
 17 C        3.4130     7.3500     0.3680 C.ar  1 <1>  -0.1500 
 18 C        2.6160     7.5370     2.6050 C.ar  1 <1>  -0.1500 
 19 C        3.6510     8.7140     0.3130 C.ar  1 <1>   0.1000 
 20 C        2.8540     8.8990     2.5760 C.ar  1 <1>  -0.1500 
 21 N        4.1720     9.2680    -0.8530 N.pl3 1 <1>  -0.8380 
 22 C        3.3670     9.4850     1.4340 C.ar  1 <1>  -0.1500 
 23 C        3.6110    10.5520    -1.3500 C.3   1 <1>   0.1290 
 24 C        5.6340     9.1100    -1.0660 C.3   1 <1>   0.1290 
 25 H       -0.9290     1.7450    -1.1180 H     1 <1>   0.0800 
 26 H       -0.5820     1.8460     0.5740 H     1 <1>   0.0800 
 27 H       -1.6930    -1.8120     1.2850 H     1 <1>   0.0800 
 28 H       -1.0950    -0.2120     1.6430 H     1 <1>   0.0800 
 29 H       -0.0060    -1.5810     1.7070 H     1 <1>   0.0800 
 30 H       -1.0490    -2.9390    -0.6920 H     1 <1>   0.0800 
 31 H        0.6710    -2.6700    -0.4550 H     1 <1>   0.0800 
 32 H       -0.1170    -2.1290    -1.9230 H     1 <1>   0.0800 
 33 H        1.3040     2.7730    -1.6000 H     1 <1>   0.0800 
 34 H       -0.4570     4.4170    -1.7260 H     1 <1>   0.0800 
 35 H        2.7740     2.6870     0.1770 H     1 <1>   0.0800 
 36 H        1.5020     2.8410     1.3760 H     1 <1>   0.0800 
 37 H       -0.3720     4.4650     1.0880 H     1 <1>   0.4000 
 38 H        0.7590     6.2460    -0.1940 H     1 <1>   0.0800 
 39 H        1.7150     5.4730    -1.4530 H     1 <1>   0.0800 
 40 H        3.6510     6.7610    -0.4970 H     1 <1>   0.1500 
 41 H        2.2220     7.0790     3.4960 H     1 <1>   0.1500 
 42 H        2.6430     9.5010     3.4430 H     1 <1>   0.1500 
 43 H        3.5570    10.5410     1.4120 H     1 <1>   0.1500 
 44 H        3.6990    10.5940    -2.4220 H     1 <1>   0.0800 
 45 H        4.1420    11.3820    -0.9170 H     1 <1>   0.0800 
 46 H        2.5700    10.6220    -1.0870 H     1 <1>   0.0800 
 47 H        5.8410     9.0300    -2.1190 H     1 <1>   0.0800 
 48 H        5.9850     8.2180    -0.5760 H     1 <1>   0.0800 
 49 H        6.1600     9.9570    -0.6620 H     1 <1>   0.0800 
@<TRIPOS>BOND
  1   1   2  2   
  2   1   3  2   
  3   1   4  am  
  4   1   5  1   
  5   4   6  1   
  6   4   7  1   
  7   5   8  1   
  8   5  25  1   
  9   5  26  1   
 10   6  27  1   
 11   6  28  1   
 12   6  29  1   
 13   7  30  1   
 14   7  31  1   
 15   7  32  1   
 16   8   9  1   
 17   8  10  1   
 18   8  33  1   
 19   9  11  1   
 20   9  12  1   
 21   9  34  1   
 22  10  13  1   
 23  10  35  1   
 24  10  36  1   
 25  11  37  1   
 26  12  13  1   
 27  12  38  1   
 28  12  39  1   
 29  13  14  am  
 30  14  15  2   
 31  14  16  1   
 32  16  17  ar  
 33  16  18  ar  
 34  17  19  ar  
 35  17  40  1   
 36  18  20  ar  
 37  18  41  1   
 38  19  21  1   
 39  19  22  ar  
 40  20  22  ar  
 41  20  42  1   
 42  21  23  1   
 43  21  24  1   
 44  22  43  1   
 45  23  44  1   
 46  23  45  1   
 47  23  46  1   
 48  24  47  1   
 49  24  48  1   
 50  24  49  1   
@<TRIPOS>SUBSTRUCTURE
  1 ****  13 GROUP 4 **** **** 0

# MOE 2024.06 (io_trps.svl 2023.06)
