@<TRIPOS>MOLECULE
NONAME
45 46 1 0 0 
SMALL
USER_CHARGES


@<TRIPOS>ATOM
  1 S        0.2680     1.1600    -0.9460 S.o2  1 <1>   1.3330 
  2 O       -0.7330     1.9510    -1.6250 O.2   1 <1>  -0.6500 
  3 O        1.6710     1.4130    -1.1890 O.2   1 <1>  -0.6500 
  4 N       -0.0340    -0.4680    -1.3220 N.am  1 <1>  -0.8490 
  5 C       -0.0280     1.1990     0.8280 C.3   1 <1>  -0.0550 
  6 C       -1.4560    -0.7660    -1.5270 C.3   1 <1>   0.1160 
  7 C        0.7380    -0.9230    -2.4840 C.3   1 <1>   0.1160 
  8 C        0.1630     2.5530     1.5490 C.3   1 <1>  -0.0800 
  9 C       -0.6710     3.6900     0.9510 C.3   1 <1>   0.2000 
 10 C        1.6140     3.0670     1.5230 C.3   1 <1>   0.1100 
 11 O       -1.1000     4.4810     1.9990 O.3   1 <1>  -0.6800 
 12 C        0.3450     4.5020     0.1560 C.3   1 <1>   0.1100 
 13 N        1.5770     4.4200     0.9540 N.3   1 <1>  -0.8100 
 14 C        2.7750     4.7150     0.1310 C.3   1 <1>   0.2530 
 15 C        2.8160     6.1580    -0.3730 C.ar  1 <1>   0.1670 
 16 N        3.2060     6.3410    -1.6300 N.ar  1 <1>  -0.6200 
 17 C        2.4640     7.1930     0.4780 C.ar  1 <1>  -0.1500 
 18 C        3.2340     7.5960    -2.0480 C.ar  1 <1>   0.1600 
 19 C        2.5010     8.4960     0.0320 C.ar  1 <1>   0.0820 
 20 C        2.8990     8.6940    -1.2790 C.ar  1 <1>  -0.1500 
 21 O        2.1500     9.4800     0.8890 O.3   1 <1>  -0.3630 
 22 C        2.1490    10.8330     0.4960 C.3   1 <1>   0.0400 
 23 H       -1.0350     0.8770     1.0070 H     1 <1>   0.0800 
 24 H        0.6160     0.4780     1.2930 H     1 <1>   0.0800 
 25 H       -1.5950    -1.8250    -1.6690 H     1 <1>   0.0800 
 26 H       -1.8300    -0.2450    -2.3930 H     1 <1>   0.0800 
 27 H       -2.0290    -0.4620    -0.6680 H     1 <1>   0.0800 
 28 H        0.5300    -1.9590    -2.6890 H     1 <1>   0.0800 
 29 H        1.7930    -0.8270    -2.2870 H     1 <1>   0.0800 
 30 H        0.4920    -0.3330    -3.3510 H     1 <1>   0.0800 
 31 H       -0.1260     2.3960     2.5740 H     1 <1>   0.0800 
 32 H       -1.5280     3.3780     0.3790 H     1 <1>   0.0800 
 33 H        2.2470     2.4230     0.9370 H     1 <1>   0.0800 
 34 H        2.0160     3.1140     2.5200 H     1 <1>   0.0800 
 35 H       -0.3070     4.9560     2.3280 H     1 <1>   0.4000 
 36 H        0.0260     5.5220     0.0210 H     1 <1>   0.0800 
 37 H        0.4990     4.0570    -0.8120 H     1 <1>   0.0800 
 38 H        3.6590     4.5430     0.7180 H     1 <1>   0.0800 
 39 H        2.8060     4.0460    -0.7130 H     1 <1>   0.0800 
 40 H        2.1580     6.9860     1.4870 H     1 <1>   0.1500 
 41 H        3.5440     7.7560    -3.0660 H     1 <1>   0.1500 
 42 H        2.9550     9.6730    -1.7100 H     1 <1>   0.1500 
 43 H        1.8320    11.4240     1.3370 H     1 <1>   0.0800 
 44 H        1.4590    10.9590    -0.3190 H     1 <1>   0.0800 
 45 H        3.1460    11.1140     0.2060 H     1 <1>   0.0800 
@<TRIPOS>BOND
  1   1   2  2   
  2   1   3  2   
  3   1   4  am  
  4   1   5  1   
  5   4   6  1   
  6   4   7  1   
  7   5   8  1   
  8   5  23  1   
  9   5  24  1   
 10   6  25  1   
 11   6  26  1   
 12   6  27  1   
 13   7  28  1   
 14   7  29  1   
 15   7  30  1   
 16   8   9  1   
 17   8  10  1   
 18   8  31  1   
 19   9  11  1   
 20   9  12  1   
 21   9  32  1   
 22  10  13  1   
 23  10  33  1   
 24  10  34  1   
 25  11  35  1   
 26  12  13  1   
 27  12  36  1   
 28  12  37  1   
 29  13  14  1   
 30  14  15  1   
 31  14  38  1   
 32  14  39  1   
 33  15  16  ar  
 34  15  17  ar  
 35  16  18  ar  
 36  17  19  ar  
 37  17  40  1   
 38  18  20  ar  
 39  18  41  1   
 40  19  20  ar  
 41  19  21  1   
 42  20  42  1   
 43  21  22  1   
 44  22  43  1   
 45  22  44  1   
 46  22  45  1   
@<TRIPOS>SUBSTRUCTURE
  1 ****  12 GROUP 4 **** **** 0

# MOE 2024.06 (io_trps.svl 2023.06)
