@<TRIPOS>MOLECULE
NONAME
46 47 1 0 0 
SMALL
USER_CHARGES


@<TRIPOS>ATOM
  1 S       -2.5860    -0.6890    -2.6630 S.3   1 <1>  -0.0800 
  2 C       -2.6040    -2.3350    -2.0480 C.2   1 <1>  -0.1400 
  3 C       -1.3770    -1.1040    -3.8670 C.2   1 <1>  -0.1100 
  4 C       -1.7450    -3.1050    -2.7430 C.2   1 <1>  -0.1500 
  5 C       -3.5410    -2.6430    -0.8950 C.3   1 <1>   0.3200 
  6 C       -1.0440    -2.4050    -3.7760 C.2   1 <1>  -0.1500 
  7 N       -2.9910    -3.7320    -0.0810 N.am  1 <1>  -0.7300 
  8 C       -3.2650    -3.9610     1.2220 C.2   1 <1>   0.5690 
  9 O       -3.8830    -3.1560     1.8860 O.2   1 <1>  -0.5700 
 10 C       -2.7550    -5.2550     1.8800 C.3   1 <1>   0.1710 
 11 N       -3.6570    -6.4550     1.9260 N.3   1 <1>  -0.8100 
 12 C       -3.2570    -7.5980     1.0710 C.3   1 <1>   0.1100 
 13 C       -5.0990    -6.1930     1.9990 C.3   1 <1>   0.1100 
 14 C       -3.8800    -7.6120    -0.3470 C.3   1 <1>  -0.1060 
 15 C       -5.7300    -6.1190     0.6070 C.3   1 <1>  -0.1600 
 16 C       -3.2330    -6.5170    -1.2100 C.2   1 <1>   0.9060 
 17 C       -5.4030    -7.3840    -0.1860 C.3   1 <1>   0.2000 
 18 C       -3.5700    -8.9680    -1.0510 C.3   1 <1>  -0.1600 
 19 O       -3.8850    -5.9470    -2.0970 O.co2 1 <1>  -0.9000 
 20 O       -2.0470    -6.1980    -1.0370 O.co2 1 <1>  -0.9000 
 21 O       -6.0080    -7.2780    -1.4210 O.3   1 <1>  -0.6800 
 22 C       -4.1810   -10.2390    -0.4310 C.3   1 <1>  -0.1600 
 23 C       -3.7510   -11.4830    -1.2140 C.3   1 <1>  -0.2400 
 24 H       -1.0410    -0.3220    -4.5230 H     1 <1>   0.1500 
 25 H       -1.5830    -4.1590    -2.5710 H     1 <1>   0.1500 
 26 H       -4.5000    -2.9420    -1.2820 H     1 <1>   0.0800 
 27 H       -3.6680    -1.7700    -0.2800 H     1 <1>   0.0800 
 28 H       -0.3310    -2.9220    -4.3930 H     1 <1>   0.1500 
 29 H       -2.5960    -4.5170    -0.6420 H     1 <1>   0.3700 
 30 H       -2.5150    -5.0010     2.8950 H     1 <1>   0.0800 
 31 H       -1.8280    -5.5220     1.4060 H     1 <1>   0.0800 
 32 H       -2.1830    -7.6420     0.9990 H     1 <1>   0.0800 
 33 H       -3.5670    -8.4840     1.5910 H     1 <1>   0.0800 
 34 H       -5.5590    -6.9980     2.5450 H     1 <1>   0.0800 
 35 H       -5.2840    -5.2820     2.5440 H     1 <1>   0.0800 
 36 H       -5.3760    -5.2490     0.0880 H     1 <1>   0.0800 
 37 H       -6.7950    -6.0330     0.7130 H     1 <1>   0.0800 
 38 H       -5.8530    -8.2190     0.3180 H     1 <1>   0.0800 
 39 H       -3.9120    -8.8960    -2.0700 H     1 <1>   0.0800 
 40 H       -2.4990    -9.0810    -1.0950 H     1 <1>   0.0800 
 41 H       -5.3960    -6.6880    -1.9540 H     1 <1>   0.4000 
 42 H       -3.8680   -10.3530     0.5910 H     1 <1>   0.0800 
 43 H       -5.2550   -10.1770    -0.4540 H     1 <1>   0.0800 
 44 H       -2.6800   -11.5850    -1.1960 H     1 <1>   0.0800 
 45 H       -4.0750   -11.4090    -2.2370 H     1 <1>   0.0800 
 46 H       -4.1890   -12.3630    -0.7780 H     1 <1>   0.0800 
@<TRIPOS>BOND
  1   1   2  1   
  2   1   3  1   
  3   2   4  2   
  4   2   5  1   
  5   3   6  2   
  6   3  24  1   
  7   4   6  1   
  8   4  25  1   
  9   5   7  1   
 10   5  26  1   
 11   5  27  1   
 12   6  28  1   
 13   7   8  am  
 14   7  29  1   
 15   8   9  2   
 16   8  10  1   
 17  10  11  1   
 18  10  30  1   
 19  10  31  1   
 20  11  12  1   
 21  11  13  1   
 22  12  14  1   
 23  12  32  1   
 24  12  33  1   
 25  13  15  1   
 26  13  34  1   
 27  13  35  1   
 28  14  16  1   
 29  14  17  1   
 30  14  18  1   
 31  15  17  1   
 32  15  36  1   
 33  15  37  1   
 34  16  19  ar  
 35  16  20  ar  
 36  17  21  1   
 37  17  38  1   
 38  18  22  1   
 39  18  39  1   
 40  18  40  1   
 41  21  41  1   
 42  22  23  1   
 43  22  42  1   
 44  22  43  1   
 45  23  44  1   
 46  23  45  1   
 47  23  46  1   
@<TRIPOS>SUBSTRUCTURE
  1 ****  16 GROUP 4 **** **** 0

# MOE 2024.06 (io_trps.svl 2023.06)
