@<TRIPOS>MOLECULE
NONAME
38 40 1 0 0 
SMALL
USER_CHARGES


@<TRIPOS>ATOM
  1 O        1.2110    -2.2460    -1.2720 O.2   1 <1>  -0.5700 
  2 C        0.3530    -2.7550    -0.5610 C.2   1 <1>   0.6160 
  3 N        0.5600    -2.7790     0.7770 N.am  1 <1>  -0.4900 
  4 C       -0.8330    -3.3230    -1.0230 C.2   1 <1>  -0.1360 
  5 C       -0.3450    -3.3380     1.6090 C.2   1 <1>   0.5600 
  6 C       -1.7000    -3.8680    -0.1230 C.2   1 <1>   0.2710 
  7 N       -1.4480    -3.8810     1.2100 N.2   1 <1>  -0.6210 
  8 N       -0.0840    -3.3270     2.9200 N.pl3 1 <1>  -0.8500 
  9 N       -2.8710    -4.4580    -0.5190 N.pl3 1 <1>  -0.8380 
 10 C       -4.1420    -3.9790     0.0980 C.3   1 <1>   0.2090 
 11 C       -2.8930    -5.9490    -0.5140 C.3   1 <1>   0.2090 
 12 C       -4.5940    -5.1270     0.9980 C.3   1 <1>   0.2000 
 13 C       -4.1870    -6.3650     0.1970 C.3   1 <1>  -0.0800 
 14 O       -3.8470    -5.0610     2.1640 O.3   1 <1>  -0.6800 
 15 C       -4.0540    -7.6650     1.0110 C.3   1 <1>  -0.0170 
 16 C       -3.6090    -8.8160     0.1220 C.ar  1 <1>  -0.1430 
 17 C       -2.2990    -9.2510     0.0960 C.ar  1 <1>  -0.1500 
 18 C       -4.4870    -9.4780    -0.7120 C.ar  1 <1>  -0.1500 
 19 C       -1.9390   -10.2900    -0.7450 C.ar  1 <1>   0.1600 
 20 C       -4.0240   -10.5070    -1.5150 C.ar  1 <1>   0.1600 
 21 N       -2.7700   -10.9270    -1.5540 N.ar  1 <1>  -0.6200 
 22 H        1.4210    -2.3680     1.1120 H     1 <1>   0.3700 
 23 H       -1.0370    -3.3220    -2.0730 H     1 <1>   0.1500 
 24 H       -0.7840    -3.7130     3.5550 H     1 <1>   0.4000 
 25 H        0.7110    -2.8640     3.3530 H     1 <1>   0.4000 
 26 H       -4.0030    -3.0670     0.6560 H     1 <1>   0.0800 
 27 H       -4.8650    -3.8100    -0.6800 H     1 <1>   0.0800 
 28 H       -2.8660    -6.3290    -1.5210 H     1 <1>   0.0800 
 29 H       -2.0350    -6.3180     0.0220 H     1 <1>   0.0800 
 30 H       -5.6390    -5.0950     1.2510 H     1 <1>   0.0800 
 31 H       -4.9290    -6.5180    -0.5650 H     1 <1>   0.0800 
 32 H       -2.9440    -4.7370     1.8950 H     1 <1>   0.4000 
 33 H       -4.9990    -7.9040     1.4650 H     1 <1>   0.0800 
 34 H       -3.3400    -7.5360     1.8070 H     1 <1>   0.0800 
 35 H       -1.5550    -8.7910     0.7210 H     1 <1>   0.1500 
 36 H       -5.5250    -9.2030    -0.7460 H     1 <1>   0.1500 
 37 H       -0.9120   -10.6140    -0.7520 H     1 <1>   0.1500 
 38 H       -4.7230   -11.0120    -2.1600 H     1 <1>   0.1500 
@<TRIPOS>BOND
  1   1   2  2   
  2   2   3  am  
  3   2   4  1   
  4   3   5  1   
  5   3  22  1   
  6   4   6  2   
  7   4  23  1   
  8   5   7  2   
  9   5   8  1   
 10   6   7  1   
 11   6   9  1   
 12   8  24  1   
 13   8  25  1   
 14   9  10  1   
 15   9  11  1   
 16  10  12  1   
 17  10  26  1   
 18  10  27  1   
 19  11  13  1   
 20  11  28  1   
 21  11  29  1   
 22  12  13  1   
 23  12  14  1   
 24  12  30  1   
 25  13  15  1   
 26  13  31  1   
 27  14  32  1   
 28  15  16  1   
 29  15  33  1   
 30  15  34  1   
 31  16  17  ar  
 32  16  18  ar  
 33  17  19  ar  
 34  17  35  1   
 35  18  20  ar  
 36  18  36  1   
 37  19  21  ar  
 38  19  37  1   
 39  20  21  ar  
 40  20  38  1   
@<TRIPOS>SUBSTRUCTURE
  1 ****  11 GROUP 4 **** **** 0

# MOE 2024.06 (io_trps.svl 2023.06)
