@<TRIPOS>MOLECULE
NONAME
58 61 1 0 0 
SMALL
USER_CHARGES


@<TRIPOS>ATOM
  1 O       -2.8070     1.4080    -2.0050 O.2   1 <1>  -0.5700 
  2 C       -2.7180     1.0590    -0.8440 C.2   1 <1>   0.7800 
  3 O       -2.4540     1.9620     0.1010 O.3   1 <1>  -0.4300 
  4 N       -2.9000    -0.2450    -0.4530 N.am  1 <1>  -0.6600 
  5 C       -2.2450     3.3160    -0.2310 C.3   1 <1>   0.1200 
  6 C       -2.8710    -0.6800     0.9640 C.3   1 <1>   0.1400 
  7 C       -3.1470    -1.3190    -1.4430 C.3   1 <1>   0.1400 
  8 C       -1.9660     4.0810     1.0590 C.3   1 <1>  -0.2400 
  9 C       -4.2260    -1.3040     1.3010 C.3   1 <1>  -0.1600 
 10 C       -4.5070    -1.9500    -1.1410 C.3   1 <1>  -0.1600 
 11 C       -4.5790    -2.4230     0.3170 C.3   1 <1>   0.4230 
 12 N       -5.9500    -2.8810     0.6250 N.4   1 <1>  -0.9060 
 13 C       -6.3800    -4.1480    -0.0290 C.3   1 <1>   0.4230 
 14 C       -7.8610    -4.3580     0.2730 C.3   1 <1>  -0.0800 
 15 C       -5.7690    -5.3190     0.7320 C.3   1 <1>   0.1200 
 16 C       -7.8390    -5.0850     1.6310 C.3   1 <1>   0.1200 
 17 C       -8.5590    -5.1970    -0.8180 C.3   1 <1>  -0.0170 
 18 O       -6.4910    -5.3200     1.9170 O.3   1 <1>  -0.5600 
 19 C      -10.0490    -5.3270    -0.5260 C.ar  1 <1>  -0.1440 
 20 C      -10.9620    -4.2680    -0.7540 C.ar  1 <1>   0.0000 
 21 C      -10.5490    -6.4900    -0.0170 C.ar  1 <1>  -0.1500 
 22 C      -12.3150    -4.4770    -0.3890 C.ar  1 <1>   0.3100 
 23 C      -10.6190    -3.0190    -1.3240 C.ar  1 <1>  -0.1500 
 24 C      -11.9100    -6.5990     0.2920 C.ar  1 <1>   0.1600 
 25 N      -12.7690    -5.6450     0.1300 N.ar  1 <1>  -0.6200 
 26 C      -13.2390    -3.4360    -0.5710 C.ar  1 <1>  -0.1500 
 27 C      -11.5460    -2.0260    -1.4930 C.ar  1 <1>  -0.1500 
 28 C      -12.8720    -2.2330    -1.1080 C.ar  1 <1>  -0.1500 
 29 H       -1.4070     3.3770    -0.9050 H     1 <1>   0.0800 
 30 H       -3.1290     3.6900    -0.7190 H     1 <1>   0.0800 
 31 H       -2.0770    -1.3960     1.0980 H     1 <1>   0.0800 
 32 H       -2.6790     0.1520     1.6220 H     1 <1>   0.0800 
 33 H       -3.1420    -0.9240    -2.4460 H     1 <1>   0.0800 
 34 H       -2.3600    -2.0510    -1.3730 H     1 <1>   0.0800 
 35 H       -1.0870     3.6900     1.5400 H     1 <1>   0.0800 
 36 H       -2.8070     4.0050     1.7250 H     1 <1>   0.0800 
 37 H       -1.8000     5.1190     0.8350 H     1 <1>   0.0800 
 38 H       -4.9660    -0.5230     1.2690 H     1 <1>   0.0800 
 39 H       -4.1820    -1.6930     2.3030 H     1 <1>   0.0800 
 40 H       -4.6460    -2.7750    -1.8160 H     1 <1>   0.0800 
 41 H       -5.2650    -1.2120    -1.3380 H     1 <1>   0.0800 
 42 H       -3.8790    -3.2310     0.4580 H     1 <1>   0.0800 
 43 H       -6.6100    -2.1250     0.4200 H     1 <1>   0.4500 
 44 H       -6.0160    -3.0740     1.6360 H     1 <1>   0.4500 
 45 H       -6.1580    -4.1560    -1.0840 H     1 <1>   0.0800 
 46 H       -8.3810    -3.4210     0.3660 H     1 <1>   0.0800 
 47 H       -4.7210    -5.2050     0.9440 H     1 <1>   0.0800 
 48 H       -5.9400    -6.2560     0.2290 H     1 <1>   0.0800 
 49 H       -8.3460    -6.0350     1.6030 H     1 <1>   0.0800 
 50 H       -8.2570    -4.4840     2.4220 H     1 <1>   0.0800 
 51 H       -8.1200    -6.1800    -0.8680 H     1 <1>   0.0800 
 52 H       -8.4270    -4.7490    -1.7880 H     1 <1>   0.0800 
 53 H       -9.9270    -7.3470     0.1680 H     1 <1>   0.1500 
 54 H       -9.6130    -2.8370    -1.6430 H     1 <1>   0.1500 
 55 H      -12.2640    -7.5340     0.6920 H     1 <1>   0.1500 
 56 H      -14.2550    -3.6210    -0.2730 H     1 <1>   0.1500 
 57 H      -11.2760    -1.0780    -1.9280 H     1 <1>   0.1500 
 58 H      -13.5930    -1.4450    -1.2420 H     1 <1>   0.1500 
@<TRIPOS>BOND
  1   1   2  2   
  2   2   3  1   
  3   2   4  am  
  4   3   5  1   
  5   4   6  1   
  6   4   7  1   
  7   5   8  1   
  8   5  29  1   
  9   5  30  1   
 10   6   9  1   
 11   6  31  1   
 12   6  32  1   
 13   7  10  1   
 14   7  33  1   
 15   7  34  1   
 16   8  35  1   
 17   8  36  1   
 18   8  37  1   
 19   9  11  1   
 20   9  38  1   
 21   9  39  1   
 22  10  11  1   
 23  10  40  1   
 24  10  41  1   
 25  11  12  1   
 26  11  42  1   
 27  12  13  1   
 28  12  43  1   
 29  12  44  1   
 30  13  14  1   
 31  13  15  1   
 32  13  45  1   
 33  14  16  1   
 34  14  17  1   
 35  14  46  1   
 36  15  18  1   
 37  15  47  1   
 38  15  48  1   
 39  16  18  1   
 40  16  49  1   
 41  16  50  1   
 42  17  19  1   
 43  17  51  1   
 44  17  52  1   
 45  19  20  ar  
 46  19  21  ar  
 47  20  22  ar  
 48  20  23  ar  
 49  21  24  ar  
 50  21  53  1   
 51  22  25  ar  
 52  22  26  ar  
 53  23  27  ar  
 54  23  54  1   
 55  24  25  ar  
 56  24  55  1   
 57  26  28  ar  
 58  26  56  1   
 59  27  28  ar  
 60  27  57  1   
 61  28  58  1   
@<TRIPOS>SUBSTRUCTURE
  1 ****  12 GROUP 4 **** **** 0

# MOE 2024.06 (io_trps.svl 2023.06)
