@<TRIPOS>MOLECULE
NONAME
48 50 1 0 0 
SMALL
USER_CHARGES


@<TRIPOS>ATOM
  1 O        2.6860    -0.9870    -1.8020 O.2   1 <1>  -0.5700 
  2 C        2.6680    -0.9540    -0.5870 C.2   1 <1>   0.7160 
  3 N        2.6710     0.2820     0.0190 N.am  1 <1>  -0.6600 
  4 C        2.7380    -2.1710     0.1830 C.2   1 <1>  -0.0860 
  5 C        3.7950     0.6590     0.9230 C.3   1 <1>   0.1400 
  6 C        1.8820     1.3970    -0.5670 C.3   1 <1>   0.1400 
  7 C        3.1240    -3.4060    -0.2350 C.2   1 <1>  -0.0100 
  8 C        2.4080    -2.3600     1.5430 C.2   1 <1>  -0.1500 
  9 C        5.1170     0.7640     0.1360 C.3   1 <1>   0.3430 
 10 C        2.7690     2.4690    -1.2110 C.3   1 <1>  -0.1600 
 11 O        3.0720    -4.2810     0.7390 O.3   1 <1>  -0.2800 
 12 C        2.6360    -3.6610     1.8140 C.2   1 <1>  -0.0100 
 13 N        5.1510     1.8630    -0.8880 N.4   1 <1>  -0.9590 
 14 C        4.0330     1.9150    -1.8730 C.3   1 <1>   0.3430 
 15 C        6.4760     1.8920    -1.5600 C.3   1 <1>   0.5240 
 16 C        7.4560     2.4980    -0.5660 C.2   1 <1>   0.0460 
 17 N        7.0410     3.4960     0.2460 N.2   1 <1>  -0.5650 
 18 C        8.7510     2.1880    -0.3270 C.2   1 <1>  -0.3320 
 19 C        8.0890     3.7850     0.9480 C.2   1 <1>   0.0060 
 20 N        9.1620     3.0220     0.6470 N.pl3 1 <1>   0.0330 
 21 C        9.6740     1.1550    -0.9550 C.3   1 <1>  -0.0600 
 22 C        8.1330     4.8730     2.0070 C.3   1 <1>   0.0200 
 23 C        9.0080     6.0490     1.5610 C.3   1 <1>  -0.2400 
 24 H        3.9080    -0.0930     1.6830 H     1 <1>   0.0800 
 25 H        3.5830     1.5900     1.4190 H     1 <1>   0.0800 
 26 H        1.2670     1.8410     0.1980 H     1 <1>   0.0800 
 27 H        1.2170     0.9960    -1.3160 H     1 <1>   0.0800 
 28 H        3.4460    -3.7280    -1.2120 H     1 <1>   0.1500 
 29 H        2.0370    -1.5980     2.2050 H     1 <1>   0.1500 
 30 H        5.3000    -0.1830    -0.3450 H     1 <1>   0.0800 
 31 H        5.9160     0.9280     0.8430 H     1 <1>   0.0800 
 32 H        3.0220     3.2270    -0.4920 H     1 <1>   0.0800 
 33 H        2.1780     2.9520    -1.9690 H     1 <1>   0.0800 
 34 H        2.5130    -4.2250     2.7240 H     1 <1>   0.1500 
 35 H        5.1880     2.7550    -0.3610 H     1 <1>   0.4500 
 36 H        4.3060     2.5780    -2.6780 H     1 <1>   0.0800 
 37 H        3.8450     0.9400    -2.2940 H     1 <1>   0.0800 
 38 H        6.4360     2.5290    -2.4270 H     1 <1>   0.0800 
 39 H        6.7870     0.9050    -1.8580 H     1 <1>   0.0800 
 40 H       10.0940     3.0870     1.0710 H     1 <1>   0.2700 
 41 H        9.1650     0.5950    -1.7180 H     1 <1>   0.0800 
 42 H       10.0280     0.4680    -0.2060 H     1 <1>   0.0800 
 43 H       10.5240     1.6420    -1.4020 H     1 <1>   0.0800 
 44 H        8.5090     4.4650     2.9280 H     1 <1>   0.0800 
 45 H        7.1330     5.2270     2.1870 H     1 <1>   0.0800 
 46 H       10.0250     5.7340     1.4120 H     1 <1>   0.0800 
 47 H        8.9940     6.8230     2.3090 H     1 <1>   0.0800 
 48 H        8.6330     6.4570     0.6390 H     1 <1>   0.0800 
@<TRIPOS>BOND
  1   1   2  2   
  2   2   3  am  
  3   2   4  1   
  4   3   5  1   
  5   3   6  1   
  6   4   7  2   
  7   4   8  1   
  8   5   9  1   
  9   5  24  1   
 10   5  25  1   
 11   6  10  1   
 12   6  26  1   
 13   6  27  1   
 14   7  11  1   
 15   7  28  1   
 16   8  12  2   
 17   8  29  1   
 18   9  13  1   
 19   9  30  1   
 20   9  31  1   
 21  10  14  1   
 22  10  32  1   
 23  10  33  1   
 24  11  12  1   
 25  12  34  1   
 26  13  14  1   
 27  13  15  1   
 28  13  35  1   
 29  14  36  1   
 30  14  37  1   
 31  15  16  1   
 32  15  38  1   
 33  15  39  1   
 34  16  17  1   
 35  16  18  2   
 36  17  19  2   
 37  18  20  1   
 38  18  21  1   
 39  19  20  1   
 40  19  22  1   
 41  20  40  1   
 42  21  41  1   
 43  21  42  1   
 44  21  43  1   
 45  22  23  1   
 46  22  44  1   
 47  22  45  1   
 48  23  46  1   
 49  23  47  1   
 50  23  48  1   
@<TRIPOS>SUBSTRUCTURE
  1 ****   9 GROUP 4 **** **** 0

# MOE 2024.06 (io_trps.svl 2023.06)
