@<TRIPOS>MOLECULE
NONAME
58 60 1 0 0 
SMALL
USER_CHARGES


@<TRIPOS>ATOM
  1 S        0.5420    -0.5260    -2.0630 S.3   1 <1>  -0.3320 
  2 C        0.1290     0.9890    -1.2170 C.ar  1 <1>   0.4120 
  3 C       -0.9710    -0.9080    -3.0790 C.3   1 <1>   0.1310 
  4 N        0.2010     0.9600     0.0740 N.ar  1 <1>  -0.6200 
  5 C       -0.2830     2.0830    -1.9870 C.ar  1 <1>  -0.1500 
  6 C       -1.6980    -2.1350    -2.5340 C.2   1 <1>   0.5690 
  7 C       -0.1720     2.0920     0.7200 C.ar  1 <1>   0.3100 
  8 C       -0.6720     3.2310    -1.3640 C.ar  1 <1>  -0.1440 
  9 O       -1.6830    -3.1210    -3.2330 O.2   1 <1>  -0.5700 
 10 N       -2.3470    -2.1270    -1.3180 N.am  1 <1>  -0.6600 
 11 C       -0.6300     3.2530     0.0510 C.ar  1 <1>   0.0000 
 12 C       -0.1140     2.0970     2.1220 C.ar  1 <1>  -0.1500 
 13 C       -1.1260     4.4400    -2.1710 C.3   1 <1>  -0.0970 
 14 C       -2.8130    -3.4220    -0.7190 C.3   1 <1>   0.1400 
 15 C       -2.4110    -0.9340    -0.4240 C.3   1 <1>   0.1400 
 16 C       -1.0190     4.3620     0.8350 C.ar  1 <1>  -0.1500 
 17 C       -0.4980     3.1880     2.8530 C.ar  1 <1>  -0.1500 
 18 C       -4.1380    -3.2790     0.0540 C.3   1 <1>   0.2000 
 19 C       -3.7740    -0.8290     0.2620 C.3   1 <1>  -0.1600 
 20 C       -0.9590     4.3370     2.2030 C.ar  1 <1>  -0.1430 
 21 O       -4.4120    -4.4850     0.6940 O.3   1 <1>  -0.6800 
 22 C       -4.1470    -2.0960     1.0660 C.3   1 <1>   0.0000 
 23 C       -1.3790     5.5320     3.0410 C.3   1 <1>  -0.0970 
 24 C       -3.1030    -2.3620     2.1880 C.3   1 <1>   0.1200 
 25 C       -5.5470    -1.9330     1.7350 C.3   1 <1>  -0.1600 
 26 O       -2.9550    -1.2660     3.0290 O.3   1 <1>  -0.6800 
 27 C       -6.7440    -1.5690     0.8290 C.3   1 <1>  -0.1600 
 28 C       -7.0610    -0.0670     0.8340 C.3   1 <1>  -0.2400 
 29 H       -1.6130    -0.0500    -3.0780 H     1 <1>   0.0800 
 30 H       -0.6280    -1.1010    -4.0780 H     1 <1>   0.0800 
 31 H       -0.2770     1.9900    -3.0570 H     1 <1>   0.1500 
 32 H        0.2460     1.2090     2.6080 H     1 <1>   0.1500 
 33 H       -1.0780     4.2390    -3.2260 H     1 <1>   0.0800 
 34 H       -0.4910     5.2820    -1.9590 H     1 <1>   0.0800 
 35 H       -2.1400     4.6930    -1.9200 H     1 <1>   0.0800 
 36 H       -2.9590    -4.1530    -1.4950 H     1 <1>   0.0800 
 37 H       -2.0410    -3.7850    -0.0650 H     1 <1>   0.0800 
 38 H       -1.6210    -0.9990     0.3060 H     1 <1>   0.0800 
 39 H       -2.2660    -0.0340    -0.9900 H     1 <1>   0.0800 
 40 H       -1.3700     5.2480     0.3390 H     1 <1>   0.1500 
 41 H       -0.4470     3.1720     3.9280 H     1 <1>   0.1500 
 42 H       -4.9150    -3.1400    -0.6750 H     1 <1>   0.0800 
 43 H       -3.7820     0.0350     0.9010 H     1 <1>   0.0800 
 44 H       -4.5030    -0.6580    -0.5090 H     1 <1>   0.0800 
 45 H       -3.7390    -4.6850     1.3700 H     1 <1>   0.4000 
 46 H       -2.1810     5.2540     3.7000 H     1 <1>   0.0800 
 47 H       -1.7130     6.3420     2.4180 H     1 <1>   0.0800 
 48 H       -0.5480     5.8750     3.6310 H     1 <1>   0.0800 
 49 H       -2.1310    -2.5890     1.7870 H     1 <1>   0.0800 
 50 H       -3.4170    -3.1880     2.8020 H     1 <1>   0.0800 
 51 H       -5.7870    -2.8640     2.2200 H     1 <1>   0.0800 
 52 H       -5.4850    -1.2040     2.5230 H     1 <1>   0.0800 
 53 H       -2.6390    -0.4880     2.5290 H     1 <1>   0.4000 
 54 H       -6.5950    -1.9060    -0.1800 H     1 <1>   0.0800 
 55 H       -7.6130    -2.0830     1.2020 H     1 <1>   0.0800 
 56 H       -6.2360     0.5120     0.4640 H     1 <1>   0.0800 
 57 H       -7.2900     0.2620     1.8320 H     1 <1>   0.0800 
 58 H       -7.9160     0.1260     0.2100 H     1 <1>   0.0800 
@<TRIPOS>BOND
  1   1   2  1   
  2   1   3  1   
  3   2   4  ar  
  4   2   5  ar  
  5   3   6  1   
  6   3  29  1   
  7   3  30  1   
  8   4   7  ar  
  9   5   8  ar  
 10   5  31  1   
 11   6   9  2   
 12   6  10  am  
 13   7  11  ar  
 14   7  12  ar  
 15   8  11  ar  
 16   8  13  1   
 17  10  14  1   
 18  10  15  1   
 19  11  16  ar  
 20  12  17  ar  
 21  12  32  1   
 22  13  33  1   
 23  13  34  1   
 24  13  35  1   
 25  14  18  1   
 26  14  36  1   
 27  14  37  1   
 28  15  19  1   
 29  15  38  1   
 30  15  39  1   
 31  16  20  ar  
 32  16  40  1   
 33  17  20  ar  
 34  17  41  1   
 35  18  21  1   
 36  18  22  1   
 37  18  42  1   
 38  19  22  1   
 39  19  43  1   
 40  19  44  1   
 41  20  23  1   
 42  21  45  1   
 43  22  24  1   
 44  22  25  1   
 45  23  46  1   
 46  23  47  1   
 47  23  48  1   
 48  24  26  1   
 49  24  49  1   
 50  24  50  1   
 51  25  27  1   
 52  25  51  1   
 53  25  52  1   
 54  26  53  1   
 55  27  28  1   
 56  27  54  1   
 57  27  55  1   
 58  28  56  1   
 59  28  57  1   
 60  28  58  1   
@<TRIPOS>SUBSTRUCTURE
  1 ****  15 GROUP 4 **** **** 0

# MOE 2024.06 (io_trps.svl 2023.06)
