@<TRIPOS>MOLECULE
NONAME
48 50 1 0 0 
SMALL
USER_CHARGES


@<TRIPOS>ATOM
  1 S       -1.7320    -1.8610    -0.2310 S.o2  1 <1>   1.2040 
  2 O       -2.1470    -2.6550    -1.3660 O.2   1 <1>  -0.6500 
  3 O       -2.1480    -2.2570     1.0990 O.2   1 <1>  -0.6500 
  4 C       -2.1770    -0.1320    -0.5210 C.ar  1 <1>  -0.0090 
  5 C        0.0640    -1.7800    -0.2310 C.3   1 <1>  -0.0550 
  6 C       -2.4230     0.7340     0.5390 C.ar  1 <1>  -0.1500 
  7 C       -2.2510     0.3810    -1.8110 C.ar  1 <1>  -0.1500 
  8 C        0.7430    -2.8750     0.6110 C.3   1 <1>  -0.0990 
  9 C       -2.7300     2.0660     0.3210 C.ar  1 <1>  -0.1500 
 10 C       -2.5570     1.7110    -2.0380 C.ar  1 <1>  -0.1500 
 11 C        0.3400    -4.2660     0.1760 C.2   1 <1>   0.5690 
 12 C       -2.7960     2.5560    -0.9700 C.ar  1 <1>  -0.1500 
 13 O        0.9800    -4.8110    -0.6880 O.2   1 <1>  -0.5700 
 14 N       -0.7320    -4.8390     0.7670 N.am  1 <1>  -0.7300 
 15 C       -1.3250    -6.1380     0.3800 C.3   1 <1>   0.2200 
 16 C       -2.7530    -5.9090    -0.0810 C.3   1 <1>  -0.0800 
 17 C       -1.5190    -7.0150     1.6160 C.3   1 <1>   0.1200 
 18 C       -3.5140    -5.9170     1.2450 C.3   1 <1>   0.1200 
 19 C       -3.2310    -7.0170    -1.0360 C.3   1 <1>  -0.0170 
 20 O       -2.8090    -6.7670     2.1000 O.3   1 <1>  -0.5600 
 21 C       -4.6590    -6.7710    -1.4970 C.ar  1 <1>  -0.1430 
 22 C       -5.7060    -7.5840    -1.1110 C.ar  1 <1>  -0.1500 
 23 C       -4.9810    -5.7150    -2.3260 C.ar  1 <1>  -0.1500 
 24 C       -6.9870    -7.3090    -1.5610 C.ar  1 <1>   0.1600 
 25 C       -6.2960    -5.5280    -2.7170 C.ar  1 <1>   0.1600 
 26 N       -7.3090    -6.3000    -2.3550 N.ar  1 <1>  -0.6200 
 27 H        0.4200    -1.8450    -1.2420 H     1 <1>   0.0800 
 28 H        0.3740    -0.8300     0.1610 H     1 <1>   0.0800 
 29 H       -2.3800     0.3630     1.5500 H     1 <1>   0.1500 
 30 H       -2.0720    -0.2690    -2.6520 H     1 <1>   0.1500 
 31 H        1.8100    -2.7860     0.5190 H     1 <1>   0.0800 
 32 H        0.4930    -2.7460     1.6490 H     1 <1>   0.0800 
 33 H       -2.9200     2.7200     1.1550 H     1 <1>   0.1500 
 34 H       -2.6110     2.0900    -3.0450 H     1 <1>   0.1500 
 35 H       -3.0360     3.5920    -1.1430 H     1 <1>   0.1500 
 36 H       -1.3100    -4.2880     1.4130 H     1 <1>   0.3700 
 37 H       -0.7120    -6.6200    -0.3640 H     1 <1>   0.0800 
 38 H       -2.8590    -4.9620    -0.5750 H     1 <1>   0.0800 
 39 H       -0.7990    -6.8020     2.3870 H     1 <1>   0.0800 
 40 H       -1.4700    -8.0560     1.3510 H     1 <1>   0.0800 
 41 H       -4.5280    -6.2650     1.1530 H     1 <1>   0.0800 
 42 H       -3.5120    -4.9350     1.6860 H     1 <1>   0.0800 
 43 H       -3.1640    -7.9770    -0.5540 H     1 <1>   0.0800 
 44 H       -2.5910    -7.0400    -1.9010 H     1 <1>   0.0800 
 45 H       -5.5390    -8.4250    -0.4650 H     1 <1>   0.1500 
 46 H       -4.2220    -5.0340    -2.6680 H     1 <1>   0.1500 
 47 H       -7.7910    -7.9540    -1.2490 H     1 <1>   0.1500 
 48 H       -6.5270    -4.6960    -3.3610 H     1 <1>   0.1500 
@<TRIPOS>BOND
  1   1   2  2   
  2   1   3  2   
  3   1   4  1   
  4   1   5  1   
  5   4   6  ar  
  6   4   7  ar  
  7   5   8  1   
  8   5  27  1   
  9   5  28  1   
 10   6   9  ar  
 11   6  29  1   
 12   7  10  ar  
 13   7  30  1   
 14   8  11  1   
 15   8  31  1   
 16   8  32  1   
 17   9  12  ar  
 18   9  33  1   
 19  10  12  ar  
 20  10  34  1   
 21  11  13  2   
 22  11  14  am  
 23  12  35  1   
 24  14  15  1   
 25  14  36  1   
 26  15  16  1   
 27  15  17  1   
 28  15  37  1   
 29  16  18  1   
 30  16  19  1   
 31  16  38  1   
 32  17  20  1   
 33  17  39  1   
 34  17  40  1   
 35  18  20  1   
 36  18  41  1   
 37  18  42  1   
 38  19  21  1   
 39  19  43  1   
 40  19  44  1   
 41  21  22  ar  
 42  21  23  ar  
 43  22  24  ar  
 44  22  45  1   
 45  23  25  ar  
 46  23  46  1   
 47  24  26  ar  
 48  24  47  1   
 49  25  26  ar  
 50  25  48  1   
@<TRIPOS>SUBSTRUCTURE
  1 ****   2 GROUP 4 **** **** 0

# MOE 2024.06 (io_trps.svl 2023.06)
