@<TRIPOS>MOLECULE
NONAME
54 58 1 0 0 
SMALL
USER_CHARGES


@<TRIPOS>ATOM
  1 O       -0.9190     0.8410     1.8220 O.2   1 <1>  -0.5700 
  2 C       -1.8230     1.2890     1.1330 C.2   1 <1>   0.7150 
  3 N       -2.9980     0.5600     1.0570 N.am  1 <1>  -0.6600 
  4 C       -1.6060     2.5370     0.4230 C.2   1 <1>   0.1020 
  5 C       -4.0450     0.7620     0.0150 C.3   1 <1>   0.1400 
  6 C       -3.3380    -0.4960     2.0540 C.3   1 <1>   0.1400 
  7 N       -2.4980     3.4530     0.1330 N.2   1 <1>  -0.3380 
  8 N       -0.4010     2.9350    -0.0280 N.pl3 1 <1>   0.0480 
  9 C       -4.3050    -0.5570    -0.7170 C.3   1 <1>  -0.1600 
 10 C       -3.5870    -1.8260     1.3380 C.3   1 <1>  -0.1600 
 11 N       -1.8850     4.4390    -0.5100 N.2   1 <1>  -0.3380 
 12 C       -0.6420     4.1140    -0.5910 C.2   1 <1>   0.0060 
 13 C        0.9320     2.2940     0.0930 C.3   1 <1>   0.0960 
 14 C       -4.6670    -1.7020     0.2490 C.3   1 <1>   0.4240 
 15 C        0.4410     4.9470    -1.2520 C.3   1 <1>   0.0200 
 16 C        1.9570     2.9590    -0.8430 C.3   1 <1>  -0.1600 
 17 O       -5.8150    -1.2900     0.9600 O.3   1 <1>  -0.5600 
 18 C       -4.9050    -3.0520    -0.4870 C.ar  1 <1>  -0.1430 
 19 C        1.8420     4.4930    -0.8080 C.3   1 <1>  -0.1600 
 20 C       -7.0540    -1.4850     0.3630 C.3   1 <1>   0.1200 
 21 C       -3.8910    -3.7020    -1.2050 C.ar  1 <1>   0.0820 
 22 C       -6.1640    -3.6510    -0.4460 C.ar  1 <1>  -0.1430 
 23 C       -7.3080    -2.9820     0.2880 C.3   1 <1>  -0.0170 
 24 O       -2.6620    -3.1250    -1.2810 O.3   1 <1>  -0.3630 
 25 C       -4.1470    -4.9190    -1.8360 C.ar  1 <1>  -0.1500 
 26 C       -6.4060    -4.8610    -1.0750 C.ar  1 <1>  -0.1500 
 27 C       -1.5540    -3.7610    -1.8780 C.3   1 <1>   0.0400 
 28 C       -5.3980    -5.4960    -1.7690 C.ar  1 <1>  -0.1500 
 29 H       -3.7400     1.4940    -0.7100 H     1 <1>   0.0800 
 30 H       -4.9480     1.1110     0.4860 H     1 <1>   0.0800 
 31 H       -4.2230    -0.1970     2.5900 H     1 <1>   0.0800 
 32 H       -2.5460    -0.6180     2.7730 H     1 <1>   0.0800 
 33 H       -3.4150    -0.8030    -1.2630 H     1 <1>   0.0800 
 34 H       -5.0840    -0.4280    -1.4430 H     1 <1>   0.0800 
 35 H       -3.8930    -2.5710     2.0490 H     1 <1>   0.0800 
 36 H       -2.6540    -2.1480     0.9230 H     1 <1>   0.0800 
 37 H        0.8450     1.2470    -0.1350 H     1 <1>   0.0800 
 38 H        1.2520     2.3930     1.1150 H     1 <1>   0.0800 
 39 H        0.2940     5.9860    -1.0110 H     1 <1>   0.0800 
 40 H        0.3460     4.8370    -2.3180 H     1 <1>   0.0800 
 41 H        1.7940     2.6100    -1.8490 H     1 <1>   0.0800 
 42 H        2.9480     2.6590    -0.5520 H     1 <1>   0.0800 
 43 H        2.0220     4.8400     0.1950 H     1 <1>   0.0800 
 44 H        2.5840     4.9360    -1.4500 H     1 <1>   0.0800 
 45 H       -7.0560    -1.0370    -0.6160 H     1 <1>   0.0800 
 46 H       -7.7960    -1.0040     0.9760 H     1 <1>   0.0800 
 47 H       -8.2360    -3.1560    -0.2250 H     1 <1>   0.0800 
 48 H       -7.3870    -3.3830     1.2830 H     1 <1>   0.0800 
 49 H       -3.3870    -5.4350    -2.3890 H     1 <1>   0.1500 
 50 H       -7.3810    -5.3140    -1.0280 H     1 <1>   0.1500 
 51 H       -0.6980    -3.1230    -1.7550 H     1 <1>   0.0800 
 52 H       -1.7550    -3.9040    -2.9240 H     1 <1>   0.0800 
 53 H       -1.3820    -4.7010    -1.3830 H     1 <1>   0.0800 
 54 H       -5.5880    -6.4360    -2.2570 H     1 <1>   0.1500 
@<TRIPOS>BOND
  1   1   2  2   
  2   2   3  am  
  3   2   4  1   
  4   3   5  1   
  5   3   6  1   
  6   4   7  2   
  7   4   8  1   
  8   5   9  1   
  9   5  29  1   
 10   5  30  1   
 11   6  10  1   
 12   6  31  1   
 13   6  32  1   
 14   7  11  1   
 15   8  12  1   
 16   8  13  1   
 17   9  14  1   
 18   9  33  1   
 19   9  34  1   
 20  10  14  1   
 21  10  35  1   
 22  10  36  1   
 23  11  12  2   
 24  12  15  1   
 25  13  16  1   
 26  13  37  1   
 27  13  38  1   
 28  14  17  1   
 29  14  18  1   
 30  15  19  1   
 31  15  39  1   
 32  15  40  1   
 33  16  19  1   
 34  16  41  1   
 35  16  42  1   
 36  17  20  1   
 37  18  21  ar  
 38  18  22  ar  
 39  19  43  1   
 40  19  44  1   
 41  20  23  1   
 42  20  45  1   
 43  20  46  1   
 44  21  24  1   
 45  21  25  ar  
 46  22  23  1   
 47  22  26  ar  
 48  23  47  1   
 49  23  48  1   
 50  24  27  1   
 51  25  28  ar  
 52  25  49  1   
 53  26  28  ar  
 54  26  50  1   
 55  27  51  1   
 56  27  52  1   
 57  27  53  1   
 58  28  54  1   
@<TRIPOS>SUBSTRUCTURE
  1 ****   3 GROUP 4 **** **** 0

# MOE 2024.06 (io_trps.svl 2023.06)
