@<TRIPOS>MOLECULE
NONAME
46 48 1 0 0 
SMALL
USER_CHARGES


@<TRIPOS>ATOM
  1 O       -0.8720     0.1870    -1.8890 O.2   1 <1>  -0.5700 
  2 C       -0.8750     0.4740    -0.7180 C.2   1 <1>   0.5690 
  3 N       -1.2190    -0.4190     0.2380 N.am  1 <1>  -0.7300 
  4 C       -0.5210     1.8830    -0.3030 C.3   1 <1>  -0.0990 
  5 C       -1.5950    -1.8300    -0.0140 C.3   1 <1>   0.2200 
  6 C       -1.7420     2.8030    -0.4110 C.3   1 <1>  -0.0160 
  7 C       -3.1020    -2.0290     0.1000 C.3   1 <1>  -0.0800 
  8 C       -1.1150    -2.6780     1.1550 C.3   1 <1>   0.1200 
  9 C       -1.3870     4.2090     0.0400 C.ar  1 <1>  -0.1440 
 10 C       -3.3130    -2.2250     1.6060 C.3   1 <1>   0.1200 
 11 C       -3.9770    -0.9260    -0.5260 C.3   1 <1>  -0.0160 
 12 O       -2.0520    -2.4580     2.1640 O.3   1 <1>  -0.5600 
 13 C       -0.8500     5.1160    -0.8600 C.ar  1 <1>  -0.1500 
 14 C       -1.5930     4.5960     1.3570 C.ar  1 <1>  -0.1500 
 15 C       -5.4520    -1.2770    -0.4210 C.ar  1 <1>  -0.1440 
 16 C       -0.5240     6.3960    -0.4410 C.ar  1 <1>   0.0820 
 17 C       -1.2660     5.8770     1.7720 C.ar  1 <1>  -0.1500 
 18 C       -6.0560    -2.1450    -1.3090 C.ar  1 <1>  -0.1500 
 19 C       -6.2640    -0.7490     0.5620 C.ar  1 <1>  -0.1500 
 20 O       -0.0030     7.2770    -1.3070 O.3   1 <1>  -0.5330 
 21 C       -0.7300     6.7800     0.8720 C.ar  1 <1>  -0.1500 
 22 C       -7.4020    -2.4390    -1.1700 C.ar  1 <1>   0.1600 
 23 C       -7.6010    -1.1090     0.6130 C.ar  1 <1>   0.1600 
 24 N       -8.1890    -1.9440    -0.2290 N.ar  1 <1>  -0.6200 
 25 H       -1.2380    -0.1590     1.2270 H     1 <1>   0.3700 
 26 H       -0.1510     1.8820     0.7050 H     1 <1>   0.0800 
 27 H        0.2610     2.2440    -0.9450 H     1 <1>   0.0800 
 28 H       -1.2000    -2.1670    -0.9580 H     1 <1>   0.0800 
 29 H       -2.5430     2.4190     0.1950 H     1 <1>   0.0800 
 30 H       -2.0870     2.8240    -1.4310 H     1 <1>   0.0800 
 31 H       -3.3450    -2.9600    -0.3800 H     1 <1>   0.0800 
 32 H       -0.1340    -2.4020     1.4990 H     1 <1>   0.0800 
 33 H       -1.1370    -3.7250     0.9040 H     1 <1>   0.0800 
 34 H       -3.9490    -3.0690     1.8120 H     1 <1>   0.0800 
 35 H       -3.7170    -1.3430     2.0720 H     1 <1>   0.0800 
 36 H       -3.7110    -0.8060    -1.5630 H     1 <1>   0.0800 
 37 H       -3.8020     0.0160    -0.0380 H     1 <1>   0.0800 
 38 H       -0.6860     4.8250    -1.8820 H     1 <1>   0.1500 
 39 H       -2.0090     3.9040     2.0680 H     1 <1>   0.1500 
 40 H       -1.4280     6.1710     2.7950 H     1 <1>   0.1500 
 41 H       -5.4930    -2.5940    -2.1060 H     1 <1>   0.1500 
 42 H       -5.8740    -0.0620     1.2900 H     1 <1>   0.1500 
 43 H        0.0990     6.9130    -2.2040 H     1 <1>   0.4500 
 44 H       -0.4710     7.7770     1.1780 H     1 <1>   0.1500 
 45 H       -7.8560    -3.1180    -1.8720 H     1 <1>   0.1500 
 46 H       -8.2190    -0.6880     1.3870 H     1 <1>   0.1500 
@<TRIPOS>BOND
  1   1   2  2   
  2   2   3  am  
  3   2   4  1   
  4   3   5  1   
  5   3  25  1   
  6   4   6  1   
  7   4  26  1   
  8   4  27  1   
  9   5   7  1   
 10   5   8  1   
 11   5  28  1   
 12   6   9  1   
 13   6  29  1   
 14   6  30  1   
 15   7  10  1   
 16   7  11  1   
 17   7  31  1   
 18   8  12  1   
 19   8  32  1   
 20   8  33  1   
 21   9  13  ar  
 22   9  14  ar  
 23  10  12  1   
 24  10  34  1   
 25  10  35  1   
 26  11  15  1   
 27  11  36  1   
 28  11  37  1   
 29  13  16  ar  
 30  13  38  1   
 31  14  17  ar  
 32  14  39  1   
 33  15  18  ar  
 34  15  19  ar  
 35  16  20  1   
 36  16  21  ar  
 37  17  21  ar  
 38  17  40  1   
 39  18  22  ar  
 40  18  41  1   
 41  19  23  ar  
 42  19  42  1   
 43  20  43  1   
 44  21  44  1   
 45  22  24  ar  
 46  22  45  1   
 47  23  24  ar  
 48  23  46  1   
@<TRIPOS>SUBSTRUCTURE
  1 ****   3 GROUP 4 **** **** 0

# MOE 2024.06 (io_trps.svl 2023.06)
