@<TRIPOS>MOLECULE
NONAME
42 43 1 0 0 
SMALL
USER_CHARGES


@<TRIPOS>ATOM
  1 O       -1.2910    -0.5330    -0.2740 O.2   1 <1>  -0.5700 
  2 C       -1.9930     0.4510    -0.2080 C.2   1 <1>   0.5690 
  3 N       -3.2700     0.3820     0.2770 N.am  1 <1>  -0.6600 
  4 C       -1.3890     1.7680    -0.6420 C.3   1 <1>  -0.0990 
  5 C       -3.7340    -0.8550     0.9690 C.3   1 <1>   0.3200 
  6 C       -4.3640     1.3500    -0.0530 C.3   1 <1>   0.1400 
  7 C       -0.7060     2.4350     0.5560 C.3   1 <1>   0.0210 
  8 C       -4.2450    -1.8690    -0.0400 C.2   1 <1>   0.0060 
  9 C       -4.4310     2.5270     0.9340 C.3   1 <1>   0.1200 
 10 C       -0.5770     3.9250     0.3280 C.2   1 <1>   0.1080 
 11 N       -5.4520    -2.3370    -0.0860 N.2   1 <1>  -0.5650 
 12 N       -3.4320    -2.3690    -0.9930 N.pl3 1 <1>   0.0330 
 13 O       -4.1110     3.7110     0.2820 O.3   1 <1>  -0.6800 
 14 N       -1.5390     4.7350     0.6390 N.2   1 <1>  -0.7070 
 15 C        0.5180     4.5860    -0.2250 C.2   1 <1>  -0.1810 
 16 C       -5.4220    -3.1910    -1.1280 C.2   1 <1>   0.0770 
 17 C       -4.1960    -3.2250    -1.6950 C.2   1 <1>  -0.3020 
 18 N       -1.0800     5.9520     0.2920 N.pl3 1 <1>   0.3000 
 19 C        0.1610     5.8900    -0.2340 C.2   1 <1>  -0.3320 
 20 C        1.8050     3.9370    -0.7010 C.3   1 <1>  -0.0590 
 21 C        0.9100     7.1240    -0.7090 C.3   1 <1>  -0.0600 
 22 H       -2.1410     2.4140    -1.0490 H     1 <1>   0.0800 
 23 H       -0.6650     1.5930    -1.4170 H     1 <1>   0.0800 
 24 H       -4.5170    -0.6140     1.6660 H     1 <1>   0.0800 
 25 H       -2.9200    -1.2890     1.5240 H     1 <1>   0.0800 
 26 H       -5.3060     0.8290    -0.0250 H     1 <1>   0.0800 
 27 H       -4.2440     1.7150    -1.0590 H     1 <1>   0.0800 
 28 H        0.2580     1.9930     0.7280 H     1 <1>   0.0800 
 29 H       -1.2950     2.2890     1.4440 H     1 <1>   0.0800 
 30 H       -3.7620     2.3970     1.7660 H     1 <1>   0.0800 
 31 H       -5.4370     2.6340     1.2990 H     1 <1>   0.0800 
 32 H       -2.4460    -2.1010    -1.1210 H     1 <1>   0.2700 
 33 H       -3.1640     3.9850     0.4440 H     1 <1>   0.4000 
 34 H       -6.2990    -3.7470    -1.4200 H     1 <1>   0.1500 
 35 H       -3.8360    -3.7920    -2.5340 H     1 <1>   0.1500 
 36 H       -1.6360     6.8050     0.4230 H     1 <1>   0.2700 
 37 H        2.3230     3.4990     0.1340 H     1 <1>   0.0800 
 38 H        2.4520     4.6570    -1.1650 H     1 <1>   0.0800 
 39 H        1.5840     3.1670    -1.4180 H     1 <1>   0.0800 
 40 H        1.8860     6.8640    -1.0750 H     1 <1>   0.0800 
 41 H        1.0280     7.8190     0.1030 H     1 <1>   0.0800 
 42 H        0.3660     7.6020    -1.5030 H     1 <1>   0.0800 
@<TRIPOS>BOND
  1   1   2  2   
  2   2   3  am  
  3   2   4  1   
  4   3   5  1   
  5   3   6  1   
  6   4   7  1   
  7   4  22  1   
  8   4  23  1   
  9   5   8  1   
 10   5  24  1   
 11   5  25  1   
 12   6   9  1   
 13   6  26  1   
 14   6  27  1   
 15   7  10  1   
 16   7  28  1   
 17   7  29  1   
 18   8  11  2   
 19   8  12  1   
 20   9  13  1   
 21   9  30  1   
 22   9  31  1   
 23  10  14  2   
 24  10  15  1   
 25  11  16  1   
 26  12  17  1   
 27  12  32  1   
 28  13  33  1   
 29  14  18  1   
 30  15  19  2   
 31  15  20  1   
 32  16  17  2   
 33  16  34  1   
 34  17  35  1   
 35  18  19  1   
 36  18  36  1   
 37  19  21  1   
 38  20  37  1   
 39  20  38  1   
 40  20  39  1   
 41  21  40  1   
 42  21  41  1   
 43  21  42  1   
@<TRIPOS>SUBSTRUCTURE
  1 ****   4 GROUP 4 **** **** 0

# MOE 2024.06 (io_trps.svl 2023.06)
