@<TRIPOS>MOLECULE
NONAME
60 63 1 0 0 
SMALL
USER_CHARGES


@<TRIPOS>ATOM
  1 O       -0.7730    -0.4090    -0.3700 O.2   1 <1>  -0.5700 
  2 C       -1.6040     0.4450    -0.6130 C.2   1 <1>   0.7160 
  3 N       -2.5800     0.1500    -1.5160 N.am  1 <1>  -0.7300 
  4 C       -1.5980     1.7200     0.0400 C.2   1 <1>  -0.0860 
  5 C       -2.8230    -1.1650    -2.1350 C.3   1 <1>   0.1400 
  6 C       -2.6860     2.6010     0.1230 C.2   1 <1>   0.3720 
  7 C       -0.6050     2.3970     0.6800 C.2   1 <1>   0.0870 
  8 C       -3.8340    -1.9180    -1.2740 C.3   1 <1>  -0.1600 
  9 N       -2.3600     3.6890     0.7250 N.2   1 <1>  -0.4100 
 10 N       -3.9830     2.3460    -0.3550 N.pl3 1 <1>  -0.8210 
 11 O       -1.1050     3.5470     1.0510 O.3   1 <1>  -0.0190 
 12 C        0.7750     2.1070     0.9780 C.ar  1 <1>   0.0530 
 13 C       -4.0010    -3.3640    -1.7490 C.3   1 <1>   0.0960 
 14 C       -4.7330     3.5400    -0.8760 C.3   1 <1>   0.2090 
 15 C       -4.8250     1.5370     0.5870 C.3   1 <1>   0.2090 
 16 C        1.1760     0.8970     1.5410 C.ar  1 <1>  -0.1500 
 17 C        1.7630     3.0580     0.7240 C.ar  1 <1>  -0.1500 
 18 N       -4.9090    -4.0860    -0.8350 N.pl3 1 <1>   0.0480 
 19 C       -5.5060     4.2900     0.2280 C.3   1 <1>   0.1200 
 20 C       -5.5570     2.4170     1.6150 C.3   1 <1>   0.1200 
 21 C        2.5040     0.6420     1.8280 C.ar  1 <1>  -0.1500 
 22 C        3.0930     2.8110     1.0110 C.ar  1 <1>  -0.1500 
 23 C       -4.6260    -4.7540     0.3140 C.2   1 <1>   0.0070 
 24 C       -6.2440    -4.1810    -0.9720 C.2   1 <1>  -0.3020 
 25 O       -6.3010     3.4090     0.9690 O.3   1 <1>  -0.5600 
 26 C        3.4670     1.5990     1.5630 C.ar  1 <1>  -0.1500 
 27 N       -5.6780    -5.2520     0.8860 N.2   1 <1>  -0.5650 
 28 C       -3.2040    -4.9070     0.8640 C.3   1 <1>   0.1000 
 29 C       -6.6930    -4.8930     0.0820 C.2   1 <1>   0.0770 
 30 C       -2.5550    -6.1700     0.2890 C.3   1 <1>  -0.2400 
 31 C       -3.1890    -4.9600     2.3980 C.3   1 <1>  -0.2400 
 32 H       -3.3350     0.8500    -1.5720 H     1 <1>   0.3700 
 33 H       -1.8950    -1.7120    -2.1870 H     1 <1>   0.0800 
 34 H       -3.1960    -1.0280    -3.1360 H     1 <1>   0.0800 
 35 H       -4.7840    -1.4150    -1.3150 H     1 <1>   0.0800 
 36 H       -3.4830    -1.9250    -0.2560 H     1 <1>   0.0800 
 37 H       -3.0520    -3.8680    -1.7670 H     1 <1>   0.0800 
 38 H       -4.4180    -3.3880    -2.7400 H     1 <1>   0.0800 
 39 H       -5.4330     3.2130    -1.6260 H     1 <1>   0.0800 
 40 H       -4.0470     4.2210    -1.3500 H     1 <1>   0.0800 
 41 H       -4.2080     0.8250     1.1090 H     1 <1>   0.0800 
 42 H       -5.5550     0.9830     0.0220 H     1 <1>   0.0800 
 43 H        0.4390     0.1450     1.7580 H     1 <1>   0.1500 
 44 H        1.4820     4.0040     0.2960 H     1 <1>   0.1500 
 45 H       -6.1540     5.0280    -0.2110 H     1 <1>   0.0800 
 46 H       -4.8250     4.7870     0.8960 H     1 <1>   0.0800 
 47 H       -4.8530     2.8880     2.2800 H     1 <1>   0.0800 
 48 H       -6.2380     1.8220     2.1960 H     1 <1>   0.0800 
 49 H        2.7900    -0.3030     2.2580 H     1 <1>   0.1500 
 50 H        3.8380     3.5590     0.8040 H     1 <1>   0.1500 
 51 H       -6.7920    -3.7510    -1.7890 H     1 <1>   0.1500 
 52 H        4.5010     1.4020     1.7860 H     1 <1>   0.1500 
 53 H       -2.6180    -4.0550     0.5700 H     1 <1>   0.0800 
 54 H       -7.7080    -5.1720     0.3090 H     1 <1>   0.1500 
 55 H       -3.1230    -7.0370     0.5790 H     1 <1>   0.0800 
 56 H       -1.5480    -6.2760     0.6530 H     1 <1>   0.0800 
 57 H       -2.5320    -6.1230    -0.7840 H     1 <1>   0.0800 
 58 H       -3.7280    -5.8230     2.7470 H     1 <1>   0.0800 
 59 H       -3.6620    -4.0810     2.7980 H     1 <1>   0.0800 
 60 H       -2.1800    -5.0090     2.7640 H     1 <1>   0.0800 
@<TRIPOS>BOND
  1   1   2  2   
  2   2   3  am  
  3   2   4  1   
  4   3   5  1   
  5   3  32  1   
  6   4   6  1   
  7   4   7  2   
  8   5   8  1   
  9   5  33  1   
 10   5  34  1   
 11   6   9  2   
 12   6  10  1   
 13   7  11  1   
 14   7  12  1   
 15   8  13  1   
 16   8  35  1   
 17   8  36  1   
 18   9  11  1   
 19  10  14  1   
 20  10  15  1   
 21  12  16  ar  
 22  12  17  ar  
 23  13  18  1   
 24  13  37  1   
 25  13  38  1   
 26  14  19  1   
 27  14  39  1   
 28  14  40  1   
 29  15  20  1   
 30  15  41  1   
 31  15  42  1   
 32  16  21  ar  
 33  16  43  1   
 34  17  22  ar  
 35  17  44  1   
 36  18  23  1   
 37  18  24  1   
 38  19  25  1   
 39  19  45  1   
 40  19  46  1   
 41  20  25  1   
 42  20  47  1   
 43  20  48  1   
 44  21  26  ar  
 45  21  49  1   
 46  22  26  ar  
 47  22  50  1   
 48  23  27  2   
 49  23  28  1   
 50  24  29  2   
 51  24  51  1   
 52  26  52  1   
 53  27  29  1   
 54  28  30  1   
 55  28  31  1   
 56  28  53  1   
 57  29  54  1   
 58  30  55  1   
 59  30  56  1   
 60  30  57  1   
 61  31  58  1   
 62  31  59  1   
 63  31  60  1   
@<TRIPOS>SUBSTRUCTURE
  1 ****   2 GROUP 4 **** **** 0

# MOE 2024.06 (io_trps.svl 2023.06)
