@<TRIPOS>MOLECULE
NONAME
57 60 1 0 0 
SMALL
USER_CHARGES


@<TRIPOS>ATOM
  1 O        2.4100     1.6910     0.8580 O.3   1 <1>  -0.0190 
  2 N        3.0080     0.5880     0.5320 N.2   1 <1>  -0.4100 
  3 C        1.1210     1.6300     0.6520 C.2   1 <1>  -0.0400 
  4 C        2.0860    -0.2130     0.1300 C.2   1 <1>   0.1080 
  5 C        0.8390     0.4060     0.1830 C.2   1 <1>  -0.1500 
  6 C        0.2540     2.8410     0.9430 C.3   1 <1>   0.0200 
  7 C        2.3330    -1.6300    -0.3370 C.3   1 <1>  -0.0590 
  8 C        0.5790     3.9870    -0.0380 C.3   1 <1>  -0.0800 
  9 C       -0.2260     5.2780     0.1290 C.3   1 <1>   0.2000 
 10 C        2.0470     4.4400     0.0240 C.3   1 <1>   0.3430 
 11 O       -0.3360     5.5870     1.4820 O.3   1 <1>  -0.6800 
 12 C        0.7080     6.3180    -0.4880 C.3   1 <1>   0.3430 
 13 N        2.0430     5.9380     0.0680 N.4   1 <1>  -0.9590 
 14 C        3.2440     6.6120    -0.5000 C.3   1 <1>   0.4230 
 15 C        4.5060     6.1200     0.2220 C.3   1 <1>  -0.1600 
 16 C        3.1090     8.1320    -0.3500 C.3   1 <1>  -0.1600 
 17 C        5.7550     6.8700    -0.2400 C.3   1 <1>   0.3430 
 18 C        4.3740     8.8580    -0.8060 C.3   1 <1>   0.3430 
 19 N        5.5570     8.3330    -0.0640 N.4   1 <1>  -0.9590 
 20 C        6.7950     9.0930    -0.4220 C.3   1 <1>   0.4860 
 21 C        6.6040    10.5330     0.0080 C.ar  1 <1>  -0.1430 
 22 C        6.6400    10.8730     1.3540 C.ar  1 <1>  -0.1500 
 23 C        6.3810    11.5210    -0.9410 C.ar  1 <1>  -0.1500 
 24 C        6.4360    12.1850     1.7450 C.ar  1 <1>  -0.1500 
 25 C        6.1780    12.8310    -0.5470 C.ar  1 <1>  -0.1500 
 26 C        6.2020    13.1630     0.7950 C.ar  1 <1>  -0.1500 
 27 H       -0.1000    -0.0330    -0.0990 H     1 <1>   0.1500 
 28 H       -0.7810     2.5610     0.8440 H     1 <1>   0.0800 
 29 H        0.4220     3.1420     1.9630 H     1 <1>   0.0800 
 30 H        2.0670    -1.7260    -1.3740 H     1 <1>   0.0800 
 31 H        1.7450    -2.3150     0.2450 H     1 <1>   0.0800 
 32 H        3.3720    -1.8810    -0.2210 H     1 <1>   0.0800 
 33 H        0.4080     3.6170    -1.0340 H     1 <1>   0.0800 
 34 H       -1.2050     5.2600    -0.3220 H     1 <1>   0.0800 
 35 H        2.5720     4.0770    -0.8450 H     1 <1>   0.0800 
 36 H        2.5260     4.0490     0.9080 H     1 <1>   0.0800 
 37 H       -1.1200     5.1540     1.8860 H     1 <1>   0.4000 
 38 H        0.4130     7.3150    -0.2030 H     1 <1>   0.0800 
 39 H        0.7050     6.2250    -1.5610 H     1 <1>   0.0800 
 40 H        1.9470     6.1690     1.0720 H     1 <1>   0.4500 
 41 H        3.3230     6.3690    -1.5480 H     1 <1>   0.0800 
 42 H        4.4020     6.2410     1.2870 H     1 <1>   0.0800 
 43 H        4.6650     5.0750     0.0200 H     1 <1>   0.0800 
 44 H        2.2950     8.4920    -0.9520 H     1 <1>   0.0800 
 45 H        2.9100     8.3940     0.6750 H     1 <1>   0.0800 
 46 H        5.9500     6.6490    -1.2780 H     1 <1>   0.0800 
 47 H        6.6060     6.5400     0.3370 H     1 <1>   0.0800 
 48 H        4.2620     9.9170    -0.6210 H     1 <1>   0.0800 
 49 H        4.5160     8.7190    -1.8660 H     1 <1>   0.0800 
 50 H        5.4110     8.5440     0.9340 H     1 <1>   0.4500 
 51 H        7.6490     8.6820     0.0920 H     1 <1>   0.0800 
 52 H        6.9780     9.0450    -1.4830 H     1 <1>   0.0800 
 53 H        6.8310    10.1360     2.1150 H     1 <1>   0.1500 
 54 H        6.3660    11.2930    -1.9940 H     1 <1>   0.1500 
 55 H        6.4630    12.4520     2.7880 H     1 <1>   0.1500 
 56 H        6.0050    13.6000    -1.2830 H     1 <1>   0.1500 
 57 H        6.0460    14.1840     1.1010 H     1 <1>   0.1500 
@<TRIPOS>BOND
  1   1   2  1   
  2   1   3  1   
  3   2   4  2   
  4   3   5  2   
  5   3   6  1   
  6   4   5  1   
  7   4   7  1   
  8   5  27  1   
  9   6   8  1   
 10   6  28  1   
 11   6  29  1   
 12   7  30  1   
 13   7  31  1   
 14   7  32  1   
 15   8   9  1   
 16   8  10  1   
 17   8  33  1   
 18   9  11  1   
 19   9  12  1   
 20   9  34  1   
 21  10  13  1   
 22  10  35  1   
 23  10  36  1   
 24  11  37  1   
 25  12  13  1   
 26  12  38  1   
 27  12  39  1   
 28  13  14  1   
 29  13  40  1   
 30  14  15  1   
 31  14  16  1   
 32  14  41  1   
 33  15  17  1   
 34  15  42  1   
 35  15  43  1   
 36  16  18  1   
 37  16  44  1   
 38  16  45  1   
 39  17  19  1   
 40  17  46  1   
 41  17  47  1   
 42  18  19  1   
 43  18  48  1   
 44  18  49  1   
 45  19  20  1   
 46  19  50  1   
 47  20  21  1   
 48  20  51  1   
 49  20  52  1   
 50  21  22  ar  
 51  21  23  ar  
 52  22  24  ar  
 53  22  53  1   
 54  23  25  ar  
 55  23  54  1   
 56  24  26  ar  
 57  24  55  1   
 58  25  26  ar  
 59  25  56  1   
 60  26  57  1   
@<TRIPOS>SUBSTRUCTURE
  1 ****  14 GROUP 4 **** **** 0

# MOE 2024.06 (io_trps.svl 2023.06)
