@<TRIPOS>MOLECULE
NONAME
54 57 1 0 0 
SMALL
USER_CHARGES


@<TRIPOS>ATOM
  1 O       -0.0730    -0.3070     0.0710 O.2   1 <1>  -0.5700 
  2 C        0.8950    -0.9370     0.4520 C.2   1 <1>   0.5440 
  3 N        2.1050    -0.2920     0.6090 N.am  1 <1>  -0.6600 
  4 C        0.7430    -2.3520     0.7230 C.ar  1 <1>   0.0860 
  5 C        2.2180     1.1920     0.5130 C.3   1 <1>   0.1400 
  6 C        3.4170    -0.9960     0.6950 C.3   1 <1>   0.1400 
  7 C        0.2640    -3.2360    -0.2240 C.ar  1 <1>  -0.1500 
  8 C        1.0630    -2.9190     1.9490 C.ar  1 <1>  -0.1500 
  9 C        3.0660     1.5690    -0.7060 C.3   1 <1>  -0.1600 
 10 C        4.2790    -0.6340    -0.5200 C.3   1 <1>  -0.1600 
 11 C        0.1450    -4.5910     0.0530 C.ar  1 <1>   0.4100 
 12 C        0.9120    -4.2770     2.1400 C.ar  1 <1>   0.1600 
 13 C        4.4400     0.8850    -0.6710 C.3   1 <1>  -0.1600 
 14 N        0.4720    -5.1190     1.2230 N.ar  1 <1>  -0.6200 
 15 N       -0.3260    -5.4250    -0.9380 N.pl3 1 <1>  -0.8690 
 16 C       -0.7900    -6.8330    -0.7910 C.3   1 <1>   0.2890 
 17 C       -1.8410    -7.0220     0.3190 C.3   1 <1>   0.1400 
 18 C        0.4070    -7.7800    -0.6110 C.3   1 <1>  -0.1600 
 19 N       -2.2440    -8.4630     0.3930 N.am  1 <1>  -0.6600 
 20 C       -0.0580    -9.2380    -0.4410 C.3   1 <1>  -0.1600 
 21 C       -3.5310    -8.8600     0.1340 C.2   1 <1>   0.6300 
 22 C       -1.1020    -9.3760     0.6750 C.3   1 <1>   0.1400 
 23 O       -4.4020    -8.0660    -0.1350 O.2   1 <1>  -0.5700 
 24 C       -3.9040   -10.3400     0.1760 C.3   1 <1>  -0.1000 
 25 C       -3.4580   -11.2850    -0.9050 C.3   1 <1>  -0.2000 
 26 C       -4.9030   -10.9200    -0.7860 C.3   1 <1>  -0.2000 
 27 H        2.6800     1.5650     1.4100 H     1 <1>   0.0800 
 28 H        1.2440     1.6460     0.4300 H     1 <1>   0.0800 
 29 H        3.2840    -2.0630     0.7220 H     1 <1>   0.0800 
 30 H        3.9160    -0.6950     1.5990 H     1 <1>   0.0800 
 31 H       -0.0170    -2.8650    -1.1900 H     1 <1>   0.1500 
 32 H        1.4240    -2.2940     2.7450 H     1 <1>   0.1500 
 33 H        3.1930     2.6370    -0.7330 H     1 <1>   0.0800 
 34 H        2.5360     1.2790    -1.5960 H     1 <1>   0.0800 
 35 H        3.8170    -1.0370    -1.4040 H     1 <1>   0.0800 
 36 H        5.2470    -1.0910    -0.4180 H     1 <1>   0.0800 
 37 H        1.1680    -4.6970     3.0980 H     1 <1>   0.1500 
 38 H        5.0090     1.2690     0.1580 H     1 <1>   0.0800 
 39 H        4.9790     1.1060    -1.5760 H     1 <1>   0.0800 
 40 H       -0.7640    -4.9490    -1.7280 H     1 <1>   0.4000 
 41 H       -1.2750    -7.0990    -1.7140 H     1 <1>   0.0800 
 42 H       -2.6920    -6.3980     0.1120 H     1 <1>   0.0800 
 43 H       -1.4370    -6.7360     1.2720 H     1 <1>   0.0800 
 44 H        0.9630    -7.4930     0.2620 H     1 <1>   0.0800 
 45 H        1.0550    -7.7010    -1.4650 H     1 <1>   0.0800 
 46 H        0.7890    -9.8590    -0.2120 H     1 <1>   0.0800 
 47 H       -0.4850    -9.5940    -1.3630 H     1 <1>   0.0800 
 48 H       -1.4250   -10.3980     0.7480 H     1 <1>   0.0800 
 49 H       -0.6620    -9.1000     1.6190 H     1 <1>   0.0800 
 50 H       -3.9460   -10.7030     1.1860 H     1 <1>   0.1000 
 51 H       -3.1510   -12.2790    -0.6300 H     1 <1>   0.1000 
 52 H       -2.9010   -10.8950    -1.7390 H     1 <1>   0.1000 
 53 H       -5.3400   -10.2640    -1.5200 H     1 <1>   0.1000 
 54 H       -5.6020   -11.6510    -0.4190 H     1 <1>   0.1000 
@<TRIPOS>BOND
  1   1   2  2   
  2   2   3  am  
  3   2   4  1   
  4   3   5  1   
  5   3   6  1   
  6   4   7  ar  
  7   4   8  ar  
  8   5   9  1   
  9   5  27  1   
 10   5  28  1   
 11   6  10  1   
 12   6  29  1   
 13   6  30  1   
 14   7  11  ar  
 15   7  31  1   
 16   8  12  ar  
 17   8  32  1   
 18   9  13  1   
 19   9  33  1   
 20   9  34  1   
 21  10  13  1   
 22  10  35  1   
 23  10  36  1   
 24  11  14  ar  
 25  11  15  1   
 26  12  14  ar  
 27  12  37  1   
 28  13  38  1   
 29  13  39  1   
 30  15  16  1   
 31  15  40  1   
 32  16  17  1   
 33  16  18  1   
 34  16  41  1   
 35  17  19  1   
 36  17  42  1   
 37  17  43  1   
 38  18  20  1   
 39  18  44  1   
 40  18  45  1   
 41  19  21  am  
 42  19  22  1   
 43  20  22  1   
 44  20  46  1   
 45  20  47  1   
 46  21  23  2   
 47  21  24  1   
 48  22  48  1   
 49  22  49  1   
 50  24  25  1   
 51  24  26  1   
 52  24  50  1   
 53  25  26  1   
 54  25  51  1   
 55  25  52  1   
 56  26  53  1   
 57  26  54  1   
@<TRIPOS>SUBSTRUCTURE
  1 ****  11 GROUP 4 **** **** 0

# MOE 2024.06 (io_trps.svl 2023.06)
