@<TRIPOS>MOLECULE
Untitled Document
44 47 1 0 0 
SMALL
USER_CHARGES


@<TRIPOS>ATOM
  1 O       -0.3340     0.9830    -1.9510 O.2   1 <1>  -0.5700 
  2 C        0.5050     1.6880    -1.4440 C.2   1 <1>   0.5690 
  3 N        0.1500     2.7260    -0.6310 N.am  1 <1>  -0.5100 
  4 C        1.9470     1.3930    -1.7760 C.3   1 <1>   0.1010 
  5 C        0.7620     3.9540     0.0050 C.3   1 <1>   0.2250 
  6 C       -1.2360     3.2400    -0.3830 C.3   1 <1>   0.2250 
  7 C        2.6060     0.7090    -0.6400 C.1   1 <1>   0.3570 
  8 C       -0.6320     4.1920     0.6750 C.3   1 <1>   0.0000 
  9 C        1.2310     4.9670    -1.0730 C.3   1 <1>   0.2090 
 10 C        1.8360     3.6160     1.0580 C.3   1 <1>  -0.1600 
 11 N        3.1510     0.2200     0.2310 N.1   1 <1>  -0.5570 
 12 C       -1.2210     5.6110     0.6740 C.3   1 <1>  -0.2400 
 13 N        2.1370     6.0250    -0.5000 N.pl3 1 <1>  -0.8380 
 14 C        3.2400     4.0250     0.5910 C.3   1 <1>  -0.1600 
 15 C        1.8640     7.3870    -0.6390 C.ar  1 <1>   0.4100 
 16 C        3.3090     5.5280     0.2810 C.3   1 <1>   0.2090 
 17 N        0.6810     7.7060    -1.1190 N.ar  1 <1>  -0.6200 
 18 C        2.7750     8.4130    -0.2950 C.ar  1 <1>   0.0000 
 19 C        0.3890     9.0050    -1.2370 C.ar  1 <1>   0.4700 
 20 C        2.3340     9.7120    -0.4680 C.ar  1 <1>   0.1050 
 21 C        4.1020     8.5430     0.1990 C.2   1 <1>  -0.1500 
 22 N        1.1310    10.0370    -0.9400 N.ar  1 <1>  -0.5670 
 23 N        3.3060    10.5870    -0.0970 N.pl3 1 <1>   0.0330 
 24 C        4.3890     9.8630     0.3090 C.2   1 <1>  -0.3020 
 25 H        2.4690     2.2970    -2.0100 H     1 <1>   0.0800 
 26 H        1.9880     0.7490    -2.6340 H     1 <1>   0.0800 
 27 H       -1.8820     2.4860     0.0280 H     1 <1>   0.0000 
 28 H       -1.6260     3.7370    -1.2540 H     1 <1>   0.0000 
 29 H       -0.6900     3.7530     1.6570 H     1 <1>   0.0000 
 30 H        0.3810     5.3880    -1.5750 H     1 <1>   0.0800 
 31 H        1.7960     4.4440    -1.8210 H     1 <1>   0.0800 
 32 H        1.8010     2.5760     1.3280 H     1 <1>   0.0800 
 33 H        1.6260     4.1830     1.9490 H     1 <1>   0.0800 
 34 H       -1.3490     5.9860    -0.3240 H     1 <1>   0.0800 
 35 H       -0.5680     6.2770     1.2100 H     1 <1>   0.0800 
 36 H       -2.1810     5.6080     1.1570 H     1 <1>   0.0800 
 37 H        3.5280     3.4720    -0.2820 H     1 <1>   0.0800 
 38 H        3.9550     3.7950     1.3610 H     1 <1>   0.0800 
 39 H        3.3470     6.0670     1.2140 H     1 <1>   0.0800 
 40 H        4.2110     5.7280    -0.2710 H     1 <1>   0.0800 
 41 H       -0.5910     9.2170    -1.6290 H     1 <1>   0.1500 
 42 H        4.7650     7.7350     0.4390 H     1 <1>   0.1500 
 43 H        3.2040    11.6050    -0.1400 H     1 <1>   0.2700 
 44 H        5.2960    10.3330     0.6490 H     1 <1>   0.1500 
@<TRIPOS>BOND
  1   1   2  2   
  2   2   3  am  
  3   2   4  1   
  4   3   5  1   
  5   3   6  1   
  6   4   7  1   
  7   4  25  1   
  8   4  26  1   
  9   5   8  1   
 10   5   9  1   
 11   5  10  1   
 12   6   8  1   
 13   6  27  1   
 14   6  28  1   
 15   7  11  3   
 16   8  12  1   
 17   8  29  1   
 18   9  13  1   
 19   9  30  1   
 20   9  31  1   
 21  10  14  1   
 22  10  32  1   
 23  10  33  1   
 24  12  34  1   
 25  12  35  1   
 26  12  36  1   
 27  13  15  1   
 28  13  16  1   
 29  14  16  1   
 30  14  37  1   
 31  14  38  1   
 32  15  17  ar  
 33  15  18  ar  
 34  16  39  1   
 35  16  40  1   
 36  17  19  ar  
 37  18  20  ar  
 38  18  21  1   
 39  19  22  ar  
 40  19  41  1   
 41  20  22  ar  
 42  20  23  1   
 43  21  24  2   
 44  21  42  1   
 45  23  24  1   
 46  23  43  1   
 47  24  44  1   
@<TRIPOS>SUBSTRUCTURE
  1 ****  13 GROUP 4 **** **** 0

# MOE 2024.06 (io_trps.svl 2023.06)
