@<TRIPOS>MOLECULE
NONAME
47 49 1 0 0 
SMALL
USER_CHARGES


@<TRIPOS>ATOM
  1 O        3.4400    -1.8450     1.8970 O.2   1 <1>  -0.5700 
  2 C        2.7170    -1.6400     0.9380 C.2   1 <1>   0.5440 
  3 N        2.8050    -0.3860     0.3840 N.am  1 <1>  -0.6600 
  4 C        1.9210    -2.7080     0.3590 C.ar  1 <1>   0.0860 
  5 C        3.0140     0.8030     1.2860 C.3   1 <1>   0.2200 
  6 C        3.0150    -0.2400    -1.0810 C.3   1 <1>   0.1400 
  7 C        0.6320    -2.5080    -0.1580 C.ar  1 <1>   0.0830 
  8 C        2.4510    -3.9990     0.3060 C.ar  1 <1>  -0.1500 
  9 C        2.4440     2.1060     0.7040 C.3   1 <1>   0.1200 
 10 C        4.5120     0.9730     1.6340 C.3   1 <1>   0.3430 
 11 C        4.0720     0.8210    -1.4420 C.3   1 <1>  -0.0800 
 12 O        0.0870    -1.2670    -0.0760 O.3   1 <1>  -0.3630 
 13 C       -0.0640    -3.5710    -0.7290 C.ar  1 <1>  -0.1500 
 14 C        1.7580    -5.0540    -0.2570 C.ar  1 <1>  -0.1440 
 15 O        3.3870     2.7320    -0.1180 O.3   1 <1>  -0.5600 
 16 N        5.3890     0.1880     0.7000 N.4   1 <1>  -0.9590 
 17 C        3.4820     2.2410    -1.4130 C.3   1 <1>   0.1200 
 18 C        5.4300     0.7250    -0.7020 C.3   1 <1>   0.3430 
 19 C       -1.2670    -1.0080    -0.3820 C.3   1 <1>   0.0400 
 20 C        0.4970    -4.8320    -0.7790 C.ar  1 <1>  -0.1500 
 21 C        2.3570    -6.4490    -0.3040 C.3   1 <1>  -0.0970 
 22 C        6.7450    -0.0200     1.2750 C.3   1 <1>   0.2630 
 23 H        2.4790     0.6140     2.2020 H     1 <1>   0.0800 
 24 H        3.3260    -1.1900    -1.4830 H     1 <1>   0.0800 
 25 H        2.0730     0.0060    -1.5420 H     1 <1>   0.0800 
 26 H        3.4290    -4.1710     0.7210 H     1 <1>   0.1500 
 27 H        2.2410     2.7910     1.5090 H     1 <1>   0.0800 
 28 H        1.5270     1.9380     0.1660 H     1 <1>   0.0800 
 29 H        4.6530     0.6070     2.6370 H     1 <1>   0.0800 
 30 H        4.7800     2.0160     1.6210 H     1 <1>   0.0800 
 31 H        4.2960     0.6550    -2.4810 H     1 <1>   0.0800 
 32 H       -1.0460    -3.4420    -1.1410 H     1 <1>   0.1500 
 33 H        4.8920    -0.7240     0.6720 H     1 <1>   0.4500 
 34 H        2.5080     2.2780    -1.8720 H     1 <1>   0.0800 
 35 H        4.1270     2.9150    -1.9520 H     1 <1>   0.0800 
 36 H        5.8830     1.7030    -0.6930 H     1 <1>   0.0800 
 37 H        6.0710     0.0830    -1.2830 H     1 <1>   0.0800 
 38 H       -1.4710     0.0220    -0.1550 H     1 <1>   0.0800 
 39 H       -1.8890    -1.6440     0.2240 H     1 <1>   0.0800 
 40 H       -1.4320    -1.1910    -1.4280 H     1 <1>   0.0800 
 41 H       -0.0530    -5.6460    -1.2220 H     1 <1>   0.1500 
 42 H        1.7220    -7.1370     0.2250 H     1 <1>   0.0800 
 43 H        3.3310    -6.4680     0.1490 H     1 <1>   0.0800 
 44 H        2.4480    -6.7750    -1.3250 H     1 <1>   0.0800 
 45 H        7.2580     0.9230     1.3730 H     1 <1>   0.0800 
 46 H        7.3250    -0.6680     0.6380 H     1 <1>   0.0800 
 47 H        6.6680    -0.4770     2.2480 H     1 <1>   0.0800 
@<TRIPOS>BOND
  1   1   2  2   
  2   2   3  am  
  3   2   4  1   
  4   3   5  1   
  5   3   6  1   
  6   4   7  ar  
  7   4   8  ar  
  8   5   9  1   
  9   5  10  1   
 10   5  23  1   
 11   6  11  1   
 12   6  24  1   
 13   6  25  1   
 14   7  12  1   
 15   7  13  ar  
 16   8  14  ar  
 17   8  26  1   
 18   9  15  1   
 19   9  27  1   
 20   9  28  1   
 21  10  16  1   
 22  10  29  1   
 23  10  30  1   
 24  11  17  1   
 25  11  18  1   
 26  11  31  1   
 27  12  19  1   
 28  13  20  ar  
 29  13  32  1   
 30  14  20  ar  
 31  14  21  1   
 32  15  17  1   
 33  16  18  1   
 34  16  22  1   
 35  16  33  1   
 36  17  34  1   
 37  17  35  1   
 38  18  36  1   
 39  18  37  1   
 40  19  38  1   
 41  19  39  1   
 42  19  40  1   
 43  20  41  1   
 44  21  42  1   
 45  21  43  1   
 46  21  44  1   
 47  22  45  1   
 48  22  46  1   
 49  22  47  1   
@<TRIPOS>SUBSTRUCTURE
  1 ****   3 GROUP 4 **** **** 0

# MOE 2024.06 (io_trps.svl 2023.06)
