@<TRIPOS>MOLECULE
NONAME
47 50 1 0 0 
SMALL
USER_CHARGES


@<TRIPOS>ATOM
  1 O       -1.1780    -1.8060    -0.3280 O.2   1 <1>  -0.5700 
  2 C       -0.1920    -2.1200     0.3170 C.2   1 <1>   0.8410 
  3 N       -0.0610    -1.6440     1.5950 N.2   1 <1>  -0.6610 
  4 N        0.7670    -2.9560    -0.2320 N.am  1 <1>  -0.4690 
  5 C        0.9750    -1.9990     2.2640 C.2   1 <1>   0.3760 
  6 C        1.8630    -3.3320     0.5030 C.2   1 <1>  -0.0410 
  7 C        0.6040    -3.4870    -1.6220 C.3   1 <1>   0.2010 
  8 C        1.9810    -2.8550     1.7630 C.2   1 <1>  -0.1360 
  9 C        0.2870    -4.9810    -1.6380 C.2   1 <1>   0.5690 
 10 O        1.2020    -5.7440    -1.8450 O.2   1 <1>  -0.5700 
 11 N       -0.9860    -5.4440    -1.4310 N.am  1 <1>  -0.6600 
 12 C       -2.2000    -4.6270    -1.1700 C.3   1 <1>   0.1400 
 13 C       -1.3120    -6.8890    -1.4110 C.3   1 <1>   0.1400 
 14 C       -3.3560    -5.6250    -1.2210 C.3   1 <1>   0.2000 
 15 C       -2.7380    -6.9740    -0.8630 C.3   1 <1>  -0.0800 
 16 O       -4.3560    -5.3050    -0.3180 O.3   1 <1>  -0.6800 
 17 C       -3.5390    -8.1650    -1.4140 C.3   1 <1>  -0.0170 
 18 C       -2.9040    -9.4910    -1.0090 C.ar  1 <1>  -0.1430 
 19 C       -3.0540   -10.0350     0.2890 C.ar  1 <1>   0.0000 
 20 C       -2.1540   -10.1940    -1.9050 C.ar  1 <1>  -0.1500 
 21 C       -2.3990   -11.2600     0.5670 C.ar  1 <1>   0.3100 
 22 C       -3.8130    -9.4400     1.3240 C.ar  1 <1>  -0.1500 
 23 C       -1.5550   -11.4020    -1.5290 C.ar  1 <1>   0.1600 
 24 N       -1.6570   -11.9290    -0.3500 N.ar  1 <1>  -0.6200 
 25 C       -2.5180   -11.8180     1.8500 C.ar  1 <1>  -0.1500 
 26 C       -3.9100   -10.0120     2.5640 C.ar  1 <1>  -0.1500 
 27 C       -3.2540   -11.2150     2.8340 C.ar  1 <1>  -0.1500 
 28 H        1.0950    -1.6320     3.2680 H     1 <1>   0.0600 
 29 H        2.5860    -3.9970     0.0540 H     1 <1>   0.1500 
 30 H       -0.1640    -2.9550    -2.1510 H     1 <1>   0.0800 
 31 H        1.5230    -3.3320    -2.1570 H     1 <1>   0.0800 
 32 H        2.8100    -3.1040     2.3980 H     1 <1>   0.1500 
 33 H       -2.1250    -4.1880    -0.1910 H     1 <1>   0.0800 
 34 H       -2.3190    -3.8600    -1.9150 H     1 <1>   0.0800 
 35 H       -1.2600    -7.2700    -2.4170 H     1 <1>   0.0800 
 36 H       -0.6180    -7.4320    -0.7910 H     1 <1>   0.0800 
 37 H       -3.7830    -5.6410    -2.2100 H     1 <1>   0.0800 
 38 H       -2.6570    -7.0520     0.2070 H     1 <1>   0.0800 
 39 H       -3.9790    -5.1520     0.5710 H     1 <1>   0.4000 
 40 H       -3.5830    -8.0980    -2.4870 H     1 <1>   0.0800 
 41 H       -4.5550    -8.1220    -1.0610 H     1 <1>   0.0800 
 42 H       -2.0000    -9.8470    -2.9100 H     1 <1>   0.1500 
 43 H       -4.3290    -8.5180     1.1380 H     1 <1>   0.1500 
 44 H       -0.9700   -11.9250    -2.2670 H     1 <1>   0.1500 
 45 H       -2.0060   -12.7440     2.0340 H     1 <1>   0.1500 
 46 H       -4.4900    -9.5470     3.3420 H     1 <1>   0.1500 
 47 H       -3.3360   -11.6540     3.8130 H     1 <1>   0.1500 
@<TRIPOS>BOND
  1   1   2  2   
  2   2   3  1   
  3   2   4  am  
  4   3   5  2   
  5   4   6  1   
  6   4   7  1   
  7   5   8  1   
  8   5  28  1   
  9   6   8  2   
 10   6  29  1   
 11   7   9  1   
 12   7  30  1   
 13   7  31  1   
 14   8  32  1   
 15   9  10  2   
 16   9  11  am  
 17  11  12  1   
 18  11  13  1   
 19  12  14  1   
 20  12  33  1   
 21  12  34  1   
 22  13  15  1   
 23  13  35  1   
 24  13  36  1   
 25  14  15  1   
 26  14  16  1   
 27  14  37  1   
 28  15  17  1   
 29  15  38  1   
 30  16  39  1   
 31  17  18  1   
 32  17  40  1   
 33  17  41  1   
 34  18  19  ar  
 35  18  20  ar  
 36  19  21  ar  
 37  19  22  ar  
 38  20  23  ar  
 39  20  42  1   
 40  21  24  ar  
 41  21  25  ar  
 42  22  26  ar  
 43  22  43  1   
 44  23  24  ar  
 45  23  44  1   
 46  25  27  ar  
 47  25  45  1   
 48  26  27  ar  
 49  26  46  1   
 50  27  47  1   
@<TRIPOS>SUBSTRUCTURE
  1 ****  13 GROUP 4 **** **** 0

# MOE 2024.06 (io_trps.svl 2023.06)
