@<TRIPOS>MOLECULE
NONAME
49 50 1 0 0 
SMALL
USER_CHARGES


@<TRIPOS>ATOM
  1 O        2.2920    -1.1050     1.5970 O.2   1 <1>  -0.5700 
  2 C        2.1360    -1.2340     0.4060 C.2   1 <1>   0.5690 
  3 N        2.0600    -0.1840    -0.4720 N.am  1 <1>  -0.5470 
  4 C        2.0150    -2.6550    -0.1600 C.3   1 <1>   0.1710 
  5 C        2.1620     1.2030    -0.2790 C.ar  1 <1>   0.1170 
  6 N        0.6320    -3.1780    -0.3540 N.3   1 <1>  -0.8100 
  7 C        1.6860     2.0470    -1.2760 C.ar  1 <1>  -0.1500 
  8 C        2.7290     1.7810     0.8510 C.ar  1 <1>  -0.1500 
  9 C       -0.1160    -3.1810     0.9310 C.3   1 <1>   0.2900 
 10 C       -0.1170    -2.4500    -1.3910 C.3   1 <1>   0.0300 
 11 C        1.7710     3.4210    -1.1480 C.ar  1 <1>  -0.1500 
 12 C        2.8140     3.1550     0.9810 C.ar  1 <1>  -0.1500 
 13 C       -1.3550    -4.0580     0.8380 C.2   1 <1>   0.0070 
 14 C        2.3360     3.9920    -0.0160 C.ar  1 <1>  -0.1430 
 15 N       -1.3350    -5.2220     0.1590 N.pl3 1 <1>   0.0330 
 16 N       -2.5030    -3.7920     1.3750 N.2   1 <1>  -0.5650 
 17 C        2.4360     5.5080     0.1450 C.3   1 <1>   0.0630 
 18 C       -2.5750    -5.7310     0.2790 C.2   1 <1>  -0.3320 
 19 C       -3.2710    -4.8430     1.0250 C.2   1 <1>   0.0770 
 20 C        1.0280     6.1300     0.2010 C.3   1 <1>  -0.1600 
 21 C        3.3000     6.1040    -0.9760 C.3   1 <1>  -0.2400 
 22 C       -3.0080    -7.0460    -0.3400 C.3   1 <1>  -0.0600 
 23 C        1.0290     7.6230     0.5590 C.3   1 <1>  -0.2400 
 24 H        1.8400    -0.4530    -1.4270 H     1 <1>   0.3700 
 25 H        2.5350    -3.3150     0.5120 H     1 <1>   0.0800 
 26 H        2.5380    -2.6970    -1.0990 H     1 <1>   0.0800 
 27 H        1.2420     1.6320    -2.1610 H     1 <1>   0.1500 
 28 H        3.1130     1.1610     1.6400 H     1 <1>   0.1500 
 29 H       -0.4030    -2.1800     1.2050 H     1 <1>   0.0800 
 30 H        0.5100    -3.5720     1.7150 H     1 <1>   0.0800 
 31 H        0.4370    -2.4420    -2.3130 H     1 <1>   0.0800 
 32 H       -0.3150    -1.4380    -1.0810 H     1 <1>   0.0800 
 33 H       -1.0610    -2.9360    -1.5730 H     1 <1>   0.0800 
 34 H        1.3930     4.0490    -1.9350 H     1 <1>   0.1500 
 35 H        3.2570     3.5690     1.8700 H     1 <1>   0.1500 
 36 H       -0.5260    -5.5840    -0.3530 H     1 <1>   0.2700 
 37 H        2.9270     5.7170     1.0800 H     1 <1>   0.0800 
 38 H       -4.3010    -4.9050     1.3340 H     1 <1>   0.1500 
 39 H        0.4560     5.6020     0.9450 H     1 <1>   0.0800 
 40 H        0.5310     5.9940    -0.7430 H     1 <1>   0.0800 
 41 H        2.8040     6.0220    -1.9260 H     1 <1>   0.0800 
 42 H        4.2360     5.5770    -1.0310 H     1 <1>   0.0800 
 43 H        3.5090     7.1400    -0.7830 H     1 <1>   0.0800 
 44 H       -2.4120    -7.8520     0.0480 H     1 <1>   0.0800 
 45 H       -2.8950    -7.0070    -1.4090 H     1 <1>   0.0800 
 46 H       -4.0410    -7.2410    -0.1100 H     1 <1>   0.0800 
 47 H        1.5460     7.7870     1.4880 H     1 <1>   0.0800 
 48 H        0.0180     7.9720     0.6660 H     1 <1>   0.0800 
 49 H        1.5040     8.2030    -0.2120 H     1 <1>   0.0800 
@<TRIPOS>BOND
  1   1   2  2   
  2   2   3  am  
  3   2   4  1   
  4   3   5  1   
  5   3  24  1   
  6   4   6  1   
  7   4  25  1   
  8   4  26  1   
  9   5   7  ar  
 10   5   8  ar  
 11   6   9  1   
 12   6  10  1   
 13   7  11  ar  
 14   7  27  1   
 15   8  12  ar  
 16   8  28  1   
 17   9  13  1   
 18   9  29  1   
 19   9  30  1   
 20  10  31  1   
 21  10  32  1   
 22  10  33  1   
 23  11  14  ar  
 24  11  34  1   
 25  12  14  ar  
 26  12  35  1   
 27  13  15  1   
 28  13  16  2   
 29  14  17  1   
 30  15  18  1   
 31  15  36  1   
 32  16  19  1   
 33  17  20  1   
 34  17  21  1   
 35  17  37  1   
 36  18  19  2   
 37  18  22  1   
 38  19  38  1   
 39  20  23  1   
 40  20  39  1   
 41  20  40  1   
 42  21  41  1   
 43  21  42  1   
 44  21  43  1   
 45  22  44  1   
 46  22  45  1   
 47  22  46  1   
 48  23  47  1   
 49  23  48  1   
 50  23  49  1   
@<TRIPOS>SUBSTRUCTURE
  1 ****   3 GROUP 4 **** **** 0

# MOE 2024.06 (io_trps.svl 2023.06)
