@<TRIPOS>MOLECULE
NONAME
44 46 1 0 0 
SMALL
USER_CHARGES


@<TRIPOS>ATOM
  1 O       -1.1190    -0.4890     0.5800 O.3   1 <1>  -0.5600 
  2 C       -1.5660     0.6390     1.2650 C.3   1 <1>   0.1200 
  3 C       -1.2240    -0.4890    -0.8060 C.3   1 <1>   0.1200 
  4 C       -3.0840     0.8930     1.1290 C.3   1 <1>   0.4230 
  5 C       -2.6700    -0.7620    -1.2480 C.3   1 <1>  -0.0800 
  6 N       -3.4130     1.4840    -0.2310 N.4   1 <1>  -0.9590 
  7 C       -3.9290    -0.3380     1.5820 C.3   1 <1>   0.2090 
  8 C       -3.3620    -1.8570    -0.4130 C.3   1 <1>   0.2090 
  9 C       -3.5400     0.5000    -1.3610 C.3   1 <1>   0.3430 
 10 C       -4.6810     2.2700    -0.1490 C.3   1 <1>   0.2630 
 11 N       -4.3830    -1.2750     0.5040 N.pl3 1 <1>  -0.8380 
 12 C       -5.7330    -1.5300     0.3350 C.ar  1 <1>   0.4100 
 13 N       -6.4480    -0.4610     0.0020 N.ar  1 <1>  -0.6200 
 14 C       -6.2800    -2.8090     0.5040 C.ar  1 <1>   0.0730 
 15 C       -7.7450    -0.6430    -0.1810 C.ar  1 <1>   0.1670 
 16 C       -5.4590    -3.9190     0.8770 C.1   1 <1>   0.4840 
 17 C       -7.6360    -2.9730     0.3110 C.ar  1 <1>  -0.1500 
 18 C       -8.3880    -1.8690    -0.0370 C.ar  1 <1>  -0.1430 
 19 C       -8.5230     0.6030    -0.5640 C.3   1 <1>  -0.0970 
 20 N       -4.8020    -4.8110     1.1480 N.1   1 <1>  -0.5570 
 21 C       -9.8890    -2.0390    -0.2440 C.3   1 <1>  -0.0970 
 22 H       -1.3340     0.4720     2.3030 H     1 <1>   0.0800 
 23 H       -0.9980     1.4910     0.9360 H     1 <1>   0.0800 
 24 H       -0.8390     0.4370    -1.1990 H     1 <1>   0.0800 
 25 H       -0.5910    -1.2890    -1.1550 H     1 <1>   0.0800 
 26 H       -3.2890     1.6600     1.8560 H     1 <1>   0.0800 
 27 H       -2.5990    -1.1560    -2.2460 H     1 <1>   0.0800 
 28 H       -2.6480     2.1240    -0.4720 H     1 <1>   0.4500 
 29 H       -4.7990     0.0330     2.0950 H     1 <1>   0.0800 
 30 H       -3.3670    -0.9010     2.3070 H     1 <1>   0.0800 
 31 H       -2.6460    -2.4290     0.1540 H     1 <1>   0.0800 
 32 H       -3.8530    -2.5420    -1.0850 H     1 <1>   0.0800 
 33 H       -4.5670     0.1800    -1.4360 H     1 <1>   0.0800 
 34 H       -3.3000     1.0020    -2.2830 H     1 <1>   0.0800 
 35 H       -5.4940     1.6330     0.1540 H     1 <1>   0.0800 
 36 H       -4.9210     2.6970    -1.1090 H     1 <1>   0.0800 
 37 H       -4.5850     3.0670     0.5680 H     1 <1>   0.0800 
 38 H       -8.0910    -3.9410     0.4320 H     1 <1>   0.1500 
 39 H       -9.2400     0.3830    -1.3330 H     1 <1>   0.0800 
 40 H       -7.8610     1.3610    -0.9380 H     1 <1>   0.0800 
 41 H       -9.0360     0.9870     0.2980 H     1 <1>   0.0800 
 42 H      -10.2140    -3.0150     0.0690 H     1 <1>   0.0800 
 43 H      -10.1350    -1.9210    -1.2840 H     1 <1>   0.0800 
 44 H      -10.4320    -1.3100     0.3300 H     1 <1>   0.0800 
@<TRIPOS>BOND
  1   1   2  1   
  2   1   3  1   
  3   2   4  1   
  4   2  22  1   
  5   2  23  1   
  6   3   5  1   
  7   3  24  1   
  8   3  25  1   
  9   4   6  1   
 10   4   7  1   
 11   4  26  1   
 12   5   8  1   
 13   5   9  1   
 14   5  27  1   
 15   6   9  1   
 16   6  10  1   
 17   6  28  1   
 18   7  11  1   
 19   7  29  1   
 20   7  30  1   
 21   8  11  1   
 22   8  31  1   
 23   8  32  1   
 24   9  33  1   
 25   9  34  1   
 26  10  35  1   
 27  10  36  1   
 28  10  37  1   
 29  11  12  1   
 30  12  13  ar  
 31  12  14  ar  
 32  13  15  ar  
 33  14  16  1   
 34  14  17  ar  
 35  15  18  ar  
 36  15  19  1   
 37  16  20  3   
 38  17  18  ar  
 39  17  38  1   
 40  18  21  1   
 41  19  39  1   
 42  19  40  1   
 43  19  41  1   
 44  21  42  1   
 45  21  43  1   
 46  21  44  1   
@<TRIPOS>SUBSTRUCTURE
  1 ****  11 GROUP 4 **** **** 0

# MOE 2024.06 (io_trps.svl 2023.06)
