@<TRIPOS>MOLECULE
NONAME
47 49 1 0 0 
SMALL
USER_CHARGES


@<TRIPOS>ATOM
  1 O        0.4280     1.2090    -0.9690 O.3   1 <1>  -0.0190 
  2 N        1.1280     0.1260    -1.1460 N.2   1 <1>  -0.4100 
  3 C        0.8320     1.8830     0.0740 C.2   1 <1>  -0.0400 
  4 C        1.9930     0.1010    -0.1970 C.2   1 <1>   0.1080 
  5 C        1.8530     1.2140     0.6280 C.2   1 <1>  -0.1500 
  6 C        0.1510     3.1860     0.4510 C.3   1 <1>   0.0200 
  7 C        3.0200    -0.9930    -0.0110 C.3   1 <1>  -0.0590 
  8 C        0.2710     4.2250    -0.6770 C.3   1 <1>  -0.0800 
  9 C       -0.4070     5.5620    -0.3960 C.3   1 <1>   0.2000 
 10 C        1.7200     4.5860    -1.0330 C.3   1 <1>   0.1100 
 11 O       -0.2130     5.9110     0.9500 O.3   1 <1>  -0.5600 
 12 C        0.3710     6.5000    -1.3210 C.3   1 <1>   0.1100 
 13 N        1.7690     6.0320    -1.3270 N.3   1 <1>  -0.8100 
 14 C       -1.0000     6.9680     1.4050 C.3   1 <1>   0.0400 
 15 C        2.5960     6.7510    -0.3200 C.3   1 <1>   0.2900 
 16 C        2.7700     8.2570    -0.5390 C.2   1 <1>   0.2980 
 17 O        3.3860     8.9410     0.3720 O.3   1 <1>  -0.2800 
 18 N        2.3880     8.9990    -1.5130 N.2   1 <1>  -0.3380 
 19 C        3.3730    10.1540    -0.0800 C.2   1 <1>   0.2980 
 20 N        2.7800    10.2380    -1.2110 N.2   1 <1>  -0.3380 
 21 C        4.0230    11.2670     0.7410 C.3   1 <1>   0.1000 
 22 C        3.6660    12.6660     0.2150 C.3   1 <1>  -0.2400 
 23 C        5.5480    11.0950     0.7720 C.3   1 <1>  -0.2400 
 24 H        2.4420     1.4480     1.4950 H     1 <1>   0.1500 
 25 H       -0.8870     2.9930     0.6540 H     1 <1>   0.0800 
 26 H        0.6010     3.5630     1.3530 H     1 <1>   0.0800 
 27 H        2.8900    -1.4550     0.9510 H     1 <1>   0.0800 
 28 H        4.0090    -0.5800    -0.0770 H     1 <1>   0.0800 
 29 H        2.9020    -1.7400    -0.7750 H     1 <1>   0.0800 
 30 H       -0.1780     3.8150    -1.5650 H     1 <1>   0.0800 
 31 H       -1.4610     5.5370    -0.6130 H     1 <1>   0.0800 
 32 H        2.0360     4.0300    -1.9000 H     1 <1>   0.0800 
 33 H        2.3790     4.3390    -0.2170 H     1 <1>   0.0800 
 34 H        0.2710     7.5320    -1.0390 H     1 <1>   0.0800 
 35 H       -0.0140     6.3940    -2.3200 H     1 <1>   0.0800 
 36 H       -0.7950     7.1100     2.4510 H     1 <1>   0.0800 
 37 H       -2.0390     6.7230     1.2710 H     1 <1>   0.0800 
 38 H       -0.7490     7.8650     0.8660 H     1 <1>   0.0800 
 39 H        2.1770     6.6030     0.6590 H     1 <1>   0.0800 
 40 H        3.5800     6.3180    -0.3200 H     1 <1>   0.0800 
 41 H        3.6490    11.1840     1.7460 H     1 <1>   0.0800 
 42 H        4.0300    12.7920    -0.7900 H     1 <1>   0.0800 
 43 H        4.1000    13.4260     0.8390 H     1 <1>   0.0800 
 44 H        2.5980    12.7950     0.2080 H     1 <1>   0.0800 
 45 H        5.9490    11.1560    -0.2240 H     1 <1>   0.0800 
 46 H        5.8050    10.1360     1.1860 H     1 <1>   0.0800 
 47 H        6.0010    11.8600     1.3770 H     1 <1>   0.0800 
@<TRIPOS>BOND
  1   1   2  1   
  2   1   3  1   
  3   2   4  2   
  4   3   5  2   
  5   3   6  1   
  6   4   5  1   
  7   4   7  1   
  8   5  24  1   
  9   6   8  1   
 10   6  25  1   
 11   6  26  1   
 12   7  27  1   
 13   7  28  1   
 14   7  29  1   
 15   8   9  1   
 16   8  10  1   
 17   8  30  1   
 18   9  11  1   
 19   9  12  1   
 20   9  31  1   
 21  10  13  1   
 22  10  32  1   
 23  10  33  1   
 24  11  14  1   
 25  12  13  1   
 26  12  34  1   
 27  12  35  1   
 28  13  15  1   
 29  14  36  1   
 30  14  37  1   
 31  14  38  1   
 32  15  16  1   
 33  15  39  1   
 34  15  40  1   
 35  16  17  1   
 36  16  18  2   
 37  17  19  1   
 38  18  20  1   
 39  19  20  2   
 40  19  21  1   
 41  21  22  1   
 42  21  23  1   
 43  21  41  1   
 44  22  42  1   
 45  22  43  1   
 46  22  44  1   
 47  23  45  1   
 48  23  46  1   
 49  23  47  1   
@<TRIPOS>SUBSTRUCTURE
  1 ****  13 GROUP 4 **** **** 0

# MOE 2024.06 (io_trps.svl 2023.06)
