@<TRIPOS>MOLECULE
NONAME
36 37 1 0 0 
SMALL
USER_CHARGES


@<TRIPOS>ATOM
  1 O        0.3340     0.9100     1.6290 O.co2 1 <1>  -0.9000 
  2 C       -0.0340     2.0890     1.8090 C.2   1 <1>   1.0330 
  3 O       -0.8330     2.3180     2.7380 O.co2 1 <1>  -0.9000 
  4 C        0.4800     3.1340     0.9200 C.2   1 <1>  -0.0060 
  5 N        0.2410     4.4900     0.9510 N.2   1 <1>  -0.5650 
  6 C        1.3080     2.9100    -0.1210 C.2   1 <1>  -0.0100 
  7 C        0.9270     4.9520    -0.0300 C.2   1 <1>   0.2980 
  8 O        1.5780     4.0380    -0.7120 O.3   1 <1>  -0.2800 
  9 C        1.0010     6.4140    -0.4760 C.3   1 <1>   0.2900 
 10 N        2.2190     7.1820    -0.0650 N.3   1 <1>  -0.8100 
 11 C        2.2630     8.5600    -0.6450 C.3   1 <1>   0.3340 
 12 C        3.4470     6.4270    -0.3940 C.3   1 <1>   0.0300 
 13 C        3.5130     9.3320    -0.1820 C.ar  1 <1>   0.1660 
 14 C        0.9860     9.3600    -0.2890 C.3   1 <1>  -0.1600 
 15 N        4.2600     9.9000    -1.1240 N.ar  1 <1>  -0.6200 
 16 C        3.8050     9.4030     1.1740 C.ar  1 <1>  -0.1500 
 17 C        1.0210    10.8300    -0.7400 C.3   1 <1>  -0.2400 
 18 C        5.3240    10.5600    -0.6950 C.ar  1 <1>   0.1600 
 19 C        4.9160    10.0950     1.6050 C.ar  1 <1>  -0.1500 
 20 C        5.6910    10.6880     0.6330 C.ar  1 <1>  -0.1500 
 21 H        1.7260     1.9850    -0.4750 H     1 <1>   0.1500 
 22 H        0.1340     6.8860    -0.0520 H     1 <1>   0.0800 
 23 H        0.9050     6.4370    -1.5460 H     1 <1>   0.0800 
 24 H        2.3160     8.4740    -1.7170 H     1 <1>   0.0800 
 25 H        3.4670     5.4990     0.1500 H     1 <1>   0.0800 
 26 H        4.3290     6.9730    -0.1100 H     1 <1>   0.0800 
 27 H        3.4920     6.2190    -1.4490 H     1 <1>   0.0800 
 28 H        0.8360     9.3260     0.7760 H     1 <1>   0.0800 
 29 H        0.1350     8.9120    -0.7670 H     1 <1>   0.0800 
 30 H        3.1620     8.9090     1.8810 H     1 <1>   0.1500 
 31 H        1.7800    11.3770    -0.2090 H     1 <1>   0.0800 
 32 H        0.0720    11.2980    -0.5450 H     1 <1>   0.0800 
 33 H        1.2270    10.8940    -1.7940 H     1 <1>   0.0800 
 34 H        5.9380    11.0270    -1.4460 H     1 <1>   0.1500 
 35 H        5.1650    10.1650     2.6500 H     1 <1>   0.1500 
 36 H        6.5720    11.2440     0.8990 H     1 <1>   0.1500 
@<TRIPOS>BOND
  1   1   2  ar  
  2   2   3  ar  
  3   2   4  1   
  4   4   5  1   
  5   4   6  2   
  6   5   7  2   
  7   6   8  1   
  8   6  21  1   
  9   7   8  1   
 10   7   9  1   
 11   9  10  1   
 12   9  22  1   
 13   9  23  1   
 14  10  11  1   
 15  10  12  1   
 16  11  13  1   
 17  11  14  1   
 18  11  24  1   
 19  12  25  1   
 20  12  26  1   
 21  12  27  1   
 22  13  15  ar  
 23  13  16  ar  
 24  14  17  1   
 25  14  28  1   
 26  14  29  1   
 27  15  18  ar  
 28  16  19  ar  
 29  16  30  1   
 30  17  31  1   
 31  17  32  1   
 32  17  33  1   
 33  18  20  ar  
 34  18  34  1   
 35  19  20  ar  
 36  19  35  1   
 37  20  36  1   
@<TRIPOS>SUBSTRUCTURE
  1 ****  10 GROUP 4 **** **** 0

# MOE 2024.06 (io_trps.svl 2023.06)
