@<TRIPOS>MOLECULE
NONAME
46 48 1 0 0 
SMALL
USER_CHARGES


@<TRIPOS>ATOM
  1 CL       0.3500     0.2490     0.6050 Cl    1 <1>  -0.1770 
  2 C        0.3800     1.9300     0.1440 C.ar  1 <1>   0.1770 
  3 C        1.5620     2.6460     0.1910 C.ar  1 <1>   0.1600 
  4 C       -0.7770     2.5470    -0.2670 C.ar  1 <1>  -0.1500 
  5 N        1.6740     3.9240    -0.1370 N.ar  1 <1>  -0.6200 
  6 C       -0.6680     3.8780    -0.6150 C.ar  1 <1>  -0.1500 
  7 C        0.5550     4.5570    -0.5470 C.ar  1 <1>   0.3960 
  8 C        0.5860     5.9710    -0.9490 C.2   1 <1>   0.5440 
  9 O       -0.1310     6.3190    -1.8730 O.2   1 <1>  -0.5700 
 10 N        1.3500     6.9560    -0.3290 N.am  1 <1>  -0.6600 
 11 C        2.0440     6.7380     0.9800 C.3   1 <1>   0.1400 
 12 C        1.3560     8.3530    -0.8690 C.3   1 <1>   0.1400 
 13 C        3.5340     6.4120     0.7890 C.3   1 <1>   0.1400 
 14 C        2.6930     9.0940    -0.7220 C.3   1 <1>  -0.1600 
 15 N        4.3220     7.6160     0.3820 N.am  1 <1>  -0.6600 
 16 C        3.9250     8.2080    -0.9250 C.3   1 <1>   0.1400 
 17 C        5.3410     8.1040     1.1740 C.2   1 <1>   0.5690 
 18 O        5.6840     7.5180     2.1820 O.2   1 <1>  -0.5700 
 19 C        6.0890     9.4130     0.8150 C.3   1 <1>   0.4040 
 20 O        6.6890     9.9820     1.9370 O.3   1 <1>  -0.6800 
 21 C        7.1740     9.2180    -0.2450 C.ar  1 <1>  -0.1440 
 22 C        7.9370     8.0580    -0.3010 C.ar  1 <1>  -0.1500 
 23 C        7.4040    10.2190    -1.1790 C.ar  1 <1>  -0.1500 
 24 C        8.9000     7.8970    -1.2810 C.ar  1 <1>  -0.1500 
 25 C        8.3670    10.0590    -2.1600 C.ar  1 <1>  -0.1500 
 26 C        9.1150     8.8970    -2.2130 C.ar  1 <1>  -0.1500 
 27 H        2.4520     2.1330     0.5150 H     1 <1>   0.1500 
 28 H       -1.7100     2.0130    -0.3150 H     1 <1>   0.1500 
 29 H       -1.5390     4.4120    -0.9520 H     1 <1>   0.1500 
 30 H        1.9430     7.6090     1.6030 H     1 <1>   0.0800 
 31 H        1.5770     5.9230     1.5030 H     1 <1>   0.0800 
 32 H        1.1210     8.3200    -1.9200 H     1 <1>   0.0800 
 33 H        0.5760     8.9160    -0.3860 H     1 <1>   0.0800 
 34 H        3.6490     5.6430     0.0460 H     1 <1>   0.0800 
 35 H        3.9130     6.0190     1.7160 H     1 <1>   0.0800 
 36 H        2.7390     9.5800     0.2370 H     1 <1>   0.0800 
 37 H        2.7070     9.8710    -1.4640 H     1 <1>   0.0800 
 38 H        4.7310     8.7920    -1.3300 H     1 <1>   0.0800 
 39 H        3.7140     7.4240    -1.6340 H     1 <1>   0.0800 
 40 H        5.3710    10.1290     0.4630 H     1 <1>   0.0800 
 41 H        7.0050     9.2420     2.4960 H     1 <1>   0.4000 
 42 H        7.7900     7.2690     0.4180 H     1 <1>   0.1500 
 43 H        6.8360    11.1320    -1.1440 H     1 <1>   0.1500 
 44 H        9.4840     6.9940    -1.3170 H     1 <1>   0.1500 
 45 H        8.5380    10.8410    -2.8800 H     1 <1>   0.1500 
 46 H        9.8650     8.7720    -2.9750 H     1 <1>   0.1500 
@<TRIPOS>BOND
  1   1   2  1   
  2   2   3  ar  
  3   2   4  ar  
  4   3   5  ar  
  5   3  27  1   
  6   4   6  ar  
  7   4  28  1   
  8   5   7  ar  
  9   6   7  ar  
 10   6  29  1   
 11   7   8  1   
 12   8   9  2   
 13   8  10  am  
 14  10  11  1   
 15  10  12  1   
 16  11  13  1   
 17  11  30  1   
 18  11  31  1   
 19  12  14  1   
 20  12  32  1   
 21  12  33  1   
 22  13  15  1   
 23  13  34  1   
 24  13  35  1   
 25  14  16  1   
 26  14  36  1   
 27  14  37  1   
 28  15  16  1   
 29  15  17  am  
 30  16  38  1   
 31  16  39  1   
 32  17  18  2   
 33  17  19  1   
 34  19  20  1   
 35  19  21  1   
 36  19  40  1   
 37  20  41  1   
 38  21  22  ar  
 39  21  23  ar  
 40  22  24  ar  
 41  22  42  1   
 42  23  25  ar  
 43  23  43  1   
 44  24  26  ar  
 45  24  44  1   
 46  25  26  ar  
 47  25  45  1   
 48  26  46  1   
@<TRIPOS>SUBSTRUCTURE
  1 ****  13 GROUP 4 **** **** 0

# MOE 2024.06 (io_trps.svl 2023.06)
