@<TRIPOS>MOLECULE
NONAME
52 54 1 0 0 
SMALL
USER_CHARGES


@<TRIPOS>ATOM
  1 O        1.5140    -0.6040     1.3560 O.2   1 <1>  -0.5700 
  2 C        1.4770    -1.3220     0.3820 C.2   1 <1>   0.5690 
  3 N        2.6170    -1.6170    -0.3200 N.am  1 <1>  -0.6600 
  4 C        0.1210    -1.9030    -0.0410 C.3   1 <1>  -0.0190 
  5 C        3.9270    -1.0050    -0.0280 C.3   1 <1>   0.2810 
  6 C        2.7820    -2.7740    -1.1890 C.3   1 <1>   0.1400 
  7 C       -0.9850    -0.8280    -0.0580 C.3   1 <1>  -0.1600 
  8 C       -0.2870    -3.0750     0.8730 C.3   1 <1>  -0.1600 
  9 C        4.0540     0.5360    -0.2470 C.2   1 <1>   0.5690 
 10 C        4.9180    -1.8150    -0.8820 C.3   1 <1>  -0.1600 
 11 C        4.2420    -3.1780    -1.0200 C.3   1 <1>  -0.1600 
 12 C       -2.3390    -1.4200    -0.4770 C.3   1 <1>  -0.1600 
 13 C       -1.6410    -3.6690     0.4580 C.3   1 <1>  -0.1600 
 14 O        4.9160     1.0060    -0.9900 O.2   1 <1>  -0.5700 
 15 N        3.2100     1.3690     0.4180 N.am  1 <1>  -0.7300 
 16 C       -2.7330    -2.5920     0.4300 C.3   1 <1>  -0.1600 
 17 C        3.1590     2.8400     0.2630 C.3   1 <1>   0.1400 
 18 C        4.2200     3.5040     1.1410 C.3   1 <1>   0.0200 
 19 C        4.5580     4.8800     0.6010 C.2   1 <1>   0.0060 
 20 N        4.0930     5.9750     1.1080 N.2   1 <1>  -0.5650 
 21 N        5.3740     5.0760    -0.4670 N.pl3 1 <1>   0.0480 
 22 C        4.6290     6.9390     0.3380 C.2   1 <1>   0.0770 
 23 C        5.4110     6.4100    -0.6270 C.2   1 <1>  -0.3020 
 24 C        6.0690     4.0710    -1.2970 C.3   1 <1>   0.0160 
 25 H        0.2050    -2.2730    -1.0460 H     1 <1>   0.0800 
 26 H        4.1490    -1.1940     1.0230 H     1 <1>   0.0800 
 27 H        2.1330    -3.6040    -0.9030 H     1 <1>   0.0800 
 28 H        2.5900    -2.4870    -2.2250 H     1 <1>   0.0800 
 29 H       -1.0800    -0.3960     0.9240 H     1 <1>   0.0800 
 30 H       -0.7100    -0.0400    -0.7370 H     1 <1>   0.0800 
 31 H        0.4660    -3.8430     0.8400 H     1 <1>   0.0800 
 32 H       -0.3500    -2.7230     1.8890 H     1 <1>   0.0800 
 33 H        5.0160    -1.3640    -1.8720 H     1 <1>   0.0800 
 34 H        5.8930    -1.8860    -0.4010 H     1 <1>   0.0800 
 35 H        4.3640    -3.7550    -0.1010 H     1 <1>   0.0800 
 36 H        4.6120    -3.7340    -1.8820 H     1 <1>   0.0800 
 37 H       -3.0960    -0.6560    -0.4270 H     1 <1>   0.0800 
 38 H       -2.2820    -1.7600    -1.4970 H     1 <1>   0.0800 
 39 H       -1.5540    -4.1140    -0.5180 H     1 <1>   0.0800 
 40 H       -1.9200    -4.4450     1.1500 H     1 <1>   0.0800 
 41 H        2.4680     0.9330     0.9920 H     1 <1>   0.3700 
 42 H       -3.6570    -3.0230     0.0820 H     1 <1>   0.0800 
 43 H       -2.8970    -2.2270     1.4300 H     1 <1>   0.0800 
 44 H        3.3390     3.0810    -0.7710 H     1 <1>   0.0800 
 45 H        2.1820     3.2080     0.5240 H     1 <1>   0.0800 
 46 H        5.1150     2.9100     1.1650 H     1 <1>   0.0800 
 47 H        3.8470     3.5950     2.1450 H     1 <1>   0.0800 
 48 H        4.4190     7.9800     0.5220 H     1 <1>   0.1500 
 49 H        5.9750     6.9010    -1.3980 H     1 <1>   0.1500 
 50 H        6.7990     4.5570    -1.9170 H     1 <1>   0.0800 
 51 H        5.3530     3.5630    -1.9170 H     1 <1>   0.0800 
 52 H        6.5590     3.3550    -0.6640 H     1 <1>   0.0800 
@<TRIPOS>BOND
  1   1   2  2   
  2   2   3  am  
  3   2   4  1   
  4   3   5  1   
  5   3   6  1   
  6   4   7  1   
  7   4   8  1   
  8   4  25  1   
  9   5   9  1   
 10   5  10  1   
 11   5  26  1   
 12   6  11  1   
 13   6  27  1   
 14   6  28  1   
 15   7  12  1   
 16   7  29  1   
 17   7  30  1   
 18   8  13  1   
 19   8  31  1   
 20   8  32  1   
 21   9  14  2   
 22   9  15  am  
 23  10  11  1   
 24  10  33  1   
 25  10  34  1   
 26  11  35  1   
 27  11  36  1   
 28  12  16  1   
 29  12  37  1   
 30  12  38  1   
 31  13  16  1   
 32  13  39  1   
 33  13  40  1   
 34  15  17  1   
 35  15  41  1   
 36  16  42  1   
 37  16  43  1   
 38  17  18  1   
 39  17  44  1   
 40  17  45  1   
 41  18  19  1   
 42  18  46  1   
 43  18  47  1   
 44  19  20  2   
 45  19  21  1   
 46  20  22  1   
 47  21  23  1   
 48  21  24  1   
 49  22  23  2   
 50  22  48  1   
 51  23  49  1   
 52  24  50  1   
 53  24  51  1   
 54  24  52  1   
@<TRIPOS>SUBSTRUCTURE
  1 ****  15 GROUP 4 **** **** 0

# MOE 2024.06 (io_trps.svl 2023.06)
