@<TRIPOS>MOLECULE
NONAME
52 55 1 0 0 
SMALL
USER_CHARGES


@<TRIPOS>ATOM
  1 O        3.2900    -2.0060     1.7700 O.2   1 <1>  -0.5700 
  2 C        2.3170    -2.2180     1.0630 C.2   1 <1>   0.5440 
  3 N        1.5690    -1.1160     0.6880 N.am  1 <1>  -0.6600 
  4 C        2.0290    -3.5960     0.6500 C.ar  1 <1>   0.3960 
  5 C        1.8740     0.2540     1.1580 C.3   1 <1>   0.1400 
  6 C        0.4260    -1.1080    -0.2520 C.3   1 <1>   0.1400 
  7 N        0.7790    -3.9890     0.3450 N.ar  1 <1>  -0.6200 
  8 C        3.1010    -4.4920     0.5910 C.ar  1 <1>   0.1600 
  9 C        0.7200     1.1100     0.6500 C.3   1 <1>  -0.1600 
 10 C        0.1960     0.3640    -0.5740 C.3   1 <1>  -0.1600 
 11 C        0.6800    -5.2620     0.0020 C.ar  1 <1>   0.4100 
 12 N        3.0300    -5.7680     0.2360 N.ar  1 <1>  -0.6200 
 13 N       -0.5910    -5.7310    -0.2990 N.pl3 1 <1>  -0.8380 
 14 C        1.7930    -6.1140    -0.0560 C.ar  1 <1>   0.1600 
 15 C       -1.6330    -4.7760    -0.7910 C.3   1 <1>   0.2090 
 16 C       -1.1760    -6.7900     0.5810 C.3   1 <1>   0.2090 
 17 C       -2.7980    -5.5050    -1.4940 C.3   1 <1>   0.2090 
 18 C       -2.3170    -7.5420    -0.1310 C.3   1 <1>   0.2090 
 19 N       -3.3800    -6.6030    -0.6430 N.pl3 1 <1>  -0.8380 
 20 C       -4.6900    -6.7100    -0.2940 C.ar  1 <1>   0.4100 
 21 N       -4.9750    -7.3130     0.8470 N.ar  1 <1>  -0.6200 
 22 C       -5.7100    -6.2030    -1.1250 C.ar  1 <1>  -0.1500 
 23 C       -6.2410    -7.4060     1.1910 C.ar  1 <1>   0.7710 
 24 C       -7.0050    -6.3140    -0.7410 C.ar  1 <1>   0.2180 
 25 N       -7.2490    -6.9260     0.4420 N.ar  1 <1>  -0.1790 
 26 N       -6.4970    -8.0150     2.3460 N.pl3 1 <1>  -0.9000 
 27 C       -8.1760    -5.8030    -1.5640 C.3   1 <1>  -0.0970 
 28 H        2.8060     0.5730     0.7240 H     1 <1>   0.0800 
 29 H        1.9490     0.2810     2.2320 H     1 <1>   0.0800 
 30 H       -0.4350    -1.5230     0.2430 H     1 <1>   0.0800 
 31 H        0.6480    -1.6770    -1.1390 H     1 <1>   0.0800 
 32 H        4.0790    -4.1260     0.8530 H     1 <1>   0.1500 
 33 H        1.0380     2.1110     0.4170 H     1 <1>   0.0800 
 34 H       -0.0430     1.1520     1.4080 H     1 <1>   0.0800 
 35 H       -0.8410     0.5730    -0.7700 H     1 <1>   0.0800 
 36 H        0.7780     0.6270    -1.4390 H     1 <1>   0.0800 
 37 H        1.6220    -7.1270    -0.3650 H     1 <1>   0.1500 
 38 H       -1.1840    -4.0820    -1.4800 H     1 <1>   0.0800 
 39 H       -2.0170    -4.2140     0.0430 H     1 <1>   0.0800 
 40 H       -1.5630    -6.3340     1.4760 H     1 <1>   0.0800 
 41 H       -0.4160    -7.4930     0.8700 H     1 <1>   0.0800 
 42 H       -2.4340    -5.9280    -2.4140 H     1 <1>   0.0800 
 43 H       -3.5450    -4.7730    -1.7360 H     1 <1>   0.0800 
 44 H       -2.7320    -8.2670     0.5450 H     1 <1>   0.0800 
 45 H       -1.9020    -8.0820    -0.9640 H     1 <1>   0.0800 
 46 H       -5.4420    -5.7490    -2.0590 H     1 <1>   0.1500 
 47 H       -8.1900    -7.0500     0.7980 H     1 <1>   0.4570 
 48 H       -7.3960    -8.1940     2.7950 H     1 <1>   0.4000 
 49 H       -5.6930    -8.3570     2.8820 H     1 <1>   0.4000 
 50 H       -7.8260    -5.3470    -2.4730 H     1 <1>   0.0800 
 51 H       -8.7320    -5.0650    -1.0120 H     1 <1>   0.0800 
 52 H       -8.8330    -6.6130    -1.8280 H     1 <1>   0.0800 
@<TRIPOS>BOND
  1   1   2  2   
  2   2   3  am  
  3   2   4  1   
  4   3   5  1   
  5   3   6  1   
  6   4   7  ar  
  7   4   8  ar  
  8   5   9  1   
  9   5  28  1   
 10   5  29  1   
 11   6  10  1   
 12   6  30  1   
 13   6  31  1   
 14   7  11  ar  
 15   8  12  ar  
 16   8  32  1   
 17   9  10  1   
 18   9  33  1   
 19   9  34  1   
 20  10  35  1   
 21  10  36  1   
 22  11  13  1   
 23  11  14  ar  
 24  12  14  ar  
 25  13  15  1   
 26  13  16  1   
 27  14  37  1   
 28  15  17  1   
 29  15  38  1   
 30  15  39  1   
 31  16  18  1   
 32  16  40  1   
 33  16  41  1   
 34  17  19  1   
 35  17  42  1   
 36  17  43  1   
 37  18  19  1   
 38  18  44  1   
 39  18  45  1   
 40  19  20  1   
 41  20  21  ar  
 42  20  22  ar  
 43  21  23  ar  
 44  22  24  ar  
 45  22  46  1   
 46  23  25  ar  
 47  23  26  1   
 48  24  25  ar  
 49  24  27  1   
 50  25  47  1   
 51  26  48  1   
 52  26  49  1   
 53  27  50  1   
 54  27  51  1   
 55  27  52  1   
@<TRIPOS>SUBSTRUCTURE
  1 ****  15 GROUP 4 **** **** 0

# MOE 2024.06 (io_trps.svl 2023.06)
