@<TRIPOS>MOLECULE
NONAME
51 54 1 0 0 
SMALL
USER_CHARGES


@<TRIPOS>ATOM
  1 O       -0.5260    -1.2200    -0.5660 O.2   1 <1>  -0.5700 
  2 C        0.5880    -1.6120    -0.3100 C.2   1 <1>   0.5690 
  3 N        1.1710    -2.6410    -1.0010 N.am  1 <1>  -0.6600 
  4 C        1.3350    -0.9140     0.8140 C.3   1 <1>  -0.0990 
  5 C        2.4840    -3.2470    -0.6410 C.3   1 <1>   0.1400 
  6 C        0.4650    -3.3150    -2.1470 C.3   1 <1>   0.2010 
  7 C        2.4950    -1.7400     1.3860 C.3   1 <1>  -0.1600 
  8 C        3.3250    -2.3140     0.2360 C.3   1 <1>  -0.1600 
  9 C        0.2170    -4.8120    -1.9250 C.2   1 <1>   0.5690 
 10 O        0.8810    -5.5830    -2.5800 O.2   1 <1>  -0.5700 
 11 N       -0.7050    -5.2680    -1.0140 N.am  1 <1>  -0.6600 
 12 C       -0.8690    -6.7280    -0.7230 C.3   1 <1>   0.1400 
 13 C       -1.5870    -4.3970    -0.1730 C.3   1 <1>   0.1400 
 14 C       -2.3530    -7.1300    -0.6420 C.3   1 <1>   0.3430 
 15 C       -3.0270    -4.9430    -0.1020 C.3   1 <1>   0.2950 
 16 O       -3.0300    -6.2930     0.2580 O.3   1 <1>  -0.5600 
 17 C       -2.4920    -8.5820    -0.1950 C.ar  1 <1>  -0.1440 
 18 C       -3.8600    -4.1880     0.9380 C.3   1 <1>  -0.1950 
 19 C       -2.5450    -9.5900    -1.1480 C.ar  1 <1>  -0.1500 
 20 C       -2.5530    -8.9240     1.1490 C.ar  1 <1>  -0.1500 
 21 C       -5.3520    -4.1340     0.8500 C.3   1 <1>  -0.2000 
 22 C       -4.5360    -2.8980     0.5950 C.3   1 <1>  -0.2000 
 23 C       -2.6560   -10.9160    -0.7640 C.ar  1 <1>  -0.1500 
 24 C       -2.6640   -10.2480     1.5350 C.ar  1 <1>  -0.1500 
 25 C       -2.7150   -11.2460     0.5780 C.ar  1 <1>  -0.1500 
 26 H        1.7150     0.0110     0.4210 H     1 <1>   0.0800 
 27 H        0.6400    -0.6760     1.5990 H     1 <1>   0.0800 
 28 H        2.3010    -4.1670    -0.1100 H     1 <1>   0.0800 
 29 H        3.0310    -3.4830    -1.5380 H     1 <1>   0.0800 
 30 H       -0.4740    -2.8350    -2.3500 H     1 <1>   0.0800 
 31 H        1.0700    -3.2030    -3.0280 H     1 <1>   0.0800 
 32 H        3.1080    -1.1210     2.0170 H     1 <1>   0.0800 
 33 H        2.1020    -2.5460     1.9820 H     1 <1>   0.0800 
 34 H        4.1630    -2.8630     0.6290 H     1 <1>   0.0800 
 35 H        3.7150    -1.5150    -0.3710 H     1 <1>   0.0800 
 36 H       -0.3910    -7.3210    -1.4830 H     1 <1>   0.0800 
 37 H       -0.3940    -6.9570     0.2150 H     1 <1>   0.0800 
 38 H       -1.1800    -4.3370     0.8210 H     1 <1>   0.0800 
 39 H       -1.6340    -3.4020    -0.5700 H     1 <1>   0.0800 
 40 H       -2.8110    -7.0140    -1.6090 H     1 <1>   0.0800 
 41 H       -3.4960    -4.8530    -1.0670 H     1 <1>   0.0800 
 42 H       -3.4310    -4.2630     1.9230 H     1 <1>   0.1000 
 43 H       -2.4990    -9.3500    -2.1960 H     1 <1>   0.1500 
 44 H       -2.5180    -8.1540     1.9020 H     1 <1>   0.1500 
 45 H       -5.8380    -4.6230     0.0230 H     1 <1>   0.1000 
 46 H       -5.9200    -4.2100     1.7610 H     1 <1>   0.1000 
 47 H       -4.5460    -2.1100     1.3290 H     1 <1>   0.1000 
 48 H       -4.4770    -2.5190    -0.4110 H     1 <1>   0.1000 
 49 H       -2.6960   -11.6900    -1.5100 H     1 <1>   0.1500 
 50 H       -2.7130   -10.5010     2.5790 H     1 <1>   0.1500 
 51 H       -2.8010   -12.2760     0.8770 H     1 <1>   0.1500 
@<TRIPOS>BOND
  1   1   2  2   
  2   2   3  am  
  3   2   4  1   
  4   3   5  1   
  5   3   6  1   
  6   4   7  1   
  7   4  26  1   
  8   4  27  1   
  9   5   8  1   
 10   5  28  1   
 11   5  29  1   
 12   6   9  1   
 13   6  30  1   
 14   6  31  1   
 15   7   8  1   
 16   7  32  1   
 17   7  33  1   
 18   8  34  1   
 19   8  35  1   
 20   9  10  2   
 21   9  11  am  
 22  11  12  1   
 23  11  13  1   
 24  12  14  1   
 25  12  36  1   
 26  12  37  1   
 27  13  15  1   
 28  13  38  1   
 29  13  39  1   
 30  14  16  1   
 31  14  17  1   
 32  14  40  1   
 33  15  16  1   
 34  15  18  1   
 35  15  41  1   
 36  17  19  ar  
 37  17  20  ar  
 38  18  21  1   
 39  18  22  1   
 40  18  42  1   
 41  19  23  ar  
 42  19  43  1   
 43  20  24  ar  
 44  20  44  1   
 45  21  22  1   
 46  21  45  1   
 47  21  46  1   
 48  22  47  1   
 49  22  48  1   
 50  23  25  ar  
 51  23  49  1   
 52  24  25  ar  
 53  24  50  1   
 54  25  51  1   
@<TRIPOS>SUBSTRUCTURE
  1 ****  11 GROUP 4 **** **** 0

# MOE 2024.06 (io_trps.svl 2023.06)
