@<TRIPOS>MOLECULE
NONAME
46 49 1 0 0 
SMALL
USER_CHARGES


@<TRIPOS>ATOM
  1 F       -1.2280    -0.8260     1.4310 F     1 <1>  -0.1900 
  2 C       -2.1780     0.0710     1.3650 C.ar  1 <1>   0.1900 
  3 C       -3.2500    -0.1330     0.4600 C.ar  1 <1>   0.3100 
  4 C       -2.0690     1.1600     2.1850 C.ar  1 <1>  -0.1500 
  5 N       -3.2780    -1.2320    -0.3410 N.ar  1 <1>  -0.6200 
  6 C       -4.2670     0.8550     0.4300 C.ar  1 <1>   0.0000 
  7 C       -3.0780     2.1140     2.1110 C.ar  1 <1>   0.1900 
  8 C       -4.2810    -1.3630    -1.1560 C.ar  1 <1>   0.1660 
  9 C       -5.3570     0.6660    -0.4530 C.ar  1 <1>   0.1000 
 10 C       -4.1460     1.9860     1.2670 C.ar  1 <1>  -0.1500 
 11 F       -2.9860     3.1640     2.8810 F     1 <1>  -0.1900 
 12 C       -5.3290    -0.4520    -1.2450 C.ar  1 <1>  -0.1500 
 13 C       -4.2790    -2.5930    -2.0380 C.3   1 <1>  -0.0960 
 14 N       -6.4190     1.5580    -0.5000 N.pl3 1 <1>  -0.8380 
 15 C       -7.4330     1.5220     0.5940 C.3   1 <1>   0.2090 
 16 C       -6.8790     2.1440    -1.7940 C.3   1 <1>   0.2090 
 17 C       -8.6710     0.6850     0.1910 C.3   1 <1>   0.0000 
 18 C       -8.4120     2.1280    -1.9160 C.3   1 <1>  -0.1600 
 19 C       -9.8510     1.0470     1.1130 C.3   1 <1>   0.2000 
 20 C       -9.0080     0.8390    -1.3270 C.3   1 <1>  -0.1600 
 21 C       -8.5020    -0.8080     0.5230 C.3   1 <1>  -0.1600 
 22 O      -10.5200     2.1850     0.7020 O.3   1 <1>  -0.6800 
 23 C      -10.7890    -0.1610     1.1110 C.3   1 <1>  -0.1600 
 24 C       -9.9260    -1.3530     0.6730 C.3   1 <1>  -0.1600 
 25 H       -1.2430     1.2870     2.8600 H     1 <1>   0.1500 
 26 H       -4.9000     2.7510     1.2320 H     1 <1>   0.1500 
 27 H       -6.1310    -0.6340    -1.9320 H     1 <1>   0.1500 
 28 H       -5.1390    -2.6140    -2.6820 H     1 <1>   0.0800 
 29 H       -4.2820    -3.4740    -1.4230 H     1 <1>   0.0800 
 30 H       -3.3910    -2.5980    -2.6430 H     1 <1>   0.0800 
 31 H       -6.9910     1.1300     1.4930 H     1 <1>   0.0800 
 32 H       -7.7380     2.5350     0.7990 H     1 <1>   0.0800 
 33 H       -6.5210     3.1570    -1.8680 H     1 <1>   0.0800 
 34 H       -6.4500     1.5870    -2.6090 H     1 <1>   0.0800 
 35 H       -8.8140     2.9840    -1.4030 H     1 <1>   0.0800 
 36 H       -8.6810     2.2200    -2.9530 H     1 <1>   0.0800 
 37 H       -9.4980     1.2170     2.1170 H     1 <1>   0.0800 
 38 H       -8.5800     0.0190    -1.8760 H     1 <1>   0.0800 
 39 H      -10.0680     0.8030    -1.5020 H     1 <1>   0.0800 
 40 H       -7.9360    -1.3450    -0.2180 H     1 <1>   0.0800 
 41 H       -7.9930    -0.9140     1.4660 H     1 <1>   0.0800 
 42 H      -10.7980     2.0790    -0.2260 H     1 <1>   0.4000 
 43 H      -11.1840    -0.3190     2.0980 H     1 <1>   0.0800 
 44 H      -11.6010    -0.0260     0.4180 H     1 <1>   0.0800 
 45 H       -9.9610    -2.1550     1.3910 H     1 <1>   0.0800 
 46 H      -10.2760    -1.7220    -0.2760 H     1 <1>   0.0800 
@<TRIPOS>BOND
  1   1   2  1   
  2   2   3  ar  
  3   2   4  ar  
  4   3   5  ar  
  5   3   6  ar  
  6   4   7  ar  
  7   4  25  1   
  8   5   8  ar  
  9   6   9  ar  
 10   6  10  ar  
 11   7  10  ar  
 12   7  11  1   
 13   8  12  ar  
 14   8  13  1   
 15   9  12  ar  
 16   9  14  1   
 17  10  26  1   
 18  12  27  1   
 19  13  28  1   
 20  13  29  1   
 21  13  30  1   
 22  14  15  1   
 23  14  16  1   
 24  15  17  1   
 25  15  31  1   
 26  15  32  1   
 27  16  18  1   
 28  16  33  1   
 29  16  34  1   
 30  17  19  1   
 31  17  20  1   
 32  17  21  1   
 33  18  20  1   
 34  18  35  1   
 35  18  36  1   
 36  19  22  1   
 37  19  23  1   
 38  19  37  1   
 39  20  38  1   
 40  20  39  1   
 41  21  24  1   
 42  21  40  1   
 43  21  41  1   
 44  22  42  1   
 45  23  24  1   
 46  23  43  1   
 47  23  44  1   
 48  24  45  1   
 49  24  46  1   
@<TRIPOS>SUBSTRUCTURE
  1 ****   9 GROUP 4 **** **** 0

# MOE 2024.06 (io_trps.svl 2023.06)
