@<TRIPOS>MOLECULE
NONAME
50 52 1 0 0 
SMALL
USER_CHARGES


@<TRIPOS>ATOM
  1 S       -0.6350     0.8350     1.2220 S.o2  1 <1>   1.4470 
  2 O       -1.2370     2.0870     1.6290 O.2   1 <1>  -0.6500 
  3 O       -0.5890    -0.2490     2.1830 O.2   1 <1>  -0.6500 
  4 N       -1.5020     0.2710    -0.1270 N.am  1 <1>  -0.8490 
  5 C        1.0390     1.1320     0.5590 C.ar  1 <1>  -0.0090 
  6 C       -2.9490     0.2660     0.0750 C.3   1 <1>   0.1960 
  7 C       -1.1600    -1.0970    -0.5120 C.3   1 <1>   0.1960 
  8 C        1.3200     2.0790    -0.4310 C.ar  1 <1>  -0.1440 
  9 C        2.1010     0.3770     1.0480 C.ar  1 <1>  -0.1500 
 10 C       -3.2770    -1.0880     0.7070 C.3   1 <1>  -0.0800 
 11 C       -2.2400    -2.0260     0.0650 C.3   1 <1>  -0.0800 
 12 C        2.6160     2.2400    -0.8990 C.ar  1 <1>  -0.1500 
 13 C        0.2300     2.9630    -1.0270 C.3   1 <1>  -0.0970 
 14 C        3.3910     0.5410     0.5790 C.ar  1 <1>  -0.1500 
 15 C       -4.7560    -1.5590     0.6270 C.3   1 <1>   0.2800 
 16 C       -2.8500    -2.9260    -1.0230 C.3   1 <1>  -0.1600 
 17 C        3.6560     1.4760    -0.4020 C.ar  1 <1>  -0.1430 
 18 O       -5.3220    -1.1460    -0.5650 O.3   1 <1>  -0.6800 
 19 C       -4.8040    -3.0990     0.6470 C.3   1 <1>  -0.1600 
 20 C       -5.6400    -1.0060     1.7680 C.3   1 <1>  -0.1600 
 21 C       -4.0140    -3.7780    -0.4920 C.3   1 <1>  -0.1600 
 22 C        5.0680     1.6690    -0.9250 C.3   1 <1>  -0.0970 
 23 C       -5.7540     0.5250     1.8630 C.3   1 <1>  -0.2400 
 24 H       -3.2740     1.0970     0.6750 H     1 <1>   0.0800 
 25 H       -3.4180     0.3470    -0.8910 H     1 <1>   0.0800 
 26 H       -1.1630    -1.1530    -1.5870 H     1 <1>   0.0800 
 27 H       -0.1790    -1.3770    -0.1660 H     1 <1>   0.0800 
 28 H        1.9200    -0.3570     1.8150 H     1 <1>   0.1500 
 29 H       -3.0270    -1.0220     1.7500 H     1 <1>   0.0800 
 30 H       -1.8020    -2.6490     0.8260 H     1 <1>   0.0800 
 31 H        2.8240     2.9720    -1.6600 H     1 <1>   0.1500 
 32 H        0.6310     3.6260    -1.7710 H     1 <1>   0.0800 
 33 H       -0.2240     3.5640    -0.2590 H     1 <1>   0.0800 
 34 H       -0.5290     2.3620    -1.4950 H     1 <1>   0.0800 
 35 H        4.1860    -0.0610     0.9850 H     1 <1>   0.1500 
 36 H       -3.2220    -2.3000    -1.8170 H     1 <1>   0.0800 
 37 H       -2.0960    -3.5680    -1.4440 H     1 <1>   0.0800 
 38 H       -6.2290    -1.4940    -0.6260 H     1 <1>   0.4000 
 39 H       -4.3790    -3.4230     1.5810 H     1 <1>   0.0800 
 40 H       -5.8220    -3.4460     0.6350 H     1 <1>   0.0800 
 41 H       -6.6310    -1.4120     1.6630 H     1 <1>   0.0800 
 42 H       -5.2570    -1.3680     2.7060 H     1 <1>   0.0800 
 43 H       -3.6360    -4.7200    -0.1340 H     1 <1>   0.0800 
 44 H       -4.6800    -3.9880    -1.3110 H     1 <1>   0.0800 
 45 H        5.6510     0.7780    -0.7790 H     1 <1>   0.0800 
 46 H        5.5400     2.4820    -0.4040 H     1 <1>   0.0800 
 47 H        5.0490     1.8930    -1.9770 H     1 <1>   0.0800 
 48 H       -6.0190     0.9520     0.9110 H     1 <1>   0.0800 
 49 H       -4.8290     0.9570     2.1980 H     1 <1>   0.0800 
 50 H       -6.5150     0.7890     2.5760 H     1 <1>   0.0800 
@<TRIPOS>BOND
  1   1   2  2   
  2   1   3  2   
  3   1   4  am  
  4   1   5  1   
  5   4   6  1   
  6   4   7  1   
  7   5   8  ar  
  8   5   9  ar  
  9   6  10  1   
 10   6  24  1   
 11   6  25  1   
 12   7  11  1   
 13   7  26  1   
 14   7  27  1   
 15   8  12  ar  
 16   8  13  1   
 17   9  14  ar  
 18   9  28  1   
 19  10  11  1   
 20  10  15  1   
 21  10  29  1   
 22  11  16  1   
 23  11  30  1   
 24  12  17  ar  
 25  12  31  1   
 26  13  32  1   
 27  13  33  1   
 28  13  34  1   
 29  14  17  ar  
 30  14  35  1   
 31  15  18  1   
 32  15  19  1   
 33  15  20  1   
 34  16  21  1   
 35  16  36  1   
 36  16  37  1   
 37  17  22  1   
 38  18  38  1   
 39  19  21  1   
 40  19  39  1   
 41  19  40  1   
 42  20  23  1   
 43  20  41  1   
 44  20  42  1   
 45  21  43  1   
 46  21  44  1   
 47  22  45  1   
 48  22  46  1   
 49  22  47  1   
 50  23  48  1   
 51  23  49  1   
 52  23  50  1   
@<TRIPOS>SUBSTRUCTURE
  1 ****   4 GROUP 4 **** **** 0

# MOE 2024.06 (io_trps.svl 2023.06)
