@<TRIPOS>MOLECULE
NONAME
53 55 1 0 0 
SMALL
USER_CHARGES


@<TRIPOS>ATOM
  1 S       -0.0610    -0.9510     0.7570 S.o2  1 <1>   1.4470 
  2 O       -1.3300    -0.2640     0.6560 O.2   1 <1>  -0.6500 
  3 O        0.1360    -1.9180     1.8120 O.2   1 <1>  -0.6500 
  4 N        0.0340    -1.7520    -0.7180 N.am  1 <1>  -0.9140 
  5 C        1.3160     0.2420     0.6850 C.ar  1 <1>  -0.0090 
  6 C       -0.6100    -3.0650    -0.8600 C.3   1 <1>   0.2760 
  7 C        2.6680    -0.1120     0.7970 C.ar  1 <1>  -0.1430 
  8 C        1.0020     1.5850     0.5050 C.ar  1 <1>  -0.1500 
  9 C       -2.0180    -3.2150    -0.2970 C.3   1 <1>  -0.0800 
 10 C        0.1140    -4.2470    -0.2310 C.3   1 <1>   0.1200 
 11 C        3.6620     0.8690     0.7520 C.ar  1 <1>  -0.1430 
 12 C        3.0470    -1.5860     0.9820 C.3   1 <1>  -0.0970 
 13 C        1.9700     2.5660     0.4300 C.ar  1 <1>  -0.1430 
 14 C       -2.1260    -4.7270    -0.0650 C.3   1 <1>   0.1200 
 15 C       -3.1060    -2.6410    -1.2150 C.3   1 <1>  -0.0170 
 16 O       -0.8430    -5.2620    -0.2220 O.3   1 <1>  -0.5600 
 17 C        3.3040     2.2000     0.5360 C.ar  1 <1>   0.0820 
 18 C        5.1370     0.5140     0.9560 C.3   1 <1>  -0.0970 
 19 C        1.5580     4.0200     0.2430 C.3   1 <1>  -0.0970 
 20 C       -4.4780    -2.7800    -0.5770 C.ar  1 <1>  -0.1430 
 21 O        4.2490     3.1610     0.4380 O.3   1 <1>  -0.3620 
 22 C       -4.8670    -1.9610     0.4640 C.ar  1 <1>  -0.1500 
 23 C       -5.3990    -3.7200    -0.9920 C.ar  1 <1>  -0.1500 
 24 C        4.7890     3.3690    -0.8460 C.3   1 <1>   0.0400 
 25 C       -6.1220    -2.1180     1.0260 C.ar  1 <1>   0.1600 
 26 C       -6.6300    -3.7940    -0.3610 C.ar  1 <1>   0.1600 
 27 N       -7.0140    -3.0170     0.6390 N.ar  1 <1>  -0.6200 
 28 H       -0.4550    -1.1170    -1.3430 H     1 <1>   0.4200 
 29 H       -0.6460    -3.2830    -1.9140 H     1 <1>   0.0800 
 30 H       -0.0320     1.8740     0.4240 H     1 <1>   0.1500 
 31 H       -2.1000    -2.7640     0.6740 H     1 <1>   0.0800 
 32 H        0.4030    -4.0640     0.7870 H     1 <1>   0.0800 
 33 H        0.9580    -4.5670    -0.8140 H     1 <1>   0.0800 
 34 H        4.0530    -1.7930     0.6720 H     1 <1>   0.0800 
 35 H        2.4230    -2.2280     0.3930 H     1 <1>   0.0800 
 36 H        2.9440    -1.8600     2.0170 H     1 <1>   0.0800 
 37 H       -2.7700    -5.2050    -0.7820 H     1 <1>   0.0800 
 38 H       -2.4690    -4.9460     0.9320 H     1 <1>   0.0800 
 39 H       -3.0910    -3.1410    -2.1680 H     1 <1>   0.0800 
 40 H       -2.9140    -1.5960    -1.3890 H     1 <1>   0.0800 
 41 H        5.2490    -0.1630     1.7830 H     1 <1>   0.0800 
 42 H        5.7310     1.3800     1.1850 H     1 <1>   0.0800 
 43 H        5.5310     0.0570     0.0670 H     1 <1>   0.0800 
 44 H        0.5130     4.1570     0.4520 H     1 <1>   0.0800 
 45 H        1.7530     4.3300    -0.7670 H     1 <1>   0.0800 
 46 H        2.1180     4.6500     0.9120 H     1 <1>   0.0800 
 47 H       -4.2030    -1.2020     0.8430 H     1 <1>   0.1500 
 48 H       -5.1750    -4.3950    -1.7970 H     1 <1>   0.1500 
 49 H        5.5190     4.1560    -0.7810 H     1 <1>   0.0800 
 50 H        3.9980     3.6530    -1.5160 H     1 <1>   0.0800 
 51 H        5.2540     2.4600    -1.1820 H     1 <1>   0.0800 
 52 H       -6.4070    -1.4710     1.8380 H     1 <1>   0.1500 
 53 H       -7.3370    -4.5330    -0.6970 H     1 <1>   0.1500 
@<TRIPOS>BOND
  1   1   2  2   
  2   1   3  2   
  3   1   4  am  
  4   1   5  1   
  5   4   6  1   
  6   4  28  1   
  7   5   7  ar  
  8   5   8  ar  
  9   6   9  1   
 10   6  10  1   
 11   6  29  1   
 12   7  11  ar  
 13   7  12  1   
 14   8  13  ar  
 15   8  30  1   
 16   9  14  1   
 17   9  15  1   
 18   9  31  1   
 19  10  16  1   
 20  10  32  1   
 21  10  33  1   
 22  11  17  ar  
 23  11  18  1   
 24  12  34  1   
 25  12  35  1   
 26  12  36  1   
 27  13  17  ar  
 28  13  19  1   
 29  14  16  1   
 30  14  37  1   
 31  14  38  1   
 32  15  20  1   
 33  15  39  1   
 34  15  40  1   
 35  17  21  1   
 36  18  41  1   
 37  18  42  1   
 38  18  43  1   
 39  19  44  1   
 40  19  45  1   
 41  19  46  1   
 42  20  22  ar  
 43  20  23  ar  
 44  21  24  1   
 45  22  25  ar  
 46  22  47  1   
 47  23  26  ar  
 48  23  48  1   
 49  24  49  1   
 50  24  50  1   
 51  24  51  1   
 52  25  27  ar  
 53  25  52  1   
 54  26  27  ar  
 55  26  53  1   
@<TRIPOS>SUBSTRUCTURE
  1 ****   1 GROUP 4 **** **** 0

# MOE 2024.06 (io_trps.svl 2023.06)
