@<TRIPOS>MOLECULE
NONAME
43 44 1 0 0 
SMALL
USER_CHARGES


@<TRIPOS>ATOM
  1 S        0.2800     0.0620    -1.1750 S.o2  1 <1>   1.3330 
  2 O        0.1010    -1.0880    -0.3180 O.2   1 <1>  -0.6500 
  3 O       -0.4380     0.1350    -2.4270 O.2   1 <1>  -0.6500 
  4 N       -0.1220     1.4450    -0.2750 N.am  1 <1>  -0.8490 
  5 C        2.0350     0.2440    -1.4950 C.3   1 <1>  -0.0550 
  6 C       -0.0900     2.6840    -1.0620 C.3   1 <1>   0.1160 
  7 C       -1.4240     1.3040     0.3800 C.3   1 <1>   0.1160 
  8 C        2.8850     0.4270    -0.2250 C.3   1 <1>  -0.0800 
  9 C        4.3160     0.8390    -0.5600 C.3   1 <1>   0.2200 
 10 C        3.0470    -0.8440     0.6120 C.3   1 <1>   0.1200 
 11 N        4.5950     2.1540     0.0570 N.am  1 <1>  -0.7300 
 12 C        5.1640    -0.2660     0.0660 C.3   1 <1>   0.1200 
 13 O        4.3670    -0.8280     1.0540 O.3   1 <1>  -0.5600 
 14 C        4.1670     3.3440    -0.4620 C.2   1 <1>   0.5440 
 15 O        3.5950     3.3280    -1.5350 O.2   1 <1>  -0.5700 
 16 C        4.3760     4.5920     0.2420 C.ar  1 <1>   0.0860 
 17 C        4.3880     4.6520     1.6340 C.ar  1 <1>   0.1600 
 18 C        4.5650     5.7870    -0.4380 C.ar  1 <1>  -0.1500 
 19 N        4.5820     5.7380     2.3640 N.ar  1 <1>  -0.6200 
 20 C        4.7670     6.9380     0.2940 C.ar  1 <1>  -0.1440 
 21 C        4.7670     6.8550     1.6790 C.ar  1 <1>   0.1600 
 22 C        4.9790     8.2700    -0.4060 C.3   1 <1>  -0.0970 
 23 H        2.3860    -0.6100    -2.0420 H     1 <1>   0.0800 
 24 H        2.1750     1.1030    -2.1220 H     1 <1>   0.0800 
 25 H       -0.3170     3.5270    -0.4330 H     1 <1>   0.0800 
 26 H       -0.8090     2.6420    -1.8640 H     1 <1>   0.0800 
 27 H        0.8900     2.8380    -1.4820 H     1 <1>   0.0800 
 28 H       -1.6400     2.1760     0.9720 H     1 <1>   0.0800 
 29 H       -1.4160     0.4470     1.0330 H     1 <1>   0.0800 
 30 H       -2.2000     1.1700    -0.3560 H     1 <1>   0.0800 
 31 H        2.4250     1.1740     0.3970 H     1 <1>   0.0800 
 32 H        4.4980     0.8950    -1.6210 H     1 <1>   0.0800 
 33 H        2.9040    -1.7350     0.0240 H     1 <1>   0.0800 
 34 H        2.3880    -0.8610     1.4630 H     1 <1>   0.0800 
 35 H        5.0150     2.1050     0.9870 H     1 <1>   0.3700 
 36 H        6.0780     0.0970     0.5000 H     1 <1>   0.0800 
 37 H        5.3780    -1.0350    -0.6570 H     1 <1>   0.0800 
 38 H        4.2200     3.7410     2.1830 H     1 <1>   0.1500 
 39 H        4.5520     5.8010    -1.5150 H     1 <1>   0.1500 
 40 H        4.9230     7.7520     2.2540 H     1 <1>   0.1500 
 41 H        5.4170     8.1200    -1.3770 H     1 <1>   0.0800 
 42 H        5.6360     8.8980     0.1680 H     1 <1>   0.0800 
 43 H        4.0360     8.7720    -0.5270 H     1 <1>   0.0800 
@<TRIPOS>BOND
  1   1   2  2   
  2   1   3  2   
  3   1   4  am  
  4   1   5  1   
  5   4   6  1   
  6   4   7  1   
  7   5   8  1   
  8   5  23  1   
  9   5  24  1   
 10   6  25  1   
 11   6  26  1   
 12   6  27  1   
 13   7  28  1   
 14   7  29  1   
 15   7  30  1   
 16   8   9  1   
 17   8  10  1   
 18   8  31  1   
 19   9  11  1   
 20   9  12  1   
 21   9  32  1   
 22  10  13  1   
 23  10  33  1   
 24  10  34  1   
 25  11  14  am  
 26  11  35  1   
 27  12  13  1   
 28  12  36  1   
 29  12  37  1   
 30  14  15  2   
 31  14  16  1   
 32  16  17  ar  
 33  16  18  ar  
 34  17  19  ar  
 35  17  38  1   
 36  18  20  ar  
 37  18  39  1   
 38  19  21  ar  
 39  20  21  ar  
 40  20  22  1   
 41  21  40  1   
 42  22  41  1   
 43  22  42  1   
 44  22  43  1   
@<TRIPOS>SUBSTRUCTURE
  1 ****  14 GROUP 4 **** **** 0

# MOE 2024.06 (io_trps.svl 2023.06)
