@<TRIPOS>MOLECULE
NONAME
41 42 1 0 0 
SMALL
USER_CHARGES


@<TRIPOS>ATOM
  1 O        0.0930    -0.0380     1.0930 O.2   1 <1>  -0.5700 
  2 C        1.0410    -0.5900     0.5820 C.2   1 <1>   0.5690 
  3 N        2.1200     0.0860     0.0860 N.am  1 <1>  -0.4940 
  4 C        1.0700    -2.1400     0.4660 C.3   1 <1>   0.3410 
  5 C        2.4070     1.4530     0.0370 C.2   1 <1>   0.2040 
  6 O        2.2880    -2.5070    -0.1680 O.3   1 <1>  -0.5600 
  7 C       -0.1110    -2.6220    -0.3960 C.3   1 <1>  -0.2400 
  8 C        1.0200    -2.7710     1.8680 C.3   1 <1>  -0.2400 
  9 O        1.5830     2.3590     0.5030 O.3   1 <1>  -0.0190 
 10 C        3.4860     2.0950    -0.4460 C.2   1 <1>  -0.1810 
 11 C        2.5840    -3.8510    -0.4010 C.3   1 <1>   0.1200 
 12 N        2.0540     3.5690     0.3590 N.2   1 <1>  -0.4100 
 13 C        3.2070     3.4500    -0.2210 C.2   1 <1>   0.2350 
 14 C        4.7450     1.5150    -1.0710 C.3   1 <1>  -0.0590 
 15 C        3.9430    -3.8970    -1.0880 C.3   1 <1>  -0.2400 
 16 C        4.0690     4.5620    -0.5590 C.ar  1 <1>   0.0540 
 17 C        4.4470     5.4850     0.4130 C.ar  1 <1>  -0.1500 
 18 C        4.5480     4.7490    -1.8540 C.ar  1 <1>  -0.1500 
 19 C        5.2830     6.5450     0.1110 C.ar  1 <1>  -0.1500 
 20 C        5.3860     5.8060    -2.1630 C.ar  1 <1>  -0.1500 
 21 C        5.7570     6.7050    -1.1790 C.ar  1 <1>  -0.1500 
 22 H        2.8190    -0.5490    -0.3060 H     1 <1>   0.3700 
 23 H       -0.0070    -2.2580    -1.4020 H     1 <1>   0.0800 
 24 H       -1.0300    -2.2330     0.0060 H     1 <1>   0.0800 
 25 H       -0.1900    -3.6930    -0.4010 H     1 <1>   0.0800 
 26 H        1.9040    -2.5090     2.4220 H     1 <1>   0.0800 
 27 H        0.9210    -3.8390     1.8220 H     1 <1>   0.0800 
 28 H        0.1670    -2.3900     2.4020 H     1 <1>   0.0800 
 29 H        1.8350    -4.2830    -1.0400 H     1 <1>   0.0800 
 30 H        2.6280    -4.3800     0.5350 H     1 <1>   0.0800 
 31 H        4.7790     0.4490    -0.9380 H     1 <1>   0.0800 
 32 H        5.6150     1.9460    -0.6080 H     1 <1>   0.0800 
 33 H        4.7680     1.7300    -2.1240 H     1 <1>   0.0800 
 34 H        3.9050    -3.3650    -2.0210 H     1 <1>   0.0800 
 35 H        4.2140    -4.9180    -1.2880 H     1 <1>   0.0800 
 36 H        4.6940    -3.4620    -0.4530 H     1 <1>   0.0800 
 37 H        4.0740     5.3650     1.4160 H     1 <1>   0.1500 
 38 H        4.2530     4.0630    -2.6270 H     1 <1>   0.1500 
 39 H        5.5630     7.2450     0.8780 H     1 <1>   0.1500 
 40 H        5.7470     5.9330    -3.1690 H     1 <1>   0.1500 
 41 H        6.4080     7.5280    -1.4160 H     1 <1>   0.1500 
@<TRIPOS>BOND
  1   1   2  2   
  2   2   3  am  
  3   2   4  1   
  4   3   5  1   
  5   3  22  1   
  6   4   6  1   
  7   4   7  1   
  8   4   8  1   
  9   5   9  1   
 10   5  10  2   
 11   6  11  1   
 12   7  23  1   
 13   7  24  1   
 14   7  25  1   
 15   8  26  1   
 16   8  27  1   
 17   8  28  1   
 18   9  12  1   
 19  10  13  1   
 20  10  14  1   
 21  11  15  1   
 22  11  29  1   
 23  11  30  1   
 24  12  13  2   
 25  13  16  1   
 26  14  31  1   
 27  14  32  1   
 28  14  33  1   
 29  15  34  1   
 30  15  35  1   
 31  15  36  1   
 32  16  17  ar  
 33  16  18  ar  
 34  17  19  ar  
 35  17  37  1   
 36  18  20  ar  
 37  18  38  1   
 38  19  21  ar  
 39  19  39  1   
 40  20  21  ar  
 41  20  40  1   
 42  21  41  1   
@<TRIPOS>SUBSTRUCTURE
  1 ****   5 GROUP 4 **** **** 0

# MOE 2024.06 (io_trps.svl 2023.06)
