@<TRIPOS>MOLECULE
NONAME
44 46 1 0 0 
SMALL
USER_CHARGES


@<TRIPOS>ATOM
  1 F        0.0370    -0.7140    -0.3540 F     1 <1>  -0.1900 
  2 C       -0.6160    -1.8150    -0.0760 C.ar  1 <1>   0.1900 
  3 C        0.0280    -2.9540     0.4210 C.ar  1 <1>   0.0820 
  4 C       -1.9790    -1.7930    -0.2940 C.ar  1 <1>  -0.1500 
  5 O        1.3610    -3.0980     0.6770 O.3   1 <1>  -0.3630 
  6 C       -0.7520    -4.0670     0.6870 C.ar  1 <1>  -0.1500 
  7 C       -2.7270    -2.9220    -0.0160 C.ar  1 <1>  -0.1500 
  8 C        2.3090    -2.0890     0.4070 C.3   1 <1>   0.0400 
  9 C       -2.1340    -4.0860     0.4780 C.ar  1 <1>   0.0530 
 10 C       -2.9080    -5.2700     0.7680 C.2   1 <1>   0.0870 
 11 O       -2.4640    -6.1590     1.6270 O.3   1 <1>  -0.0190 
 12 C       -4.1030    -5.7300     0.3200 C.2   1 <1>  -0.2330 
 13 N       -3.2810    -7.1690     1.7840 N.2   1 <1>  -0.4100 
 14 C       -4.2780    -6.9310     1.0080 C.2   1 <1>   0.3720 
 15 C       -5.0100    -5.1810    -0.6290 C.2   1 <1>   1.0330 
 16 N       -5.3660    -7.8020     0.9090 N.pl3 1 <1>  -0.8210 
 17 O       -4.9980    -5.5530    -1.8150 O.co2 1 <1>  -0.9000 
 18 O       -5.8440    -4.3300    -0.2760 O.co2 1 <1>  -0.9000 
 19 C       -5.4410    -8.4870    -0.4130 C.3   1 <1>   0.2090 
 20 C       -6.6630    -7.1820     1.2790 C.3   1 <1>   0.2090 
 21 C       -6.5060    -9.5940    -0.3780 C.3   1 <1>   0.2000 
 22 C       -7.7220    -8.2800     1.4080 C.3   1 <1>  -0.1600 
 23 O       -6.6400   -10.1470    -1.6470 O.3   1 <1>  -0.6800 
 24 C       -7.8800    -9.0720     0.0890 C.3   1 <1>  -0.0800 
 25 C       -8.8700   -10.2410     0.2260 C.3   1 <1>   0.1200 
 26 O      -10.1050    -9.7730     0.6480 O.3   1 <1>  -0.6800 
 27 H       -2.4520    -0.9070    -0.6760 H     1 <1>   0.1500 
 28 H       -0.2690    -4.9500     1.0650 H     1 <1>   0.1500 
 29 H       -3.7910    -2.8930    -0.1830 H     1 <1>   0.1500 
 30 H        3.2810    -2.4650     0.6680 H     1 <1>   0.0800 
 31 H        2.0800    -1.2250     1.0060 H     1 <1>   0.0800 
 32 H        2.2780    -1.8520    -0.6420 H     1 <1>   0.0800 
 33 H       -5.6980    -7.7730    -1.1740 H     1 <1>   0.0800 
 34 H       -4.4800    -8.9130    -0.6440 H     1 <1>   0.0800 
 35 H       -6.5540    -6.6560     2.2130 H     1 <1>   0.0800 
 36 H       -6.9680    -6.4740     0.5270 H     1 <1>   0.0800 
 37 H       -6.1640   -10.3750     0.2790 H     1 <1>   0.0800 
 38 H       -7.4340    -8.9390     2.2080 H     1 <1>   0.0800 
 39 H       -8.6520    -7.8120     1.6740 H     1 <1>   0.0800 
 40 H       -6.8220    -9.4370    -2.2950 H     1 <1>   0.4000 
 41 H       -8.2490    -8.3940    -0.6620 H     1 <1>   0.0800 
 42 H       -8.5180   -10.9600     0.9450 H     1 <1>   0.0800 
 43 H       -9.0120   -10.7340    -0.7210 H     1 <1>   0.0800 
 44 H      -10.0090    -9.2880     1.4890 H     1 <1>   0.4000 
@<TRIPOS>BOND
  1   1   2  1   
  2   2   3  ar  
  3   2   4  ar  
  4   3   5  1   
  5   3   6  ar  
  6   4   7  ar  
  7   4  27  1   
  8   5   8  1   
  9   6   9  ar  
 10   6  28  1   
 11   7   9  ar  
 12   7  29  1   
 13   8  30  1   
 14   8  31  1   
 15   8  32  1   
 16   9  10  1   
 17  10  11  1   
 18  10  12  2   
 19  11  13  1   
 20  12  14  1   
 21  12  15  1   
 22  13  14  2   
 23  14  16  1   
 24  15  17  ar  
 25  15  18  ar  
 26  16  19  1   
 27  16  20  1   
 28  19  21  1   
 29  19  33  1   
 30  19  34  1   
 31  20  22  1   
 32  20  35  1   
 33  20  36  1   
 34  21  23  1   
 35  21  24  1   
 36  21  37  1   
 37  22  24  1   
 38  22  38  1   
 39  22  39  1   
 40  23  40  1   
 41  24  25  1   
 42  24  41  1   
 43  25  26  1   
 44  25  42  1   
 45  25  43  1   
 46  26  44  1   
@<TRIPOS>SUBSTRUCTURE
  1 ****  12 GROUP 4 **** **** 0

# MOE 2024.06 (io_trps.svl 2023.06)
