@<TRIPOS>MOLECULE
NONAME
53 55 1 0 0 
SMALL
USER_CHARGES


@<TRIPOS>ATOM
  1 O        3.1750     2.1820     1.7170 O.co2 1 <1>  -0.9000 
  2 C        2.5300     1.1870     1.3510 C.2   1 <1>   0.9060 
  3 O        2.2140     0.3040     2.1470 O.co2 1 <1>  -0.9000 
  4 C        2.3830     0.8910    -0.1490 C.3   1 <1>  -0.1060 
  5 C        3.3230    -0.3150    -0.3750 C.3   1 <1>   0.2000 
  6 C        2.8850     2.0770    -1.0360 C.3   1 <1>  -0.1600 
  7 C        0.9050     0.5430    -0.4680 C.3   1 <1>  -0.0160 
  8 O        3.3480    -0.6530    -1.7300 O.3   1 <1>  -0.6800 
  9 C        4.7690     0.0310     0.0710 C.3   1 <1>   0.3430 
 10 C        4.4140     2.1310    -1.2100 C.3   1 <1>   0.3430 
 11 C       -0.0240     1.7510    -0.4120 C.ar  1 <1>  -0.1440 
 12 N        5.0770     1.5030    -0.0390 N.4   1 <1>  -0.9590 
 13 C       -0.4750     2.3490    -1.5800 C.ar  1 <1>  -0.1500 
 14 C       -0.4320     2.2630     0.8100 C.ar  1 <1>  -0.1500 
 15 C        6.5130     1.8270     0.1380 C.3   1 <1>   0.3430 
 16 C       -1.3150     3.4480    -1.5270 C.ar  1 <1>  -0.1500 
 17 C       -1.2700     3.3620     0.8650 C.ar  1 <1>  -0.1500 
 18 C        6.6900     3.2590     0.6620 C.3   1 <1>   0.1100 
 19 C       -1.7130     3.9560    -0.3030 C.ar  1 <1>  -0.1500 
 20 N        8.1180     3.5980     0.7760 N.3   1 <1>  -0.8100 
 21 C        8.7250     3.9360    -0.5320 C.3   1 <1>   0.1100 
 22 C        8.3070     4.7320     1.7070 C.3   1 <1>   0.1100 
 23 C       10.1940     4.3670    -0.3680 C.3   1 <1>   0.1200 
 24 C        9.7870     5.1460     1.7960 C.3   1 <1>   0.1200 
 25 O       10.2880     5.4380     0.5230 O.3   1 <1>  -0.5600 
 26 H        2.9810    -1.1800     0.1710 H     1 <1>   0.0800 
 27 H        2.5420     3.0080    -0.6180 H     1 <1>   0.0800 
 28 H        2.4560     2.0060    -2.0190 H     1 <1>   0.0800 
 29 H        0.8340     0.1080    -1.4470 H     1 <1>   0.0800 
 30 H        0.5500    -0.1970     0.2300 H     1 <1>   0.0800 
 31 H        2.4710    -0.9880    -2.0030 H     1 <1>   0.4000 
 32 H        5.4610    -0.5480    -0.5160 H     1 <1>   0.0800 
 33 H        4.8750    -0.2570     1.1040 H     1 <1>   0.0800 
 34 H        4.7230     3.1570    -1.3180 H     1 <1>   0.0800 
 35 H        4.6890     1.5900    -2.1000 H     1 <1>   0.0800 
 36 H        4.5600     1.9190     0.7820 H     1 <1>   0.4500 
 37 H       -0.1750     1.9630    -2.5380 H     1 <1>   0.1500 
 38 H       -0.0930     1.8090     1.7280 H     1 <1>   0.1500 
 39 H        6.9460     1.1550     0.8600 H     1 <1>   0.0800 
 40 H        7.0300     1.7100    -0.7980 H     1 <1>   0.0800 
 41 H       -1.6600     3.9070    -2.4360 H     1 <1>   0.1500 
 42 H       -1.5740     3.7520     1.8210 H     1 <1>   0.1500 
 43 H        6.2320     3.3100     1.6360 H     1 <1>   0.0800 
 44 H        6.1980     3.9680     0.0190 H     1 <1>   0.0800 
 45 H       -2.3640     4.8110    -0.2590 H     1 <1>   0.1500 
 46 H        8.6880     3.0820    -1.1840 H     1 <1>   0.0800 
 47 H        8.1830     4.7420    -0.9960 H     1 <1>   0.0800 
 48 H        7.7290     5.5810     1.3800 H     1 <1>   0.0800 
 49 H        7.9640     4.4520     2.6880 H     1 <1>   0.0800 
 50 H       10.5980     4.6890    -1.3110 H     1 <1>   0.0800 
 51 H       10.7910     3.5520     0.0060 H     1 <1>   0.0800 
 52 H       10.3760     4.3540     2.2260 H     1 <1>   0.0800 
 53 H        9.8930     6.0280     2.4010 H     1 <1>   0.0800 
@<TRIPOS>BOND
  1   1   2  ar  
  2   2   3  ar  
  3   2   4  1   
  4   4   5  1   
  5   4   6  1   
  6   4   7  1   
  7   5   8  1   
  8   5   9  1   
  9   5  26  1   
 10   6  10  1   
 11   6  27  1   
 12   6  28  1   
 13   7  11  1   
 14   7  29  1   
 15   7  30  1   
 16   8  31  1   
 17   9  12  1   
 18   9  32  1   
 19   9  33  1   
 20  10  12  1   
 21  10  34  1   
 22  10  35  1   
 23  11  13  ar  
 24  11  14  ar  
 25  12  15  1   
 26  12  36  1   
 27  13  16  ar  
 28  13  37  1   
 29  14  17  ar  
 30  14  38  1   
 31  15  18  1   
 32  15  39  1   
 33  15  40  1   
 34  16  19  ar  
 35  16  41  1   
 36  17  19  ar  
 37  17  42  1   
 38  18  20  1   
 39  18  43  1   
 40  18  44  1   
 41  19  45  1   
 42  20  21  1   
 43  20  22  1   
 44  21  23  1   
 45  21  46  1   
 46  21  47  1   
 47  22  24  1   
 48  22  48  1   
 49  22  49  1   
 50  23  25  1   
 51  23  50  1   
 52  23  51  1   
 53  24  25  1   
 54  24  52  1   
 55  24  53  1   
@<TRIPOS>SUBSTRUCTURE
  1 ****  10 GROUP 4 **** **** 0

# MOE 2024.06 (io_trps.svl 2023.06)
