@<TRIPOS>MOLECULE
NONAME
50 53 1 0 0 
SMALL
USER_CHARGES


@<TRIPOS>ATOM
  1 O       -0.4450     0.0540     1.5080 O.2   1 <1>  -0.5700 
  2 C       -1.4780     0.6930     1.4880 C.2   1 <1>   0.7150 
  3 N       -2.6760     0.0230     1.3960 N.am  1 <1>  -0.6600 
  4 C       -1.4480     2.1230     1.5390 C.2   1 <1>  -0.2370 
  5 C       -2.7700    -1.4690     1.4570 C.3   1 <1>   0.1400 
  6 C       -3.9490     0.6630     0.9420 C.3   1 <1>   0.1400 
  7 N       -0.8610     2.9430     0.6220 N.pl3 1 <1>   0.3140 
  8 C       -2.0000     2.9470     2.4710 C.2   1 <1>  -0.1500 
  9 C       -3.3550    -2.0370     0.1510 C.3   1 <1>   0.3440 
 10 C       -4.4700    -0.0140    -0.3470 C.3   1 <1>   0.2950 
 11 N       -1.0480     4.2400     0.9380 N.2   1 <1>  -0.7070 
 12 C       -0.1260     2.6140    -0.6400 C.3   1 <1>   0.1760 
 13 C       -1.7200     4.2300     2.0480 C.2   1 <1>   0.1390 
 14 O       -4.5670    -1.3960    -0.1550 O.3   1 <1>  -0.5600 
 15 C       -3.5850    -3.5400     0.2760 C.ar  1 <1>  -0.1440 
 16 C       -5.8530     0.4700    -0.8140 C.3   1 <1>  -0.1950 
 17 C       -0.8840     1.6180    -1.5330 C.3   1 <1>  -0.2400 
 18 C        1.3090     2.1490    -0.3560 C.3   1 <1>  -0.2400 
 19 C       -2.5690    -4.4180    -0.0740 C.ar  1 <1>  -0.1500 
 20 C       -4.7860    -4.0540     0.7460 C.ar  1 <1>  -0.1500 
 21 C       -6.3520     1.8710    -0.6170 C.3   1 <1>  -0.2000 
 22 C       -7.0060     0.7260     0.1070 C.3   1 <1>  -0.2000 
 23 C       -2.7490    -5.7860     0.0440 C.ar  1 <1>  -0.1500 
 24 C       -4.9680    -5.4210     0.8650 C.ar  1 <1>  -0.1500 
 25 C       -3.9490    -6.2880     0.5140 C.ar  1 <1>  -0.1500 
 26 H       -1.8040    -1.9100     1.6310 H     1 <1>   0.0800 
 27 H       -3.4060    -1.7510     2.2770 H     1 <1>   0.0800 
 28 H       -4.6820     0.5680     1.7220 H     1 <1>   0.0800 
 29 H       -3.8030     1.7090     0.7480 H     1 <1>   0.0800 
 30 H       -2.5440     2.6740     3.3580 H     1 <1>   0.1500 
 31 H       -2.6710    -1.8520    -0.6590 H     1 <1>   0.0800 
 32 H       -3.7660     0.1620    -1.1420 H     1 <1>   0.0800 
 33 H       -0.0550     3.5370    -1.1890 H     1 <1>   0.0800 
 34 H       -2.0160     5.1280     2.5640 H     1 <1>   0.1500 
 35 H       -6.0990     0.0170    -1.7600 H     1 <1>   0.1000 
 36 H       -0.8710     0.6280    -1.1150 H     1 <1>   0.0800 
 37 H       -0.4110     1.5710    -2.4970 H     1 <1>   0.0800 
 38 H       -1.8990     1.9430    -1.6710 H     1 <1>   0.0800 
 39 H        1.3210     1.2020     0.1500 H     1 <1>   0.0800 
 40 H        1.8150     2.8780     0.2520 H     1 <1>   0.0800 
 41 H        1.8500     2.0440    -1.2780 H     1 <1>   0.0800 
 42 H       -1.6290    -4.0440    -0.4410 H     1 <1>   0.1500 
 43 H       -5.5870    -3.3880     1.0190 H     1 <1>   0.1500 
 44 H       -5.7960     2.5830    -0.0340 H     1 <1>   0.1000 
 45 H       -6.8910     2.3410    -1.4220 H     1 <1>   0.1000 
 46 H       -7.9840     0.4010    -0.2040 H     1 <1>   0.1000 
 47 H       -6.8700     0.6330     1.1700 H     1 <1>   0.1000 
 48 H       -1.9550    -6.4590    -0.2300 H     1 <1>   0.1500 
 49 H       -5.9030    -5.8080     1.2290 H     1 <1>   0.1500 
 50 H       -4.0900    -7.3510     0.6060 H     1 <1>   0.1500 
@<TRIPOS>BOND
  1   1   2  2   
  2   2   3  am  
  3   2   4  1   
  4   3   5  1   
  5   3   6  1   
  6   4   7  1   
  7   4   8  2   
  8   5   9  1   
  9   5  26  1   
 10   5  27  1   
 11   6  10  1   
 12   6  28  1   
 13   6  29  1   
 14   7  11  1   
 15   7  12  1   
 16   8  13  1   
 17   8  30  1   
 18   9  14  1   
 19   9  15  1   
 20   9  31  1   
 21  10  14  1   
 22  10  16  1   
 23  10  32  1   
 24  11  13  2   
 25  12  17  1   
 26  12  18  1   
 27  12  33  1   
 28  13  34  1   
 29  15  19  ar  
 30  15  20  ar  
 31  16  21  1   
 32  16  22  1   
 33  16  35  1   
 34  17  36  1   
 35  17  37  1   
 36  17  38  1   
 37  18  39  1   
 38  18  40  1   
 39  18  41  1   
 40  19  23  ar  
 41  19  42  1   
 42  20  24  ar  
 43  20  43  1   
 44  21  22  1   
 45  21  44  1   
 46  21  45  1   
 47  22  46  1   
 48  22  47  1   
 49  23  25  ar  
 50  23  48  1   
 51  24  25  ar  
 52  24  49  1   
 53  25  50  1   
@<TRIPOS>SUBSTRUCTURE
  1 ****   3 GROUP 4 **** **** 0

# MOE 2024.06 (io_trps.svl 2023.06)
