@<TRIPOS>MOLECULE
NONAME
54 57 1 0 0 
SMALL
USER_CHARGES


@<TRIPOS>ATOM
  1 O       -0.8420     0.3090    -1.7290 O.2   1 <1>  -0.5700 
  2 C       -1.7290     1.1250    -1.7030 C.2   1 <1>   0.5690 
  3 N       -3.0280     0.7530    -1.9450 N.am  1 <1>  -0.6600 
  4 C       -1.3840     2.5680    -1.3730 C.3   1 <1>  -0.0990 
  5 C       -4.2410     1.5840    -1.6500 C.3   1 <1>   0.1400 
  6 C       -3.3510    -0.6350    -2.4270 C.3   1 <1>   0.1400 
  7 C        0.1280     2.8370    -1.2990 C.3   1 <1>   0.0200 
  8 C       -5.1730     0.8920    -0.6170 C.3   1 <1>   0.4230 
  9 C       -4.4930    -1.2880    -1.6170 C.3   1 <1>   0.3430 
 10 C        0.3870     4.2900    -0.9590 C.2   1 <1>   0.2980 
 11 N       -4.7650    -0.5430    -0.3350 N.4   1 <1>  -0.9590 
 12 C       -6.6490     0.9730    -1.0700 C.3   1 <1>   0.1200 
 13 O        0.2620     5.1880    -1.9000 O.3   1 <1>  -0.0190 
 14 N        0.7030     4.7330     0.1850 N.2   1 <1>  -0.5650 
 15 C       -5.7530    -1.1940     0.5920 C.3   1 <1>   0.4230 
 16 O       -7.4820     0.3320    -0.1490 O.3   1 <1>  -0.5600 
 17 N        0.5230     6.3080    -1.3020 N.2   1 <1>  -0.4100 
 18 C        0.7910     6.0450    -0.0710 C.2   1 <1>   0.5150 
 19 C       -7.2010    -1.0220     0.0750 C.3   1 <1>   0.1200 
 20 C       -5.3760    -2.6630     0.8450 C.3   1 <1>  -0.1600 
 21 C        1.1460     6.9990     0.9580 C.2   1 <1>   0.1410 
 22 C       -6.1160    -3.2580     2.0530 C.3   1 <1>  -0.1600 
 23 O        1.1940     8.3040     0.7020 O.3   1 <1>  -0.2800 
 24 C        1.4710     6.8040     2.2660 C.2   1 <1>  -0.1500 
 25 C       -5.6550    -4.6930     2.3210 C.3   1 <1>  -0.2400 
 26 C        1.5390     8.9370     1.8040 C.2   1 <1>  -0.0100 
 27 C        1.7250     8.0630     2.8140 C.2   1 <1>  -0.1500 
 28 H       -1.8120     3.2040    -2.1270 H     1 <1>   0.0800 
 29 H       -1.8200     2.8190    -0.4240 H     1 <1>   0.0800 
 30 H       -3.9700     2.5540    -1.2730 H     1 <1>   0.0800 
 31 H       -4.7710     1.7480    -2.5730 H     1 <1>   0.0800 
 32 H       -3.6260    -0.5960    -3.4670 H     1 <1>   0.0800 
 33 H       -2.4830    -1.2690    -2.3590 H     1 <1>   0.0800 
 34 H        0.5980     2.6020    -2.2380 H     1 <1>   0.0800 
 35 H        0.5720     2.2180    -0.5400 H     1 <1>   0.0800 
 36 H       -5.1030     1.4510     0.3010 H     1 <1>   0.0800 
 37 H       -4.2190    -2.3090    -1.4090 H     1 <1>   0.0800 
 38 H       -5.3850    -1.3090    -2.2210 H     1 <1>   0.0800 
 39 H       -3.8560    -0.4900     0.1450 H     1 <1>   0.4500 
 40 H       -6.7920     0.5180    -2.0350 H     1 <1>   0.0800 
 41 H       -6.9640     2.0000    -1.1270 H     1 <1>   0.0800 
 42 H       -5.7020    -0.6870     1.5420 H     1 <1>   0.0800 
 43 H       -7.9040    -1.3730     0.8100 H     1 <1>   0.0800 
 44 H       -7.3620    -1.5670    -0.8380 H     1 <1>   0.0800 
 45 H       -5.6020    -3.2610    -0.0210 H     1 <1>   0.0800 
 46 H       -4.3200    -2.7260     1.0410 H     1 <1>   0.0800 
 47 H       -5.9270    -2.6640     2.9320 H     1 <1>   0.0800 
 48 H       -7.1790    -3.2690     1.8810 H     1 <1>   0.0800 
 49 H        1.5260     5.8660     2.7900 H     1 <1>   0.1500 
 50 H       -4.6010    -4.7230     2.5360 H     1 <1>   0.0800 
 51 H       -5.8540    -5.3250     1.4730 H     1 <1>   0.0800 
 52 H       -6.1810    -5.0960     3.1700 H     1 <1>   0.0800 
 53 H        1.6270    10.0100     1.7810 H     1 <1>   0.1500 
 54 H        2.0090     8.2610     3.8330 H     1 <1>   0.1500 
@<TRIPOS>BOND
  1   1   2  2   
  2   2   3  am  
  3   2   4  1   
  4   3   5  1   
  5   3   6  1   
  6   4   7  1   
  7   4  28  1   
  8   4  29  1   
  9   5   8  1   
 10   5  30  1   
 11   5  31  1   
 12   6   9  1   
 13   6  32  1   
 14   6  33  1   
 15   7  10  1   
 16   7  34  1   
 17   7  35  1   
 18   8  11  1   
 19   8  12  1   
 20   8  36  1   
 21   9  11  1   
 22   9  37  1   
 23   9  38  1   
 24  10  13  1   
 25  10  14  2   
 26  11  15  1   
 27  11  39  1   
 28  12  16  1   
 29  12  40  1   
 30  12  41  1   
 31  13  17  1   
 32  14  18  1   
 33  15  19  1   
 34  15  20  1   
 35  15  42  1   
 36  16  19  1   
 37  17  18  2   
 38  18  21  1   
 39  19  43  1   
 40  19  44  1   
 41  20  22  1   
 42  20  45  1   
 43  20  46  1   
 44  21  23  1   
 45  21  24  2   
 46  22  25  1   
 47  22  47  1   
 48  22  48  1   
 49  23  26  1   
 50  24  27  1   
 51  24  49  1   
 52  25  50  1   
 53  25  51  1   
 54  25  52  1   
 55  26  27  2   
 56  26  53  1   
 57  27  54  1   
@<TRIPOS>SUBSTRUCTURE
  1 ****   4 GROUP 4 **** **** 0

# MOE 2024.06 (io_trps.svl 2023.06)
