@<TRIPOS>MOLECULE
NONAME
57 62 1 0 0 
SMALL
USER_CHARGES


@<TRIPOS>ATOM
  1 O       -1.2330     0.5400     2.1480 O.2   1 <1>  -0.5700 
  2 C       -2.1260     1.1730     1.6190 C.2   1 <1>   0.5440 
  3 N       -3.4020     0.6490     1.6130 N.am  1 <1>  -0.6600 
  4 C       -1.8200     2.4430     0.9980 C.ar  1 <1>   0.0860 
  5 C       -4.4190     0.9560     0.5690 C.3   1 <1>   0.1400 
  6 C       -3.7890    -0.4760     2.5100 C.3   1 <1>   0.1400 
  7 C       -2.6100     3.5640     1.2310 C.ar  1 <1>   0.1600 
  8 C       -0.7340     2.6070     0.1530 C.ar  1 <1>  -0.1500 
  9 C       -4.6330    -0.2890    -0.2930 C.3   1 <1>  -0.1600 
 10 C       -4.0020    -1.7360     1.6730 C.3   1 <1>  -0.1600 
 11 N       -2.4370     4.7590     0.6940 N.ar  1 <1>  -0.6200 
 12 C       -0.5200     3.8450    -0.4170 C.ar  1 <1>  -0.1440 
 13 C       -5.0260    -1.5050     0.5570 C.3   1 <1>   0.4600 
 14 C       -1.3970     4.8840    -0.1170 C.ar  1 <1>   0.1670 
 15 C        0.6790     4.0310    -1.3400 C.3   1 <1>  -0.0160 
 16 O       -6.2580    -1.2430     1.1960 O.3   1 <1>  -0.5600 
 17 C       -5.1600    -2.7560    -0.3020 C.2   1 <1>  -0.3320 
 18 C       -1.2230     6.2670    -0.7300 C.3   1 <1>  -0.0170 
 19 C        0.5540     5.2800    -2.2190 C.3   1 <1>  -0.1600 
 20 C       -7.4420    -1.4340     0.4580 C.3   1 <1>   0.1200 
 21 N       -4.1480    -3.4050    -0.9540 N.pl3 1 <1>   0.0330 
 22 C       -6.3220    -3.3990    -0.5320 C.2   1 <1>  -0.1810 
 23 C        0.1550     6.4890    -1.3690 C.3   1 <1>  -0.1600 
 24 C       -7.6200    -2.9090     0.0580 C.3   1 <1>   0.0210 
 25 C       -4.6890    -4.4860    -1.6080 C.ar  1 <1>  -0.1520 
 26 C       -6.0590    -4.5110    -1.3590 C.ar  1 <1>   0.0000 
 27 C       -4.0890    -5.4620    -2.4070 C.ar  1 <1>  -0.1500 
 28 C       -6.8450    -5.5260    -1.9140 C.ar  1 <1>  -0.1500 
 29 C       -4.8740    -6.4540    -2.9480 C.ar  1 <1>  -0.1500 
 30 C       -6.2520    -6.4860    -2.7010 C.ar  1 <1>  -0.1500 
 31 H       -4.1000     1.7690    -0.0590 H     1 <1>   0.0800 
 32 H       -5.3430     1.2370     1.0470 H     1 <1>   0.0800 
 33 H       -4.7000    -0.2190     3.0250 H     1 <1>   0.0800 
 34 H       -3.0270    -0.6510     3.2510 H     1 <1>   0.0800 
 35 H       -3.4420     3.4550     1.9060 H     1 <1>   0.1500 
 36 H       -0.0790     1.7750    -0.0410 H     1 <1>   0.1500 
 37 H       -3.7180    -0.5040    -0.8120 H     1 <1>   0.0800 
 38 H       -5.3820    -0.1010    -1.0380 H     1 <1>   0.0800 
 39 H       -4.3390    -2.5420     2.3000 H     1 <1>   0.0800 
 40 H       -3.0570    -2.0230     1.2510 H     1 <1>   0.0800 
 41 H        0.7940     3.1660    -1.9690 H     1 <1>   0.0800 
 42 H        1.5630     4.1160    -0.7320 H     1 <1>   0.0800 
 43 H       -1.3840     7.0120     0.0290 H     1 <1>   0.0800 
 44 H       -1.9860     6.3930    -1.4770 H     1 <1>   0.0800 
 45 H       -0.1920     5.1120    -2.9780 H     1 <1>   0.0800 
 46 H        1.4920     5.4690    -2.7110 H     1 <1>   0.0800 
 47 H       -7.4050    -0.8130    -0.4180 H     1 <1>   0.0800 
 48 H       -8.2660    -1.1150     1.0720 H     1 <1>   0.0800 
 49 H       -3.1550    -3.1550    -0.9490 H     1 <1>   0.2700 
 50 H        0.8870     6.6360    -0.5930 H     1 <1>   0.0800 
 51 H        0.1310     7.3770    -1.9760 H     1 <1>   0.0800 
 52 H       -8.4120    -2.9970    -0.6620 H     1 <1>   0.0800 
 53 H       -7.8700    -3.4970     0.9220 H     1 <1>   0.0800 
 54 H       -3.0300    -5.4310    -2.5900 H     1 <1>   0.1500 
 55 H       -7.9000    -5.5380    -1.7150 H     1 <1>   0.1500 
 56 H       -4.4360    -7.2170    -3.5670 H     1 <1>   0.1500 
 57 H       -6.8430    -7.2730    -3.1360 H     1 <1>   0.1500 
@<TRIPOS>BOND
  1   1   2  2   
  2   2   3  am  
  3   2   4  1   
  4   3   5  1   
  5   3   6  1   
  6   4   7  ar  
  7   4   8  ar  
  8   5   9  1   
  9   5  31  1   
 10   5  32  1   
 11   6  10  1   
 12   6  33  1   
 13   6  34  1   
 14   7  11  ar  
 15   7  35  1   
 16   8  12  ar  
 17   8  36  1   
 18   9  13  1   
 19   9  37  1   
 20   9  38  1   
 21  10  13  1   
 22  10  39  1   
 23  10  40  1   
 24  11  14  ar  
 25  12  14  ar  
 26  12  15  1   
 27  13  16  1   
 28  13  17  1   
 29  14  18  1   
 30  15  19  1   
 31  15  41  1   
 32  15  42  1   
 33  16  20  1   
 34  17  21  1   
 35  17  22  2   
 36  18  23  1   
 37  18  43  1   
 38  18  44  1   
 39  19  23  1   
 40  19  45  1   
 41  19  46  1   
 42  20  24  1   
 43  20  47  1   
 44  20  48  1   
 45  21  25  1   
 46  21  49  1   
 47  22  24  1   
 48  22  26  1   
 49  23  50  1   
 50  23  51  1   
 51  24  52  1   
 52  24  53  1   
 53  25  26  ar  
 54  25  27  ar  
 55  26  28  ar  
 56  27  29  ar  
 57  27  54  1   
 58  28  30  ar  
 59  28  55  1   
 60  29  30  ar  
 61  29  56  1   
 62  30  57  1   
@<TRIPOS>SUBSTRUCTURE
  1 ****   9 GROUP 4 **** **** 0

# MOE 2024.06 (io_trps.svl 2023.06)
