@<TRIPOS>MOLECULE
NONAME
42 44 1 0 0 
SMALL
USER_CHARGES


@<TRIPOS>ATOM
  1 O        1.1760    -0.7530     1.4560 O.3   1 <1>  -0.0190 
  2 N        0.8550    -2.0110     1.4380 N.2   1 <1>  -0.4100 
  3 C        1.3800    -0.4570     0.1960 C.2   1 <1>   0.2980 
  4 C        0.8890    -2.3860     0.2200 C.2   1 <1>   0.3350 
  5 N        1.2150    -1.4190    -0.6230 N.2   1 <1>  -0.5650 
  6 C        1.7830     0.9610    -0.1700 C.3   1 <1>   0.0200 
  7 C        0.5700    -3.8000    -0.2680 C.3   1 <1>   0.5240 
  8 C        0.6570     1.9680     0.1010 C.3   1 <1>  -0.2400 
  9 N       -0.4890    -4.4740     0.5730 N.4   1 <1>  -0.9590 
 10 C       -0.5800    -5.9450     0.3280 C.3   1 <1>   0.6030 
 11 C       -1.7480    -3.6680     0.5570 C.3   1 <1>   0.3430 
 12 C        0.8310    -6.5260     0.3880 C.2   1 <1>  -0.0400 
 13 C       -1.3380    -6.2810    -0.9660 C.3   1 <1>  -0.1600 
 14 C       -3.0120    -4.4550     0.9040 C.3   1 <1>  -0.1600 
 15 O        1.5340    -6.2710     1.4780 O.3   1 <1>  -0.2800 
 16 C        1.5670    -7.2650    -0.4760 C.2   1 <1>  -0.1500 
 17 C       -2.8450    -6.4570    -0.7230 C.3   1 <1>  -0.1600 
 18 C       -3.5930    -5.1820    -0.3190 C.3   1 <1>  -0.1600 
 19 C        2.7150    -6.8390     1.3400 C.2   1 <1>  -0.0100 
 20 C        2.8010    -7.4700     0.1510 C.2   1 <1>  -0.1500 
 21 H        2.0440     0.9920    -1.2140 H     1 <1>   0.0800 
 22 H        2.6560     1.2310     0.3970 H     1 <1>   0.0800 
 23 H        1.4880    -4.3620    -0.2440 H     1 <1>   0.0800 
 24 H        0.2410    -3.7420    -1.2910 H     1 <1>   0.0800 
 25 H       -0.2170     1.7100    -0.4700 H     1 <1>   0.0800 
 26 H        0.9720     2.9570    -0.1810 H     1 <1>   0.0800 
 27 H        0.4010     1.9730     1.1460 H     1 <1>   0.0800 
 28 H       -0.1080    -4.4100     1.5290 H     1 <1>   0.4500 
 29 H       -1.1240    -6.3930     1.1430 H     1 <1>   0.0800 
 30 H       -1.8840    -3.2280    -0.4190 H     1 <1>   0.0800 
 31 H       -1.6440    -2.8540     1.2590 H     1 <1>   0.0800 
 32 H       -0.9880    -7.2310    -1.3290 H     1 <1>   0.0800 
 33 H       -1.1490    -5.5560    -1.7360 H     1 <1>   0.0800 
 34 H       -3.7480    -3.7340     1.2170 H     1 <1>   0.0800 
 35 H       -2.8580    -5.1180     1.7360 H     1 <1>   0.0800 
 36 H        1.3180    -7.6470    -1.4520 H     1 <1>   0.1500 
 37 H       -2.9980    -7.2070     0.0360 H     1 <1>   0.0800 
 38 H       -3.2960    -6.8360    -1.6260 H     1 <1>   0.0800 
 39 H       -3.6310    -4.5080    -1.1590 H     1 <1>   0.0800 
 40 H       -4.6120    -5.4560    -0.0980 H     1 <1>   0.0800 
 41 H        3.4370    -6.7500     2.1360 H     1 <1>   0.1500 
 42 H        3.6290    -8.0250    -0.2560 H     1 <1>   0.1500 
@<TRIPOS>BOND
  1   1   2  1   
  2   1   3  1   
  3   2   4  2   
  4   3   5  2   
  5   3   6  1   
  6   4   5  1   
  7   4   7  1   
  8   6   8  1   
  9   6  21  1   
 10   6  22  1   
 11   7   9  1   
 12   7  23  1   
 13   7  24  1   
 14   8  25  1   
 15   8  26  1   
 16   8  27  1   
 17   9  10  1   
 18   9  11  1   
 19   9  28  1   
 20  10  12  1   
 21  10  13  1   
 22  10  29  1   
 23  11  14  1   
 24  11  30  1   
 25  11  31  1   
 26  12  15  1   
 27  12  16  2   
 28  13  17  1   
 29  13  32  1   
 30  13  33  1   
 31  14  18  1   
 32  14  34  1   
 33  14  35  1   
 34  15  19  1   
 35  16  20  1   
 36  16  36  1   
 37  17  18  1   
 38  17  37  1   
 39  17  38  1   
 40  18  39  1   
 41  18  40  1   
 42  19  20  2   
 43  19  41  1   
 44  20  42  1   
@<TRIPOS>SUBSTRUCTURE
  1 ****   7 GROUP 4 **** **** 0

# MOE 2024.06 (io_trps.svl 2023.06)
