@<TRIPOS>MOLECULE
NONAME
55 58 1 0 0 
SMALL
USER_CHARGES


@<TRIPOS>ATOM
  1 CL      -2.5360    -0.6160     2.9370 Cl    1 <1>  -0.1770 
  2 C       -3.2710    -0.5950     1.3530 C.ar  1 <1>   0.1770 
  3 C       -3.2980    -1.7760     0.6140 C.ar  1 <1>  -0.1520 
  4 C       -3.8170     0.5560     0.8410 C.ar  1 <1>  -0.1500 
  5 N       -2.8210    -3.0220     0.9070 N.pl3 1 <1>   0.0330 
  6 C       -3.8830    -1.8030    -0.6450 C.ar  1 <1>   0.0000 
  7 C       -4.4030     0.5370    -0.4310 C.ar  1 <1>  -0.1500 
  8 C       -3.1280    -3.8500    -0.1440 C.2   1 <1>  -0.3320 
  9 C       -3.7560    -3.1310    -1.1100 C.2   1 <1>  -0.1810 
 10 C       -4.4360    -0.6270    -1.1690 C.ar  1 <1>  -0.1500 
 11 C       -2.7920    -5.3180    -0.1430 C.3   1 <1>   0.5230 
 12 C       -4.2620    -3.5640    -2.4740 C.3   1 <1>  -0.0590 
 13 N       -4.0510    -5.9780     0.2630 N.4   1 <1>  -0.9590 
 14 C       -4.2660    -7.3400    -0.3240 C.3   1 <1>   0.3430 
 15 C       -4.3200    -5.8580     1.7260 C.3   1 <1>   0.3430 
 16 C       -5.6700    -7.9620    -0.0090 C.3   1 <1>   0.4230 
 17 C       -5.5090    -6.7260     2.1740 C.3   1 <1>  -0.1600 
 18 N       -6.5100    -8.4240    -1.1960 N.4   1 <1>  -0.9590 
 19 C       -6.4890    -7.1700     1.0540 C.3   1 <1>   0.0000 
 20 C       -7.9150    -8.8060    -0.8090 C.3   1 <1>   0.3430 
 21 C       -6.5690    -7.4750    -2.3590 C.3   1 <1>   0.2630 
 22 C       -7.5150    -8.1680     1.6600 C.3   1 <1>  -0.1600 
 23 C       -7.2970    -5.9370     0.5340 C.3   1 <1>   0.1200 
 24 C       -7.9990    -9.2440     0.6580 C.3   1 <1>  -0.1600 
 25 O       -6.5710    -5.1320    -0.3360 O.3   1 <1>  -0.6800 
 26 H       -3.7950     1.4680     1.4110 H     1 <1>   0.1500 
 27 H       -2.2840    -3.2210     1.7600 H     1 <1>   0.2700 
 28 H       -4.8250     1.4450    -0.8270 H     1 <1>   0.1500 
 29 H       -4.8820    -0.6440    -2.1470 H     1 <1>   0.1500 
 30 H       -1.9840    -5.5440     0.5350 H     1 <1>   0.0800 
 31 H       -2.5150    -5.6170    -1.1410 H     1 <1>   0.0800 
 32 H       -5.3210    -3.3940    -2.5440 H     1 <1>   0.0800 
 33 H       -4.0590    -4.6020    -2.6550 H     1 <1>   0.0800 
 34 H       -3.7740    -2.9840    -3.2370 H     1 <1>   0.0800 
 35 H       -4.7800    -5.3620    -0.1570 H     1 <1>   0.4500 
 36 H       -4.1310    -7.2950    -1.3900 H     1 <1>   0.0800 
 37 H       -3.5140    -8.0020     0.0740 H     1 <1>   0.0800 
 38 H       -3.4450    -6.1380     2.2910 H     1 <1>   0.0800 
 39 H       -4.5390    -4.8250     1.9520 H     1 <1>   0.0800 
 40 H       -5.4120    -8.8730     0.5060 H     1 <1>   0.0800 
 41 H       -5.0930    -7.5970     2.6500 H     1 <1>   0.0800 
 42 H       -6.0430    -6.1960     2.9440 H     1 <1>   0.0800 
 43 H       -6.0830    -9.2970    -1.5430 H     1 <1>   0.4500 
 44 H       -8.5730    -7.9650    -0.9520 H     1 <1>   0.0800 
 45 H       -8.2680    -9.6030    -1.4470 H     1 <1>   0.0800 
 46 H       -7.0750    -6.5660    -2.0820 H     1 <1>   0.0800 
 47 H       -7.1110    -7.9240    -3.1760 H     1 <1>   0.0800 
 48 H       -5.5800    -7.2290    -2.7060 H     1 <1>   0.0800 
 49 H       -7.0930    -8.6880     2.5040 H     1 <1>   0.0800 
 50 H       -8.3680    -7.6300     2.0440 H     1 <1>   0.0800 
 51 H       -7.6080    -5.3250     1.3650 H     1 <1>   0.0800 
 52 H       -8.1870    -6.2430     0.0120 H     1 <1>   0.0800 
 53 H       -9.0200    -9.5020     0.8880 H     1 <1>   0.0800 
 54 H       -7.4230   -10.1450     0.7820 H     1 <1>   0.0800 
 55 H       -7.0380    -4.2710    -0.4630 H     1 <1>   0.4000 
@<TRIPOS>BOND
  1   1   2  1   
  2   2   3  ar  
  3   2   4  ar  
  4   3   5  1   
  5   3   6  ar  
  6   4   7  ar  
  7   4  26  1   
  8   5   8  1   
  9   5  27  1   
 10   6   9  1   
 11   6  10  ar  
 12   7  10  ar  
 13   7  28  1   
 14   8   9  2   
 15   8  11  1   
 16   9  12  1   
 17  10  29  1   
 18  11  13  1   
 19  11  30  1   
 20  11  31  1   
 21  12  32  1   
 22  12  33  1   
 23  12  34  1   
 24  13  14  1   
 25  13  15  1   
 26  13  35  1   
 27  14  16  1   
 28  14  36  1   
 29  14  37  1   
 30  15  17  1   
 31  15  38  1   
 32  15  39  1   
 33  16  18  1   
 34  16  19  1   
 35  16  40  1   
 36  17  19  1   
 37  17  41  1   
 38  17  42  1   
 39  18  20  1   
 40  18  21  1   
 41  18  43  1   
 42  19  22  1   
 43  19  23  1   
 44  20  24  1   
 45  20  44  1   
 46  20  45  1   
 47  21  46  1   
 48  21  47  1   
 49  21  48  1   
 50  22  24  1   
 51  22  49  1   
 52  22  50  1   
 53  23  25  1   
 54  23  51  1   
 55  23  52  1   
 56  24  53  1   
 57  24  54  1   
 58  25  55  1   
@<TRIPOS>SUBSTRUCTURE
  1 ****  13 GROUP 4 **** **** 0

# MOE 2024.06 (io_trps.svl 2023.06)
