@<TRIPOS>MOLECULE
NONAME
49 51 1 0 0 
SMALL
USER_CHARGES


@<TRIPOS>ATOM
  1 S        0.0920     0.2160    -0.1880 S.o2  1 <1>   1.3330 
  2 O       -0.4440    -0.1510     1.1030 O.2   1 <1>  -0.6500 
  3 O       -0.2930     1.4700    -0.7930 O.2   1 <1>  -0.6500 
  4 N       -0.2620    -1.0380    -1.2770 N.am  1 <1>  -0.8490 
  5 C        1.8840     0.1790    -0.1210 C.3   1 <1>  -0.0550 
  6 C       -0.3440    -2.3580    -0.6410 C.3   1 <1>   0.1160 
  7 C       -1.4830    -0.7790    -2.0470 C.3   1 <1>   0.1160 
  8 C        2.4880     1.3010     0.7480 C.3   1 <1>  -0.0800 
  9 C        4.0010     1.3560     0.6010 C.3   1 <1>   0.2200 
 10 C        2.2960     1.0380     2.2510 C.3   1 <1>   0.1200 
 11 N        4.4590     2.7400     0.8670 N.am  1 <1>  -0.7300 
 12 C        4.4510     0.4540     1.7410 C.3   1 <1>   0.1200 
 13 O        3.5530     0.7140     2.7710 O.3   1 <1>  -0.5600 
 14 C        4.7630     3.6690    -0.0790 C.2   1 <1>   0.5440 
 15 O        4.7630     3.3330    -1.2480 O.2   1 <1>  -0.5700 
 16 C        5.0800     5.0300     0.3000 C.ar  1 <1>   0.0860 
 17 C        6.2850     5.6780    -0.0530 C.ar  1 <1>   0.0170 
 18 C        4.1360     5.7270     1.0550 C.ar  1 <1>  -0.1500 
 19 C        7.3520     5.0430    -0.8030 C.cat 1 <1>   0.7830 
 20 C        6.4600     7.0050     0.3580 C.ar  1 <1>  -0.1500 
 21 C        4.3430     7.0290     1.4590 C.ar  1 <1>  -0.1500 
 22 N        7.2460     4.1420    -1.7760 N.pl3 1 <1>  -0.7000 
 23 N        8.6560     5.2850    -0.6370 N.pl3 1 <1>  -0.7000 
 24 C        5.5110     7.6720     1.1050 C.ar  1 <1>  -0.1500 
 25 C        8.4870     3.8070    -2.2400 C.2   1 <1>   0.2000 
 26 C        9.3750     4.5250    -1.5250 C.2   1 <1>   0.2000 
 27 H        2.2100    -0.7760     0.2410 H     1 <1>   0.0800 
 28 H        2.2500     0.2920    -1.1240 H     1 <1>   0.0800 
 29 H       -0.4760    -3.1210    -1.3890 H     1 <1>   0.0800 
 30 H       -1.1740    -2.3940     0.0460 H     1 <1>   0.0800 
 31 H        0.5620    -2.5670    -0.0990 H     1 <1>   0.0800 
 32 H       -1.6670    -1.5840    -2.7380 H     1 <1>   0.0800 
 33 H       -1.3760     0.1300    -2.6150 H     1 <1>   0.0800 
 34 H       -2.3280    -0.6770    -1.3870 H     1 <1>   0.0800 
 35 H        2.0370     2.2350     0.4580 H     1 <1>   0.0800 
 36 H        4.3540     1.0150    -0.3580 H     1 <1>   0.0800 
 37 H        1.6280     0.2190     2.4550 H     1 <1>   0.0800 
 38 H        1.9450     1.9180     2.7620 H     1 <1>   0.0800 
 39 H        4.3910     2.9980     1.8570 H     1 <1>   0.3700 
 40 H        5.4530     0.6620     2.0710 H     1 <1>   0.0800 
 41 H        4.3590    -0.5840     1.4740 H     1 <1>   0.0800 
 42 H        3.2120     5.2420     1.3250 H     1 <1>   0.1500 
 43 H        7.3520     7.5460     0.0900 H     1 <1>   0.1500 
 44 H        3.5970     7.5460     2.0410 H     1 <1>   0.1500 
 45 H        6.3300     3.7400    -2.0580 H     1 <1>   0.4500 
 46 H        9.0480     5.9260     0.0580 H     1 <1>   0.4500 
 47 H        5.6720     8.6940     1.4110 H     1 <1>   0.1500 
 48 H        8.6560     3.0910    -3.0300 H     1 <1>   0.1500 
 49 H       10.4520     4.5390    -1.5940 H     1 <1>   0.1500 
@<TRIPOS>BOND
  1   1   2  2   
  2   1   3  2   
  3   1   4  am  
  4   1   5  1   
  5   4   6  1   
  6   4   7  1   
  7   5   8  1   
  8   5  27  1   
  9   5  28  1   
 10   6  29  1   
 11   6  30  1   
 12   6  31  1   
 13   7  32  1   
 14   7  33  1   
 15   7  34  1   
 16   8   9  1   
 17   8  10  1   
 18   8  35  1   
 19   9  11  1   
 20   9  12  1   
 21   9  36  1   
 22  10  13  1   
 23  10  37  1   
 24  10  38  1   
 25  11  14  am  
 26  11  39  1   
 27  12  13  1   
 28  12  40  1   
 29  12  41  1   
 30  14  15  2   
 31  14  16  1   
 32  16  17  ar  
 33  16  18  ar  
 34  17  19  1   
 35  17  20  ar  
 36  18  21  ar  
 37  18  42  1   
 38  19  22  ar  
 39  19  23  ar  
 40  20  24  ar  
 41  20  43  1   
 42  21  24  ar  
 43  21  44  1   
 44  22  25  1   
 45  22  45  1   
 46  23  26  1   
 47  23  46  1   
 48  24  47  1   
 49  25  26  2   
 50  25  48  1   
 51  26  49  1   
@<TRIPOS>SUBSTRUCTURE
  1 ****  11 GROUP 4 **** **** 0

# MOE 2024.06 (io_trps.svl 2023.06)
