@<TRIPOS>MOLECULE
NONAME
56 59 1 0 0 
SMALL
USER_CHARGES


@<TRIPOS>ATOM
  1 O        3.7590     0.6550     1.6310 O.3   1 <1>  -0.5160 
  2 C        3.1880     1.5720     0.7220 C.3   1 <1>   0.2580 
  3 C        2.8550    -0.3830     1.2570 C.3   1 <1>   0.2580 
  4 C        4.0400     1.6560    -0.5490 C.3   1 <1>  -0.1600 
  5 C        3.0070     2.9230     1.4130 C.3   1 <1>  -0.1600 
  6 C        1.9340     0.6840     0.6560 C.3   1 <1>   0.0000 
  7 C        3.4840     2.7220    -1.4880 C.3   1 <1>   0.3430 
  8 C        2.4680     3.9530     0.4270 C.3   1 <1>   0.3430 
  9 N        3.3690     4.0140    -0.7600 N.4   1 <1>  -0.9590 
 10 C        3.0370     5.1440    -1.6640 C.3   1 <1>   0.4860 
 11 C        3.2530     6.4450    -0.9150 C.ar  1 <1>  -0.1430 
 12 C        4.4940     6.7470    -0.3570 C.ar  1 <1>   0.0820 
 13 C        2.2020     7.3400    -0.7870 C.ar  1 <1>  -0.1500 
 14 O        5.4940     5.8330    -0.4990 O.3   1 <1>  -0.3630 
 15 C        4.6630     7.9510     0.3250 C.ar  1 <1>  -0.1500 
 16 C        2.3780     8.5310    -0.1070 C.ar  1 <1>  -0.1500 
 17 C        6.8070     6.1150    -0.0580 C.3   1 <1>   0.1200 
 18 C        3.6080     8.8350     0.4480 C.ar  1 <1>  -0.1500 
 19 C        7.7020     4.9220    -0.3980 C.3   1 <1>  -0.1600 
 20 C        9.1460     5.1790     0.0610 C.3   1 <1>  -0.1600 
 21 C       10.0680     3.9990    -0.2760 C.3   1 <1>   0.0960 
 22 N       11.4420     4.2800     0.1810 N.pl3 1 <1>   0.0480 
 23 C       12.4530     4.8400    -0.5210 C.2   1 <1>   0.0360 
 24 C       11.9640     4.0450     1.3990 C.2   1 <1>  -0.3020 
 25 N       13.5510     4.9740     0.1500 N.2   1 <1>  -0.5650 
 26 C       13.2450     4.4720     1.3610 C.2   1 <1>   0.0770 
 27 H        2.4690    -0.8770     2.1310 H     1 <1>   0.0000 
 28 H        3.3200    -1.0340     0.5360 H     1 <1>   0.0000 
 29 H        4.0570     0.7090    -1.0580 H     1 <1>   0.0800 
 30 H        5.0510     1.9120    -0.2850 H     1 <1>   0.0800 
 31 H        3.9540     3.2630     1.7940 H     1 <1>   0.0800 
 32 H        2.3290     2.8310     2.2430 H     1 <1>   0.0800 
 33 H        1.5920     0.4600    -0.3390 H     1 <1>   0.0000 
 34 H        1.1430     0.9800     1.3230 H     1 <1>   0.0000 
 35 H        2.5130     2.4170    -1.8470 H     1 <1>   0.0800 
 36 H        4.1420     2.8300    -2.3350 H     1 <1>   0.0800 
 37 H        2.4230     4.9170     0.9100 H     1 <1>   0.0800 
 38 H        1.4720     3.6780     0.1200 H     1 <1>   0.0800 
 39 H        4.3060     4.2770    -0.4060 H     1 <1>   0.4500 
 40 H        2.0150     5.0700    -1.9980 H     1 <1>   0.0800 
 41 H        3.6840     5.1300    -2.5250 H     1 <1>   0.0800 
 42 H        1.2360     7.1290    -1.2150 H     1 <1>   0.1500 
 43 H        5.6020     8.2250     0.7690 H     1 <1>   0.1500 
 44 H        1.5610     9.2270    -0.0090 H     1 <1>   0.1500 
 45 H        6.7830     6.2790     1.0060 H     1 <1>   0.0800 
 46 H        7.1510     7.0040    -0.5610 H     1 <1>   0.0800 
 47 H        3.7420     9.7650     0.9750 H     1 <1>   0.1500 
 48 H        7.6890     4.7640    -1.4630 H     1 <1>   0.0800 
 49 H        7.3240     4.0430     0.0940 H     1 <1>   0.0800 
 50 H        9.1600     5.3410     1.1260 H     1 <1>   0.0800 
 51 H        9.5220     6.0660    -0.4220 H     1 <1>   0.0800 
 52 H       10.0870     3.8300    -1.3380 H     1 <1>   0.0800 
 53 H        9.7230     3.1040     0.2090 H     1 <1>   0.0800 
 54 H       12.3360     5.1440    -1.5460 H     1 <1>   0.1500 
 55 H       11.4130     3.5990     2.2070 H     1 <1>   0.1500 
 56 H       13.9740     4.4460     2.1540 H     1 <1>   0.1500 
@<TRIPOS>BOND
  1   1   2  1   
  2   1   3  1   
  3   2   4  1   
  4   2   5  1   
  5   2   6  1   
  6   3   6  1   
  7   3  27  1   
  8   3  28  1   
  9   4   7  1   
 10   4  29  1   
 11   4  30  1   
 12   5   8  1   
 13   5  31  1   
 14   5  32  1   
 15   6  33  1   
 16   6  34  1   
 17   7   9  1   
 18   7  35  1   
 19   7  36  1   
 20   8   9  1   
 21   8  37  1   
 22   8  38  1   
 23   9  10  1   
 24   9  39  1   
 25  10  11  1   
 26  10  40  1   
 27  10  41  1   
 28  11  12  ar  
 29  11  13  ar  
 30  12  14  1   
 31  12  15  ar  
 32  13  16  ar  
 33  13  42  1   
 34  14  17  1   
 35  15  18  ar  
 36  15  43  1   
 37  16  18  ar  
 38  16  44  1   
 39  17  19  1   
 40  17  45  1   
 41  17  46  1   
 42  18  47  1   
 43  19  20  1   
 44  19  48  1   
 45  19  49  1   
 46  20  21  1   
 47  20  50  1   
 48  20  51  1   
 49  21  22  1   
 50  21  52  1   
 51  21  53  1   
 52  22  23  1   
 53  22  24  1   
 54  23  25  2   
 55  23  54  1   
 56  24  26  2   
 57  24  55  1   
 58  25  26  1   
 59  26  56  1   
@<TRIPOS>SUBSTRUCTURE
  1 ****  14 GROUP 4 **** **** 0

# MOE 2024.06 (io_trps.svl 2023.06)
