@<TRIPOS>MOLECULE
NONAME
52 54 1 0 0 
SMALL
USER_CHARGES


@<TRIPOS>ATOM
  1 O       -5.3750    -2.9980    -0.8780 O.co2 1 <1>  -0.9000 
  2 C       -4.9820    -1.9460    -1.4080 C.2   1 <1>   0.9060 
  3 O       -5.2600    -1.7480    -2.5950 O.co2 1 <1>  -0.9000 
  4 C       -4.3050    -0.8530    -0.5670 C.3   1 <1>   0.0140 
  5 O       -5.1840     0.1640    -0.0380 O.3   1 <1>  -0.3630 
  6 C       -6.2650    -0.2910     0.6450 C.ar  1 <1>   0.0830 
  7 C       -6.3590    -0.3380     2.0440 C.ar  1 <1>   0.0830 
  8 C       -7.2690    -0.8460    -0.1220 C.ar  1 <1>  -0.1500 
  9 O       -5.5040     0.2570     2.9240 O.3   1 <1>  -0.3630 
 10 C       -7.3980    -1.0610     2.6130 C.ar  1 <1>  -0.1500 
 11 C       -8.2300    -1.6570     0.4450 C.ar  1 <1>  -0.1440 
 12 C       -4.6140     1.2680     2.5080 C.3   1 <1>   0.0400 
 13 C       -8.3140    -1.7440     1.8260 C.ar  1 <1>  -0.1500 
 14 C       -9.0470    -2.5050    -0.5010 C.3   1 <1>   0.4860 
 15 N       -8.0730    -3.3810    -1.1990 N.4   1 <1>  -0.9590 
 16 C       -7.9950    -3.2860    -2.6850 C.3   1 <1>   0.3430 
 17 C       -8.0240    -4.8020    -0.8000 C.3   1 <1>   0.3430 
 18 C       -7.7800    -4.7150    -3.1930 C.3   1 <1>   0.2000 
 19 C       -7.3240    -5.5020    -1.9600 C.3   1 <1>  -0.0800 
 20 O       -8.9990    -5.2100    -3.6580 O.3   1 <1>  -0.6800 
 21 C       -7.5610    -7.0250    -1.9930 C.3   1 <1>   0.0210 
 22 C       -7.3120    -7.6390    -0.6310 C.2   1 <1>   0.1080 
 23 N       -8.1810    -7.5740     0.3320 N.2   1 <1>  -0.7070 
 24 C       -6.1580    -8.3180    -0.2580 C.2   1 <1>  -0.1500 
 25 N       -7.5970    -8.2300     1.3560 N.pl3 1 <1>   0.3000 
 26 C       -6.3710    -8.6850     1.0230 C.2   1 <1>  -0.3320 
 27 C       -5.4620    -9.4550     1.9640 C.3   1 <1>  -0.0600 
 28 H       -3.5730    -0.3610    -1.1770 H     1 <1>   0.0800 
 29 H       -3.8140    -1.3220     0.2640 H     1 <1>   0.0800 
 30 H       -7.2260    -0.7090    -1.1900 H     1 <1>   0.1500 
 31 H       -7.4670    -1.1060     3.6850 H     1 <1>   0.1500 
 32 H       -4.2180     1.7470     3.3850 H     1 <1>   0.0800 
 33 H       -5.1480     1.9820     1.9070 H     1 <1>   0.0800 
 34 H       -3.8150     0.8180     1.9470 H     1 <1>   0.0800 
 35 H       -9.0670    -2.3490     2.2990 H     1 <1>   0.1500 
 36 H       -9.5560    -1.8710    -1.2070 H     1 <1>   0.0800 
 37 H       -9.7680    -3.0930     0.0420 H     1 <1>   0.0800 
 38 H       -7.1120    -3.0410    -0.9110 H     1 <1>   0.4500 
 39 H       -8.8890    -2.8670    -3.1110 H     1 <1>   0.0800 
 40 H       -7.1520    -2.6770    -2.9620 H     1 <1>   0.0800 
 41 H       -7.4720    -4.9320     0.1180 H     1 <1>   0.0800 
 42 H       -9.0180    -5.1980    -0.6790 H     1 <1>   0.0800 
 43 H       -7.0690    -4.7480    -4.0020 H     1 <1>   0.0800 
 44 H       -6.2690    -5.3310    -1.8280 H     1 <1>   0.0800 
 45 H       -9.6350    -5.3280    -2.9280 H     1 <1>   0.4000 
 46 H       -6.9100    -7.4760    -2.7200 H     1 <1>   0.0800 
 47 H       -8.5730    -7.2590    -2.2700 H     1 <1>   0.0800 
 48 H       -5.2960    -8.4950    -0.8770 H     1 <1>   0.1500 
 49 H       -8.0570    -8.3540     2.2660 H     1 <1>   0.2700 
 50 H       -4.5440    -9.7100     1.4640 H     1 <1>   0.0800 
 51 H       -5.9400   -10.3630     2.2840 H     1 <1>   0.0800 
 52 H       -5.2270    -8.8580     2.8270 H     1 <1>   0.0800 
@<TRIPOS>BOND
  1   1   2  ar  
  2   2   3  ar  
  3   2   4  1   
  4   4   5  1   
  5   4  28  1   
  6   4  29  1   
  7   5   6  1   
  8   6   7  ar  
  9   6   8  ar  
 10   7   9  1   
 11   7  10  ar  
 12   8  11  ar  
 13   8  30  1   
 14   9  12  1   
 15  10  13  ar  
 16  10  31  1   
 17  11  13  ar  
 18  11  14  1   
 19  12  32  1   
 20  12  33  1   
 21  12  34  1   
 22  13  35  1   
 23  14  15  1   
 24  14  36  1   
 25  14  37  1   
 26  15  16  1   
 27  15  17  1   
 28  15  38  1   
 29  16  18  1   
 30  16  39  1   
 31  16  40  1   
 32  17  19  1   
 33  17  41  1   
 34  17  42  1   
 35  18  19  1   
 36  18  20  1   
 37  18  43  1   
 38  19  21  1   
 39  19  44  1   
 40  20  45  1   
 41  21  22  1   
 42  21  46  1   
 43  21  47  1   
 44  22  23  2   
 45  22  24  1   
 46  23  25  1   
 47  24  26  2   
 48  24  48  1   
 49  25  26  1   
 50  25  49  1   
 51  26  27  1   
 52  27  50  1   
 53  27  51  1   
 54  27  52  1   
@<TRIPOS>SUBSTRUCTURE
  1 ****  15 GROUP 4 **** **** 0

# MOE 2024.06 (io_trps.svl 2023.06)
