@<TRIPOS>MOLECULE
NONAME
40 42 1 0 0 
SMALL
USER_CHARGES


@<TRIPOS>ATOM
  1 O       -1.2610     0.4880    -2.0380 O.2   1 <1>  -0.5700 
  2 C       -1.9170     0.9070    -1.1010 C.2   1 <1>   0.5440 
  3 N       -2.7940     0.0720    -0.4610 N.am  1 <1>  -0.6600 
  4 C       -1.7630     2.2850    -0.6760 C.ar  1 <1>   0.0860 
  5 C       -3.7630     0.4930     0.5900 C.3   1 <1>   0.2350 
  6 C       -3.0200    -1.3510    -0.8330 C.3   1 <1>   0.2350 
  7 C       -1.0040     2.6480     0.4400 C.ar  1 <1>  -0.1440 
  8 C       -2.3920     3.2980    -1.3950 C.ar  1 <1>  -0.1500 
  9 C       -4.8790    -0.5350     0.5440 C.3   1 <1>  -0.2420 
 10 C       -4.4160    -1.6790    -0.3290 C.3   1 <1>  -0.2420 
 11 C       -0.9020     3.9790     0.8080 C.ar  1 <1>  -0.1500 
 12 C       -0.2810     1.5850     1.2590 C.3   1 <1>  -0.0970 
 13 C       -2.2910     4.6300    -1.0320 C.ar  1 <1>  -0.1430 
 14 C       -5.6880    -0.5080     1.8450 C.2   1 <1>   0.9470 
 15 C       -5.5910    -0.8340    -0.7500 C.3   1 <1>  -0.2000 
 16 C       -4.6010    -3.1910    -0.1880 C.2   1 <1>   0.9470 
 17 C       -1.5390     4.9750     0.0840 C.ar  1 <1>  -0.1430 
 18 C       -3.0110     5.6810    -1.8650 C.3   1 <1>  -0.0970 
 19 O       -5.0820    -0.5010     2.9260 O.co2 1 <1>  -0.9000 
 20 O       -6.9120    -0.3220     1.8010 O.co2 1 <1>  -0.9000 
 21 O       -5.4730    -3.7640    -0.8570 O.co2 1 <1>  -0.9000 
 22 O       -3.7750    -3.8390     0.4710 O.co2 1 <1>  -0.9000 
 23 C       -1.3970     6.4230     0.5310 C.3   1 <1>  -0.0970 
 24 H       -3.2780     0.4690     1.5500 H     1 <1>   0.0800 
 25 H       -4.1490     1.4780     0.4010 H     1 <1>   0.0800 
 26 H       -2.9510    -1.4920    -1.8970 H     1 <1>   0.0800 
 27 H       -2.2890    -1.9670    -0.3370 H     1 <1>   0.0800 
 28 H       -2.9700     3.0120    -2.2550 H     1 <1>   0.1500 
 29 H       -0.3190     4.2440     1.6710 H     1 <1>   0.1500 
 30 H        0.3800     2.0320     1.9790 H     1 <1>   0.0800 
 31 H        0.2990     0.9510     0.6130 H     1 <1>   0.0800 
 32 H       -0.9950     0.9760     1.7850 H     1 <1>   0.0800 
 33 H       -5.4880    -0.1640    -1.5820 H     1 <1>   0.1000 
 34 H       -6.5710    -1.2790    -0.6950 H     1 <1>   0.1000 
 35 H       -3.5360     5.2290    -2.6870 H     1 <1>   0.0800 
 36 H       -2.3020     6.3840    -2.2640 H     1 <1>   0.0800 
 37 H       -3.7250     6.2070    -1.2570 H     1 <1>   0.0800 
 38 H       -0.7770     6.4980     1.4060 H     1 <1>   0.0800 
 39 H       -2.3630     6.8310     0.7650 H     1 <1>   0.0800 
 40 H       -0.9470     7.0080    -0.2510 H     1 <1>   0.0800 
@<TRIPOS>BOND
  1   1   2  2   
  2   2   3  am  
  3   2   4  1   
  4   3   5  1   
  5   3   6  1   
  6   4   7  ar  
  7   4   8  ar  
  8   5   9  1   
  9   5  24  1   
 10   5  25  1   
 11   6  10  1   
 12   6  26  1   
 13   6  27  1   
 14   7  11  ar  
 15   7  12  1   
 16   8  13  ar  
 17   8  28  1   
 18   9  10  1   
 19   9  14  1   
 20   9  15  1   
 21  10  15  1   
 22  10  16  1   
 23  11  17  ar  
 24  11  29  1   
 25  12  30  1   
 26  12  31  1   
 27  12  32  1   
 28  13  17  ar  
 29  13  18  1   
 30  14  19  ar  
 31  14  20  ar  
 32  15  33  1   
 33  15  34  1   
 34  16  21  ar  
 35  16  22  ar  
 36  17  23  1   
 37  18  35  1   
 38  18  36  1   
 39  18  37  1   
 40  23  38  1   
 41  23  39  1   
 42  23  40  1   
@<TRIPOS>SUBSTRUCTURE
  1 ****   5 GROUP 4 **** **** 0

# MOE 2024.06 (io_trps.svl 2023.06)
