@<TRIPOS>MOLECULE
NONAME
53 55 1 0 0 
SMALL
USER_CHARGES


@<TRIPOS>ATOM
  1 O       -0.0190     1.0150     1.4370 O.2   1 <1>  -0.5700 
  2 C        0.0880     2.1650     1.0750 C.2   1 <1>   0.5690 
  3 N       -0.9940     3.0060     1.0220 N.am  1 <1>  -0.6600 
  4 C        1.4650     2.6700     0.6670 C.3   1 <1>  -0.0990 
  5 C       -2.3690     2.5200     1.3450 C.3   1 <1>   0.1400 
  6 C       -0.9800     4.4170     0.5480 C.3   1 <1>   0.1400 
  7 C        2.5720     1.6090     0.7460 C.3   1 <1>  -0.0160 
  8 C       -3.2540     2.5470     0.0850 C.3   1 <1>   0.0000 
  9 C       -1.8270     4.5350    -0.7250 C.3   1 <1>  -0.1600 
 10 C        3.9030     2.2040     0.3130 C.ar  1 <1>  -0.1440 
 11 C       -4.6700     2.0420     0.4180 C.3   1 <1>   0.2000 
 12 C       -3.2490     3.9800    -0.5190 C.3   1 <1>  -0.1600 
 13 C       -2.8060     1.5100    -0.9610 C.3   1 <1>  -0.1600 
 14 C        4.7450     2.7900     1.2460 C.ar  1 <1>  -0.1500 
 15 C        4.2830     2.1710    -1.0190 C.ar  1 <1>  -0.1500 
 16 O       -5.4540     3.0390     1.0040 O.3   1 <1>  -0.5600 
 17 C       -5.2590     1.5680    -0.9120 C.3   1 <1>  -0.1600 
 18 C       -4.0570     1.1780    -1.7840 C.3   1 <1>  -0.1600 
 19 C        5.9550     3.3380     0.8540 C.ar  1 <1>  -0.1500 
 20 C        5.4910     2.7180    -1.4130 C.ar  1 <1>  -0.1500 
 21 C       -6.6310     2.5900     1.5960 C.3   1 <1>   0.0400 
 22 C        6.3350     3.3050    -0.4850 C.ar  1 <1>   0.0820 
 23 O        7.5000     3.8170    -0.9540 O.3   1 <1>  -0.3620 
 24 C        8.4410     4.4100    -0.0870 C.3   1 <1>   0.0400 
 25 H        1.4080     3.0300    -0.3430 H     1 <1>   0.0800 
 26 H        1.7280     3.4910     1.3070 H     1 <1>   0.0800 
 27 H       -2.3340     1.5230     1.7480 H     1 <1>   0.0800 
 28 H       -2.7980     3.1600     2.0960 H     1 <1>   0.0800 
 29 H       -1.3980     5.0440     1.3170 H     1 <1>   0.0800 
 30 H        0.0190     4.7600     0.3510 H     1 <1>   0.0800 
 31 H        2.3220     0.7760     0.1120 H     1 <1>   0.0800 
 32 H        2.6480     1.2380     1.7540 H     1 <1>   0.0800 
 33 H       -1.8890     5.5700    -1.0110 H     1 <1>   0.0800 
 34 H       -1.3330     4.0120    -1.5230 H     1 <1>   0.0800 
 35 H       -4.5960     1.2100     1.0990 H     1 <1>   0.0800 
 36 H       -3.7830     3.9990    -1.4520 H     1 <1>   0.0800 
 37 H       -3.7630     4.6450     0.1540 H     1 <1>   0.0800 
 38 H       -1.9980     1.8520    -1.5800 H     1 <1>   0.0800 
 39 H       -2.4780     0.6170    -0.4560 H     1 <1>   0.0800 
 40 H        4.4610     2.8210     2.2830 H     1 <1>   0.1500 
 41 H        3.6410     1.7190    -1.7550 H     1 <1>   0.1500 
 42 H       -5.9160     0.7300    -0.7630 H     1 <1>   0.0800 
 43 H       -5.7970     2.3730    -1.3830 H     1 <1>   0.0800 
 44 H       -4.0780     0.1320    -2.0380 H     1 <1>   0.0800 
 45 H       -4.0650     1.7560    -2.6910 H     1 <1>   0.0800 
 46 H        6.5840     3.7840     1.6010 H     1 <1>   0.1500 
 47 H        5.7890     2.6930    -2.4460 H     1 <1>   0.1500 
 48 H       -7.1290     3.4380     2.0320 H     1 <1>   0.0800 
 49 H       -6.3930     1.8760     2.3650 H     1 <1>   0.0800 
 50 H       -7.2640     2.1470     0.8480 H     1 <1>   0.0800 
 51 H        9.2810     4.7310    -0.6770 H     1 <1>   0.0800 
 52 H        8.7590     3.6790     0.6350 H     1 <1>   0.0800 
 53 H        7.9870     5.2580     0.3940 H     1 <1>   0.0800 
@<TRIPOS>BOND
  1   1   2  2   
  2   2   3  am  
  3   2   4  1   
  4   3   5  1   
  5   3   6  1   
  6   4   7  1   
  7   4  25  1   
  8   4  26  1   
  9   5   8  1   
 10   5  27  1   
 11   5  28  1   
 12   6   9  1   
 13   6  29  1   
 14   6  30  1   
 15   7  10  1   
 16   7  31  1   
 17   7  32  1   
 18   8  11  1   
 19   8  12  1   
 20   8  13  1   
 21   9  12  1   
 22   9  33  1   
 23   9  34  1   
 24  10  14  ar  
 25  10  15  ar  
 26  11  16  1   
 27  11  17  1   
 28  11  35  1   
 29  12  36  1   
 30  12  37  1   
 31  13  18  1   
 32  13  38  1   
 33  13  39  1   
 34  14  19  ar  
 35  14  40  1   
 36  15  20  ar  
 37  15  41  1   
 38  16  21  1   
 39  17  18  1   
 40  17  42  1   
 41  17  43  1   
 42  18  44  1   
 43  18  45  1   
 44  19  22  ar  
 45  19  46  1   
 46  20  22  ar  
 47  20  47  1   
 48  21  48  1   
 49  21  49  1   
 50  21  50  1   
 51  22  23  1   
 52  23  24  1   
 53  24  51  1   
 54  24  52  1   
 55  24  53  1   
@<TRIPOS>SUBSTRUCTURE
  1 ****   2 GROUP 4 **** **** 0

# MOE 2024.06 (io_trps.svl 2023.06)
