@<TRIPOS>MOLECULE
NONAME
50 52 1 0 0 
SMALL
USER_CHARGES


@<TRIPOS>ATOM
  1 F       -2.3400    -0.5240     2.4770 F     1 <1>  -0.1900 
  2 C       -2.0420     0.1600     1.4030 C.ar  1 <1>   0.1900 
  3 C       -2.0920    -0.4860     0.1790 C.ar  1 <1>  -0.1440 
  4 C       -1.6780     1.4920     1.5350 C.ar  1 <1>  -0.1440 
  5 C       -1.7370     0.2290    -0.9560 C.ar  1 <1>  -0.1500 
  6 C       -2.5140    -1.9410     0.1030 C.3   1 <1>   0.4870 
  7 C       -1.3380     2.1890     0.3860 C.ar  1 <1>  -0.1500 
  8 C       -1.6530     2.1730     2.8960 C.3   1 <1>  -0.0970 
  9 C       -1.3640     1.5600    -0.8490 C.ar  1 <1>  -0.1500 
 10 N       -3.9860    -2.0740     0.0100 N.4   1 <1>  -0.9590 
 11 C       -4.4250    -3.5130    -0.0910 C.3   1 <1>   0.3430 
 12 C       -4.6660    -1.1920    -0.9750 C.3   1 <1>   0.3430 
 13 C       -5.8930    -3.6770    -0.5650 C.3   1 <1>   0.2000 
 14 C       -6.1850    -1.1790    -0.7250 C.3   1 <1>  -0.1600 
 15 O       -5.9070    -3.7430    -1.9610 O.3   1 <1>  -0.6800 
 16 C       -6.7450    -2.4870    -0.0780 C.3   1 <1>  -0.1060 
 17 C       -6.5420    -2.5150     1.4420 C.2   1 <1>   0.9060 
 18 C       -8.2480    -2.6750    -0.4140 C.3   1 <1>  -0.0170 
 19 O       -5.7810    -1.6920     1.9700 O.co2 1 <1>  -0.9000 
 20 O       -6.9460    -3.5010     2.0590 O.co2 1 <1>  -0.9000 
 21 C       -9.1010    -1.4550    -0.0830 C.ar  1 <1>  -0.1430 
 22 C       -9.4510    -1.1840     1.2310 C.ar  1 <1>  -0.1500 
 23 C       -9.5410    -0.6060    -1.0880 C.ar  1 <1>  -0.1500 
 24 C      -10.2220    -0.0770     1.5380 C.ar  1 <1>  -0.1500 
 25 C      -10.3140     0.5020    -0.7830 C.ar  1 <1>  -0.1500 
 26 C      -10.6550     0.7670     0.5310 C.ar  1 <1>  -0.1500 
 27 H       -1.7480    -0.2370    -1.9270 H     1 <1>   0.1500 
 28 H       -2.1640    -2.4580     0.9810 H     1 <1>   0.0800 
 29 H       -2.0580    -2.3950    -0.7600 H     1 <1>   0.0800 
 30 H       -1.0490     3.2240     0.4460 H     1 <1>   0.1500 
 31 H       -1.4050     3.2150     2.8040 H     1 <1>   0.0800 
 32 H       -0.9240     1.7000     3.5290 H     1 <1>   0.0800 
 33 H       -2.6200     2.0910     3.3620 H     1 <1>   0.0800 
 34 H       -1.0910     2.1140    -1.7320 H     1 <1>   0.1500 
 35 H       -4.3920    -1.7500     0.9310 H     1 <1>   0.4500 
 36 H       -3.7870    -4.0600    -0.7640 H     1 <1>   0.0800 
 37 H       -4.3430    -3.9560     0.8890 H     1 <1>   0.0800 
 38 H       -4.2940    -0.1840    -0.9030 H     1 <1>   0.0800 
 39 H       -4.4740    -1.5620    -1.9680 H     1 <1>   0.0800 
 40 H       -6.2840    -4.6090    -0.1900 H     1 <1>   0.0800 
 41 H       -6.4330    -0.3370    -0.1000 H     1 <1>   0.0800 
 42 H       -6.6600    -1.0060    -1.6730 H     1 <1>   0.0800 
 43 H       -6.8130    -3.9430    -2.2710 H     1 <1>   0.4000 
 44 H       -8.3650    -2.8930    -1.4590 H     1 <1>   0.0800 
 45 H       -8.6370    -3.5220     0.1260 H     1 <1>   0.0800 
 46 H       -9.1190    -1.8340     2.0250 H     1 <1>   0.1500 
 47 H       -9.2840    -0.8010    -2.1130 H     1 <1>   0.1500 
 48 H      -10.4810     0.1230     2.5630 H     1 <1>   0.1500 
 49 H      -10.6510     1.1560    -1.5680 H     1 <1>   0.1500 
 50 H      -11.2540     1.6280     0.7710 H     1 <1>   0.1500 
@<TRIPOS>BOND
  1   1   2  1   
  2   2   3  ar  
  3   2   4  ar  
  4   3   5  ar  
  5   3   6  1   
  6   4   7  ar  
  7   4   8  1   
  8   5   9  ar  
  9   5  27  1   
 10   6  10  1   
 11   6  28  1   
 12   6  29  1   
 13   7   9  ar  
 14   7  30  1   
 15   8  31  1   
 16   8  32  1   
 17   8  33  1   
 18   9  34  1   
 19  10  11  1   
 20  10  12  1   
 21  10  35  1   
 22  11  13  1   
 23  11  36  1   
 24  11  37  1   
 25  12  14  1   
 26  12  38  1   
 27  12  39  1   
 28  13  15  1   
 29  13  16  1   
 30  13  40  1   
 31  14  16  1   
 32  14  41  1   
 33  14  42  1   
 34  15  43  1   
 35  16  17  1   
 36  16  18  1   
 37  17  19  ar  
 38  17  20  ar  
 39  18  21  1   
 40  18  44  1   
 41  18  45  1   
 42  21  22  ar  
 43  21  23  ar  
 44  22  24  ar  
 45  22  46  1   
 46  23  25  ar  
 47  23  47  1   
 48  24  26  ar  
 49  24  48  1   
 50  25  26  ar  
 51  25  49  1   
 52  26  50  1   
@<TRIPOS>SUBSTRUCTURE
  1 ****  14 GROUP 4 **** **** 0

# MOE 2024.06 (io_trps.svl 2023.06)
