@<TRIPOS>MOLECULE
NONAME
44 46 1 0 0 
SMALL
USER_CHARGES


@<TRIPOS>ATOM
  1 S        0.7630     0.3490    -0.9530 S.o2  1 <1>   1.3330 
  2 O        0.1880    -0.4780     0.0830 O.2   1 <1>  -0.6500 
  3 O        0.9920    -0.2000    -2.2700 O.2   1 <1>  -0.6500 
  4 N       -0.1930     1.7440    -1.1090 N.am  1 <1>  -0.8490 
  5 C        2.3230     1.0120    -0.3790 C.3   1 <1>  -0.0550 
  6 C       -1.1910     1.6140    -2.1760 C.3   1 <1>   0.1160 
  7 C       -0.8560     2.1330     0.1410 C.3   1 <1>   0.1160 
  8 C        3.3930    -0.0710    -0.1480 C.3   1 <1>  -0.0800 
  9 C        4.8000     0.4590     0.0930 C.3   1 <1>   0.2890 
 10 C        3.1280    -0.9560     1.0800 C.3   1 <1>   0.1200 
 11 N        4.7660     1.6990     0.9150 N.pl3 1 <1>  -0.8690 
 12 C        5.3870    -0.6680     0.9310 C.3   1 <1>   0.1200 
 13 O        4.3430    -1.0710     1.7600 O.3   1 <1>  -0.5600 
 14 C        5.0060     2.9570     0.5160 C.ar  1 <1>   0.4100 
 15 N        5.2310     3.1770    -0.7890 N.ar  1 <1>  -0.6200 
 16 C        5.0240     4.0370     1.3990 C.ar  1 <1>   0.0400 
 17 C        5.4680     4.4000    -1.1850 C.ar  1 <1>   0.5280 
 18 S        4.7500     4.0390     3.1470 S.3   1 <1>  -0.0800 
 19 C        5.2740     5.3100     0.9700 C.ar  1 <1>   0.3070 
 20 N        5.5000     5.4710    -0.3570 N.ar  1 <1>  -0.1250 
 21 C        5.7210     4.6280    -2.6620 C.3   1 <1>  -0.0970 
 22 C        4.9920     5.7790     3.2310 C.2   1 <1>  -0.1100 
 23 C        5.2570     6.2910     2.0130 C.2   1 <1>  -0.1500 
 24 H        2.6870     1.7010    -1.1160 H     1 <1>   0.0800 
 25 H        2.1640     1.5580     0.5300 H     1 <1>   0.0800 
 26 H       -1.7730     2.5150    -2.2570 H     1 <1>   0.0800 
 27 H       -1.8470     0.7830    -1.9760 H     1 <1>   0.0800 
 28 H       -0.7010     1.4450    -3.1210 H     1 <1>   0.0800 
 29 H       -1.3750     3.0670     0.0100 H     1 <1>   0.0800 
 30 H       -0.1300     2.2540     0.9260 H     1 <1>   0.0800 
 31 H       -1.5650     1.3780     0.4420 H     1 <1>   0.0800 
 32 H        3.4250    -0.7130    -1.0120 H     1 <1>   0.0800 
 33 H        5.3500     0.6100    -0.8210 H     1 <1>   0.0800 
 34 H        2.7950    -1.9400     0.7960 H     1 <1>   0.0800 
 35 H        2.4140    -0.5170     1.7560 H     1 <1>   0.0800 
 36 H        4.5790     1.4840     1.9040 H     1 <1>   0.4000 
 37 H        6.2260    -0.3540     1.5270 H     1 <1>   0.0800 
 38 H        5.6640    -1.5050     0.3140 H     1 <1>   0.0800 
 39 H        5.6930     6.3990    -0.7310 H     1 <1>   0.4570 
 40 H        5.6620     3.6950    -3.1950 H     1 <1>   0.0800 
 41 H        6.7020     5.0400    -2.8170 H     1 <1>   0.0800 
 42 H        4.9830     5.2930    -3.0720 H     1 <1>   0.0800 
 43 H        4.9100     6.2390     4.2040 H     1 <1>   0.1500 
 44 H        5.4400     7.3340     1.8190 H     1 <1>   0.1500 
@<TRIPOS>BOND
  1   1   2  2   
  2   1   3  2   
  3   1   4  am  
  4   1   5  1   
  5   4   6  1   
  6   4   7  1   
  7   5   8  1   
  8   5  24  1   
  9   5  25  1   
 10   6  26  1   
 11   6  27  1   
 12   6  28  1   
 13   7  29  1   
 14   7  30  1   
 15   7  31  1   
 16   8   9  1   
 17   8  10  1   
 18   8  32  1   
 19   9  11  1   
 20   9  12  1   
 21   9  33  1   
 22  10  13  1   
 23  10  34  1   
 24  10  35  1   
 25  11  14  1   
 26  11  36  1   
 27  12  13  1   
 28  12  37  1   
 29  12  38  1   
 30  14  15  ar  
 31  14  16  ar  
 32  15  17  ar  
 33  16  18  1   
 34  16  19  ar  
 35  17  20  ar  
 36  17  21  1   
 37  18  22  1   
 38  19  20  ar  
 39  19  23  1   
 40  20  39  1   
 41  21  40  1   
 42  21  41  1   
 43  21  42  1   
 44  22  23  2   
 45  22  43  1   
 46  23  44  1   
@<TRIPOS>SUBSTRUCTURE
  1 ****  11 GROUP 4 **** **** 0

# MOE 2024.06 (io_trps.svl 2023.06)
