@<TRIPOS>MOLECULE
NONAME
47 49 1 0 0 
SMALL
USER_CHARGES


@<TRIPOS>ATOM
  1 CL       2.4060     4.9450     1.8950 Cl    1 <1>  -0.1770 
  2 C        1.2800     3.8560     1.1170 C.ar  1 <1>   0.1770 
  3 C        1.7090     2.6470     0.5810 C.ar  1 <1>  -0.1440 
  4 C       -0.0450     4.2450     1.0580 C.ar  1 <1>  -0.1500 
  5 C        0.7610     1.8260    -0.0210 C.ar  1 <1>  -0.1500 
  6 C        3.1760     2.2280     0.6380 C.3   1 <1>   0.3640 
  7 C       -0.9750     3.4160     0.4560 C.ar  1 <1>  -0.1500 
  8 C       -0.5690     2.2070    -0.0820 C.ar  1 <1>  -0.1500 
  9 N        3.2480     0.8300     1.1310 N.am  1 <1>  -0.7300 
 10 C        3.8760     2.3780    -0.7370 C.3   1 <1>   0.2610 
 11 C        4.0610    -0.1110     0.6000 C.2   1 <1>   0.5690 
 12 O        5.0980     1.6480    -0.7600 O.3   1 <1>  -0.5600 
 13 C        4.1200     3.8590    -1.0310 C.2   1 <1>   0.5690 
 14 O        4.0800    -1.2280     1.0480 O.2   1 <1>  -0.5700 
 15 C        4.9400     0.2530    -0.6000 C.3   1 <1>   0.1810 
 16 O        3.2080     4.5360    -1.4430 O.2   1 <1>  -0.5700 
 17 N        5.3550     4.3870    -0.8110 N.am  1 <1>  -0.7300 
 18 C        5.7160     5.8120    -0.9990 C.3   1 <1>   0.1400 
 19 C        5.7000     6.5370     0.3460 C.3   1 <1>   0.0210 
 20 C        5.8120     8.0350     0.1300 C.2   1 <1>  -0.1810 
 21 C        4.7540     8.8990    -0.1490 C.2   1 <1>   0.1080 
 22 C        6.9080     8.8260     0.1560 C.2   1 <1>  -0.3320 
 23 N        5.1460    10.1260    -0.2840 N.2   1 <1>  -0.7070 
 24 C        3.2980     8.5040    -0.2830 C.3   1 <1>  -0.0590 
 25 N        6.4760    10.0810    -0.0950 N.pl3 1 <1>   0.3000 
 26 C        8.3670     8.4870     0.4040 C.3   1 <1>  -0.0600 
 27 H       -0.3430     5.1880     1.4790 H     1 <1>   0.1500 
 28 H        1.0500     0.8790    -0.4470 H     1 <1>   0.1500 
 29 H        3.7060     2.8400     1.3450 H     1 <1>   0.0800 
 30 H       -2.0100     3.7100     0.4050 H     1 <1>   0.1500 
 31 H       -1.2920     1.5610    -0.5510 H     1 <1>   0.1500 
 32 H        2.6640     0.5800     1.9310 H     1 <1>   0.3700 
 33 H        3.2430     1.9880    -1.5130 H     1 <1>   0.0800 
 34 H        4.5050    -0.1450    -1.4980 H     1 <1>   0.0800 
 35 H        5.9170    -0.1750    -0.4690 H     1 <1>   0.0800 
 36 H        6.1080     3.7410    -0.5540 H     1 <1>   0.3700 
 37 H        6.6900     5.8880    -1.4490 H     1 <1>   0.0800 
 38 H        5.0060     6.2760    -1.6640 H     1 <1>   0.0800 
 39 H        4.7790     6.3300     0.8600 H     1 <1>   0.0800 
 40 H        6.5130     6.1920     0.9560 H     1 <1>   0.0800 
 41 H        3.2050     7.5550    -0.7770 H     1 <1>   0.0800 
 42 H        2.7740     9.2440    -0.8580 H     1 <1>   0.0800 
 43 H        2.8530     8.4410     0.6920 H     1 <1>   0.0800 
 44 H        7.0590    10.9230    -0.1430 H     1 <1>   0.2700 
 45 H        8.4930     7.4300     0.5490 H     1 <1>   0.0800 
 46 H        8.7200     8.9960     1.2840 H     1 <1>   0.0800 
 47 H        8.9650     8.7880    -0.4380 H     1 <1>   0.0800 
@<TRIPOS>BOND
  1   1   2  1   
  2   2   3  ar  
  3   2   4  ar  
  4   3   5  ar  
  5   3   6  1   
  6   4   7  ar  
  7   4  27  1   
  8   5   8  ar  
  9   5  28  1   
 10   6   9  1   
 11   6  10  1   
 12   6  29  1   
 13   7   8  ar  
 14   7  30  1   
 15   8  31  1   
 16   9  11  am  
 17   9  32  1   
 18  10  12  1   
 19  10  13  1   
 20  10  33  1   
 21  11  14  2   
 22  11  15  1   
 23  12  15  1   
 24  13  16  2   
 25  13  17  am  
 26  15  34  1   
 27  15  35  1   
 28  17  18  1   
 29  17  36  1   
 30  18  19  1   
 31  18  37  1   
 32  18  38  1   
 33  19  20  1   
 34  19  39  1   
 35  19  40  1   
 36  20  21  1   
 37  20  22  2   
 38  21  23  2   
 39  21  24  1   
 40  22  25  1   
 41  22  26  1   
 42  23  25  1   
 43  24  41  1   
 44  24  42  1   
 45  24  43  1   
 46  25  44  1   
 47  26  45  1   
 48  26  46  1   
 49  26  47  1   
@<TRIPOS>SUBSTRUCTURE
  1 ****  13 GROUP 4 **** **** 0

# MOE 2024.06 (io_trps.svl 2023.06)
