@<TRIPOS>MOLECULE
NONAME
49 51 1 0 0 
SMALL
USER_CHARGES


@<TRIPOS>ATOM
  1 F       -0.8950     1.1450     1.0410 F     1 <1>  -0.3400 
  2 C       -1.6410     2.2400     1.1190 C.3   1 <1>   0.8800 
  3 F       -0.9560     3.0950     1.8640 F     1 <1>  -0.3400 
  4 O       -2.8330     1.9280     1.8010 O.3   1 <1>  -0.3630 
  5 C       -3.8350     1.2420     1.1980 C.ar  1 <1>   0.0830 
  6 C       -5.0110     1.1120     1.9180 C.ar  1 <1>  -0.1500 
  7 C       -3.7460     0.6730    -0.0700 C.ar  1 <1>  -0.1500 
  8 C       -6.0900     0.4320     1.3870 C.ar  1 <1>  -0.1500 
  9 C       -4.8280    -0.0070    -0.6020 C.ar  1 <1>  -0.1500 
 10 C       -6.0070    -0.1290     0.1200 C.ar  1 <1>  -0.1440 
 11 C       -7.1990    -0.8680    -0.4580 C.3   1 <1>   0.4870 
 12 N       -8.2540     0.1230    -0.7680 N.4   1 <1>  -0.9590 
 13 C       -9.5910    -0.4810    -0.9930 C.3   1 <1>   0.3430 
 14 C       -7.8600     1.1130    -1.8160 C.3   1 <1>   0.3430 
 15 C      -10.6670     0.6160    -0.8060 C.3   1 <1>   0.0000 
 16 C       -9.0880     1.7650    -2.4720 C.3   1 <1>  -0.1600 
 17 C      -10.9610     0.8190     0.6920 C.3   1 <1>   0.2000 
 18 C      -10.2530     1.9520    -1.4850 C.3   1 <1>  -0.1600 
 19 C      -12.0080     0.0770    -1.3190 C.3   1 <1>  -0.1600 
 20 O       -9.7730     0.8230     1.4370 O.3   1 <1>  -0.5600 
 21 C      -11.8760    -0.3430     1.0940 C.3   1 <1>  -0.1600 
 22 C      -12.5250    -0.8410    -0.2060 C.3   1 <1>  -0.1600 
 23 C       -9.9170     1.3080     2.7390 C.3   1 <1>   0.0400 
 24 H       -1.8060     2.6550     0.1410 H     1 <1>   0.0800 
 25 H       -5.0710     1.5460     2.9010 H     1 <1>   0.1500 
 26 H       -2.8450     0.7340    -0.6540 H     1 <1>   0.1500 
 27 H       -6.9900     0.3420     1.9730 H     1 <1>   0.1500 
 28 H       -4.7360    -0.4440    -1.5830 H     1 <1>   0.1500 
 29 H       -7.5620    -1.5750     0.2700 H     1 <1>   0.0800 
 30 H       -6.9140    -1.4030    -1.3480 H     1 <1>   0.0800 
 31 H       -8.4030     0.6570     0.1110 H     1 <1>   0.4500 
 32 H       -9.6460    -0.8840    -1.9900 H     1 <1>   0.0800 
 33 H       -9.7690    -1.2750    -0.2870 H     1 <1>   0.0800 
 34 H       -7.2490     1.8760    -1.3590 H     1 <1>   0.0800 
 35 H       -7.2700     0.6310    -2.5790 H     1 <1>   0.0800 
 36 H       -8.8010     2.7170    -2.8840 H     1 <1>   0.0800 
 37 H       -9.4120     1.1530    -3.2960 H     1 <1>   0.0800 
 38 H      -11.4760     1.7560     0.8340 H     1 <1>   0.0800 
 39 H      -11.0890     2.4010    -1.9940 H     1 <1>   0.0800 
 40 H       -9.9340     2.6540    -0.7320 H     1 <1>   0.0800 
 41 H      -12.7090     0.8870    -1.4390 H     1 <1>   0.0800 
 42 H      -11.9230    -0.4380    -2.2620 H     1 <1>   0.0800 
 43 H      -11.3110    -1.1380     1.5490 H     1 <1>   0.0800 
 44 H      -12.6290    -0.0020     1.7830 H     1 <1>   0.0800 
 45 H      -12.2300    -1.8600    -0.3940 H     1 <1>   0.0800 
 46 H      -13.6010    -0.8050    -0.1470 H     1 <1>   0.0800 
 47 H       -8.9530     1.2960     3.2170 H     1 <1>   0.0800 
 48 H      -10.5960     0.6770     3.2880 H     1 <1>   0.0800 
 49 H      -10.2890     2.3180     2.7080 H     1 <1>   0.0800 
@<TRIPOS>BOND
  1   1   2  1   
  2   2   3  1   
  3   2   4  1   
  4   2  24  1   
  5   4   5  1   
  6   5   6  ar  
  7   5   7  ar  
  8   6   8  ar  
  9   6  25  1   
 10   7   9  ar  
 11   7  26  1   
 12   8  10  ar  
 13   8  27  1   
 14   9  10  ar  
 15   9  28  1   
 16  10  11  1   
 17  11  12  1   
 18  11  29  1   
 19  11  30  1   
 20  12  13  1   
 21  12  14  1   
 22  12  31  1   
 23  13  15  1   
 24  13  32  1   
 25  13  33  1   
 26  14  16  1   
 27  14  34  1   
 28  14  35  1   
 29  15  17  1   
 30  15  18  1   
 31  15  19  1   
 32  16  18  1   
 33  16  36  1   
 34  16  37  1   
 35  17  20  1   
 36  17  21  1   
 37  17  38  1   
 38  18  39  1   
 39  18  40  1   
 40  19  22  1   
 41  19  41  1   
 42  19  42  1   
 43  20  23  1   
 44  21  22  1   
 45  21  43  1   
 46  21  44  1   
 47  22  45  1   
 48  22  46  1   
 49  23  47  1   
 50  23  48  1   
 51  23  49  1   
@<TRIPOS>SUBSTRUCTURE
  1 ****  10 GROUP 4 **** **** 0

# MOE 2024.06 (io_trps.svl 2023.06)
