@<TRIPOS>MOLECULE
NONAME
53 56 1 0 0 
SMALL
USER_CHARGES


@<TRIPOS>ATOM
  1 CL      -1.5480     0.9590    -3.0420 Cl    1 <1>  -0.1770 
  2 C       -2.5530     1.3110    -1.6590 C.ar  1 <1>   0.1770 
  3 C       -3.7360     0.6160    -1.4920 C.ar  1 <1>  -0.1500 
  4 C       -2.1470     2.2800    -0.7590 C.ar  1 <1>  -0.1500 
  5 C       -4.5460     0.8870    -0.3940 C.ar  1 <1>   0.0280 
  6 C       -2.9460     2.5560     0.3370 C.ar  1 <1>  -0.1500 
  7 C       -4.1320     1.8620     0.5200 C.ar  1 <1>   0.0820 
  8 C       -5.8000     0.2260    -0.1610 C.2   1 <1>  -0.1780 
  9 O       -4.8940     2.1650     1.6020 O.3   1 <1>  -0.3630 
 10 C       -6.4480     0.3880     1.0030 C.2   1 <1>  -0.2760 
 11 C       -5.8270     1.2300     2.1180 C.3   1 <1>   0.2580 
 12 C       -7.7870    -0.2270     1.3380 C.3   1 <1>   0.4810 
 13 N       -8.8080     0.4370     0.4870 N.4   1 <1>  -0.9590 
 14 C       -8.9120     1.9020     0.7480 C.3   1 <1>   0.3430 
 15 C      -10.1250    -0.2480     0.5800 C.3   1 <1>   0.3430 
 16 C       -9.8580     2.5370    -0.2650 C.3   1 <1>  -0.1600 
 17 C      -11.0990     0.3720    -0.4180 C.3   1 <1>  -0.1600 
 18 C      -11.2530     1.8900    -0.2330 C.3   1 <1>   0.2800 
 19 O      -11.9420     2.3160    -1.3660 O.3   1 <1>  -0.5600 
 20 C      -12.0480     2.2560     1.0480 C.3   1 <1>  -0.1600 
 21 C      -12.5370     3.5830    -1.3420 C.3   1 <1>   0.1200 
 22 C      -13.5320     2.5340     0.7690 C.3   1 <1>   0.2800 
 23 C      -13.6690     3.6270    -0.3050 C.3   1 <1>  -0.1600 
 24 O      -14.0700     3.0230     1.9500 O.3   1 <1>  -0.6800 
 25 C      -14.3200     1.2560     0.3840 C.3   1 <1>   0.1200 
 26 O      -15.6870     1.4690     0.4910 O.3   1 <1>  -0.6800 
 27 H       -4.0170    -0.1270    -2.2140 H     1 <1>   0.1500 
 28 H       -1.2220     2.8050    -0.9180 H     1 <1>   0.1500 
 29 H       -2.6530     3.3060     1.0510 H     1 <1>   0.1500 
 30 H       -6.1650    -0.3830    -0.9710 H     1 <1>   0.1500 
 31 H       -6.5710     1.7980     2.6470 H     1 <1>   0.0800 
 32 H       -5.3030     0.6010     2.8180 H     1 <1>   0.0800 
 33 H       -8.0170    -0.1000     2.3830 H     1 <1>   0.0800 
 34 H       -7.7560    -1.2820     1.1160 H     1 <1>   0.0800 
 35 H       -8.4670     0.3430    -0.4790 H     1 <1>   0.4500 
 36 H       -7.9400     2.3640     0.6580 H     1 <1>   0.0800 
 37 H       -9.2790     2.0740     1.7470 H     1 <1>   0.0800 
 38 H      -10.5190    -0.1530     1.5790 H     1 <1>   0.0800 
 39 H      -10.0130    -1.2980     0.3590 H     1 <1>   0.0800 
 40 H       -9.4340     2.4340    -1.2490 H     1 <1>   0.0800 
 41 H       -9.9280     3.5880    -0.0510 H     1 <1>   0.0800 
 42 H      -12.0510    -0.1130    -0.3150 H     1 <1>   0.0800 
 43 H      -10.7460     0.1680    -1.4140 H     1 <1>   0.0800 
 44 H      -11.6230     3.1450     1.4760 H     1 <1>   0.0800 
 45 H      -11.9620     1.4820     1.7880 H     1 <1>   0.0800 
 46 H      -12.9270     3.7820    -2.3260 H     1 <1>   0.0800 
 47 H      -11.7820     4.3170    -1.1220 H     1 <1>   0.0800 
 48 H      -14.6080     3.5170    -0.8190 H     1 <1>   0.0800 
 49 H      -13.6670     4.6060     0.1380 H     1 <1>   0.0800 
 50 H      -13.8100     3.9530     2.0820 H     1 <1>   0.4000 
 51 H      -14.0670     0.4490     1.0470 H     1 <1>   0.0800 
 52 H      -14.1100     0.9590    -0.6290 H     1 <1>   0.0800 
 53 H      -15.8400     2.0000     1.3030 H     1 <1>   0.4000 
@<TRIPOS>BOND
  1   1   2  1   
  2   2   3  ar  
  3   2   4  ar  
  4   3   5  ar  
  5   3  27  1   
  6   4   6  ar  
  7   4  28  1   
  8   5   7  ar  
  9   5   8  1   
 10   6   7  ar  
 11   6  29  1   
 12   7   9  1   
 13   8  10  2   
 14   8  30  1   
 15   9  11  1   
 16  10  11  1   
 17  10  12  1   
 18  11  31  1   
 19  11  32  1   
 20  12  13  1   
 21  12  33  1   
 22  12  34  1   
 23  13  14  1   
 24  13  15  1   
 25  13  35  1   
 26  14  16  1   
 27  14  36  1   
 28  14  37  1   
 29  15  17  1   
 30  15  38  1   
 31  15  39  1   
 32  16  18  1   
 33  16  40  1   
 34  16  41  1   
 35  17  18  1   
 36  17  42  1   
 37  17  43  1   
 38  18  19  1   
 39  18  20  1   
 40  19  21  1   
 41  20  22  1   
 42  20  44  1   
 43  20  45  1   
 44  21  23  1   
 45  21  46  1   
 46  21  47  1   
 47  22  23  1   
 48  22  24  1   
 49  22  25  1   
 50  23  48  1   
 51  23  49  1   
 52  24  50  1   
 53  25  26  1   
 54  25  51  1   
 55  25  52  1   
 56  26  53  1   
@<TRIPOS>SUBSTRUCTURE
  1 ****  14 GROUP 4 **** **** 0

# MOE 2024.06 (io_trps.svl 2023.06)
