@<TRIPOS>MOLECULE
NONAME
51 53 1 0 0 
SMALL
USER_CHARGES


@<TRIPOS>ATOM
  1 F        0.5880     2.0990    -0.6760 F     1 <1>  -0.1900 
  2 C        1.8710     2.3350    -0.6520 C.ar  1 <1>   0.1900 
  3 C        2.4700     2.6430     0.5530 C.ar  1 <1>  -0.1500 
  4 C        2.5840     2.2690    -1.8330 C.ar  1 <1>  -0.1500 
  5 C        3.8310     2.8950     0.5730 C.ar  1 <1>  -0.1500 
  6 C        3.9450     2.5210    -1.8040 C.ar  1 <1>  -0.1500 
  7 C        4.5760     2.8350    -0.6040 C.ar  1 <1>  -0.1430 
  8 C        6.0790     3.1180    -0.5920 C.3   1 <1>   0.6280 
  9 N        6.8070     1.9900     0.1200 N.4   1 <1>  -0.9590 
 10 C        6.3280     4.5340     0.0020 C.2   1 <1>   0.5690 
 11 C        8.2840     2.0610    -0.1100 C.3   1 <1>   0.3430 
 12 C        6.2660     0.6260    -0.1760 C.3   1 <1>   0.3430 
 13 O        7.2250     4.6650     0.8040 O.2   1 <1>  -0.5700 
 14 N        5.5090     5.5740    -0.3660 N.am  1 <1>  -0.4940 
 15 C        8.9970     1.0540     0.7920 C.3   1 <1>  -0.1600 
 16 C        6.9480    -0.4080     0.7210 C.3   1 <1>  -0.1600 
 17 C        5.4240     6.8830     0.1610 C.2   1 <1>  -0.0880 
 18 C        8.4740    -0.3720     0.5780 C.3   1 <1>  -0.1600 
 19 N        6.4370     7.7640     0.4240 N.pl3 1 <1>   0.3140 
 20 C        4.2720     7.5210     0.4800 C.2   1 <1>  -0.1810 
 21 N        5.9490     8.9320     0.9000 N.2   1 <1>  -0.7070 
 22 C        7.8940     7.6430     0.1810 C.3   1 <1>   0.0960 
 23 C        4.6650     8.7740     0.9310 C.2   1 <1>   0.1390 
 24 C        2.8340     7.0380     0.3970 C.3   1 <1>  -0.0590 
 25 C        8.2180     7.5200    -1.3150 C.3   1 <1>  -0.2400 
 26 H        1.8760     2.6850     1.4500 H     1 <1>   0.1500 
 27 H        2.0750     2.0250    -2.7500 H     1 <1>   0.1500 
 28 H        4.2920     3.1420     1.5170 H     1 <1>   0.1500 
 29 H        4.4950     2.4690    -2.7310 H     1 <1>   0.1500 
 30 H        6.4160     3.1420    -1.6130 H     1 <1>   0.0800 
 31 H        6.6740     2.1710     1.1240 H     1 <1>   0.4500 
 32 H        8.6560     3.0490     0.1110 H     1 <1>   0.0800 
 33 H        8.5060     1.8370    -1.1410 H     1 <1>   0.0800 
 34 H        6.4430     0.3780    -1.2100 H     1 <1>   0.0800 
 35 H        5.2030     0.5930     0.0030 H     1 <1>   0.0800 
 36 H        4.6930     5.3330    -0.9350 H     1 <1>   0.3700 
 37 H        8.8690     1.3440     1.8210 H     1 <1>   0.0800 
 38 H       10.0520     1.0800     0.5830 H     1 <1>   0.0800 
 39 H        6.5900    -1.3890     0.4600 H     1 <1>   0.0800 
 40 H        6.6700    -0.2300     1.7460 H     1 <1>   0.0800 
 41 H        8.9250    -1.0380     1.2960 H     1 <1>   0.0800 
 42 H        8.7530    -0.7150    -0.4050 H     1 <1>   0.0800 
 43 H        8.2750     6.8060     0.7300 H     1 <1>   0.0800 
 44 H        8.3650     8.5280     0.5710 H     1 <1>   0.0800 
 45 H        3.9880     9.5400     1.2700 H     1 <1>   0.1500 
 46 H        2.7890     5.9960     0.1400 H     1 <1>   0.0800 
 47 H        2.3020     7.6040    -0.3470 H     1 <1>   0.0800 
 48 H        2.3500     7.1770     1.3470 H     1 <1>   0.0800 
 49 H        7.7870     6.6280    -1.7280 H     1 <1>   0.0800 
 50 H        9.2840     7.4810    -1.4500 H     1 <1>   0.0800 
 51 H        7.8400     8.3780    -1.8420 H     1 <1>   0.0800 
@<TRIPOS>BOND
  1   1   2  1   
  2   2   3  ar  
  3   2   4  ar  
  4   3   5  ar  
  5   3  26  1   
  6   4   6  ar  
  7   4  27  1   
  8   5   7  ar  
  9   5  28  1   
 10   6   7  ar  
 11   6  29  1   
 12   7   8  1   
 13   8   9  1   
 14   8  10  1   
 15   8  30  1   
 16   9  11  1   
 17   9  12  1   
 18   9  31  1   
 19  10  13  2   
 20  10  14  am  
 21  11  15  1   
 22  11  32  1   
 23  11  33  1   
 24  12  16  1   
 25  12  34  1   
 26  12  35  1   
 27  14  17  1   
 28  14  36  1   
 29  15  18  1   
 30  15  37  1   
 31  15  38  1   
 32  16  18  1   
 33  16  39  1   
 34  16  40  1   
 35  17  19  1   
 36  17  20  2   
 37  18  41  1   
 38  18  42  1   
 39  19  21  1   
 40  19  22  1   
 41  20  23  1   
 42  20  24  1   
 43  21  23  2   
 44  22  25  1   
 45  22  43  1   
 46  22  44  1   
 47  23  45  1   
 48  24  46  1   
 49  24  47  1   
 50  24  48  1   
 51  25  49  1   
 52  25  50  1   
 53  25  51  1   
@<TRIPOS>SUBSTRUCTURE
  1 ****  10 GROUP 4 **** **** 0

# MOE 2024.06 (io_trps.svl 2023.06)
