@<TRIPOS>MOLECULE
NONAME
51 54 1 0 0 
SMALL
USER_CHARGES


@<TRIPOS>ATOM
  1 O        0.5830    -3.1700     2.8480 O.2   1 <1>  -0.5700 
  2 C        1.0410    -2.5000     1.9460 C.2   1 <1>   0.6900 
  3 N        1.4700    -3.0580     0.7510 N.am  1 <1>  -0.4690 
  4 N        1.1360    -1.1540     2.1060 N.am  1 <1>  -0.4900 
  5 C        1.9750    -2.2470    -0.2610 C.2   1 <1>  -0.0410 
  6 C        1.4100    -4.5410     0.5360 C.3   1 <1>   0.2010 
  7 C        1.6290    -0.3240     1.1480 C.2   1 <1>   0.6160 
  8 C        2.0560    -0.9100    -0.0770 C.2   1 <1>  -0.1360 
  9 C        0.5530    -4.9330    -0.6690 C.2   1 <1>   0.5690 
 10 O        1.6850     0.8660     1.3750 O.2   1 <1>  -0.5700 
 11 O        1.1420    -5.1150    -1.7110 O.2   1 <1>  -0.5700 
 12 N       -0.8120    -5.0770    -0.5770 N.am  1 <1>  -0.6600 
 13 C       -1.6290    -5.5130    -1.7440 C.3   1 <1>   0.1400 
 14 C       -1.6280    -4.8330     0.6460 C.3   1 <1>   0.1400 
 15 C       -2.3610    -6.8120    -1.3960 C.3   1 <1>  -0.1600 
 16 C       -2.3470    -6.1270     1.0370 C.3   1 <1>  -0.1600 
 17 C       -3.2090    -6.6780    -0.1170 C.3   1 <1>   0.4240 
 18 O       -4.1430    -5.6690    -0.4410 O.3   1 <1>  -0.5600 
 19 C       -3.9140    -8.0170     0.2460 C.ar  1 <1>  -0.1430 
 20 C       -5.3150    -5.6040     0.3030 C.3   1 <1>   0.1200 
 21 C       -3.1950    -9.1830     0.5450 C.ar  1 <1>   0.0830 
 22 C       -5.3070    -8.0800     0.2810 C.ar  1 <1>  -0.1430 
 23 C       -6.1360    -6.8460    -0.0050 C.3   1 <1>  -0.0170 
 24 O       -1.8360    -9.1400     0.5400 O.3   1 <1>  -0.3620 
 25 C       -3.8690   -10.3650     0.8490 C.ar  1 <1>  -0.1500 
 26 C       -5.9650    -9.2610     0.5820 C.ar  1 <1>  -0.1500 
 27 C       -1.0340   -10.2900     0.6930 C.3   1 <1>   0.0400 
 28 C       -5.2480   -10.4040     0.8650 C.ar  1 <1>  -0.1500 
 29 H        0.8310    -0.7510     2.9840 H     1 <1>   0.3700 
 30 H        2.2880    -2.7260    -1.1780 H     1 <1>   0.1500 
 31 H        1.0460    -5.0450     1.4110 H     1 <1>   0.0800 
 32 H        2.4090    -4.8960     0.3620 H     1 <1>   0.0800 
 33 H        2.4350    -0.2380    -0.8230 H     1 <1>   0.1500 
 34 H       -1.0080    -5.6730    -2.6090 H     1 <1>   0.0800 
 35 H       -2.3400    -4.7410    -1.9850 H     1 <1>   0.0800 
 36 H       -2.3500    -4.0620     0.4360 H     1 <1>   0.0800 
 37 H       -1.0240    -4.4990     1.4670 H     1 <1>   0.0800 
 38 H       -1.6220    -7.5800    -1.2890 H     1 <1>   0.0800 
 39 H       -3.0010    -7.0990    -2.2090 H     1 <1>   0.0800 
 40 H       -2.9560    -5.9630     1.9040 H     1 <1>   0.0800 
 41 H       -1.5990    -6.8420     1.3170 H     1 <1>   0.0800 
 42 H       -5.8460    -4.7160     0.0070 H     1 <1>   0.0800 
 43 H       -5.0740    -5.5440     1.3490 H     1 <1>   0.0800 
 44 H       -6.4300    -6.8350    -1.0400 H     1 <1>   0.0800 
 45 H       -7.0230    -6.8410     0.6020 H     1 <1>   0.0800 
 46 H       -3.3410   -11.2690     1.0800 H     1 <1>   0.1500 
 47 H       -7.0410    -9.2950     0.5980 H     1 <1>   0.1500 
 48 H       -0.0060    -9.9940     0.5890 H     1 <1>   0.0800 
 49 H       -1.2890   -10.9980    -0.0740 H     1 <1>   0.0800 
 50 H       -1.1970   -10.7020     1.6730 H     1 <1>   0.0800 
 51 H       -5.7620   -11.3200     1.0980 H     1 <1>   0.1500 
@<TRIPOS>BOND
  1   1   2  2   
  2   2   3  am  
  3   2   4  am  
  4   3   5  1   
  5   3   6  1   
  6   4   7  am  
  7   4  29  1   
  8   5   8  2   
  9   5  30  1   
 10   6   9  1   
 11   6  31  1   
 12   6  32  1   
 13   7   8  1   
 14   7  10  2   
 15   8  33  1   
 16   9  11  2   
 17   9  12  am  
 18  12  13  1   
 19  12  14  1   
 20  13  15  1   
 21  13  34  1   
 22  13  35  1   
 23  14  16  1   
 24  14  36  1   
 25  14  37  1   
 26  15  17  1   
 27  15  38  1   
 28  15  39  1   
 29  16  17  1   
 30  16  40  1   
 31  16  41  1   
 32  17  18  1   
 33  17  19  1   
 34  18  20  1   
 35  19  21  ar  
 36  19  22  ar  
 37  20  23  1   
 38  20  42  1   
 39  20  43  1   
 40  21  24  1   
 41  21  25  ar  
 42  22  23  1   
 43  22  26  ar  
 44  23  44  1   
 45  23  45  1   
 46  24  27  1   
 47  25  28  ar  
 48  25  46  1   
 49  26  28  ar  
 50  26  47  1   
 51  27  48  1   
 52  27  49  1   
 53  27  50  1   
 54  28  51  1   
@<TRIPOS>SUBSTRUCTURE
  1 ****  14 GROUP 4 **** **** 0

# MOE 2024.06 (io_trps.svl 2023.06)
