@<TRIPOS>MOLECULE
NONAME
58 61 1 0 0 
SMALL
USER_CHARGES


@<TRIPOS>ATOM
  1 CL      -0.9080    -0.5760    -1.5420 Cl    1 <1>  -0.1770 
  2 C       -2.0430     0.5260    -0.7980 C.ar  1 <1>   0.1770 
  3 C       -3.0990     0.0190    -0.0610 C.ar  1 <1>  -0.1440 
  4 C       -1.8660     1.8830    -0.9770 C.ar  1 <1>  -0.1500 
  5 C       -3.9900     0.9130     0.5090 C.ar  1 <1>  -0.1500 
  6 C       -3.2790    -1.4730     0.1210 C.3   1 <1>   0.4870 
  7 C       -2.7660     2.7830    -0.4120 C.ar  1 <1>   0.0820 
  8 C       -3.8440     2.2820     0.3450 C.ar  1 <1>   0.0820 
  9 N       -3.7110    -2.0760    -1.1710 N.4   1 <1>  -0.9590 
 10 O       -2.6190     4.1260    -0.5960 O.3   1 <1>  -0.3620 
 11 O       -4.8160     3.0070     0.9680 O.3   1 <1>  -0.3620 
 12 C       -5.0300    -1.5460    -1.6570 C.3   1 <1>   0.3430 
 13 C       -3.8440    -3.5560    -1.0690 C.3   1 <1>   0.3430 
 14 C       -1.5280     4.6880    -1.2970 C.3   1 <1>   0.0400 
 15 C       -4.7400     4.3990     1.1670 C.3   1 <1>   0.1200 
 16 C       -6.0180    -2.7200    -1.6200 C.3   1 <1>   0.2000 
 17 C       -5.3270    -3.8240    -0.8270 C.3   1 <1>  -0.0800 
 18 C       -5.8860     4.8080     2.0870 C.3   1 <1>  -0.2400 
 19 O       -7.2100    -2.3690    -1.0060 O.3   1 <1>  -0.6800 
 20 C       -5.7690    -5.2390    -1.2440 C.3   1 <1>  -0.0170 
 21 C       -5.0350    -6.3040    -0.4440 C.ar  1 <1>   0.1670 
 22 N       -3.7590    -6.4270    -0.6510 N.ar  1 <1>  -0.6200 
 23 C       -5.7540    -7.0880     0.4730 C.ar  1 <1>  -0.1500 
 24 C       -3.0930    -7.3800     0.0550 C.ar  1 <1>   0.3100 
 25 C       -5.1080    -8.0380     1.2040 C.ar  1 <1>  -0.1500 
 26 C       -3.7280    -8.2060     1.0070 C.ar  1 <1>   0.0000 
 27 C       -1.7150    -7.5480    -0.1630 C.ar  1 <1>  -0.1500 
 28 C       -2.9610    -9.1550     1.7120 C.ar  1 <1>  -0.1500 
 29 C       -0.9880    -8.4780     0.5320 C.ar  1 <1>  -0.1500 
 30 C       -1.6190    -9.2880     1.4810 C.ar  1 <1>  -0.1500 
 31 H       -1.0260     2.2070    -1.5610 H     1 <1>   0.1500 
 32 H       -4.8220     0.5680     1.1000 H     1 <1>   0.1500 
 33 H       -4.0150    -1.6630     0.8850 H     1 <1>   0.0800 
 34 H       -2.3430    -1.9090     0.4350 H     1 <1>   0.0800 
 35 H       -2.9740    -1.8470    -1.8560 H     1 <1>   0.4500 
 36 H       -5.3820    -0.7450    -1.0270 H     1 <1>   0.0800 
 37 H       -4.9380    -1.1840    -2.6680 H     1 <1>   0.0800 
 38 H       -3.5510    -4.0130    -2.0020 H     1 <1>   0.0800 
 39 H       -3.2340    -3.9690    -0.2810 H     1 <1>   0.0800 
 40 H       -1.6340     5.7580    -1.2740 H     1 <1>   0.0800 
 41 H       -1.5500     4.3430    -2.3150 H     1 <1>   0.0800 
 42 H       -0.6130     4.4030    -0.8090 H     1 <1>   0.0800 
 43 H       -3.7890     4.6310     1.6160 H     1 <1>   0.0800 
 44 H       -4.8300     4.8860     0.2110 H     1 <1>   0.0800 
 45 H       -6.2430    -3.0300    -2.6270 H     1 <1>   0.0800 
 46 H       -5.5110    -3.6960     0.2250 H     1 <1>   0.0800 
 47 H       -5.7960     4.3070     3.0340 H     1 <1>   0.0800 
 48 H       -6.8290     4.5600     1.6350 H     1 <1>   0.0800 
 49 H       -5.8540     5.8690     2.2550 H     1 <1>   0.0800 
 50 H       -7.1340    -2.2910    -0.0350 H     1 <1>   0.4000 
 51 H       -5.5690    -5.4000    -2.2900 H     1 <1>   0.0800 
 52 H       -6.8310    -5.3380    -1.1010 H     1 <1>   0.0800 
 53 H       -6.8120    -6.9350     0.5930 H     1 <1>   0.1500 
 54 H       -5.6240    -8.6570     1.9160 H     1 <1>   0.1500 
 55 H       -1.2440    -6.9240    -0.8990 H     1 <1>   0.1500 
 56 H       -3.4520    -9.7780     2.4380 H     1 <1>   0.1500 
 57 H        0.0680    -8.5990     0.3570 H     1 <1>   0.1500 
 58 H       -1.0350   -10.0150     2.0200 H     1 <1>   0.1500 
@<TRIPOS>BOND
  1   1   2  1   
  2   2   3  ar  
  3   2   4  ar  
  4   3   5  ar  
  5   3   6  1   
  6   4   7  ar  
  7   4  31  1   
  8   5   8  ar  
  9   5  32  1   
 10   6   9  1   
 11   6  33  1   
 12   6  34  1   
 13   7   8  ar  
 14   7  10  1   
 15   8  11  1   
 16   9  12  1   
 17   9  13  1   
 18   9  35  1   
 19  10  14  1   
 20  11  15  1   
 21  12  16  1   
 22  12  36  1   
 23  12  37  1   
 24  13  17  1   
 25  13  38  1   
 26  13  39  1   
 27  14  40  1   
 28  14  41  1   
 29  14  42  1   
 30  15  18  1   
 31  15  43  1   
 32  15  44  1   
 33  16  17  1   
 34  16  19  1   
 35  16  45  1   
 36  17  20  1   
 37  17  46  1   
 38  18  47  1   
 39  18  48  1   
 40  18  49  1   
 41  19  50  1   
 42  20  21  1   
 43  20  51  1   
 44  20  52  1   
 45  21  22  ar  
 46  21  23  ar  
 47  22  24  ar  
 48  23  25  ar  
 49  23  53  1   
 50  24  26  ar  
 51  24  27  ar  
 52  25  26  ar  
 53  25  54  1   
 54  26  28  ar  
 55  27  29  ar  
 56  27  55  1   
 57  28  30  ar  
 58  28  56  1   
 59  29  30  ar  
 60  29  57  1   
 61  30  58  1   
@<TRIPOS>SUBSTRUCTURE
  1 ****   6 GROUP 4 **** **** 0

# MOE 2024.06 (io_trps.svl 2023.06)
