@<TRIPOS>MOLECULE
NONAME
46 48 1 0 0 
SMALL
USER_CHARGES


@<TRIPOS>ATOM
  1 O       -3.6810    -1.4950    -2.3140 O.2   1 <1>  -0.5700 
  2 C       -3.2890    -1.6510    -1.1670 C.2   1 <1>   0.5410 
  3 C       -2.8550    -0.5930    -0.2820 C.2   1 <1>   0.0910 
  4 C       -3.2430    -2.9570    -0.6060 C.2   1 <1>  -0.1360 
  5 O       -2.8240     0.7290    -0.6450 O.3   1 <1>  -0.3570 
  6 C       -2.4640    -0.8990     0.9800 C.2   1 <1>  -0.0730 
  7 C       -2.8400    -3.1710     0.6710 C.2   1 <1>  -0.0620 
  8 C       -2.4800     1.0810    -1.9690 C.3   1 <1>   0.0400 
  9 O       -2.4520    -2.1550     1.4460 O.3   1 <1>  -0.1530 
 10 C       -2.7720    -4.5320     1.3470 C.3   1 <1>   0.2480 
 11 N       -3.8220    -5.4310     0.8350 N.3   1 <1>  -0.8100 
 12 C       -3.5320    -6.8640     1.0880 C.3   1 <1>   0.2530 
 13 C       -5.1770    -5.0480     1.3060 C.3   1 <1>   0.1100 
 14 C       -2.3080    -7.3830     0.3310 C.ar  1 <1>   0.1670 
 15 C       -6.1450    -4.8390     0.1320 C.3   1 <1>   0.2000 
 16 N       -2.4620    -7.6560    -0.9590 N.ar  1 <1>  -0.6200 
 17 C       -1.1120    -7.5600     1.0150 C.ar  1 <1>  -0.1500 
 18 O       -7.4160    -4.5620     0.6230 O.3   1 <1>  -0.5600 
 19 C       -6.3600    -6.0430    -0.7720 C.3   1 <1>  -0.1600 
 20 C       -1.3880    -8.1030    -1.5890 C.ar  1 <1>   0.1600 
 21 C       -0.0010    -8.0290     0.3470 C.ar  1 <1>  -0.1500 
 22 C       -8.3710    -4.8010    -0.3630 C.3   1 <1>   0.1200 
 23 C       -7.7350    -5.7730    -1.3570 C.3   1 <1>  -0.1600 
 24 C       -0.1540    -8.3040    -0.9950 C.ar  1 <1>  -0.1500 
 25 H       -3.5450    -3.7630    -1.2480 H     1 <1>   0.1500 
 26 H       -2.1380    -0.1610     1.6910 H     1 <1>   0.1500 
 27 H       -2.2040     2.1200    -1.9800 H     1 <1>   0.0800 
 28 H       -3.3350     0.9290    -2.6050 H     1 <1>   0.0800 
 29 H       -1.6530     0.4750    -2.2960 H     1 <1>   0.0800 
 30 H       -2.8820    -4.4210     2.4130 H     1 <1>   0.0800 
 31 H       -1.7960    -4.9400     1.1510 H     1 <1>   0.0800 
 32 H       -4.3730    -7.4550     0.7740 H     1 <1>   0.0800 
 33 H       -3.4020    -7.0210     2.1440 H     1 <1>   0.0800 
 34 H       -5.1330    -4.1240     1.8570 H     1 <1>   0.0800 
 35 H       -5.5760    -5.8040     1.9600 H     1 <1>   0.0800 
 36 H       -5.8390    -3.9870    -0.4500 H     1 <1>   0.0800 
 37 H       -1.0460    -7.3300     2.0620 H     1 <1>   0.1500 
 38 H       -6.3820    -6.9410    -0.1820 H     1 <1>   0.0800 
 39 H       -5.5880    -6.1240    -1.5170 H     1 <1>   0.0800 
 40 H       -1.4980    -8.3210    -2.6370 H     1 <1>   0.1500 
 41 H        0.9410    -8.1750     0.8470 H     1 <1>   0.1500 
 42 H       -8.6140    -3.8630    -0.8320 H     1 <1>   0.0800 
 43 H       -9.2440    -5.2170     0.1070 H     1 <1>   0.0800 
 44 H       -8.3140    -6.6740    -1.4550 H     1 <1>   0.0800 
 45 H       -7.6530    -5.2990    -2.3190 H     1 <1>   0.0800 
 46 H        0.6710    -8.6700    -1.5770 H     1 <1>   0.1500 
@<TRIPOS>BOND
  1   1   2  2   
  2   2   3  1   
  3   2   4  1   
  4   3   5  1   
  5   3   6  2   
  6   4   7  2   
  7   4  25  1   
  8   5   8  1   
  9   6   9  1   
 10   6  26  1   
 11   7   9  1   
 12   7  10  1   
 13   8  27  1   
 14   8  28  1   
 15   8  29  1   
 16  10  11  1   
 17  10  30  1   
 18  10  31  1   
 19  11  12  1   
 20  11  13  1   
 21  12  14  1   
 22  12  32  1   
 23  12  33  1   
 24  13  15  1   
 25  13  34  1   
 26  13  35  1   
 27  14  16  ar  
 28  14  17  ar  
 29  15  18  1   
 30  15  19  1   
 31  15  36  1   
 32  16  20  ar  
 33  17  21  ar  
 34  17  37  1   
 35  18  22  1   
 36  19  23  1   
 37  19  38  1   
 38  19  39  1   
 39  20  24  ar  
 40  20  40  1   
 41  21  24  ar  
 42  21  41  1   
 43  22  23  1   
 44  22  42  1   
 45  22  43  1   
 46  23  44  1   
 47  23  45  1   
 48  24  46  1   
@<TRIPOS>SUBSTRUCTURE
  1 ****  11 GROUP 4 **** **** 0

# MOE 2024.06 (io_trps.svl 2023.06)
