@<TRIPOS>MOLECULE
NONAME
52 54 1 0 0 
SMALL
USER_CHARGES


@<TRIPOS>ATOM
  1 O       -1.3840    -0.6530     2.0020 O.2   1 <1>  -0.5700 
  2 C       -1.6180     0.3150     1.3000 C.2   1 <1>   0.7150 
  3 N       -2.4990     0.1490     0.2550 N.am  1 <1>  -0.6600 
  4 C       -1.0630     1.5950     1.6170 C.2   1 <1>  -0.2370 
  5 C       -2.8810    -1.2110    -0.1720 C.3   1 <1>   0.1400 
  6 C       -3.6080     1.1140     0.0410 C.3   1 <1>   0.1400 
  7 N       -0.5050     2.4660     0.7310 N.pl3 1 <1>   0.3140 
  8 C       -0.9760     2.2030     2.8320 C.2   1 <1>  -0.1500 
  9 C       -4.1410    -1.5390     0.6490 C.3   1 <1>   0.4230 
 10 C       -4.9290     0.5620     0.6380 C.3   1 <1>  -0.1600 
 11 N       -0.1100     3.6020     1.3400 N.2   1 <1>  -0.7070 
 12 C       -0.2440     2.2430    -0.7290 C.3   1 <1>   0.1760 
 13 C       -0.3910     3.4300     2.5950 C.2   1 <1>   0.1390 
 14 N       -4.2240    -2.9660     1.1370 N.4   1 <1>  -0.9590 
 15 C       -5.4210    -0.8420    -0.0180 C.3   1 <1>   0.0000 
 16 C        1.2630     2.2650    -1.0180 C.3   1 <1>  -0.2400 
 17 C       -0.9740     3.2920    -1.5800 C.3   1 <1>  -0.2400 
 18 C       -4.1840    -3.9440     0.0350 C.3   1 <1>   0.3430 
 19 C       -3.1630    -3.2420     2.1620 C.3   1 <1>   0.2630 
 20 C       -5.9070    -2.2010    -0.7500 C.3   1 <1>  -0.1600 
 21 C       -6.7180    -0.1070    -0.6040 C.3   1 <1>   0.1200 
 22 C       -4.9510    -3.3590    -1.1360 C.3   1 <1>  -0.1600 
 23 O       -6.3610     0.5970    -1.7520 O.3   1 <1>  -0.6800 
 24 H       -3.0910    -1.2040    -1.2280 H     1 <1>   0.0800 
 25 H       -2.0790    -1.8990     0.0230 H     1 <1>   0.0800 
 26 H       -3.3740     2.0620     0.4990 H     1 <1>   0.0800 
 27 H       -3.7320     1.2840    -1.0170 H     1 <1>   0.0800 
 28 H       -1.2920     1.8250     3.7880 H     1 <1>   0.1500 
 29 H       -3.9480    -1.0380     1.5800 H     1 <1>   0.0800 
 30 H       -4.8500     0.5070     1.7120 H     1 <1>   0.0800 
 31 H       -5.5580     1.4320     0.5380 H     1 <1>   0.0800 
 32 H       -0.6120     1.2720    -0.9990 H     1 <1>   0.0800 
 33 H       -0.1830     4.1690     3.3510 H     1 <1>   0.1500 
 34 H       -5.1420    -3.0520     1.5910 H     1 <1>   0.4500 
 35 H        1.6740     3.2320    -0.7840 H     1 <1>   0.0800 
 36 H        1.4460     2.0580    -2.0560 H     1 <1>   0.0800 
 37 H        1.7640     1.5200    -0.4260 H     1 <1>   0.0800 
 38 H       -0.6050     4.2770    -1.3540 H     1 <1>   0.0800 
 39 H       -2.0310     3.2630    -1.3880 H     1 <1>   0.0800 
 40 H       -0.8120     3.0990    -2.6250 H     1 <1>   0.0800 
 41 H       -3.1670    -4.1430    -0.2620 H     1 <1>   0.0800 
 42 H       -4.6380    -4.8690     0.3530 H     1 <1>   0.0800 
 43 H       -2.1810    -3.1540     1.7250 H     1 <1>   0.0800 
 44 H       -3.2750    -4.2360     2.5630 H     1 <1>   0.0800 
 45 H       -3.2310    -2.5340     2.9720 H     1 <1>   0.0800 
 46 H       -6.7030    -2.6340    -0.1630 H     1 <1>   0.0800 
 47 H       -6.3180    -2.0060    -1.7330 H     1 <1>   0.0800 
 48 H       -7.1980     0.5690     0.0850 H     1 <1>   0.0800 
 49 H       -7.5590    -0.7300    -0.8710 H     1 <1>   0.0800 
 50 H       -4.2530    -3.0190    -1.8810 H     1 <1>   0.0800 
 51 H       -5.5150    -4.1510    -1.6000 H     1 <1>   0.0800 
 52 H       -7.1370     1.0480    -2.1470 H     1 <1>   0.4000 
@<TRIPOS>BOND
  1   1   2  2   
  2   2   3  am  
  3   2   4  1   
  4   3   5  1   
  5   3   6  1   
  6   4   7  1   
  7   4   8  2   
  8   5   9  1   
  9   5  24  1   
 10   5  25  1   
 11   6  10  1   
 12   6  26  1   
 13   6  27  1   
 14   7  11  1   
 15   7  12  1   
 16   8  13  1   
 17   8  28  1   
 18   9  14  1   
 19   9  15  1   
 20   9  29  1   
 21  10  15  1   
 22  10  30  1   
 23  10  31  1   
 24  11  13  2   
 25  12  16  1   
 26  12  17  1   
 27  12  32  1   
 28  13  33  1   
 29  14  18  1   
 30  14  19  1   
 31  14  34  1   
 32  15  20  1   
 33  15  21  1   
 34  16  35  1   
 35  16  36  1   
 36  16  37  1   
 37  17  38  1   
 38  17  39  1   
 39  17  40  1   
 40  18  22  1   
 41  18  41  1   
 42  18  42  1   
 43  19  43  1   
 44  19  44  1   
 45  19  45  1   
 46  20  22  1   
 47  20  46  1   
 48  20  47  1   
 49  21  23  1   
 50  21  48  1   
 51  21  49  1   
 52  22  50  1   
 53  22  51  1   
 54  23  52  1   
@<TRIPOS>SUBSTRUCTURE
  1 ****   3 GROUP 4 **** **** 0

# MOE 2024.06 (io_trps.svl 2023.06)
