@<TRIPOS>MOLECULE
NONAME
51 52 1 0 0 
SMALL
USER_CHARGES


@<TRIPOS>ATOM
  1 O       -1.6780     0.1040    -2.0770 O.2   1 <1>  -0.5700 
  2 C       -2.3370     0.5410    -1.1570 C.2   1 <1>   0.5690 
  3 N       -3.3380    -0.2230    -0.6050 N.am  1 <1>  -0.6600 
  4 C       -2.0330     1.9930    -0.6790 C.3   1 <1>   0.6280 
  5 C       -3.2580    -1.7080    -0.6960 C.3   1 <1>   0.3200 
  6 C       -4.5770     0.3160     0.0480 C.3   1 <1>   0.1400 
  7 N       -1.8190     2.9810    -1.8240 N.4   1 <1>  -0.9590 
  8 C       -0.8470     2.0720     0.2960 C.ar  1 <1>  -0.1430 
  9 C       -2.6380    -2.2650     0.5740 C.2   1 <1>  -0.3320 
 10 C       -4.4560     0.4750     1.5700 C.3   1 <1>   0.1200 
 11 C       -0.4760     2.8130    -2.4710 C.3   1 <1>   0.2630 
 12 C       -2.0050     4.3920    -1.3760 C.3   1 <1>   0.2630 
 13 C       -0.8820     2.9960     1.3340 C.ar  1 <1>  -0.1500 
 14 C        0.2640     1.2430     0.1810 C.ar  1 <1>  -0.1500 
 15 N       -2.7580    -3.5490     0.9710 N.pl3 1 <1>   0.0480 
 16 C       -1.8740    -1.6520     1.5090 C.2   1 <1>   0.0770 
 17 O       -3.5230     1.4580     1.8640 O.3   1 <1>  -0.6800 
 18 C        0.1690     3.1080     2.2290 C.ar  1 <1>  -0.1430 
 19 C        1.3150     1.3490     1.0720 C.ar  1 <1>  -0.1500 
 20 C       -2.0710    -3.6160     2.1330 C.2   1 <1>   0.0360 
 21 C       -3.4590    -4.6570     0.2970 C.3   1 <1>   0.0160 
 22 N       -1.5310    -2.4990     2.4930 N.2   1 <1>  -0.5650 
 23 C        1.2690     2.2820     2.0910 C.ar  1 <1>  -0.1500 
 24 C        0.1210     4.1200     3.3600 C.3   1 <1>  -0.0970 
 25 H       -2.9050     2.3110    -0.1400 H     1 <1>   0.0800 
 26 H       -2.6620    -2.0100    -1.5410 H     1 <1>   0.0800 
 27 H       -4.2450    -2.1120    -0.8330 H     1 <1>   0.0800 
 28 H       -5.3970    -0.3500    -0.1570 H     1 <1>   0.0800 
 29 H       -4.8370     1.2670    -0.3830 H     1 <1>   0.0800 
 30 H       -2.5250     2.7400    -2.5320 H     1 <1>   0.4500 
 31 H       -4.1530    -0.4490     2.0320 H     1 <1>   0.0800 
 32 H       -5.3990     0.7780     1.9920 H     1 <1>   0.0800 
 33 H        0.3100     3.0370    -1.7670 H     1 <1>   0.0800 
 34 H       -0.3800     3.4760    -3.3150 H     1 <1>   0.0800 
 35 H       -0.3450     1.8010    -2.8170 H     1 <1>   0.0800 
 36 H       -1.2460     4.6560    -0.6570 H     1 <1>   0.0800 
 37 H       -2.9730     4.5180    -0.9200 H     1 <1>   0.0800 
 38 H       -1.9290     5.0630    -2.2160 H     1 <1>   0.0800 
 39 H       -1.7390     3.6330     1.4630 H     1 <1>   0.1500 
 40 H        0.3360     0.4980    -0.5950 H     1 <1>   0.1500 
 41 H       -1.5460    -0.6250     1.5310 H     1 <1>   0.1500 
 42 H       -3.2230     1.3630     2.7950 H     1 <1>   0.4000 
 43 H        2.1700     0.7010     0.9790 H     1 <1>   0.1500 
 44 H       -1.9890    -4.5290     2.6960 H     1 <1>   0.1500 
 45 H       -3.0750    -4.7670    -0.7010 H     1 <1>   0.0800 
 46 H       -4.5120    -4.4440     0.2600 H     1 <1>   0.0800 
 47 H       -3.2980    -5.5690     0.8410 H     1 <1>   0.0800 
 48 H        2.0930     2.3550     2.7810 H     1 <1>   0.1500 
 49 H       -0.8930     4.3970     3.5850 H     1 <1>   0.0800 
 50 H        0.6700     5.0030     3.0850 H     1 <1>   0.0800 
 51 H        0.5610     3.7030     4.2490 H     1 <1>   0.0800 
@<TRIPOS>BOND
  1   1   2  2   
  2   2   3  am  
  3   2   4  1   
  4   3   5  1   
  5   3   6  1   
  6   4   7  1   
  7   4   8  1   
  8   4  25  1   
  9   5   9  1   
 10   5  26  1   
 11   5  27  1   
 12   6  10  1   
 13   6  28  1   
 14   6  29  1   
 15   7  11  1   
 16   7  12  1   
 17   7  30  1   
 18   8  13  ar  
 19   8  14  ar  
 20   9  15  1   
 21   9  16  2   
 22  10  17  1   
 23  10  31  1   
 24  10  32  1   
 25  11  33  1   
 26  11  34  1   
 27  11  35  1   
 28  12  36  1   
 29  12  37  1   
 30  12  38  1   
 31  13  18  ar  
 32  13  39  1   
 33  14  19  ar  
 34  14  40  1   
 35  15  20  1   
 36  15  21  1   
 37  16  22  1   
 38  16  41  1   
 39  17  42  1   
 40  18  23  ar  
 41  18  24  1   
 42  19  23  ar  
 43  19  43  1   
 44  20  22  2   
 45  20  44  1   
 46  21  45  1   
 47  21  46  1   
 48  21  47  1   
 49  23  48  1   
 50  24  49  1   
 51  24  50  1   
 52  24  51  1   
@<TRIPOS>SUBSTRUCTURE
  1 ****   2 GROUP 4 **** **** 0

# MOE 2024.06 (io_trps.svl 2023.06)
