@<TRIPOS>MOLECULE
NONAME
49 51 1 0 0 
SMALL
USER_CHARGES


@<TRIPOS>ATOM
  1 O        0.1780    -0.9950    -2.0090 O.2   1 <1>  -0.5700 
  2 C        1.1860    -1.3810    -1.4490 C.2   1 <1>   0.5440 
  3 N        2.1130    -0.4600    -1.0040 N.am  1 <1>  -0.6600 
  4 C        1.3750    -2.8050    -1.2630 C.ar  1 <1>   0.0860 
  5 C        3.1900    -0.7730    -0.0230 C.3   1 <1>   0.1400 
  6 C        1.9990     0.9880    -1.3400 C.3   1 <1>   0.1400 
  7 C        0.4670    -3.5820    -0.5720 C.ar  1 <1>  -0.1500 
  8 C        2.4730    -3.4890    -1.7670 C.ar  1 <1>  -0.1500 
  9 C        2.9630     0.0250     1.2660 C.3   1 <1>  -0.1600 
 10 C        1.7580     1.7980    -0.0610 C.3   1 <1>  -0.1600 
 11 C        0.6790    -4.9410    -0.3970 C.ar  1 <1>   0.4100 
 12 C        2.6030    -4.8440    -1.5460 C.ar  1 <1>   0.1600 
 13 C        2.8440     1.5300     0.9900 C.3   1 <1>  -0.1600 
 14 N        1.7390    -5.5820    -0.8710 N.ar  1 <1>  -0.6200 
 15 N       -0.2400    -5.6770     0.3050 N.pl3 1 <1>  -0.8690 
 16 C       -0.2880    -7.1440     0.1910 C.3   1 <1>   0.3900 
 17 C       -1.6480    -7.5930     0.6760 C.2   1 <1>  -0.1810 
 18 C       -2.1110    -7.5000     1.9820 C.2   1 <1>   0.1390 
 19 C       -2.6730    -8.1450    -0.0090 C.2   1 <1>  -0.3020 
 20 N       -3.3210    -7.9530     2.1080 N.2   1 <1>  -0.7070 
 21 N       -3.6710    -8.3540     0.8720 N.pl3 1 <1>   0.3140 
 22 C       -4.9970    -8.9340     0.5840 C.3   1 <1>   0.0960 
 23 C       -5.9370    -7.8790    -0.0180 C.3   1 <1>  -0.1600 
 24 C       -7.3180    -8.4690    -0.3220 C.3   1 <1>  -0.2400 
 25 H        4.1420    -0.5090    -0.4520 H     1 <1>   0.0800 
 26 H        3.2090    -1.8220     0.2150 H     1 <1>   0.0800 
 27 H        1.1920     1.1590    -2.0330 H     1 <1>   0.0800 
 28 H        2.9110     1.3100    -1.8100 H     1 <1>   0.0800 
 29 H       -0.4140    -3.1260    -0.1620 H     1 <1>   0.1500 
 30 H        3.2170    -2.9550    -2.3310 H     1 <1>   0.1500 
 31 H        3.7790    -0.1540     1.9440 H     1 <1>   0.0800 
 32 H        2.0620    -0.3290     1.7370 H     1 <1>   0.0800 
 33 H        0.7930     1.5350     0.3350 H     1 <1>   0.0800 
 34 H        1.7380     2.8450    -0.3040 H     1 <1>   0.0800 
 35 H        3.4640    -5.3540    -1.9450 H     1 <1>   0.1500 
 36 H        3.7880     1.9040     0.6320 H     1 <1>   0.0800 
 37 H        2.6030     2.0490     1.9020 H     1 <1>   0.0800 
 38 H       -1.1820    -5.2850     0.3570 H     1 <1>   0.4000 
 39 H        0.4910    -7.5810     0.7920 H     1 <1>   0.0800 
 40 H       -0.1460    -7.4400    -0.8350 H     1 <1>   0.0800 
 41 H       -1.5390    -7.0960     2.8010 H     1 <1>   0.1500 
 42 H       -2.7500    -8.3930    -1.0520 H     1 <1>   0.1500 
 43 H       -5.4050    -9.3090     1.5040 H     1 <1>   0.0800 
 44 H       -4.8680    -9.7540    -0.0970 H     1 <1>   0.0800 
 45 H       -5.5090    -7.4920    -0.9270 H     1 <1>   0.0800 
 46 H       -6.0450    -7.0660     0.6810 H     1 <1>   0.0800 
 47 H       -7.2390    -9.2740    -1.0310 H     1 <1>   0.0800 
 48 H       -7.9580    -7.7100    -0.7370 H     1 <1>   0.0800 
 49 H       -7.7740    -8.8420     0.5790 H     1 <1>   0.0800 
@<TRIPOS>BOND
  1   1   2  2   
  2   2   3  am  
  3   2   4  1   
  4   3   5  1   
  5   3   6  1   
  6   4   7  ar  
  7   4   8  ar  
  8   5   9  1   
  9   5  25  1   
 10   5  26  1   
 11   6  10  1   
 12   6  27  1   
 13   6  28  1   
 14   7  11  ar  
 15   7  29  1   
 16   8  12  ar  
 17   8  30  1   
 18   9  13  1   
 19   9  31  1   
 20   9  32  1   
 21  10  13  1   
 22  10  33  1   
 23  10  34  1   
 24  11  14  ar  
 25  11  15  1   
 26  12  14  ar  
 27  12  35  1   
 28  13  36  1   
 29  13  37  1   
 30  15  16  1   
 31  15  38  1   
 32  16  17  1   
 33  16  39  1   
 34  16  40  1   
 35  17  18  1   
 36  17  19  2   
 37  18  20  2   
 38  18  41  1   
 39  19  21  1   
 40  19  42  1   
 41  20  21  1   
 42  21  22  1   
 43  22  23  1   
 44  22  43  1   
 45  22  44  1   
 46  23  24  1   
 47  23  45  1   
 48  23  46  1   
 49  24  47  1   
 50  24  48  1   
 51  24  49  1   
@<TRIPOS>SUBSTRUCTURE
  1 ****   7 GROUP 4 **** **** 0

# MOE 2024.06 (io_trps.svl 2023.06)
