@<TRIPOS>MOLECULE
NONAME
51 54 1 0 0 
SMALL
USER_CHARGES


@<TRIPOS>ATOM
  1 CL      -0.3470    -0.0010    -0.2870 Cl    1 <1>  -0.1400 
  2 C       -0.5350    -1.7350    -0.3300 C.2   1 <1>   0.1400 
  3 C       -1.4190    -2.3620     0.5020 C.2   1 <1>   0.1910 
  4 C        0.2380    -2.4690    -1.2330 C.2   1 <1>  -0.1500 
  5 N       -1.5730    -3.7360     0.4720 N.pl3 1 <1>  -0.5760 
  6 C        0.0760    -3.8310    -1.2560 C.2   1 <1>  -0.1800 
  7 C       -2.4630    -4.3750     1.3390 C.2   1 <1>   0.9370 
  8 C       -0.8380    -4.4730    -0.4020 C.cat 1 <1>   0.7390 
  9 O       -3.1240    -3.7240     2.1110 O.2   1 <1>  -0.5700 
 10 C       -2.5930    -5.7840     1.2820 C.2   1 <1>  -0.1360 
 11 N       -1.0050    -5.8240    -0.4350 N.pl3 1 <1>  -0.6450 
 12 C       -1.8830    -6.5120     0.3960 C.2   1 <1>   0.2030 
 13 C       -2.0210    -8.0490     0.2970 C.3   1 <1>   0.4810 
 14 N       -2.6820    -8.5600    -0.9690 N.4   1 <1>  -0.9590 
 15 C       -4.1420    -8.2740    -1.1820 C.3   1 <1>   0.4230 
 16 C       -2.4920   -10.0500    -1.0440 C.3   1 <1>   0.2630 
 17 C       -5.0270    -8.3940     0.0580 C.3   1 <1>  -0.1600 
 18 C       -4.4120    -6.8790    -1.7370 C.3   1 <1>  -0.1600 
 19 C       -6.3050    -7.6380    -0.3260 C.3   1 <1>  -0.0800 
 20 C       -5.8660    -6.5670    -1.3500 C.3   1 <1>  -0.0800 
 21 C       -7.0990    -7.1200     0.8950 C.3   1 <1>   0.1400 
 22 C       -6.0610    -5.1270    -0.8430 C.3   1 <1>  -0.0990 
 23 N       -7.9330    -5.9510     0.5290 N.am  1 <1>  -0.6600 
 24 C       -7.4550    -4.9590    -0.2800 C.2   1 <1>   0.5690 
 25 C       -9.2810    -5.8750     1.1590 C.3   1 <1>   0.0600 
 26 O       -8.0740    -3.9630    -0.5600 O.2   1 <1>  -0.5700 
 27 H       -2.0080    -1.7750     1.1950 H     1 <1>   0.1500 
 28 H        0.9320    -1.9530    -1.8780 H     1 <1>   0.1500 
 29 H        0.6600    -4.4190    -1.9420 H     1 <1>   0.1500 
 30 H       -3.2880    -6.2060     1.9840 H     1 <1>   0.1500 
 31 H       -0.3730    -6.3220    -1.0740 H     1 <1>   0.4500 
 32 H       -2.5750    -8.4040     1.1500 H     1 <1>   0.0800 
 33 H       -1.0330    -8.4740     0.3720 H     1 <1>   0.0800 
 34 H       -2.2000    -8.1690    -1.7890 H     1 <1>   0.4500 
 35 H       -4.5290    -8.9690    -1.9130 H     1 <1>   0.0800 
 36 H       -3.0030   -10.5390    -0.2300 H     1 <1>   0.0800 
 37 H       -1.4450   -10.3060    -0.9960 H     1 <1>   0.0800 
 38 H       -2.8890   -10.4330    -1.9720 H     1 <1>   0.0800 
 39 H       -5.2490    -9.4210     0.2930 H     1 <1>   0.0800 
 40 H       -4.5900    -7.9130     0.9100 H     1 <1>   0.0800 
 41 H       -3.7630    -6.1400    -1.3170 H     1 <1>   0.0800 
 42 H       -4.3060    -6.8680    -2.8080 H     1 <1>   0.0800 
 43 H       -6.9520    -8.3260    -0.8480 H     1 <1>   0.0800 
 44 H       -6.4920    -6.6810    -2.2220 H     1 <1>   0.0800 
 45 H       -6.4320    -6.8110     1.6820 H     1 <1>   0.0800 
 46 H       -7.7230    -7.9090     1.2810 H     1 <1>   0.0800 
 47 H       -5.9240    -4.4280    -1.6490 H     1 <1>   0.0800 
 48 H       -5.3660    -4.8880    -0.0610 H     1 <1>   0.0800 
 49 H       -9.8720    -6.7230     0.8620 H     1 <1>   0.0800 
 50 H       -9.7930    -4.9780     0.8530 H     1 <1>   0.0800 
 51 H       -9.1850    -5.8650     2.2310 H     1 <1>   0.0800 
@<TRIPOS>BOND
  1   1   2  1   
  2   2   3  2   
  3   2   4  1   
  4   3   5  1   
  5   3  27  1   
  6   4   6  2   
  7   4  28  1   
  8   5   7  1   
  9   5   8  ar  
 10   6   8  1   
 11   6  29  1   
 12   7   9  2   
 13   7  10  1   
 14   8  11  ar  
 15  10  12  2   
 16  10  30  1   
 17  11  12  1   
 18  11  31  1   
 19  12  13  1   
 20  13  14  1   
 21  13  32  1   
 22  13  33  1   
 23  14  15  1   
 24  14  16  1   
 25  14  34  1   
 26  15  17  1   
 27  15  18  1   
 28  15  35  1   
 29  16  36  1   
 30  16  37  1   
 31  16  38  1   
 32  17  19  1   
 33  17  39  1   
 34  17  40  1   
 35  18  20  1   
 36  18  41  1   
 37  18  42  1   
 38  19  20  1   
 39  19  21  1   
 40  19  43  1   
 41  20  22  1   
 42  20  44  1   
 43  21  23  1   
 44  21  45  1   
 45  21  46  1   
 46  22  24  1   
 47  22  47  1   
 48  22  48  1   
 49  23  24  am  
 50  23  25  1   
 51  24  26  2   
 52  25  49  1   
 53  25  50  1   
 54  25  51  1   
@<TRIPOS>SUBSTRUCTURE
  1 ****  10 GROUP 4 **** **** 0

# MOE 2024.06 (io_trps.svl 2023.06)
