@<TRIPOS>MOLECULE
NONAME
52 55 1 0 0 
SMALL
USER_CHARGES


@<TRIPOS>ATOM
  1 S        0.1480     1.0250     1.6070 S.o2  1 <1>   1.3330 
  2 O        1.0900     1.9750     2.1570 O.2   1 <1>  -0.6500 
  3 O       -0.7340     0.2980     2.4890 O.2   1 <1>  -0.6500 
  4 N        1.0300    -0.1120     0.7050 N.am  1 <1>  -0.8490 
  5 C       -0.8260     1.8750     0.3620 C.3   1 <1>  -0.0550 
  6 C        2.2630    -0.5160     1.3890 C.3   1 <1>   0.1160 
  7 C        0.2490    -1.3070     0.3620 C.3   1 <1>   0.1160 
  8 C        0.0090     2.5030    -0.7780 C.3   1 <1>  -0.0800 
  9 C       -0.8260     3.1540    -1.8850 C.3   1 <1>   0.2000 
 10 C        0.9720     3.6060    -0.3160 C.3   1 <1>   0.1400 
 11 O       -1.8550     3.8850    -1.3110 O.3   1 <1>  -0.6800 
 12 C        0.1440     4.1320    -2.5410 C.3   1 <1>   0.1400 
 13 N        0.9980     4.6000    -1.4190 N.am  1 <1>  -0.6600 
 14 C        1.5880     5.8420    -1.4060 C.2   1 <1>   0.5690 
 15 O        1.4570     6.5780    -2.3590 O.2   1 <1>  -0.5700 
 16 C        2.4100     6.3070    -0.1930 C.3   1 <1>   0.2680 
 17 C        1.6290     7.2330     0.7400 C.ar  1 <1>  -0.1440 
 18 C        3.6050     7.1930    -0.5420 C.ar  1 <1>  -0.1440 
 19 C        2.3020     8.4320     0.8900 C.ar  1 <1>   0.0000 
 20 C        0.4290     7.0040     1.3910 C.ar  1 <1>  -0.1500 
 21 C        3.5060     8.4080     0.1110 C.ar  1 <1>   0.0000 
 22 C        4.6770     6.9110    -1.3700 C.ar  1 <1>  -0.1500 
 23 C        1.7730     9.4230     1.7060 C.ar  1 <1>  -0.1500 
 24 C       -0.0960     7.9950     2.2050 C.ar  1 <1>  -0.1500 
 25 C        4.4990     9.3640    -0.0600 C.ar  1 <1>  -0.1500 
 26 C        5.6670     7.8670    -1.5370 C.ar  1 <1>  -0.1500 
 27 C        0.5740     9.1990     2.3620 C.ar  1 <1>  -0.1500 
 28 C        5.5770     9.0880    -0.8840 C.ar  1 <1>  -0.1500 
 29 H       -1.5220     1.1830    -0.0680 H     1 <1>   0.0800 
 30 H       -1.4010     2.6410     0.8460 H     1 <1>   0.0800 
 31 H        2.8070    -1.2270     0.7900 H     1 <1>   0.0800 
 32 H        2.0340    -0.9590     2.3440 H     1 <1>   0.0800 
 33 H        2.8960     0.3410     1.5490 H     1 <1>   0.0800 
 34 H        0.8270    -1.9570    -0.2730 H     1 <1>   0.0800 
 35 H       -0.6470    -1.0290    -0.1650 H     1 <1>   0.0800 
 36 H       -0.0290    -1.8460     1.2540 H     1 <1>   0.0800 
 37 H        0.6030     1.7300    -1.2350 H     1 <1>   0.0800 
 38 H       -1.2510     2.4460    -2.5770 H     1 <1>   0.0800 
 39 H        1.9570     3.2050    -0.1400 H     1 <1>   0.0800 
 40 H        0.6110     4.0740     0.5830 H     1 <1>   0.0800 
 41 H       -1.4960     4.7440    -1.0060 H     1 <1>   0.4000 
 42 H       -0.3680     4.9450    -3.0280 H     1 <1>   0.0800 
 43 H        0.7620     3.6200    -3.2580 H     1 <1>   0.0800 
 44 H        2.7700     5.4640     0.3630 H     1 <1>   0.0800 
 45 H       -0.0980     6.0750     1.2750 H     1 <1>   0.1500 
 46 H        4.7420     5.9660    -1.8810 H     1 <1>   0.1500 
 47 H        2.2940    10.3540     1.8230 H     1 <1>   0.1500 
 48 H       -1.0280     7.8290     2.7170 H     1 <1>   0.1500 
 49 H        4.4240    10.3090     0.4450 H     1 <1>   0.1500 
 50 H        6.5060     7.6630    -2.1790 H     1 <1>   0.1500 
 51 H        0.1590     9.9640     2.9950 H     1 <1>   0.1500 
 52 H        6.3490     9.8250    -1.0210 H     1 <1>   0.1500 
@<TRIPOS>BOND
  1   1   2  2   
  2   1   3  2   
  3   1   4  am  
  4   1   5  1   
  5   4   6  1   
  6   4   7  1   
  7   5   8  1   
  8   5  29  1   
  9   5  30  1   
 10   6  31  1   
 11   6  32  1   
 12   6  33  1   
 13   7  34  1   
 14   7  35  1   
 15   7  36  1   
 16   8   9  1   
 17   8  10  1   
 18   8  37  1   
 19   9  11  1   
 20   9  12  1   
 21   9  38  1   
 22  10  13  1   
 23  10  39  1   
 24  10  40  1   
 25  11  41  1   
 26  12  13  1   
 27  12  42  1   
 28  12  43  1   
 29  13  14  am  
 30  14  15  2   
 31  14  16  1   
 32  16  17  1   
 33  16  18  1   
 34  16  44  1   
 35  17  19  ar  
 36  17  20  ar  
 37  18  21  ar  
 38  18  22  ar  
 39  19  21  1   
 40  19  23  ar  
 41  20  24  ar  
 42  20  45  1   
 43  21  25  ar  
 44  22  26  ar  
 45  22  46  1   
 46  23  27  ar  
 47  23  47  1   
 48  24  27  ar  
 49  24  48  1   
 50  25  28  ar  
 51  25  49  1   
 52  26  28  ar  
 53  26  50  1   
 54  27  51  1   
 55  28  52  1   
@<TRIPOS>SUBSTRUCTURE
  1 ****  16 GROUP 4 **** **** 0

# MOE 2024.06 (io_trps.svl 2023.06)
