@<TRIPOS>MOLECULE
NONAME
48 49 1 0 0 
SMALL
USER_CHARGES


@<TRIPOS>ATOM
  1 O       -0.5340     0.1770    -1.8330 O.2   1 <1>  -0.5700 
  2 C       -1.3740     0.9520    -1.4120 C.2   1 <1>   0.5440 
  3 N       -2.6600     0.5030    -1.1870 N.am  1 <1>  -0.6600 
  4 C       -0.9900     2.3240    -1.1700 C.ar  1 <1>   0.0860 
  5 C       -3.0240    -0.9500    -1.2720 C.3   1 <1>   0.1400 
  6 C       -3.7800     1.3890    -0.7550 C.3   1 <1>   0.1400 
  7 C       -0.8720     2.8900     0.1130 C.ar  1 <1>   0.0830 
  8 C       -0.7460     3.1460    -2.2700 C.ar  1 <1>  -0.1500 
  9 C       -3.7940    -1.3310    -0.0010 C.3   1 <1>   0.2000 
 10 C       -4.5380     0.7810     0.4410 C.3   1 <1>  -0.1600 
 11 O       -1.0550     2.1760     1.2520 O.3   1 <1>  -0.3630 
 12 C       -0.5690     4.2420     0.2630 C.ar  1 <1>  -0.1440 
 13 C       -0.4300     4.4810    -2.1200 C.ar  1 <1>  -0.1500 
 14 O       -3.6810    -2.7160     0.2100 O.3   1 <1>  -0.6800 
 15 C       -5.2400    -0.5990     0.0030 C.3   1 <1>  -0.1060 
 16 C       -0.4540     0.9070     1.4170 C.3   1 <1>   0.0400 
 17 C       -0.3480     5.0300    -0.8530 C.ar  1 <1>  -0.1500 
 18 C       -0.4670     4.8650     1.6490 C.3   1 <1>  -0.0970 
 19 C       -5.9110    -1.9130    -0.4820 C.2   1 <1>   0.9060 
 20 C       -6.6790     0.1220    -0.0850 C.3   1 <1>  -0.1600 
 21 O       -6.2690    -2.7670     0.3460 O.co2 1 <1>  -0.9000 
 22 O       -6.0320    -2.1190    -1.6980 O.co2 1 <1>  -0.9000 
 23 C       -7.3930     0.1630     1.2850 C.3   1 <1>  -0.1600 
 24 C       -8.7040     0.9510     1.2060 C.3   1 <1>  -0.2400 
 25 H       -3.6400    -1.1190    -2.1380 H     1 <1>   0.0800 
 26 H       -2.1390    -1.5550    -1.3480 H     1 <1>   0.0800 
 27 H       -3.4180     2.3640    -0.4820 H     1 <1>   0.0800 
 28 H       -4.4590     1.5080    -1.5830 H     1 <1>   0.0800 
 29 H       -0.8130     2.7180    -3.2550 H     1 <1>   0.1500 
 30 H       -3.1740    -1.0010     0.8090 H     1 <1>   0.0800 
 31 H       -3.8750     0.7010     1.2850 H     1 <1>   0.0800 
 32 H       -5.1770     1.5680     0.8020 H     1 <1>   0.0800 
 33 H       -0.2490     5.0950    -2.9850 H     1 <1>   0.1500 
 34 H       -4.6140    -3.0780     0.2980 H     1 <1>   0.4000 
 35 H       -0.2640     0.7590     2.4640 H     1 <1>   0.0800 
 36 H        0.4710     0.8740     0.8670 H     1 <1>   0.0800 
 37 H       -1.1290     0.1470     1.0650 H     1 <1>   0.0800 
 38 H       -0.1070     6.0730    -0.7460 H     1 <1>   0.1500 
 39 H       -0.2370     5.9130     1.5920 H     1 <1>   0.0800 
 40 H        0.3070     4.3740     2.2120 H     1 <1>   0.0800 
 41 H       -1.3990     4.7470     2.1710 H     1 <1>   0.0800 
 42 H       -6.6370     1.1090    -0.5140 H     1 <1>   0.0800 
 43 H       -7.3890    -0.3320    -0.7630 H     1 <1>   0.0800 
 44 H       -7.6080    -0.8470     1.5950 H     1 <1>   0.0800 
 45 H       -6.7630     0.5990     2.0390 H     1 <1>   0.0800 
 46 H       -9.3640     0.5000     0.4860 H     1 <1>   0.0800 
 47 H       -8.5140     1.9690     0.9170 H     1 <1>   0.0800 
 48 H       -9.1910     0.9480     2.1650 H     1 <1>   0.0800 
@<TRIPOS>BOND
  1   1   2  2   
  2   2   3  am  
  3   2   4  1   
  4   3   5  1   
  5   3   6  1   
  6   4   7  ar  
  7   4   8  ar  
  8   5   9  1   
  9   5  25  1   
 10   5  26  1   
 11   6  10  1   
 12   6  27  1   
 13   6  28  1   
 14   7  11  1   
 15   7  12  ar  
 16   8  13  ar  
 17   8  29  1   
 18   9  14  1   
 19   9  15  1   
 20   9  30  1   
 21  10  15  1   
 22  10  31  1   
 23  10  32  1   
 24  11  16  1   
 25  12  17  ar  
 26  12  18  1   
 27  13  17  ar  
 28  13  33  1   
 29  14  34  1   
 30  15  19  1   
 31  15  20  1   
 32  16  35  1   
 33  16  36  1   
 34  16  37  1   
 35  17  38  1   
 36  18  39  1   
 37  18  40  1   
 38  18  41  1   
 39  19  21  ar  
 40  19  22  ar  
 41  20  23  1   
 42  20  42  1   
 43  20  43  1   
 44  23  24  1   
 45  23  44  1   
 46  23  45  1   
 47  24  46  1   
 48  24  47  1   
 49  24  48  1   
@<TRIPOS>SUBSTRUCTURE
  1 ****   6 GROUP 4 **** **** 0

# MOE 2024.06 (io_trps.svl 2023.06)
