@<TRIPOS>MOLECULE
NONAME
39 41 1 0 0 
SMALL
USER_CHARGES


@<TRIPOS>ATOM
  1 O       -1.3170     0.3080     1.9170 O.2   1 <1>  -0.5700 
  2 C       -1.9500     0.7790     0.9850 C.2   1 <1>   0.5440 
  3 N       -3.0490     0.0560     0.5580 N.am  1 <1>  -0.6600 
  4 C       -1.5290     2.0650     0.4050 C.ar  1 <1>   0.3960 
  5 C       -4.0460     0.4750    -0.4610 C.3   1 <1>   0.1400 
  6 C       -3.3980    -1.2850     1.0960 C.3   1 <1>   0.1400 
  7 N       -1.8020     2.3690    -0.8790 N.ar  1 <1>  -0.6200 
  8 C       -0.8290     2.9640     1.2160 C.ar  1 <1>  -0.1500 
  9 C       -5.2010    -0.5150    -0.3070 C.3   1 <1>   0.2000 
 10 C       -4.5380    -1.7950     0.2040 C.3   1 <1>  -0.0800 
 11 C       -1.3850     3.5380    -1.3290 C.ar  1 <1>   0.1600 
 12 C       -0.4010     4.1820     0.7370 C.ar  1 <1>  -0.1500 
 13 O       -6.0510    -0.0430     0.6800 O.3   1 <1>  -0.6800 
 14 C       -4.0010    -2.6430    -0.9650 C.3   1 <1>   0.0210 
 15 C       -0.6930     4.4690    -0.5770 C.ar  1 <1>  -0.1500 
 16 C       -3.3580    -3.9240    -0.4720 C.2   1 <1>   0.1080 
 17 N       -4.0410    -4.9040     0.0320 N.2   1 <1>  -0.7070 
 18 C       -1.9930    -4.1920    -0.4970 C.2   1 <1>  -0.1500 
 19 N       -3.1200    -5.8340     0.3460 N.pl3 1 <1>   0.3000 
 20 C       -1.8710    -5.4260     0.0350 C.2   1 <1>  -0.3320 
 21 C       -0.6200    -6.2500     0.2720 C.3   1 <1>  -0.0600 
 22 H       -4.3680     1.4920    -0.3120 H     1 <1>   0.0800 
 23 H       -3.6060     0.3790    -1.4380 H     1 <1>   0.0800 
 24 H       -2.5390    -1.9340     1.0890 H     1 <1>   0.0800 
 25 H       -3.7380    -1.1760     2.1110 H     1 <1>   0.0800 
 26 H       -0.6210     2.6930     2.2360 H     1 <1>   0.1500 
 27 H       -5.7720    -0.6470    -1.2100 H     1 <1>   0.0800 
 28 H       -5.2300    -2.3970     0.7680 H     1 <1>   0.0800 
 29 H       -1.6050     3.7720    -2.3570 H     1 <1>   0.1500 
 30 H        0.1370     4.8760     1.3600 H     1 <1>   0.1500 
 31 H       -5.5210     0.1660     1.4750 H     1 <1>   0.4000 
 32 H       -3.2810    -2.0850    -1.5360 H     1 <1>   0.0800 
 33 H       -4.8130    -2.9080    -1.6170 H     1 <1>   0.0800 
 34 H       -0.3870     5.4020    -1.0160 H     1 <1>   0.1500 
 35 H       -1.2250    -3.5350    -0.8650 H     1 <1>   0.1500 
 36 H       -3.3750    -6.7340     0.7690 H     1 <1>   0.2700 
 37 H        0.2480    -5.7040    -0.0540 H     1 <1>   0.0800 
 38 H       -0.6710    -7.1720    -0.2790 H     1 <1>   0.0800 
 39 H       -0.5110    -6.4700     1.3190 H     1 <1>   0.0800 
@<TRIPOS>BOND
  1   1   2  2   
  2   2   3  am  
  3   2   4  1   
  4   3   5  1   
  5   3   6  1   
  6   4   7  ar  
  7   4   8  ar  
  8   5   9  1   
  9   5  22  1   
 10   5  23  1   
 11   6  10  1   
 12   6  24  1   
 13   6  25  1   
 14   7  11  ar  
 15   8  12  ar  
 16   8  26  1   
 17   9  10  1   
 18   9  13  1   
 19   9  27  1   
 20  10  14  1   
 21  10  28  1   
 22  11  15  ar  
 23  11  29  1   
 24  12  15  ar  
 25  12  30  1   
 26  13  31  1   
 27  14  16  1   
 28  14  32  1   
 29  14  33  1   
 30  15  34  1   
 31  16  17  2   
 32  16  18  1   
 33  17  19  1   
 34  18  20  2   
 35  18  35  1   
 36  19  20  1   
 37  19  36  1   
 38  20  21  1   
 39  21  37  1   
 40  21  38  1   
 41  21  39  1   
@<TRIPOS>SUBSTRUCTURE
  1 ****   3 GROUP 4 **** **** 0

# MOE 2024.06 (io_trps.svl 2023.06)
