@<TRIPOS>MOLECULE
NONAME
41 42 1 0 0 
SMALL
USER_CHARGES


@<TRIPOS>ATOM
  1 CL      -1.1250    -0.1520     0.3110 Cl    1 <1>  -0.1770 
  2 C       -1.7430    -1.7770     0.4610 C.ar  1 <1>   0.1770 
  3 C       -2.6160    -2.0830     1.4870 C.ar  1 <1>  -0.1500 
  4 C       -1.3500    -2.7410    -0.4480 C.ar  1 <1>  -0.1500 
  5 C       -3.0980    -3.3750     1.6010 C.ar  1 <1>  -0.1500 
  6 C       -1.8420    -4.0280    -0.3230 C.ar  1 <1>  -0.1500 
  7 C       -2.7270    -4.3750     0.7020 C.ar  1 <1>   0.0530 
  8 C       -3.2070    -5.7310     0.8190 C.2   1 <1>   0.0870 
  9 O       -2.3690    -6.7140     0.5780 O.3   1 <1>  -0.0190 
 10 C       -4.4030    -6.3000     1.1350 C.2   1 <1>  -0.2330 
 11 N       -2.9100    -7.8930     0.7240 N.2   1 <1>  -0.4100 
 12 C       -4.1280    -7.6660     1.0690 C.2   1 <1>   0.3720 
 13 C       -5.6930    -5.7400     1.4250 C.2   1 <1>   1.0330 
 14 N       -5.0560    -8.6580     1.3440 N.pl3 1 <1>  -0.8520 
 15 O       -5.8580    -4.5140     1.5110 O.co2 1 <1>  -0.9000 
 16 O       -6.6930    -6.4710     1.5720 O.co2 1 <1>  -0.9000 
 17 C       -5.1980    -9.7770     0.3750 C.3   1 <1>   0.2090 
 18 C       -6.2840    -9.5380    -0.7050 C.3   1 <1>   0.0000 
 19 C       -7.6660    -9.3410    -0.0440 C.3   1 <1>   0.1200 
 20 C       -5.9600    -8.2980    -1.5600 C.3   1 <1>  -0.2400 
 21 C       -6.3200   -10.7560    -1.6500 C.3   1 <1>  -0.2400 
 22 O       -8.0390   -10.4860     0.6680 O.3   1 <1>  -0.5600 
 23 C       -9.0090   -10.2370     1.6320 C.3   1 <1>   0.0400 
 24 H       -2.9200    -1.3230     2.1830 H     1 <1>   0.1500 
 25 H       -0.6710    -2.4830    -1.2390 H     1 <1>   0.1500 
 26 H       -3.7810    -3.6170     2.3980 H     1 <1>   0.1500 
 27 H       -1.5420    -4.7830    -1.0280 H     1 <1>   0.1500 
 28 H       -5.9670    -8.1810     1.5070 H     1 <1>   0.4000 
 29 H       -5.4480   -10.6640     0.9310 H     1 <1>   0.0800 
 30 H       -4.2510    -9.9560    -0.1040 H     1 <1>   0.0800 
 31 H       -8.4180    -9.1540    -0.7890 H     1 <1>   0.0800 
 32 H       -7.6350    -8.5000     0.6270 H     1 <1>   0.0800 
 33 H       -6.0390    -7.4020    -0.9720 H     1 <1>   0.0800 
 34 H       -6.6460    -8.2110    -2.3830 H     1 <1>   0.0800 
 35 H       -4.9580    -8.3580    -1.9490 H     1 <1>   0.0800 
 36 H       -6.5240   -11.6560    -1.0960 H     1 <1>   0.0800 
 37 H       -5.3770   -10.8730    -2.1520 H     1 <1>   0.0800 
 38 H       -7.0920   -10.6360    -2.3890 H     1 <1>   0.0800 
 39 H       -9.2540   -11.1670     2.1110 H     1 <1>   0.0800 
 40 H       -9.8830    -9.8260     1.1580 H     1 <1>   0.0800 
 41 H       -8.6140    -9.5460     2.3580 H     1 <1>   0.0800 
@<TRIPOS>BOND
  1   1   2  1   
  2   2   3  ar  
  3   2   4  ar  
  4   3   5  ar  
  5   3  24  1   
  6   4   6  ar  
  7   4  25  1   
  8   5   7  ar  
  9   5  26  1   
 10   6   7  ar  
 11   6  27  1   
 12   7   8  1   
 13   8   9  1   
 14   8  10  2   
 15   9  11  1   
 16  10  12  1   
 17  10  13  1   
 18  11  12  2   
 19  12  14  1   
 20  13  15  ar  
 21  13  16  ar  
 22  14  17  1   
 23  14  28  1   
 24  17  18  1   
 25  17  29  1   
 26  17  30  1   
 27  18  19  1   
 28  18  20  1   
 29  18  21  1   
 30  19  22  1   
 31  19  31  1   
 32  19  32  1   
 33  20  33  1   
 34  20  34  1   
 35  20  35  1   
 36  21  36  1   
 37  21  37  1   
 38  21  38  1   
 39  22  23  1   
 40  23  39  1   
 41  23  40  1   
 42  23  41  1   
@<TRIPOS>SUBSTRUCTURE
  1 ****  10 GROUP 4 **** **** 0

# MOE 2024.06 (io_trps.svl 2023.06)
