@<TRIPOS>MOLECULE
NONAME
33 33 1 0 0 
SMALL
USER_CHARGES


@<TRIPOS>ATOM
  1 CL      -0.2520     1.3310     0.5720 Cl    1 <1>  -0.1230 
  2 C        0.9350     2.5390     1.0300 C.2   1 <1>   0.1230 
  3 C        0.7860     3.4880     2.0290 C.2   1 <1>   0.1390 
  4 C        2.1540     2.7340     0.4980 C.2   1 <1>  -0.3020 
  5 N        1.8440     4.2390     2.1230 N.2   1 <1>  -0.7070 
  6 N        2.6900     3.7720     1.1770 N.pl3 1 <1>   0.3140 
  7 C        4.0140     4.3750     0.9570 C.3   1 <1>   0.0960 
  8 C        3.8680     5.6380     0.1060 C.3   1 <1>   0.1100 
  9 N        5.1810     6.2900    -0.0980 N.3   1 <1>  -0.8100 
 10 C        5.0910     7.7750    -0.3350 C.3   1 <1>   0.2510 
 11 C        6.0280     5.6050    -1.0860 C.3   1 <1>   0.1100 
 12 C        4.8010     8.5930     0.9510 C.2   1 <1>   0.5690 
 13 C        4.0910     8.1010    -1.4610 C.3   1 <1>  -0.2400 
 14 C        7.4820     5.6880    -0.6340 C.3   1 <1>  -0.2400 
 15 O        4.5140     9.7630     0.8860 O.2   1 <1>  -0.5700 
 16 N        4.8890     7.9950     2.1560 N.am  1 <1>  -0.8000 
 17 H       -0.0890     3.5930     2.6470 H     1 <1>   0.1500 
 18 H        2.6490     2.2110    -0.2980 H     1 <1>   0.1500 
 19 H        4.6440     3.6540     0.4750 H     1 <1>   0.0800 
 20 H        4.4300     4.6280     1.9140 H     1 <1>   0.0800 
 21 H        3.2090     6.3120     0.6280 H     1 <1>   0.0800 
 22 H        3.4260     5.3980    -0.8470 H     1 <1>   0.0800 
 23 H        6.0560     8.1160    -0.6630 H     1 <1>   0.0800 
 24 H        5.9150     6.0450    -2.0630 H     1 <1>   0.0800 
 25 H        5.7570     4.5660    -1.1630 H     1 <1>   0.0800 
 26 H        3.0810     7.9300    -1.1390 H     1 <1>   0.0800 
 27 H        4.2920     7.5270    -2.3460 H     1 <1>   0.0800 
 28 H        4.1760     9.1430    -1.7150 H     1 <1>   0.0800 
 29 H        7.8200     6.7080    -0.6050 H     1 <1>   0.0800 
 30 H        8.1060     5.1470    -1.3220 H     1 <1>   0.0800 
 31 H        7.5910     5.2500     0.3420 H     1 <1>   0.0800 
 32 H        4.6900     8.5060     3.0140 H     1 <1>   0.3700 
 33 H        5.1350     7.0060     2.2190 H     1 <1>   0.3700 
@<TRIPOS>BOND
  1   1   2  1   
  2   2   3  1   
  3   2   4  2   
  4   3   5  2   
  5   3  17  1   
  6   4   6  1   
  7   4  18  1   
  8   5   6  1   
  9   6   7  1   
 10   7   8  1   
 11   7  19  1   
 12   7  20  1   
 13   8   9  1   
 14   8  21  1   
 15   8  22  1   
 16   9  10  1   
 17   9  11  1   
 18  10  12  1   
 19  10  13  1   
 20  10  23  1   
 21  11  14  1   
 22  11  24  1   
 23  11  25  1   
 24  12  15  2   
 25  12  16  am  
 26  13  26  1   
 27  13  27  1   
 28  13  28  1   
 29  14  29  1   
 30  14  30  1   
 31  14  31  1   
 32  16  32  1   
 33  16  33  1   
@<TRIPOS>SUBSTRUCTURE
  1 ****   8 GROUP 4 **** **** 0

# MOE 2024.06 (io_trps.svl 2023.06)
