@<TRIPOS>MOLECULE
NONAME
52 55 1 0 0 
SMALL
USER_CHARGES


@<TRIPOS>ATOM
  1 S       -1.3380     0.6060     1.5980 S.3   1 <1>  -0.4600 
  2 C       -2.4460     1.4900     0.4470 C.3   1 <1>   0.2510 
  3 C        0.3030     1.2590     1.1910 C.3   1 <1>  -0.0100 
  4 C       -3.8810     1.0150     0.6150 C.2   1 <1>   0.3350 
  5 N       -4.7840     1.6400     1.2610 N.2   1 <1>  -0.4100 
  6 N       -4.3120    -0.1130     0.0630 N.2   1 <1>  -0.5650 
  7 O       -5.8710     0.9340     1.1770 O.3   1 <1>  -0.0190 
  8 C       -5.5280    -0.0980     0.4450 C.2   1 <1>   0.2980 
  9 C       -6.5640    -1.1800     0.1450 C.3   1 <1>   0.2900 
 10 N       -7.6350    -0.7470    -0.7880 N.3   1 <1>  -0.8100 
 11 C       -8.6650     0.0740    -0.1050 C.3   1 <1>   0.1100 
 12 C       -8.2500    -1.8990    -1.4620 C.3   1 <1>   0.1100 
 13 C       -9.6980     0.6350    -1.1010 C.3   1 <1>   0.1430 
 14 C       -9.2530    -1.4210    -2.5180 C.3   1 <1>  -0.1600 
 15 C      -10.7240     1.4420    -0.3270 C.ar  1 <1>   0.1670 
 16 C      -10.3340    -0.5230    -1.8970 C.3   1 <1>  -0.1600 
 17 C       -9.0590     1.7050    -2.0260 C.3   1 <1>  -0.1600 
 18 N      -11.6720     0.9450     0.4280 N.ar  1 <1>  -0.6200 
 19 C      -10.5330     2.7800    -0.4930 C.ar  1 <1>  -0.1430 
 20 C       -9.3620     3.0750    -1.3970 C.3   1 <1>  -0.0170 
 21 C      -12.4570     1.8450     1.0260 C.ar  1 <1>   0.7200 
 22 C      -11.3870     3.6310     0.1600 C.ar  1 <1>   0.1600 
 23 N      -12.3550     3.1740     0.9210 N.ar  1 <1>  -0.6200 
 24 N      -13.4750     1.3530     1.8250 N.pl3 1 <1>  -0.8380 
 25 C      -13.8330    -0.0930     1.8150 C.3   1 <1>   0.1290 
 26 C      -14.4630     2.2590     2.4750 C.3   1 <1>   0.1290 
 27 H       -2.1000     1.2930    -0.5510 H     1 <1>   0.0800 
 28 H       -2.3660     2.5370     0.6710 H     1 <1>   0.0800 
 29 H        1.0140     0.7790     1.8400 H     1 <1>   0.0800 
 30 H        0.2910     2.3210     1.3570 H     1 <1>   0.0800 
 31 H        0.5090     1.0270     0.1610 H     1 <1>   0.0800 
 32 H       -6.9950    -1.5260     1.0680 H     1 <1>   0.0800 
 33 H       -6.0300    -2.0040    -0.2950 H     1 <1>   0.0800 
 34 H       -8.2040     0.9010     0.4040 H     1 <1>   0.0800 
 35 H       -9.1770    -0.5240     0.6320 H     1 <1>   0.0800 
 36 H       -8.7490    -2.5240    -0.7400 H     1 <1>   0.0800 
 37 H       -7.4860    -2.4820    -1.9500 H     1 <1>   0.0800 
 38 H       -9.7170    -2.2750    -2.9790 H     1 <1>   0.0800 
 39 H       -8.7210    -0.8840    -3.2840 H     1 <1>   0.0800 
 40 H      -10.9890    -0.1380    -2.6590 H     1 <1>   0.0800 
 41 H      -10.9320    -1.1160    -1.2270 H     1 <1>   0.0800 
 42 H       -9.5280     1.6690    -2.9930 H     1 <1>   0.0800 
 43 H       -8.0020     1.5530    -2.1580 H     1 <1>   0.0800 
 44 H       -9.6070     3.8090    -2.1440 H     1 <1>   0.0800 
 45 H       -8.5270     3.4130    -0.8080 H     1 <1>   0.0800 
 46 H      -11.2760     4.6960     0.0600 H     1 <1>   0.1500 
 47 H      -12.9450    -0.6940     1.9190 H     1 <1>   0.0800 
 48 H      -14.3130    -0.3380     0.8830 H     1 <1>   0.0800 
 49 H      -14.4970    -0.3250     2.6280 H     1 <1>   0.0800 
 50 H      -13.9720     3.1390     2.8530 H     1 <1>   0.0800 
 51 H      -14.9420     1.7620     3.3000 H     1 <1>   0.0800 
 52 H      -15.2070     2.5550     1.7550 H     1 <1>   0.0800 
@<TRIPOS>BOND
  1   1   2  1   
  2   1   3  1   
  3   2   4  1   
  4   2  27  1   
  5   2  28  1   
  6   3  29  1   
  7   3  30  1   
  8   3  31  1   
  9   4   5  2   
 10   4   6  1   
 11   5   7  1   
 12   6   8  2   
 13   7   8  1   
 14   8   9  1   
 15   9  10  1   
 16   9  32  1   
 17   9  33  1   
 18  10  11  1   
 19  10  12  1   
 20  11  13  1   
 21  11  34  1   
 22  11  35  1   
 23  12  14  1   
 24  12  36  1   
 25  12  37  1   
 26  13  15  1   
 27  13  16  1   
 28  13  17  1   
 29  14  16  1   
 30  14  38  1   
 31  14  39  1   
 32  15  18  ar  
 33  15  19  ar  
 34  16  40  1   
 35  16  41  1   
 36  17  20  1   
 37  17  42  1   
 38  17  43  1   
 39  18  21  ar  
 40  19  20  1   
 41  19  22  ar  
 42  20  44  1   
 43  20  45  1   
 44  21  23  ar  
 45  21  24  1   
 46  22  23  ar  
 47  22  46  1   
 48  24  25  1   
 49  24  26  1   
 50  25  47  1   
 51  25  48  1   
 52  25  49  1   
 53  26  50  1   
 54  26  51  1   
 55  26  52  1   
@<TRIPOS>SUBSTRUCTURE
  1 ****  11 GROUP 4 **** **** 0

# MOE 2024.06 (io_trps.svl 2023.06)
