@<TRIPOS>MOLECULE
NONAME
52 54 1 0 0 
SMALL
USER_CHARGES


@<TRIPOS>ATOM
  1 O        0.1340     1.1920     0.9970 O.2   1 <1>  -0.5700 
  2 C        0.1720     2.2230     0.3670 C.2   1 <1>   0.5690 
  3 N       -0.9240     3.0400     0.2520 N.am  1 <1>  -0.6600 
  4 C        1.4780     2.6080    -0.3240 C.3   1 <1>  -0.0990 
  5 C       -2.2070     2.7010     0.9360 C.3   1 <1>   0.1400 
  6 C       -0.9820     4.2500    -0.6240 C.3   1 <1>   0.1400 
  7 C        2.7110     1.8140     0.1520 C.3   1 <1>  -0.1600 
  8 C       -3.3070     2.3850    -0.1010 C.3   1 <1>   0.0000 
  9 C       -2.4260     4.6270    -0.9970 C.3   1 <1>  -0.1600 
 10 C        3.9880     2.2640    -0.5680 C.3   1 <1>  -0.0160 
 11 C       -4.6790     2.3550     0.5970 C.3   1 <1>   0.2000 
 12 C       -3.2630     3.3760    -1.3080 C.3   1 <1>  -0.1600 
 13 C       -3.2090     0.9400    -0.6170 C.3   1 <1>  -0.1600 
 14 C        5.1890     1.4720    -0.0780 C.ar  1 <1>  -0.1440 
 15 O       -5.2020     3.6400     0.7620 O.3   1 <1>  -0.5600 
 16 C       -5.5740     1.4830    -0.2900 C.3   1 <1>  -0.1600 
 17 C       -4.6210     0.5850    -1.0930 C.3   1 <1>  -0.1600 
 18 C        5.9570     1.9410     0.9760 C.ar  1 <1>  -0.1500 
 19 C        5.5280     0.2710    -0.6830 C.ar  1 <1>  -0.1500 
 20 C       -6.2850     3.7270     1.6330 C.3   1 <1>   0.0400 
 21 C        7.0530     1.2210     1.4190 C.ar  1 <1>  -0.1500 
 22 C        6.6240    -0.4510    -0.2410 C.ar  1 <1>  -0.1500 
 23 C        7.3880     0.0240     0.8100 C.ar  1 <1>  -0.1500 
 24 H        1.3490     2.4560    -1.3790 H     1 <1>   0.0800 
 25 H        1.6580     3.6520    -0.1490 H     1 <1>   0.0800 
 26 H       -2.0770     1.8710     1.6080 H     1 <1>   0.0800 
 27 H       -2.5080     3.5460     1.5300 H     1 <1>   0.0800 
 28 H       -0.5120     5.0780    -0.1210 H     1 <1>   0.0800 
 29 H       -0.4400     4.0510    -1.5320 H     1 <1>   0.0800 
 30 H        2.8330     1.9470     1.2140 H     1 <1>   0.0800 
 31 H        2.5520     0.7640    -0.0290 H     1 <1>   0.0800 
 32 H       -2.8800     5.1680    -0.1850 H     1 <1>   0.0800 
 33 H       -2.4140     5.2810    -1.8510 H     1 <1>   0.0800 
 34 H        4.1560     3.3120    -0.3920 H     1 <1>   0.0800 
 35 H        3.8770     2.1240    -1.6290 H     1 <1>   0.0800 
 36 H       -4.5710     1.8950     1.5660 H     1 <1>   0.0800 
 37 H       -2.8200     2.8970    -2.1620 H     1 <1>   0.0800 
 38 H       -4.2560     3.6720    -1.5980 H     1 <1>   0.0800 
 39 H       -2.4700     0.8200    -1.3910 H     1 <1>   0.0800 
 40 H       -2.9420     0.2850     0.1950 H     1 <1>   0.0800 
 41 H       -6.2400     0.8920     0.3130 H     1 <1>   0.0800 
 42 H       -6.1440     2.0980    -0.9640 H     1 <1>   0.0800 
 43 H       -4.8300    -0.4600    -0.9370 H     1 <1>   0.0800 
 44 H       -4.7180     0.8070    -2.1420 H     1 <1>   0.0800 
 45 H        5.7030     2.8680     1.4580 H     1 <1>   0.1500 
 46 H        4.9380    -0.1080    -1.4980 H     1 <1>   0.1500 
 47 H       -6.5810     4.7590     1.6940 H     1 <1>   0.0800 
 48 H       -5.9870     3.3780     2.6070 H     1 <1>   0.0800 
 49 H       -7.1010     3.1390     1.2520 H     1 <1>   0.0800 
 50 H        7.6440     1.5910     2.2380 H     1 <1>   0.1500 
 51 H        6.8800    -1.3820    -0.7150 H     1 <1>   0.1500 
 52 H        8.2400    -0.5360     1.1540 H     1 <1>   0.1500 
@<TRIPOS>BOND
  1   1   2  2   
  2   2   3  am  
  3   2   4  1   
  4   3   5  1   
  5   3   6  1   
  6   4   7  1   
  7   4  24  1   
  8   4  25  1   
  9   5   8  1   
 10   5  26  1   
 11   5  27  1   
 12   6   9  1   
 13   6  28  1   
 14   6  29  1   
 15   7  10  1   
 16   7  30  1   
 17   7  31  1   
 18   8  11  1   
 19   8  12  1   
 20   8  13  1   
 21   9  12  1   
 22   9  32  1   
 23   9  33  1   
 24  10  14  1   
 25  10  34  1   
 26  10  35  1   
 27  11  15  1   
 28  11  16  1   
 29  11  36  1   
 30  12  37  1   
 31  12  38  1   
 32  13  17  1   
 33  13  39  1   
 34  13  40  1   
 35  14  18  ar  
 36  14  19  ar  
 37  15  20  1   
 38  16  17  1   
 39  16  41  1   
 40  16  42  1   
 41  17  43  1   
 42  17  44  1   
 43  18  21  ar  
 44  18  45  1   
 45  19  22  ar  
 46  19  46  1   
 47  20  47  1   
 48  20  48  1   
 49  20  49  1   
 50  21  23  ar  
 51  21  50  1   
 52  22  23  ar  
 53  22  51  1   
 54  23  52  1   
@<TRIPOS>SUBSTRUCTURE
  1 ****   2 GROUP 4 **** **** 0

# MOE 2024.06 (io_trps.svl 2023.06)
