@<TRIPOS>MOLECULE
NONAME
47 49 1 0 0 
SMALL
USER_CHARGES


@<TRIPOS>ATOM
  1 O        1.3730     0.7440     0.7120 O.2   1 <1>  -0.5700 
  2 C        1.0710     1.9100     0.6340 C.2   1 <1>   0.5690 
  3 N        1.9890     2.9400     0.5040 N.am  1 <1>  -0.2980 
  4 C       -0.3880     2.3020     0.7040 C.3   1 <1>  -0.0990 
  5 N        1.6770     4.2680     0.3260 N.2   1 <1>  -0.5120 
  6 C        3.4330     2.6190     0.5940 C.3   1 <1>   0.0600 
  7 C       -0.6480     3.5800    -0.1090 C.3   1 <1>  -0.0990 
  8 C        0.4620     4.6300     0.0650 C.2   1 <1>   0.3890 
  9 C        0.0930     6.0170    -0.1160 C.2   1 <1>   0.6300 
 10 O       -1.0400     6.3490    -0.4340 O.2   1 <1>  -0.5700 
 11 N        1.0580     6.9870     0.0610 N.am  1 <1>  -0.4940 
 12 C        1.0890     8.3850    -0.1300 C.2   1 <1>  -0.0880 
 13 N        0.0850     9.2950     0.0060 N.pl3 1 <1>   0.3140 
 14 C        2.2080     9.0860    -0.4630 C.2   1 <1>  -0.0540 
 15 N        0.5230    10.5500    -0.2330 N.2   1 <1>  -0.7070 
 16 C       -1.3020     9.0930     0.4410 C.3   1 <1>   0.0160 
 17 C        3.5290     8.5660    -0.7250 C.ar  1 <1>   0.0540 
 18 C        1.7790    10.4150    -0.5060 C.2   1 <1>   0.1080 
 19 C        4.6270     8.8470     0.0980 C.ar  1 <1>   0.0820 
 20 C        3.7260     7.7440    -1.8310 C.ar  1 <1>  -0.1500 
 21 C        2.6610    11.5980    -0.8340 C.3   1 <1>  -0.0590 
 22 O        4.4120     9.6390     1.1830 O.3   1 <1>  -0.3630 
 23 C        5.8790     8.3140    -0.2010 C.ar  1 <1>  -0.1500 
 24 C        4.9680     7.2140    -2.1230 C.ar  1 <1>  -0.1500 
 25 C        5.4380     9.9570     2.0960 C.3   1 <1>   0.0400 
 26 C        6.0470     7.5000    -1.3070 C.ar  1 <1>  -0.1500 
 27 H       -0.6300     2.4730     1.7360 H     1 <1>   0.0800 
 28 H       -0.9980     1.4950     0.3410 H     1 <1>   0.0800 
 29 H        3.6410     2.1710     1.5490 H     1 <1>   0.0800 
 30 H        4.0200     3.5130     0.4860 H     1 <1>   0.0800 
 31 H        3.6940     1.9260    -0.1860 H     1 <1>   0.0800 
 32 H       -1.6020     3.9830     0.1800 H     1 <1>   0.0800 
 33 H       -0.6990     3.3290    -1.1540 H     1 <1>   0.0800 
 34 H        1.9820     6.5760     0.2380 H     1 <1>   0.3700 
 35 H       -1.3290     8.3480     1.2130 H     1 <1>   0.0800 
 36 H       -1.8890     8.7740    -0.3990 H     1 <1>   0.0800 
 37 H       -1.6910    10.0190     0.8210 H     1 <1>   0.0800 
 38 H        2.8870     7.5250    -2.4690 H     1 <1>   0.1500 
 39 H        3.4190    11.3130    -1.5390 H     1 <1>   0.0800 
 40 H        3.1290    11.9520     0.0650 H     1 <1>   0.0800 
 41 H        2.0680    12.3880    -1.2560 H     1 <1>   0.0800 
 42 H        6.7340     8.5190     0.4130 H     1 <1>   0.1500 
 43 H        5.0960     6.5820    -2.9850 H     1 <1>   0.1500 
 44 H        5.0170    10.5800     2.8650 H     1 <1>   0.0800 
 45 H        6.2140    10.4920     1.5770 H     1 <1>   0.0800 
 46 H        5.8160     9.0480     2.5280 H     1 <1>   0.0800 
 47 H        7.0160     7.0910    -1.5340 H     1 <1>   0.1500 
@<TRIPOS>BOND
  1   1   2  2   
  2   2   3  am  
  3   2   4  1   
  4   3   5  1   
  5   3   6  1   
  6   4   7  1   
  7   4  27  1   
  8   4  28  1   
  9   5   8  2   
 10   6  29  1   
 11   6  30  1   
 12   6  31  1   
 13   7   8  1   
 14   7  32  1   
 15   7  33  1   
 16   8   9  1   
 17   9  10  2   
 18   9  11  am  
 19  11  12  1   
 20  11  34  1   
 21  12  13  1   
 22  12  14  2   
 23  13  15  1   
 24  13  16  1   
 25  14  17  1   
 26  14  18  1   
 27  15  18  2   
 28  16  35  1   
 29  16  36  1   
 30  16  37  1   
 31  17  19  ar  
 32  17  20  ar  
 33  18  21  1   
 34  19  22  1   
 35  19  23  ar  
 36  20  24  ar  
 37  20  38  1   
 38  21  39  1   
 39  21  40  1   
 40  21  41  1   
 41  22  25  1   
 42  23  26  ar  
 43  23  42  1   
 44  24  26  ar  
 45  24  43  1   
 46  25  44  1   
 47  25  45  1   
 48  25  46  1   
 49  26  47  1   
@<TRIPOS>SUBSTRUCTURE
  1 ****  11 GROUP 4 **** **** 0

# MOE 2024.06 (io_trps.svl 2023.06)
