@<TRIPOS>MOLECULE
NONAME
52 55 1 0 0 
SMALL
USER_CHARGES


@<TRIPOS>ATOM
  1 O        2.0160     0.2260     1.2360 O.2   1 <1>  -0.5700 
  2 C        2.6680    -0.7940     1.1030 C.2   1 <1>   0.7150 
  3 N        4.0340    -0.6790     1.1790 N.am  1 <1>  -0.6600 
  4 C        2.0540    -2.0610     0.8080 C.2   1 <1>  -0.2370 
  5 C        4.6560     0.3550     2.0890 C.3   1 <1>   0.1400 
  6 C        4.8870    -1.2160     0.0730 C.3   1 <1>   0.1400 
  7 N        2.6140    -3.2360     1.2500 N.pl3 1 <1>   0.0330 
  8 C        0.9180    -2.3840     0.1170 C.2   1 <1>  -0.1810 
  9 C        5.0170     1.6780     1.3660 C.3   1 <1>   0.4230 
 10 C        5.4680    -0.1420    -0.8830 C.3   1 <1>  -0.0800 
 11 C        1.8570    -4.2900     0.8270 C.ar  1 <1>  -0.1520 
 12 C        0.7800    -3.7860     0.1120 C.ar  1 <1>   0.0000 
 13 C       -0.0790    -1.4600    -0.5600 C.3   1 <1>  -0.0590 
 14 N        4.1380     1.8070     0.1460 N.4   1 <1>  -0.9590 
 15 C        6.5470     1.7750     1.1220 C.3   1 <1>   0.1200 
 16 C        6.9340     0.1970    -0.5770 C.3   1 <1>   0.1200 
 17 C        4.6460     1.1440    -1.0950 C.3   1 <1>   0.3430 
 18 C        2.0200    -5.6650     1.0100 C.ar  1 <1>  -0.1500 
 19 C       -0.1580    -4.6720    -0.4330 C.ar  1 <1>  -0.1500 
 20 C        3.8110     3.2670    -0.1390 C.3   1 <1>   0.2370 
 21 O        7.1000     0.5420     0.7540 O.3   1 <1>  -0.5600 
 22 C        1.0920    -6.5210     0.4670 C.ar  1 <1>  -0.1500 
 23 C       -0.0030    -6.0290    -0.2580 C.ar  1 <1>  -0.1440 
 24 C        5.0280     4.1520    -0.4080 C.2   1 <1>   0.9060 
 25 C       -1.0020    -7.0130    -0.8380 C.3   1 <1>  -0.0970 
 26 O        5.5370     4.1120    -1.5310 O.co2 1 <1>  -0.9000 
 27 O        5.5440     4.7210     0.5580 O.co2 1 <1>  -0.9000 
 28 H        3.9560     0.5900     2.8730 H     1 <1>   0.0800 
 29 H        5.5230    -0.0620     2.5700 H     1 <1>   0.0800 
 30 H        5.6910    -1.7910     0.5020 H     1 <1>   0.0800 
 31 H        4.2990    -1.8970    -0.5190 H     1 <1>   0.0800 
 32 H        3.4550    -3.3090     1.8310 H     1 <1>   0.2700 
 33 H        4.7740     2.4910     2.0310 H     1 <1>   0.0800 
 34 H        5.5090    -0.6050    -1.8520 H     1 <1>   0.0800 
 35 H       -1.0420    -1.5650    -0.0940 H     1 <1>   0.0800 
 36 H       -0.1670    -1.7180    -1.6000 H     1 <1>   0.0800 
 37 H        0.2270    -0.4340    -0.4850 H     1 <1>   0.0800 
 38 H        3.2620     1.3200     0.4180 H     1 <1>   0.4500 
 39 H        7.0180     2.0530     2.0480 H     1 <1>   0.0800 
 40 H        6.8110     2.5220     0.3950 H     1 <1>   0.0800 
 41 H        7.2970     1.0030    -1.1960 H     1 <1>   0.0800 
 42 H        7.5540    -0.6650    -0.7540 H     1 <1>   0.0800 
 43 H        3.8020     0.9150    -1.7230 H     1 <1>   0.0800 
 44 H        5.2620     1.8440    -1.6390 H     1 <1>   0.0800 
 45 H        2.8580    -6.0410     1.5690 H     1 <1>   0.1500 
 46 H       -0.9880    -4.2700    -0.9820 H     1 <1>   0.1500 
 47 H        3.1690     3.3360    -0.9980 H     1 <1>   0.0800 
 48 H        3.2950     3.6920     0.7020 H     1 <1>   0.0800 
 49 H        1.1990    -7.5840     0.5960 H     1 <1>   0.1500 
 50 H       -0.5060    -7.6770    -1.5220 H     1 <1>   0.0800 
 51 H       -1.7850    -6.4980    -1.3660 H     1 <1>   0.0800 
 52 H       -1.4450    -7.5910    -0.0480 H     1 <1>   0.0800 
@<TRIPOS>BOND
  1   1   2  2   
  2   2   3  am  
  3   2   4  1   
  4   3   5  1   
  5   3   6  1   
  6   4   7  1   
  7   4   8  2   
  8   5   9  1   
  9   5  28  1   
 10   5  29  1   
 11   6  10  1   
 12   6  30  1   
 13   6  31  1   
 14   7  11  1   
 15   7  32  1   
 16   8  12  1   
 17   8  13  1   
 18   9  14  1   
 19   9  15  1   
 20   9  33  1   
 21  10  16  1   
 22  10  17  1   
 23  10  34  1   
 24  11  12  ar  
 25  11  18  ar  
 26  12  19  ar  
 27  13  35  1   
 28  13  36  1   
 29  13  37  1   
 30  14  17  1   
 31  14  20  1   
 32  14  38  1   
 33  15  21  1   
 34  15  39  1   
 35  15  40  1   
 36  16  21  1   
 37  16  41  1   
 38  16  42  1   
 39  17  43  1   
 40  17  44  1   
 41  18  22  ar  
 42  18  45  1   
 43  19  23  ar  
 44  19  46  1   
 45  20  24  1   
 46  20  47  1   
 47  20  48  1   
 48  22  23  ar  
 49  22  49  1   
 50  23  25  1   
 51  24  26  ar  
 52  24  27  ar  
 53  25  50  1   
 54  25  51  1   
 55  25  52  1   
@<TRIPOS>SUBSTRUCTURE
  1 ****   2 GROUP 4 **** **** 0

# MOE 2024.06 (io_trps.svl 2023.06)
