@<TRIPOS>MOLECULE
NONAME
55 57 1 0 0 
SMALL
USER_CHARGES


@<TRIPOS>ATOM
  1 O        0.5970    -0.0810    -0.8090 O.2   1 <1>  -0.5700 
  2 C        1.6620    -0.6530    -0.6730 C.2   1 <1>   0.5440 
  3 N        2.7900     0.0920    -0.3880 N.am  1 <1>  -0.6600 
  4 C        1.7130    -2.0980    -0.8110 C.ar  1 <1>   0.0860 
  5 C        3.9920    -0.5300     0.2560 C.3   1 <1>   0.1400 
  6 C        2.7670     1.5670    -0.6020 C.3   1 <1>   0.1400 
  7 C        0.8230    -2.9160    -0.1200 C.ar  1 <1>  -0.1500 
  8 C        2.6470    -2.7180    -1.6410 C.ar  1 <1>  -0.1500 
  9 C        4.6540     0.3350     1.3380 C.3   1 <1>   0.1100 
 10 C        4.1250     2.1410    -1.0150 C.3   1 <1>  -0.1600 
 11 C        0.8660    -4.2950    -0.2290 C.ar  1 <1>   0.0830 
 12 C        2.7030    -4.0950    -1.7610 C.ar  1 <1>  -0.1500 
 13 N        5.6440     1.2690     0.7660 N.3   1 <1>  -0.8100 
 14 C        5.0320     2.4670     0.1730 C.3   1 <1>   0.1100 
 15 O       -0.0440    -4.9940     0.4930 O.3   1 <1>  -0.3630 
 16 C        1.8170    -4.8880    -1.0550 C.ar  1 <1>  -0.1500 
 17 C        6.6420     1.6650     1.8080 C.3   1 <1>   0.1710 
 18 C       -0.1510    -6.3950     0.3860 C.3   1 <1>   0.1200 
 19 C        7.7950     2.5740     1.3490 C.2   1 <1>   0.5690 
 20 C       -1.2970    -6.8500     1.2840 C.3   1 <1>  -0.2400 
 21 O        7.8880     3.6670     1.8600 O.2   1 <1>  -0.5700 
 22 N        8.6970     2.1520     0.4070 N.am  1 <1>  -0.6600 
 23 C        9.8460     2.9710    -0.0240 C.3   1 <1>   0.1400 
 24 C        8.6230     0.8850    -0.3530 C.3   1 <1>   0.1400 
 25 C       10.6880     2.0310    -0.8780 C.3   1 <1>  -0.1600 
 26 C        9.6900     1.0180    -1.4340 C.3   1 <1>  -0.1600 
 27 H        4.7210    -0.7690    -0.4980 H     1 <1>   0.0800 
 28 H        3.6920    -1.4500     0.7250 H     1 <1>   0.0800 
 29 H        2.4120     2.0490     0.2920 H     1 <1>   0.0800 
 30 H        2.0610     1.7860    -1.3860 H     1 <1>   0.0800 
 31 H        0.0800    -2.4650     0.5130 H     1 <1>   0.1500 
 32 H        3.3330    -2.1050    -2.2000 H     1 <1>   0.1500 
 33 H        5.1680    -0.3410     2.0000 H     1 <1>   0.0800 
 34 H        3.9120     0.8580     1.9170 H     1 <1>   0.0800 
 35 H        3.9310     3.0700    -1.5190 H     1 <1>   0.0800 
 36 H        4.6230     1.4980    -1.7170 H     1 <1>   0.0800 
 37 H        3.4350    -4.5500    -2.4060 H     1 <1>   0.1500 
 38 H        4.4820     3.0110     0.9230 H     1 <1>   0.0800 
 39 H        5.8130     3.1130    -0.1900 H     1 <1>   0.0800 
 40 H        1.8800    -5.9540    -1.1610 H     1 <1>   0.1500 
 41 H        7.0900     0.7780     2.2170 H     1 <1>   0.0800 
 42 H        6.1300     2.1670     2.6110 H     1 <1>   0.0800 
 43 H        0.7790    -6.8330     0.7050 H     1 <1>   0.0800 
 44 H       -0.3510    -6.6440    -0.6420 H     1 <1>   0.0800 
 45 H       -1.0940    -6.5820     2.3060 H     1 <1>   0.0800 
 46 H       -1.4060    -7.9180     1.2240 H     1 <1>   0.0800 
 47 H       -2.2170    -6.3920     0.9680 H     1 <1>   0.0800 
 48 H       10.3930     3.3430     0.8260 H     1 <1>   0.0800 
 49 H        9.4840     3.7980    -0.6110 H     1 <1>   0.0800 
 50 H        7.6470     0.7490    -0.7870 H     1 <1>   0.0800 
 51 H        8.8490     0.0640     0.3050 H     1 <1>   0.0800 
 52 H       11.4020     1.5320    -0.2450 H     1 <1>   0.0800 
 53 H       11.2150     2.5590    -1.6530 H     1 <1>   0.0800 
 54 H        9.2330     1.4100    -2.3260 H     1 <1>   0.0800 
 55 H       10.1490     0.0720    -1.6620 H     1 <1>   0.0800 
@<TRIPOS>BOND
  1   1   2  2   
  2   2   3  am  
  3   2   4  1   
  4   3   5  1   
  5   3   6  1   
  6   4   7  ar  
  7   4   8  ar  
  8   5   9  1   
  9   5  27  1   
 10   5  28  1   
 11   6  10  1   
 12   6  29  1   
 13   6  30  1   
 14   7  11  ar  
 15   7  31  1   
 16   8  12  ar  
 17   8  32  1   
 18   9  13  1   
 19   9  33  1   
 20   9  34  1   
 21  10  14  1   
 22  10  35  1   
 23  10  36  1   
 24  11  15  1   
 25  11  16  ar  
 26  12  16  ar  
 27  12  37  1   
 28  13  14  1   
 29  13  17  1   
 30  14  38  1   
 31  14  39  1   
 32  15  18  1   
 33  16  40  1   
 34  17  19  1   
 35  17  41  1   
 36  17  42  1   
 37  18  20  1   
 38  18  43  1   
 39  18  44  1   
 40  19  21  2   
 41  19  22  am  
 42  20  45  1   
 43  20  46  1   
 44  20  47  1   
 45  22  23  1   
 46  22  24  1   
 47  23  25  1   
 48  23  48  1   
 49  23  49  1   
 50  24  26  1   
 51  24  50  1   
 52  24  51  1   
 53  25  26  1   
 54  25  52  1   
 55  25  53  1   
 56  26  54  1   
 57  26  55  1   
@<TRIPOS>SUBSTRUCTURE
  1 ****   5 GROUP 4 **** **** 0

# MOE 2024.06 (io_trps.svl 2023.06)
