@<TRIPOS>MOLECULE
NONAME
50 52 1 0 0 
SMALL
USER_CHARGES


@<TRIPOS>ATOM
  1 CL       0.7930     0.4180    -1.0110 Cl    1 <1>  -0.1770 
  2 C        0.4770     1.8930    -0.1240 C.ar  1 <1>   0.1770 
  3 C        1.4960     2.5890     0.5230 C.ar  1 <1>  -0.1440 
  4 C       -0.8330     2.3350    -0.0940 C.ar  1 <1>  -0.1500 
  5 C        1.1580     3.7520     1.2060 C.ar  1 <1>  -0.1500 
  6 C        2.9540     2.1380     0.5140 C.3   1 <1>   0.3640 
  7 C       -1.1500     3.4940     0.5900 C.ar  1 <1>  -0.1500 
  8 C       -0.1520     4.2000     1.2390 C.ar  1 <1>  -0.1500 
  9 N        3.0610     0.8100     1.1620 N.am  1 <1>  -0.7300 
 10 C        3.5990     2.1830    -0.8980 C.3   1 <1>   0.2610 
 11 C        3.7150    -0.2380     0.6140 C.2   1 <1>   0.5690 
 12 O        4.7000     1.2890    -1.0140 O.3   1 <1>  -0.5600 
 13 C        3.9840     3.6340    -1.2360 C.2   1 <1>   0.5690 
 14 O        3.7830    -1.2920     1.1910 O.2   1 <1>  -0.5700 
 15 C        4.3710    -0.0610    -0.7580 C.3   1 <1>   0.1810 
 16 O        3.1360     4.2970    -1.7860 O.2   1 <1>  -0.5700 
 17 N        5.2100     4.2040    -0.9400 N.am  1 <1>  -0.6600 
 18 C        5.5980     5.4940    -1.6010 C.3   1 <1>   0.1400 
 19 C        6.3170     3.5130    -0.2020 C.3   1 <1>   0.1400 
 20 C        6.4240     6.4050    -0.6780 C.3   1 <1>   0.3430 
 21 C        7.1530     4.4800     0.6620 C.3   1 <1>   0.3430 
 22 N        7.6220     5.6970    -0.0970 N.4   1 <1>  -0.9590 
 23 C        8.4820     6.5990     0.7230 C.3   1 <1>   0.4230 
 24 C        8.9770     7.7650    -0.1340 C.3   1 <1>  -0.2400 
 25 C        9.6910     5.8270     1.2540 C.3   1 <1>  -0.2400 
 26 H       -1.5960     1.7760    -0.6040 H     1 <1>   0.1500 
 27 H        1.9080     4.3260     1.7200 H     1 <1>   0.1500 
 28 H        3.5100     2.8210     1.1320 H     1 <1>   0.0800 
 29 H       -2.1670     3.8460     0.6170 H     1 <1>   0.1500 
 30 H       -0.3990     5.1040     1.7710 H     1 <1>   0.1500 
 31 H        2.5390     0.6530     2.0260 H     1 <1>   0.3700 
 32 H        2.8770     1.8780    -1.6320 H     1 <1>   0.0800 
 33 H        3.7020    -0.4060    -1.5260 H     1 <1>   0.0800 
 34 H        5.2760    -0.6380    -0.7990 H     1 <1>   0.0800 
 35 H        6.1640     5.2730    -2.4900 H     1 <1>   0.0800 
 36 H        4.7210     6.0370    -1.9100 H     1 <1>   0.0800 
 37 H        5.9140     2.7610     0.4530 H     1 <1>   0.0800 
 38 H        6.9550     3.0170    -0.9120 H     1 <1>   0.0800 
 39 H        5.7870     6.7580     0.1160 H     1 <1>   0.0800 
 40 H        6.7390     7.2600    -1.2510 H     1 <1>   0.0800 
 41 H        7.9990     3.9350     1.0460 H     1 <1>   0.0800 
 42 H        6.5550     4.7910     1.5030 H     1 <1>   0.0800 
 43 H        8.1990     5.3700    -0.8810 H     1 <1>   0.4500 
 44 H        7.9170     6.9880     1.5570 H     1 <1>   0.0800 
 45 H        9.4680     7.4140    -1.0240 H     1 <1>   0.0800 
 46 H        9.6880     8.3480     0.4260 H     1 <1>   0.0800 
 47 H        8.1770     8.4320    -0.3970 H     1 <1>   0.0800 
 48 H       10.2280     5.3460     0.4560 H     1 <1>   0.0800 
 49 H        9.4050     5.0990     1.9920 H     1 <1>   0.0800 
 50 H       10.3670     6.5070     1.7430 H     1 <1>   0.0800 
@<TRIPOS>BOND
  1   1   2  1   
  2   2   3  ar  
  3   2   4  ar  
  4   3   5  ar  
  5   3   6  1   
  6   4   7  ar  
  7   4  26  1   
  8   5   8  ar  
  9   5  27  1   
 10   6   9  1   
 11   6  10  1   
 12   6  28  1   
 13   7   8  ar  
 14   7  29  1   
 15   8  30  1   
 16   9  11  am  
 17   9  31  1   
 18  10  12  1   
 19  10  13  1   
 20  10  32  1   
 21  11  14  2   
 22  11  15  1   
 23  12  15  1   
 24  13  16  2   
 25  13  17  am  
 26  15  33  1   
 27  15  34  1   
 28  17  18  1   
 29  17  19  1   
 30  18  20  1   
 31  18  35  1   
 32  18  36  1   
 33  19  21  1   
 34  19  37  1   
 35  19  38  1   
 36  20  22  1   
 37  20  39  1   
 38  20  40  1   
 39  21  22  1   
 40  21  41  1   
 41  21  42  1   
 42  22  23  1   
 43  22  43  1   
 44  23  24  1   
 45  23  25  1   
 46  23  44  1   
 47  24  45  1   
 48  24  46  1   
 49  24  47  1   
 50  25  48  1   
 51  25  49  1   
 52  25  50  1   
@<TRIPOS>SUBSTRUCTURE
  1 ****  13 GROUP 4 **** **** 0

# MOE 2024.06 (io_trps.svl 2023.06)
