@<TRIPOS>MOLECULE
NONAME
44 46 1 0 0 
SMALL
USER_CHARGES


@<TRIPOS>ATOM
  1 N       -1.0040    -0.3450     0.2940 N.ar  1 <1>  -0.6200 
  2 C       -1.8310     0.6800     0.3100 C.ar  1 <1>   0.4100 
  3 C        0.2680    -0.0660     0.4830 C.ar  1 <1>   0.4760 
  4 N       -3.1640     0.3980     0.1330 N.pl3 1 <1>  -0.8380 
  5 C       -1.3680     1.9760     0.5010 C.ar  1 <1>  -0.1440 
  6 N        0.8220     1.1150     0.6790 N.ar  1 <1>  -0.6200 
  7 C        1.2100    -1.2450     0.4680 C.3   1 <1>  -0.0970 
  8 C       -3.5920    -0.3190    -1.1160 C.3   1 <1>   0.3900 
  9 C       -4.0160     0.1940     1.3350 C.3   1 <1>   0.1290 
 10 C       -0.0190     2.1300     0.6820 C.ar  1 <1>   0.1600 
 11 C       -2.2880     3.1930     0.4980 C.3   1 <1>  -0.0160 
 12 C       -4.4370    -1.5730    -0.8720 C.2   1 <1>   0.1080 
 13 C       -2.5030     3.7040    -0.9290 C.3   1 <1>  -0.2400 
 14 N       -5.7250    -1.6270    -1.0770 N.2   1 <1>  -0.7070 
 15 C       -3.9430    -2.7920    -0.4120 C.2   1 <1>  -0.1810 
 16 N       -6.0760    -2.8860    -0.7480 N.pl3 1 <1>   0.3000 
 17 C       -5.0120    -3.6030    -0.3390 C.2   1 <1>  -0.3320 
 18 C       -2.5350    -3.2080    -0.0330 C.3   1 <1>   0.0210 
 19 C       -4.9850    -5.0510     0.1130 C.3   1 <1>   0.0200 
 20 C       -2.4440    -4.7430     0.0600 C.3   1 <1>  -0.1600 
 21 C       -3.6460    -5.3480     0.8150 C.3   1 <1>  -0.1600 
 22 H        0.7110    -2.1210     0.8380 H     1 <1>   0.0800 
 23 H        2.0640    -1.0440     1.0880 H     1 <1>   0.0800 
 24 H        1.5380    -1.4220    -0.5380 H     1 <1>   0.0800 
 25 H       -2.7260    -0.5940    -1.6900 H     1 <1>   0.0800 
 26 H       -4.1710     0.3620    -1.7120 H     1 <1>   0.0800 
 27 H       -3.6850     0.8320     2.1350 H     1 <1>   0.0800 
 28 H       -3.9500    -0.8300     1.6610 H     1 <1>   0.0800 
 29 H       -5.0410     0.4240     1.1000 H     1 <1>   0.0800 
 30 H        0.3970     3.1110     0.8310 H     1 <1>   0.1500 
 31 H       -1.8580     3.9760     1.0960 H     1 <1>   0.0800 
 32 H       -3.2390     2.9410     0.9340 H     1 <1>   0.0800 
 33 H       -1.5630     3.9740    -1.3760 H     1 <1>   0.0800 
 34 H       -3.1460     4.5660    -0.9210 H     1 <1>   0.0800 
 35 H       -2.9620     2.9370    -1.5270 H     1 <1>   0.0800 
 36 H       -7.0440    -3.2210    -0.8140 H     1 <1>   0.2700 
 37 H       -2.2940    -2.7680     0.9180 H     1 <1>   0.0800 
 38 H       -1.8330    -2.8410    -0.7610 H     1 <1>   0.0800 
 39 H       -5.0920    -5.6870    -0.7480 H     1 <1>   0.0800 
 40 H       -5.7980    -5.2480     0.7890 H     1 <1>   0.0800 
 41 H       -1.5260    -5.0150     0.5510 H     1 <1>   0.0800 
 42 H       -2.4190    -5.1490    -0.9370 H     1 <1>   0.0800 
 43 H       -3.5210    -6.4130     0.9090 H     1 <1>   0.0800 
 44 H       -3.6740    -4.9300     1.8060 H     1 <1>   0.0800 
@<TRIPOS>BOND
  1   1   2  ar  
  2   1   3  ar  
  3   2   4  1   
  4   2   5  ar  
  5   3   6  ar  
  6   3   7  1   
  7   4   8  1   
  8   4   9  1   
  9   5  10  ar  
 10   5  11  1   
 11   6  10  ar  
 12   7  22  1   
 13   7  23  1   
 14   7  24  1   
 15   8  12  1   
 16   8  25  1   
 17   8  26  1   
 18   9  27  1   
 19   9  28  1   
 20   9  29  1   
 21  10  30  1   
 22  11  13  1   
 23  11  31  1   
 24  11  32  1   
 25  12  14  2   
 26  12  15  1   
 27  13  33  1   
 28  13  34  1   
 29  13  35  1   
 30  14  16  1   
 31  15  17  2   
 32  15  18  1   
 33  16  17  1   
 34  16  36  1   
 35  17  19  1   
 36  18  20  1   
 37  18  37  1   
 38  18  38  1   
 39  19  21  1   
 40  19  39  1   
 41  19  40  1   
 42  20  21  1   
 43  20  41  1   
 44  20  42  1   
 45  21  43  1   
 46  21  44  1   
@<TRIPOS>SUBSTRUCTURE
  1 ****   4 GROUP 4 **** **** 0

# MOE 2024.06 (io_trps.svl 2023.06)
