@<TRIPOS>MOLECULE
NONAME
62 64 1 0 0 
SMALL
USER_CHARGES


@<TRIPOS>ATOM
  1 O       -0.5750     0.5010    -0.8480 O.2   1 <1>  -0.5700 
  2 C       -1.0030     1.3080    -0.0550 C.2   1 <1>   0.5690 
  3 N       -2.0700     1.0070     0.7550 N.am  1 <1>  -0.6600 
  4 C       -0.3340     2.6740     0.0200 C.3   1 <1>  -0.0990 
  5 C       -2.6370    -0.3750     0.7310 C.3   1 <1>   0.1400 
  6 C       -2.7600     1.9850     1.6500 C.3   1 <1>   0.1400 
  7 C        0.9940     2.7620    -0.7470 C.3   1 <1>  -0.0160 
  8 C       -3.6710    -0.5240    -0.3940 C.3   1 <1>   0.1400 
  9 C       -4.2900     1.9770     1.5080 C.3   1 <1>  -0.1600 
 10 C        1.5990     4.1490    -0.5910 C.ar  1 <1>  -0.1430 
 11 N       -4.9460     0.2000    -0.0820 N.am  1 <1>  -0.6600 
 12 C       -4.8070     1.6730     0.0970 C.3   1 <1>   0.1400 
 13 C        2.4170     4.4350     0.4920 C.ar  1 <1>  -0.1500 
 14 C        1.3330     5.1390    -1.5270 C.ar  1 <1>  -0.1500 
 15 C       -6.1730    -0.4000     0.0760 C.2   1 <1>   0.5690 
 16 C        2.9640     5.6980     0.6400 C.ar  1 <1>  -0.1500 
 17 C        1.8780     6.4030    -1.3840 C.ar  1 <1>  -0.1500 
 18 O       -7.1420     0.2350     0.4240 O.2   1 <1>  -0.5700 
 19 C       -6.3370    -1.8980    -0.1720 C.3   1 <1>  -0.0990 
 20 C        2.6930     6.6780    -0.2980 C.ar  1 <1>   0.0830 
 21 C       -7.7870    -2.4130    -0.0590 C.3   1 <1>  -0.1600 
 22 O        3.2290     7.8980    -0.1450 O.3   1 <1>  -0.5320 
 23 C       -7.9480    -3.8980    -0.4390 C.3   1 <1>  -0.0800 
 24 C       -9.4440    -4.2600    -0.4640 C.3   1 <1>  -0.1600 
 25 C       -7.1890    -4.8340     0.5230 C.3   1 <1>  -0.1600 
 26 C       -9.6670    -5.7360    -0.8180 C.3   1 <1>  -0.1600 
 27 C       -7.4170    -6.3120     0.1760 C.3   1 <1>  -0.1600 
 28 C       -8.9110    -6.6550     0.1480 C.3   1 <1>  -0.1600 
 29 H       -0.1440     2.9070     1.0510 H     1 <1>   0.0800 
 30 H       -1.0110     3.4060    -0.3770 H     1 <1>   0.0800 
 31 H       -3.0830    -0.6170     1.6790 H     1 <1>   0.0800 
 32 H       -1.8390    -1.0760     0.5590 H     1 <1>   0.0800 
 33 H       -2.4210     2.9810     1.4320 H     1 <1>   0.0800 
 34 H       -2.4960     1.7720     2.6720 H     1 <1>   0.0800 
 35 H        0.8290     2.5510    -1.7890 H     1 <1>   0.0800 
 36 H        1.6800     2.0230    -0.3720 H     1 <1>   0.0800 
 37 H       -3.8540    -1.5710    -0.5390 H     1 <1>   0.0800 
 38 H       -3.2560    -0.1440    -1.3120 H     1 <1>   0.0800 
 39 H       -4.6470     2.9490     1.7950 H     1 <1>   0.0800 
 40 H       -4.7220     1.2790     2.2030 H     1 <1>   0.0800 
 41 H       -4.1460     2.0770    -0.6510 H     1 <1>   0.0800 
 42 H       -5.7670     2.1430    -0.0360 H     1 <1>   0.0800 
 43 H        2.6330     3.6760     1.2240 H     1 <1>   0.1500 
 44 H        0.7010     4.9260    -2.3720 H     1 <1>   0.1500 
 45 H        3.5990     5.9270     1.4760 H     1 <1>   0.1500 
 46 H        1.6670     7.1620    -2.1140 H     1 <1>   0.1500 
 47 H       -5.7230    -2.4110     0.5430 H     1 <1>   0.0800 
 48 H       -5.9740    -2.1140    -1.1590 H     1 <1>   0.0800 
 49 H       -8.4030    -1.8210    -0.7150 H     1 <1>   0.0800 
 50 H       -8.1430    -2.2530     0.9440 H     1 <1>   0.0800 
 51 H        2.9900     8.5110    -0.8610 H     1 <1>   0.4500 
 52 H       -7.5570    -4.0400    -1.4320 H     1 <1>   0.0800 
 53 H       -9.9540    -3.6460    -1.1850 H     1 <1>   0.0800 
 54 H       -9.8770    -4.0620     0.5020 H     1 <1>   0.0800 
 55 H       -7.5200    -4.6540     1.5320 H     1 <1>   0.0800 
 56 H       -6.1340    -4.6370     0.4800 H     1 <1>   0.0800 
 57 H       -9.3270    -5.9180    -1.8230 H     1 <1>   0.0800 
 58 H      -10.7190    -5.9610    -0.7800 H     1 <1>   0.0800 
 59 H       -6.9190    -6.9330     0.9000 H     1 <1>   0.0800 
 60 H       -6.9880    -6.5200    -0.7890 H     1 <1>   0.0800 
 61 H       -9.0400    -7.6810    -0.1510 H     1 <1>   0.0800 
 62 H       -9.3200    -6.5450     1.1380 H     1 <1>   0.0800 
@<TRIPOS>BOND
  1   1   2  2   
  2   2   3  am  
  3   2   4  1   
  4   3   5  1   
  5   3   6  1   
  6   4   7  1   
  7   4  29  1   
  8   4  30  1   
  9   5   8  1   
 10   5  31  1   
 11   5  32  1   
 12   6   9  1   
 13   6  33  1   
 14   6  34  1   
 15   7  10  1   
 16   7  35  1   
 17   7  36  1   
 18   8  11  1   
 19   8  37  1   
 20   8  38  1   
 21   9  12  1   
 22   9  39  1   
 23   9  40  1   
 24  10  13  ar  
 25  10  14  ar  
 26  11  12  1   
 27  11  15  am  
 28  12  41  1   
 29  12  42  1   
 30  13  16  ar  
 31  13  43  1   
 32  14  17  ar  
 33  14  44  1   
 34  15  18  2   
 35  15  19  1   
 36  16  20  ar  
 37  16  45  1   
 38  17  20  ar  
 39  17  46  1   
 40  19  21  1   
 41  19  47  1   
 42  19  48  1   
 43  20  22  1   
 44  21  23  1   
 45  21  49  1   
 46  21  50  1   
 47  22  51  1   
 48  23  24  1   
 49  23  25  1   
 50  23  52  1   
 51  24  26  1   
 52  24  53  1   
 53  24  54  1   
 54  25  27  1   
 55  25  55  1   
 56  25  56  1   
 57  26  28  1   
 58  26  57  1   
 59  26  58  1   
 60  27  28  1   
 61  27  59  1   
 62  27  60  1   
 63  28  61  1   
 64  28  62  1   
@<TRIPOS>SUBSTRUCTURE
  1 ****   8 GROUP 4 **** **** 0

# MOE 2024.06 (io_trps.svl 2023.06)
