@<TRIPOS>MOLECULE
NONAME
60 63 1 0 0 
SMALL
USER_CHARGES


@<TRIPOS>ATOM
  1 O        1.7400     0.2460    -0.7320 O.3   1 <1>  -0.5600 
  2 C        2.6010    -0.8750    -0.7520 C.3   1 <1>   0.4240 
  3 C        0.8150     0.3270     0.3150 C.3   1 <1>   0.1200 
  4 C        1.8960    -2.1610    -0.2840 C.ar  1 <1>  -0.1440 
  5 C        3.8190    -0.5390     0.1220 C.3   1 <1>  -0.1600 
  6 C        3.0560    -1.0010    -2.2170 C.3   1 <1>  -0.1600 
  7 C       -0.1750    -0.8280     0.1920 C.3   1 <1>  -0.0160 
  8 C        0.5790    -2.1420     0.1540 C.ar  1 <1>  -0.1440 
  9 C        2.5700    -3.3740    -0.2810 C.ar  1 <1>  -0.1500 
 10 C        4.5210     0.7560    -0.3060 C.3   1 <1>   0.3430 
 11 C        4.0980     0.0420    -2.6400 C.3   1 <1>   0.3430 
 12 C       -0.0440    -3.3110     0.5600 C.ar  1 <1>  -0.1500 
 13 C        1.9700    -4.5530     0.1270 C.ar  1 <1>   0.0830 
 14 N        4.0940     1.1750    -1.6790 N.4   1 <1>  -0.9590 
 15 C        0.6290    -4.5300     0.5510 C.ar  1 <1>   0.0830 
 16 O        2.7970    -5.6370     0.0610 O.3   1 <1>  -0.3630 
 17 C        4.7680     2.4050    -2.1790 C.3   1 <1>   0.4860 
 18 O        0.0040    -5.6800     0.9420 O.3   1 <1>  -0.3630 
 19 C        2.4500    -6.9120     0.5520 C.3   1 <1>   0.0400 
 20 C        4.5360     3.5200    -1.1890 C.ar  1 <1>  -0.1430 
 21 C       -1.3710    -5.7300     1.2520 C.3   1 <1>   0.0400 
 22 C        3.2980     4.0970    -1.0280 C.ar  1 <1>   0.1600 
 23 C        5.5480     3.9920    -0.3870 C.ar  1 <1>   0.1600 
 24 N        3.0750     5.0260    -0.1370 N.ar  1 <1>  -0.6200 
 25 N        5.3480     4.9180     0.5110 N.ar  1 <1>  -0.6200 
 26 C        4.1110     5.4050     0.6110 C.ar  1 <1>   0.7200 
 27 N        3.8850     6.3750     1.5660 N.pl3 1 <1>  -0.8380 
 28 C        5.0030     6.9800     2.3460 C.3   1 <1>   0.1290 
 29 C        2.5920     7.1150     1.6400 C.3   1 <1>   0.1290 
 30 H        0.3020     1.2700     0.2370 H     1 <1>   0.0800 
 31 H        1.3370     0.2870     1.2550 H     1 <1>   0.0800 
 32 H        4.5300    -1.3430     0.0600 H     1 <1>   0.0800 
 33 H        3.5300    -0.4740     1.1550 H     1 <1>   0.0800 
 34 H        2.1920    -0.9360    -2.8550 H     1 <1>   0.0800 
 35 H        3.4850    -1.9700    -2.3920 H     1 <1>   0.0800 
 36 H       -0.7560    -0.7130    -0.7050 H     1 <1>   0.0800 
 37 H       -0.8450    -0.8070     1.0330 H     1 <1>   0.0800 
 38 H        3.5940    -3.4370    -0.5990 H     1 <1>   0.1500 
 39 H        5.5890     0.6150    -0.2690 H     1 <1>   0.0800 
 40 H        4.2630     1.5340     0.3960 H     1 <1>   0.0800 
 41 H        3.8680     0.3890    -3.6350 H     1 <1>   0.0800 
 42 H        5.0770    -0.4110    -2.6560 H     1 <1>   0.0800 
 43 H       -1.0640    -3.2490     0.8850 H     1 <1>   0.1500 
 44 H        3.0850     1.3890    -1.5510 H     1 <1>   0.4500 
 45 H        4.3620     2.6860    -3.1370 H     1 <1>   0.0800 
 46 H        5.8250     2.2280    -2.2930 H     1 <1>   0.0800 
 47 H        3.3050    -7.5550     0.4530 H     1 <1>   0.0800 
 48 H        1.6330    -7.2990    -0.0310 H     1 <1>   0.0800 
 49 H        2.1750    -6.8240     1.5890 H     1 <1>   0.0800 
 50 H       -1.6270    -6.7510     1.4690 H     1 <1>   0.0800 
 51 H       -1.9340    -5.3860     0.4020 H     1 <1>   0.0800 
 52 H       -1.5580    -5.1170     2.1160 H     1 <1>   0.0800 
 53 H        2.4610     3.7920    -1.6340 H     1 <1>   0.1500 
 54 H        6.5490     3.6020    -0.4710 H     1 <1>   0.1500 
 55 H        5.7100     6.2240     2.6400 H     1 <1>   0.0800 
 56 H        4.6270     7.4510     3.2370 H     1 <1>   0.0800 
 57 H        5.5070     7.7150     1.7430 H     1 <1>   0.0800 
 58 H        1.7640     6.4480     1.4730 H     1 <1>   0.0800 
 59 H        2.5750     7.8880     0.8920 H     1 <1>   0.0800 
 60 H        2.4700     7.5600     2.6120 H     1 <1>   0.0800 
@<TRIPOS>BOND
  1   1   2  1   
  2   1   3  1   
  3   2   4  1   
  4   2   5  1   
  5   2   6  1   
  6   3   7  1   
  7   3  30  1   
  8   3  31  1   
  9   4   8  ar  
 10   4   9  ar  
 11   5  10  1   
 12   5  32  1   
 13   5  33  1   
 14   6  11  1   
 15   6  34  1   
 16   6  35  1   
 17   7   8  1   
 18   7  36  1   
 19   7  37  1   
 20   8  12  ar  
 21   9  13  ar  
 22   9  38  1   
 23  10  14  1   
 24  10  39  1   
 25  10  40  1   
 26  11  14  1   
 27  11  41  1   
 28  11  42  1   
 29  12  15  ar  
 30  12  43  1   
 31  13  15  ar  
 32  13  16  1   
 33  14  17  1   
 34  14  44  1   
 35  15  18  1   
 36  16  19  1   
 37  17  20  1   
 38  17  45  1   
 39  17  46  1   
 40  18  21  1   
 41  19  47  1   
 42  19  48  1   
 43  19  49  1   
 44  20  22  ar  
 45  20  23  ar  
 46  21  50  1   
 47  21  51  1   
 48  21  52  1   
 49  22  24  ar  
 50  22  53  1   
 51  23  25  ar  
 52  23  54  1   
 53  24  26  ar  
 54  25  26  ar  
 55  26  27  1   
 56  27  28  1   
 57  27  29  1   
 58  28  55  1   
 59  28  56  1   
 60  28  57  1   
 61  29  58  1   
 62  29  59  1   
 63  29  60  1   
@<TRIPOS>SUBSTRUCTURE
  1 ****   1 GROUP 4 **** **** 0

# MOE 2024.06 (io_trps.svl 2023.06)
