@<TRIPOS>MOLECULE
NONAME
54 56 1 0 0 
SMALL
USER_CHARGES


@<TRIPOS>ATOM
  1 O       -0.8630     0.4090     0.3410 O.2   1 <1>  -0.5700 
  2 C       -0.7490     1.6050     0.4770 C.2   1 <1>   0.5690 
  3 N       -1.8150     2.4730     0.4840 N.am  1 <1>  -0.6600 
  4 C        0.6720     2.1500     0.6290 C.3   1 <1>   0.1810 
  5 C       -1.5940     3.9510     0.6580 C.3   1 <1>   0.3640 
  6 C       -3.2410     2.0440     0.5650 C.3   1 <1>   0.2200 
  7 O        0.7170     3.3970     1.2740 O.3   1 <1>  -0.5600 
  8 C       -2.3220     4.7180    -0.4500 C.ar  1 <1>  -0.1440 
  9 C       -0.1010     4.3760     0.6630 C.3   1 <1>   0.2610 
 10 C       -3.4890     1.2710     1.8600 C.3   1 <1>  -0.2400 
 11 C       -3.6550     1.2410    -0.6690 C.3   1 <1>  -0.2400 
 12 C       -3.1140     5.8110    -0.1290 C.ar  1 <1>  -0.1500 
 13 C       -2.1990     4.3460    -1.7830 C.ar  1 <1>  -0.1500 
 14 C        0.1090     5.7540     1.3230 C.2   1 <1>   0.5690 
 15 C       -3.7750     6.5160    -1.1190 C.ar  1 <1>  -0.1500 
 16 C       -2.8590     5.0500    -2.7740 C.ar  1 <1>  -0.1500 
 17 O       -0.7680     6.1980     2.0340 O.2   1 <1>  -0.5700 
 18 N        1.2640     6.4750     1.1030 N.am  1 <1>  -0.6600 
 19 C       -3.6480     6.1360    -2.4430 C.ar  1 <1>  -0.1500 
 20 C        2.4940     5.9310     0.4610 C.3   1 <1>   0.1400 
 21 C        1.4030     7.8740     1.5960 C.3   1 <1>   0.1400 
 22 C        2.9030     6.8280    -0.7090 C.3   1 <1>  -0.1600 
 23 C        1.8090     8.7900     0.4370 C.3   1 <1>  -0.1600 
 24 C        3.0860     8.2910    -0.2620 C.3   1 <1>  -0.0190 
 25 C        3.4660     9.1980    -1.4300 C.2   1 <1>   0.5690 
 26 O        2.8510     9.1580    -2.4640 O.2   1 <1>  -0.5700 
 27 N        4.4980    10.0520    -1.3010 N.am  1 <1>  -0.8000 
 28 H        1.1260     2.2460    -0.3390 H     1 <1>   0.0800 
 29 H        1.2510     1.4610     1.2170 H     1 <1>   0.0800 
 30 H       -2.0260     4.2170     1.6070 H     1 <1>   0.0800 
 31 H       -3.8660     2.9220     0.5960 H     1 <1>   0.0800 
 32 H        0.2190     4.4660    -0.3580 H     1 <1>   0.0800 
 33 H       -2.9550     0.3370     1.8590 H     1 <1>   0.0800 
 34 H       -4.5370     1.0560     1.9610 H     1 <1>   0.0800 
 35 H       -3.1790     1.8560     2.7070 H     1 <1>   0.0800 
 36 H       -3.1380     0.3010    -0.7140 H     1 <1>   0.0800 
 37 H       -3.4540     1.8010    -1.5620 H     1 <1>   0.0800 
 38 H       -4.7100     1.0390    -0.6300 H     1 <1>   0.0800 
 39 H       -3.2160     6.1250     0.8970 H     1 <1>   0.1500 
 40 H       -1.5920     3.4990    -2.0550 H     1 <1>   0.1500 
 41 H       -4.3860     7.3630    -0.8580 H     1 <1>   0.1500 
 42 H       -2.7590     4.7530    -3.8040 H     1 <1>   0.1500 
 43 H       -4.1620     6.6850    -3.2130 H     1 <1>   0.1500 
 44 H        3.2820     5.9050     1.1940 H     1 <1>   0.0800 
 45 H        2.3470     4.9270     0.1080 H     1 <1>   0.0800 
 46 H        0.4760     8.2250     2.0170 H     1 <1>   0.0800 
 47 H        2.1490     7.9000     2.3710 H     1 <1>   0.0800 
 48 H        3.8210     6.4630    -1.1350 H     1 <1>   0.0800 
 49 H        2.1450     6.7720    -1.4720 H     1 <1>   0.0800 
 50 H        1.0000     8.8310    -0.2720 H     1 <1>   0.0800 
 51 H        1.9640     9.7860     0.8110 H     1 <1>   0.0800 
 52 H        3.8900     8.3180     0.4530 H     1 <1>   0.0800 
 53 H        4.7370    10.6550    -2.0890 H     1 <1>   0.3700 
 54 H        5.0630    10.1540    -0.4600 H     1 <1>   0.3700 
@<TRIPOS>BOND
  1   1   2  2   
  2   2   3  am  
  3   2   4  1   
  4   3   5  1   
  5   3   6  1   
  6   4   7  1   
  7   4  28  1   
  8   4  29  1   
  9   5   8  1   
 10   5   9  1   
 11   5  30  1   
 12   6  10  1   
 13   6  11  1   
 14   6  31  1   
 15   7   9  1   
 16   8  12  ar  
 17   8  13  ar  
 18   9  14  1   
 19   9  32  1   
 20  10  33  1   
 21  10  34  1   
 22  10  35  1   
 23  11  36  1   
 24  11  37  1   
 25  11  38  1   
 26  12  15  ar  
 27  12  39  1   
 28  13  16  ar  
 29  13  40  1   
 30  14  17  2   
 31  14  18  am  
 32  15  19  ar  
 33  15  41  1   
 34  16  19  ar  
 35  16  42  1   
 36  18  20  1   
 37  18  21  1   
 38  19  43  1   
 39  20  22  1   
 40  20  44  1   
 41  20  45  1   
 42  21  23  1   
 43  21  46  1   
 44  21  47  1   
 45  22  24  1   
 46  22  48  1   
 47  22  49  1   
 48  23  24  1   
 49  23  50  1   
 50  23  51  1   
 51  24  25  1   
 52  24  52  1   
 53  25  26  2   
 54  25  27  am  
 55  27  53  1   
 56  27  54  1   
@<TRIPOS>SUBSTRUCTURE
  1 ****   9 GROUP 4 **** **** 0

# MOE 2024.06 (io_trps.svl 2023.06)
