@<TRIPOS>MOLECULE
NONAME
51 51 1 0 0 
SMALL
USER_CHARGES


@<TRIPOS>ATOM
  1 O        0.4490     0.5490     1.5710 O.2   1 <1>  -0.5700 
  2 C        0.2120     1.2180     0.5700 C.2   1 <1>   0.5690 
  3 N       -1.0830     1.2790     0.1310 N.am  1 <1>  -0.7300 
  4 C        1.3430     1.9060    -0.2640 C.3   1 <1>   0.2810 
  5 C       -2.2330     1.0030     1.0360 C.3   1 <1>   0.1400 
  6 N        2.6930     1.3320    -0.0900 N.am  1 <1>  -0.7300 
  7 C        1.3100     3.4630    -0.2500 C.3   1 <1>  -0.0800 
  8 C       -2.7910    -0.4220     0.8900 C.3   1 <1>  -0.1600 
  9 C        3.3990     1.2330     1.0440 C.2   1 <1>   0.5690 
 10 C        2.5070     4.1070    -0.9720 C.3   1 <1>  -0.2400 
 11 C        1.1370     4.1260     1.1280 C.3   1 <1>  -0.2400 
 12 C       -1.7560    -1.5400     1.0710 C.3   1 <1>   0.3430 
 13 O        3.0980     1.8510     2.0580 O.2   1 <1>  -0.5700 
 14 C        4.5990     0.2330     1.0400 C.3   1 <1>   0.2810 
 15 N       -1.1810    -1.8780    -0.2540 N.4   1 <1>  -0.9060 
 16 N        4.1460    -1.1490     0.8510 N.am  1 <1>  -0.7300 
 17 C        5.4380     0.2710     2.3230 C.3   1 <1>  -0.2400 
 18 C       -0.0320    -2.8250    -0.2210 C.3   1 <1>   0.3430 
 19 C        3.5990    -1.5840    -0.3060 C.2   1 <1>   0.5690 
 20 C        1.2240    -2.0320     0.1170 C.3   1 <1>  -0.1600 
 21 O        3.7770    -1.0150    -1.3560 O.2   1 <1>  -0.5700 
 22 C        2.5640    -2.6900    -0.2550 C.3   1 <1>  -0.0990 
 23 H       -1.3010     1.9280    -0.6330 H     1 <1>   0.3700 
 24 H        1.0920     1.6530    -1.2930 H     1 <1>   0.0800 
 25 H       -1.9200     1.1550     2.0570 H     1 <1>   0.0800 
 26 H       -3.0150     1.7170     0.8380 H     1 <1>   0.0800 
 27 H        3.0660     0.7910    -0.8630 H     1 <1>   0.3700 
 28 H        0.4220     3.7410    -0.8200 H     1 <1>   0.0800 
 29 H       -3.3180    -0.5240    -0.0420 H     1 <1>   0.0800 
 30 H       -3.5240    -0.5400     1.6680 H     1 <1>   0.0800 
 31 H        3.4240     3.9390    -0.4040 H     1 <1>   0.0800 
 32 H        2.3500     5.1820    -1.0670 H     1 <1>   0.0800 
 33 H        2.6210     3.6800    -1.9690 H     1 <1>   0.0800 
 34 H        2.0500     4.0370     1.7150 H     1 <1>   0.0800 
 35 H        0.3170     3.6710     1.6830 H     1 <1>   0.0800 
 36 H        0.9220     5.1880     1.0020 H     1 <1>   0.0800 
 37 H       -2.2340    -2.4120     1.4890 H     1 <1>   0.0800 
 38 H       -0.9840    -1.2170     1.7530 H     1 <1>   0.0800 
 39 H        5.2470     0.5090     0.2060 H     1 <1>   0.0800 
 40 H       -1.9230    -2.2410    -0.8630 H     1 <1>   0.4500 
 41 H       -0.8660    -0.9840    -0.6540 H     1 <1>   0.4500 
 42 H        3.9750    -1.6640     1.6970 H     1 <1>   0.3700 
 43 H        4.8190     0.0050     3.1800 H     1 <1>   0.0800 
 44 H        5.8250     1.2790     2.4700 H     1 <1>   0.0800 
 45 H        6.2740    -0.4240     2.2410 H     1 <1>   0.0800 
 46 H       -0.1960    -3.6130     0.4980 H     1 <1>   0.0800 
 47 H        0.0910    -3.2690    -1.1960 H     1 <1>   0.0800 
 48 H        1.1770    -1.1090    -0.4320 H     1 <1>   0.0800 
 49 H        1.2360    -1.8030     1.1690 H     1 <1>   0.0800 
 50 H        2.5100    -3.1450    -1.2280 H     1 <1>   0.0800 
 51 H        2.8470    -3.4380     0.4630 H     1 <1>   0.0800 
@<TRIPOS>BOND
  1   1   2  2   
  2   2   3  am  
  3   2   4  1   
  4   3   5  1   
  5   3  23  1   
  6   4   6  1   
  7   4   7  1   
  8   4  24  1   
  9   5   8  1   
 10   5  25  1   
 11   5  26  1   
 12   6   9  am  
 13   6  27  1   
 14   7  10  1   
 15   7  11  1   
 16   7  28  1   
 17   8  12  1   
 18   8  29  1   
 19   8  30  1   
 20   9  13  2   
 21   9  14  1   
 22  10  31  1   
 23  10  32  1   
 24  10  33  1   
 25  11  34  1   
 26  11  35  1   
 27  11  36  1   
 28  12  15  1   
 29  12  37  1   
 30  12  38  1   
 31  14  16  1   
 32  14  17  1   
 33  14  39  1   
 34  15  18  1   
 35  15  40  1   
 36  15  41  1   
 37  16  19  am  
 38  16  42  1   
 39  17  43  1   
 40  17  44  1   
 41  17  45  1   
 42  18  20  1   
 43  18  46  1   
 44  18  47  1   
 45  19  21  2   
 46  19  22  1   
 47  20  22  1   
 48  20  48  1   
 49  20  49  1   
 50  22  50  1   
 51  22  51  1   
@<TRIPOS>SUBSTRUCTURE
  1 ****   1 GROUP 4 **** **** 0

# MOE 2024.06 (io_trps.svl 2023.06)
