@<TRIPOS>MOLECULE
NONAME
48 50 1 0 0 
SMALL
USER_CHARGES


@<TRIPOS>ATOM
  1 O       -0.1440    -0.0850    -2.2060 O.2   1 <1>  -0.5700 
  2 C       -0.8530     0.7080    -1.6310 C.2   1 <1>   0.5690 
  3 N       -1.9270     0.2900    -0.8880 N.am  1 <1>  -0.6600 
  4 C       -0.5390     2.1930    -1.8010 C.3   1 <1>   0.1810 
  5 C       -2.8630     1.1570    -0.1280 C.3   1 <1>   0.1400 
  6 C       -2.2280    -1.1420    -0.6510 C.3   1 <1>   0.1400 
  7 O       -0.4070     2.8480    -0.5480 O.3   1 <1>  -0.3620 
  8 C       -3.9220     0.2000     0.4160 C.3   1 <1>   0.2000 
  9 C       -3.2240    -1.1540     0.5100 C.3   1 <1>  -0.0800 
 10 C       -0.2950     4.1970    -0.4700 C.ar  1 <1>   0.0820 
 11 O       -4.3790     0.5940     1.6620 O.3   1 <1>  -0.6800 
 12 C       -4.1960    -2.3430     0.4770 C.3   1 <1>   0.0210 
 13 C       -0.4060     4.7590     0.7890 C.ar  1 <1>  -0.1500 
 14 C       -0.0830     5.0190    -1.5740 C.ar  1 <1>  -0.1500 
 15 C       -3.4430    -3.6590     0.4530 C.2   1 <1>   0.1080 
 16 C       -0.3180     6.1300     0.9640 C.ar  1 <1>   0.0820 
 17 C        0.0070     6.3910    -1.4050 C.ar  1 <1>  -0.1500 
 18 N       -2.6280    -4.0190     1.3950 N.2   1 <1>  -0.7070 
 19 C       -3.5240    -4.6060    -0.5630 C.2   1 <1>  -0.1500 
 20 O       -0.4440     6.5930     2.2330 O.3   1 <1>  -0.3630 
 21 C       -0.1110     6.9490    -0.1430 C.ar  1 <1>  -0.1500 
 22 N       -2.1610    -5.2190     1.0010 N.pl3 1 <1>   0.3000 
 23 C       -2.6890    -5.5950    -0.1830 C.2   1 <1>  -0.3320 
 24 C       -0.3710     7.9720     2.5210 C.3   1 <1>   0.0400 
 25 C       -2.3560    -6.8960    -0.8900 C.3   1 <1>  -0.0600 
 26 H       -1.3360     2.6600    -2.3490 H     1 <1>   0.0800 
 27 H        0.3870     2.3020    -2.3340 H     1 <1>   0.0800 
 28 H       -2.3300     1.6310     0.6780 H     1 <1>   0.0800 
 29 H       -3.3050     1.8980    -0.7710 H     1 <1>   0.0800 
 30 H       -2.6640    -1.5600    -1.5420 H     1 <1>   0.0800 
 31 H       -1.3330    -1.6900    -0.4040 H     1 <1>   0.0800 
 32 H       -4.7600     0.1660    -0.2590 H     1 <1>   0.0800 
 33 H       -2.6460    -1.1990     1.4170 H     1 <1>   0.0800 
 34 H       -3.6600     0.5260     2.3210 H     1 <1>   0.4000 
 35 H       -4.8300    -2.2800    -0.3890 H     1 <1>   0.0800 
 36 H       -4.8200    -2.3200     1.3520 H     1 <1>   0.0800 
 37 H       -0.5630     4.1270     1.6430 H     1 <1>   0.1500 
 38 H        0.0190     4.6160    -2.5630 H     1 <1>   0.1500 
 39 H        0.1710     7.0260    -2.2580 H     1 <1>   0.1500 
 40 H       -4.1280    -4.5370    -1.4490 H     1 <1>   0.1500 
 41 H       -0.0380     8.0140    -0.0420 H     1 <1>   0.1500 
 42 H       -1.4850    -5.7520     1.5600 H     1 <1>   0.2700 
 43 H       -0.4970     8.0980     3.5810 H     1 <1>   0.0800 
 44 H       -1.1600     8.4810     1.9960 H     1 <1>   0.0800 
 45 H        0.5940     8.3400     2.2220 H     1 <1>   0.0800 
 46 H       -2.9030    -6.9650    -1.8140 H     1 <1>   0.0800 
 47 H       -2.6220    -7.7350    -0.2710 H     1 <1>   0.0800 
 48 H       -1.3040    -6.9410    -1.1100 H     1 <1>   0.0800 
@<TRIPOS>BOND
  1   1   2  2   
  2   2   3  am  
  3   2   4  1   
  4   3   5  1   
  5   3   6  1   
  6   4   7  1   
  7   4  26  1   
  8   4  27  1   
  9   5   8  1   
 10   5  28  1   
 11   5  29  1   
 12   6   9  1   
 13   6  30  1   
 14   6  31  1   
 15   7  10  1   
 16   8   9  1   
 17   8  11  1   
 18   8  32  1   
 19   9  12  1   
 20   9  33  1   
 21  10  13  ar  
 22  10  14  ar  
 23  11  34  1   
 24  12  15  1   
 25  12  35  1   
 26  12  36  1   
 27  13  16  ar  
 28  13  37  1   
 29  14  17  ar  
 30  14  38  1   
 31  15  18  2   
 32  15  19  1   
 33  16  20  1   
 34  16  21  ar  
 35  17  21  ar  
 36  17  39  1   
 37  18  22  1   
 38  19  23  2   
 39  19  40  1   
 40  20  24  1   
 41  21  41  1   
 42  22  23  1   
 43  22  42  1   
 44  23  25  1   
 45  24  43  1   
 46  24  44  1   
 47  24  45  1   
 48  25  46  1   
 49  25  47  1   
 50  25  48  1   
@<TRIPOS>SUBSTRUCTURE
  1 ****   3 GROUP 4 **** **** 0

# MOE 2024.06 (io_trps.svl 2023.06)
