@<TRIPOS>MOLECULE
NONAME
45 47 1 0 0 
SMALL
USER_CHARGES


@<TRIPOS>ATOM
  1 O       -1.7070    -0.3460    -0.1360 O.2   1 <1>  -0.5700 
  2 C       -1.6560    -1.4860     0.2710 C.2   1 <1>   0.7800 
  3 O       -0.8940    -1.8340     1.2970 O.3   1 <1>  -0.4300 
  4 N       -2.3560    -2.5340    -0.2100 N.am  1 <1>  -0.6600 
  5 C       -1.0520    -3.2080     1.5990 C.3   1 <1>   0.1200 
  6 C       -2.0940    -3.7260     0.5990 C.3   1 <1>   0.1400 
  7 C       -3.4810    -2.4730    -1.1930 C.3   1 <1>   0.2010 
  8 C       -4.8440    -2.7730    -0.5610 C.2   1 <1>   0.5690 
  9 O       -5.2490    -3.9100    -0.6650 O.2   1 <1>  -0.5700 
 10 N       -5.5660    -1.8110     0.1070 N.am  1 <1>  -0.6600 
 11 C       -6.9070    -2.1170     0.6940 C.3   1 <1>   0.1400 
 12 C       -5.1300    -0.4030     0.3250 C.3   1 <1>   0.1400 
 13 C       -8.0060    -1.1920     0.1170 C.3   1 <1>   0.0000 
 14 C       -6.1740     0.5570    -0.2520 C.3   1 <1>  -0.1600 
 15 C       -9.3480    -1.5360     0.7950 C.3   1 <1>   0.2000 
 16 C       -7.5780     0.2830     0.3120 C.3   1 <1>  -0.1600 
 17 C       -8.2770    -1.5310    -1.3600 C.3   1 <1>  -0.1600 
 18 O      -10.2520    -0.4830     0.6130 O.3   1 <1>  -0.5600 
 19 C       -9.8730    -2.7640     0.0390 C.3   1 <1>  -0.1600 
 20 C       -9.2220    -2.7370    -1.3500 C.3   1 <1>  -0.1600 
 21 C      -11.2810    -0.4170     1.5500 C.3   1 <1>   0.0400 
 22 H       -0.1040    -3.7000     1.4740 H     1 <1>   0.0800 
 23 H       -1.3920    -3.3040     2.6150 H     1 <1>   0.0800 
 24 H       -2.9870    -4.0540     1.1040 H     1 <1>   0.0800 
 25 H       -1.6990    -4.5230    -0.0060 H     1 <1>   0.0800 
 26 H       -3.5040    -1.5080    -1.6640 H     1 <1>   0.0800 
 27 H       -3.3000    -3.2000    -1.9630 H     1 <1>   0.0800 
 28 H       -7.1650    -3.1460     0.5180 H     1 <1>   0.0800 
 29 H       -6.8470    -1.9780     1.7590 H     1 <1>   0.0800 
 30 H       -5.0230    -0.2310     1.3820 H     1 <1>   0.0800 
 31 H       -4.1820    -0.2050    -0.1350 H     1 <1>   0.0800 
 32 H       -5.8880     1.5680    -0.0230 H     1 <1>   0.0800 
 33 H       -6.1850     0.4590    -1.3230 H     1 <1>   0.0800 
 34 H       -9.2260    -1.7160     1.8500 H     1 <1>   0.0800 
 35 H       -8.2840     0.9400    -0.1640 H     1 <1>   0.0800 
 36 H       -7.5840     0.5110     1.3640 H     1 <1>   0.0800 
 37 H       -8.7870    -0.7040    -1.8230 H     1 <1>   0.0800 
 38 H       -7.3790    -1.7340    -1.9160 H     1 <1>   0.0800 
 39 H       -9.5600    -3.6550     0.5530 H     1 <1>   0.0800 
 40 H      -10.9460    -2.7680    -0.0290 H     1 <1>   0.0800 
 41 H       -8.6640    -3.6430    -1.5120 H     1 <1>   0.0800 
 42 H       -9.9630    -2.6400    -2.1250 H     1 <1>   0.0800 
 43 H      -11.9190     0.4070     1.2850 H     1 <1>   0.0800 
 44 H      -10.8600    -0.2490     2.5260 H     1 <1>   0.0800 
 45 H      -11.8460    -1.3320     1.5320 H     1 <1>   0.0800 
@<TRIPOS>BOND
  1   1   2  2   
  2   2   3  1   
  3   2   4  am  
  4   3   5  1   
  5   4   6  1   
  6   4   7  1   
  7   5   6  1   
  8   5  22  1   
  9   5  23  1   
 10   6  24  1   
 11   6  25  1   
 12   7   8  1   
 13   7  26  1   
 14   7  27  1   
 15   8   9  2   
 16   8  10  am  
 17  10  11  1   
 18  10  12  1   
 19  11  13  1   
 20  11  28  1   
 21  11  29  1   
 22  12  14  1   
 23  12  30  1   
 24  12  31  1   
 25  13  15  1   
 26  13  16  1   
 27  13  17  1   
 28  14  16  1   
 29  14  32  1   
 30  14  33  1   
 31  15  18  1   
 32  15  19  1   
 33  15  34  1   
 34  16  35  1   
 35  16  36  1   
 36  17  20  1   
 37  17  37  1   
 38  17  38  1   
 39  18  21  1   
 40  19  20  1   
 41  19  39  1   
 42  19  40  1   
 43  20  41  1   
 44  20  42  1   
 45  21  43  1   
 46  21  44  1   
 47  21  45  1   
@<TRIPOS>SUBSTRUCTURE
  1 ****  10 GROUP 4 **** **** 0

# MOE 2024.06 (io_trps.svl 2023.06)
