@<TRIPOS>MOLECULE
NONAME
52 54 1 0 0 
SMALL
USER_CHARGES


@<TRIPOS>ATOM
  1 CL      -3.8800     3.9470    -2.5200 Cl    1 <1>  -0.1230 
  2 C       -2.5630     4.1910    -1.3920 C.2   1 <1>   0.3500 
  3 N       -1.7990     5.2860    -1.4630 N.2   1 <1>  -0.5650 
  4 C       -2.2010     3.3650    -0.3920 C.2   1 <1>  -0.3320 
  5 C       -0.9470     5.1120    -0.5050 C.2   1 <1>   0.0060 
  6 N       -1.1330     3.9610     0.1860 N.pl3 1 <1>   0.0330 
  7 C       -2.8120     2.0520     0.0220 C.3   1 <1>   0.5230 
  8 C        0.1640     6.0960    -0.1810 C.3   1 <1>   0.0200 
  9 N       -4.2560     2.2630     0.2750 N.4   1 <1>  -0.9590 
 10 C        1.5440     5.5050    -0.4990 C.3   1 <1>  -0.1600 
 11 C       -4.5530     3.3320     1.2790 C.3   1 <1>   0.3430 
 12 C       -5.0030     1.0030     0.5270 C.3   1 <1>   0.3430 
 13 C        2.6670     6.5050    -0.1940 C.3   1 <1>  -0.1600 
 14 C       -6.0570     3.4430     1.5560 C.3   1 <1>  -0.1600 
 15 C       -6.5150     1.2470     0.4630 C.3   1 <1>  -0.1600 
 16 C        4.0390     5.9050    -0.5150 C.3   1 <1>  -0.2400 
 17 C       -6.9070     2.7290     0.5020 C.3   1 <1>   0.4180 
 18 O       -6.5840     3.2420    -0.7680 O.3   1 <1>  -0.5600 
 19 C       -8.3980     2.8700     0.7810 C.2   1 <1>  -0.2880 
 20 C       -7.2170     4.4310    -1.1660 C.3   1 <1>   0.1200 
 21 C       -9.2440     3.5320    -0.0100 C.2   1 <1>  -0.2760 
 22 C       -8.7350     4.2310    -1.2570 C.3   1 <1>  -0.0220 
 23 C      -10.7390     3.6460     0.2330 C.3   1 <1>  -0.1020 
 24 H       -0.5470     3.6430     0.9670 H     1 <1>   0.2700 
 25 H       -2.3330     1.6810     0.9130 H     1 <1>   0.0800 
 26 H       -2.6780     1.3300    -0.7680 H     1 <1>   0.0800 
 27 H        0.1080     6.3720     0.8570 H     1 <1>   0.0800 
 28 H        0.0170     6.9880    -0.7660 H     1 <1>   0.0800 
 29 H       -4.6700     2.6380    -0.6040 H     1 <1>   0.4500 
 30 H        1.5760     5.2400    -1.5430 H     1 <1>   0.0800 
 31 H        1.7000     4.6100     0.0770 H     1 <1>   0.0800 
 32 H       -4.2040     4.2770     0.8940 H     1 <1>   0.0800 
 33 H       -4.0320     3.1340     2.2010 H     1 <1>   0.0800 
 34 H       -4.7430     0.6220     1.5010 H     1 <1>   0.0800 
 35 H       -4.7370     0.2600    -0.2080 H     1 <1>   0.0800 
 36 H        2.6380     6.7830     0.8460 H     1 <1>   0.0800 
 37 H        2.5270     7.3970    -0.7820 H     1 <1>   0.0800 
 38 H       -6.3400     4.4780     1.6250 H     1 <1>   0.0800 
 39 H       -6.2620     3.0090     2.5180 H     1 <1>   0.0800 
 40 H       -6.9650     0.7350     1.2940 H     1 <1>   0.0800 
 41 H       -6.9220     0.8040    -0.4280 H     1 <1>   0.0800 
 42 H        4.2150     5.0240     0.0770 H     1 <1>   0.0800 
 43 H        4.8120     6.6210    -0.2990 H     1 <1>   0.0800 
 44 H        4.1000     5.6410    -1.5560 H     1 <1>   0.0800 
 45 H       -8.7130     2.3740     1.6820 H     1 <1>   0.1500 
 46 H       -6.8210     4.7140    -2.1270 H     1 <1>   0.0800 
 47 H       -6.9830     5.2030    -0.4550 H     1 <1>   0.0800 
 48 H       -8.9760     3.6480    -2.1290 H     1 <1>   0.0800 
 49 H       -9.2000     5.1950    -1.3610 H     1 <1>   0.0800 
 50 H      -11.2820     3.2300    -0.5970 H     1 <1>   0.0800 
 51 H      -11.0210     4.6770     0.3510 H     1 <1>   0.0800 
 52 H      -11.0200     3.1130     1.1240 H     1 <1>   0.0800 
@<TRIPOS>BOND
  1   1   2  1   
  2   2   3  1   
  3   2   4  2   
  4   3   5  2   
  5   4   6  1   
  6   4   7  1   
  7   5   6  1   
  8   5   8  1   
  9   6  24  1   
 10   7   9  1   
 11   7  25  1   
 12   7  26  1   
 13   8  10  1   
 14   8  27  1   
 15   8  28  1   
 16   9  11  1   
 17   9  12  1   
 18   9  29  1   
 19  10  13  1   
 20  10  30  1   
 21  10  31  1   
 22  11  14  1   
 23  11  32  1   
 24  11  33  1   
 25  12  15  1   
 26  12  34  1   
 27  12  35  1   
 28  13  16  1   
 29  13  36  1   
 30  13  37  1   
 31  14  17  1   
 32  14  38  1   
 33  14  39  1   
 34  15  17  1   
 35  15  40  1   
 36  15  41  1   
 37  16  42  1   
 38  16  43  1   
 39  16  44  1   
 40  17  18  1   
 41  17  19  1   
 42  18  20  1   
 43  19  21  2   
 44  19  45  1   
 45  20  22  1   
 46  20  46  1   
 47  20  47  1   
 48  21  22  1   
 49  21  23  1   
 50  22  48  1   
 51  22  49  1   
 52  23  50  1   
 53  23  51  1   
 54  23  52  1   
@<TRIPOS>SUBSTRUCTURE
  1 ****   9 GROUP 4 **** **** 0

# MOE 2024.06 (io_trps.svl 2023.06)
