@<TRIPOS>MOLECULE
NONAME
46 48 1 0 0 
SMALL
USER_CHARGES


@<TRIPOS>ATOM
  1 O       -0.9370     2.2730    -1.3420 O.3   1 <1>  -0.3630 
  2 C       -0.3040     2.8480    -0.2920 C.ar  1 <1>   0.0830 
  3 C       -1.5450     1.0210    -1.1410 C.3   1 <1>   0.1200 
  4 C       -0.9550     3.1780     0.8980 C.ar  1 <1>   0.0830 
  5 C        1.0390     3.1450    -0.4450 C.ar  1 <1>  -0.1500 
  6 C       -2.8870     1.1810    -0.4250 C.3   1 <1>  -0.1600 
  7 O       -2.2740     2.9490     1.1030 O.3   1 <1>  -0.3630 
  8 C       -0.2490     3.8010     1.9120 C.ar  1 <1>  -0.1500 
  9 C        1.7530     3.7650     0.5740 C.ar  1 <1>  -0.1430 
 10 C       -2.7340     1.6220     1.0310 C.3   1 <1>   0.1200 
 11 C        1.0960     4.0900     1.7530 C.ar  1 <1>  -0.1500 
 12 C        3.2250     4.1220     0.4010 C.3   1 <1>   0.4330 
 13 N        3.3090     5.0490    -0.7280 N.pl3 1 <1>  -0.8690 
 14 C        4.0870     2.9040     0.0940 C.3   1 <1>  -0.2400 
 15 C        3.8820     6.2870    -0.6140 C.ar  1 <1>   0.4100 
 16 N        4.9250     6.4020     0.1810 N.ar  1 <1>  -0.6200 
 17 C        3.3760     7.3770    -1.3100 C.ar  1 <1>  -0.1430 
 18 C        5.4520     7.6050     0.2690 C.ar  1 <1>   0.4770 
 19 C        4.0140     8.5760    -1.1240 C.ar  1 <1>   0.1600 
 20 C        2.1710     7.2740    -2.2410 C.3   1 <1>  -0.0170 
 21 N        5.0590     8.7120    -0.3330 N.ar  1 <1>  -0.6200 
 22 C        6.6510     7.7430     1.1760 C.3   1 <1>  -0.0970 
 23 C        0.8600     7.2720    -1.4480 C.3   1 <1>  -0.2400 
 24 H       -0.8690     0.3970    -0.5820 H     1 <1>   0.0800 
 25 H       -1.6980     0.5860    -2.1130 H     1 <1>   0.0800 
 26 H        1.5180     2.8910    -1.3730 H     1 <1>   0.1500 
 27 H       -3.3800     0.2260    -0.4310 H     1 <1>   0.0800 
 28 H       -3.5140     1.8730    -0.9590 H     1 <1>   0.0800 
 29 H       -0.7580     4.0630     2.8220 H     1 <1>   0.1500 
 30 H       -2.0450     0.9910     1.5660 H     1 <1>   0.0800 
 31 H       -3.6880     1.5930     1.5250 H     1 <1>   0.0800 
 32 H        1.6260     4.5800     2.5520 H     1 <1>   0.1500 
 33 H        3.5890     4.5940     1.2990 H     1 <1>   0.0800 
 34 H        2.4350     5.0330    -1.2510 H     1 <1>   0.4000 
 35 H        3.7860     2.4420    -0.8270 H     1 <1>   0.0800 
 36 H        3.9990     2.1880     0.8890 H     1 <1>   0.0800 
 37 H        5.1160     3.2080     0.0160 H     1 <1>   0.0800 
 38 H        3.6660     9.4580    -1.6330 H     1 <1>   0.1500 
 39 H        2.2420     6.3780    -2.8330 H     1 <1>   0.0800 
 40 H        2.1680     8.1060    -2.9240 H     1 <1>   0.0800 
 41 H        7.0920     6.7810     1.3620 H     1 <1>   0.0800 
 42 H        6.3420     8.1760     2.1080 H     1 <1>   0.0800 
 43 H        7.3830     8.3790     0.7160 H     1 <1>   0.0800 
 44 H        0.8220     6.4370    -0.7710 H     1 <1>   0.0800 
 45 H        0.0210     7.2050    -2.1190 H     1 <1>   0.0800 
 46 H        0.7710     8.1790    -0.8760 H     1 <1>   0.0800 
@<TRIPOS>BOND
  1   1   2  1   
  2   1   3  1   
  3   2   4  ar  
  4   2   5  ar  
  5   3   6  1   
  6   3  24  1   
  7   3  25  1   
  8   4   7  1   
  9   4   8  ar  
 10   5   9  ar  
 11   5  26  1   
 12   6  10  1   
 13   6  27  1   
 14   6  28  1   
 15   7  10  1   
 16   8  11  ar  
 17   8  29  1   
 18   9  11  ar  
 19   9  12  1   
 20  10  30  1   
 21  10  31  1   
 22  11  32  1   
 23  12  13  1   
 24  12  14  1   
 25  12  33  1   
 26  13  15  1   
 27  13  34  1   
 28  14  35  1   
 29  14  36  1   
 30  14  37  1   
 31  15  16  ar  
 32  15  17  ar  
 33  16  18  ar  
 34  17  19  ar  
 35  17  20  1   
 36  18  21  ar  
 37  18  22  1   
 38  19  21  ar  
 39  19  38  1   
 40  20  23  1   
 41  20  39  1   
 42  20  40  1   
 43  22  41  1   
 44  22  42  1   
 45  22  43  1   
 46  23  44  1   
 47  23  45  1   
 48  23  46  1   
@<TRIPOS>SUBSTRUCTURE
  1 ****   9 GROUP 4 **** **** 0

# MOE 2024.06 (io_trps.svl 2023.06)
