@<TRIPOS>MOLECULE
NONAME
48 51 1 0 0 
SMALL
USER_CHARGES


@<TRIPOS>ATOM
  1 CL       1.8780    -4.0740    -2.4360 Cl    1 <1>  -0.1770 
  2 C        2.3200    -2.9000    -1.2210 C.ar  1 <1>   0.1770 
  3 C        1.3750    -2.4520    -0.3020 C.ar  1 <1>   0.0860 
  4 C        3.6250    -2.4430    -1.2130 C.ar  1 <1>  -0.1500 
  5 C        0.0170    -2.9420    -0.2990 C.2   1 <1>   0.5440 
  6 C        1.7920    -1.5000     0.6300 C.ar  1 <1>  -0.1500 
  7 C        4.0160    -1.5070    -0.2720 C.ar  1 <1>  -0.1500 
  8 O       -0.8690    -2.2070    -0.6910 O.2   1 <1>  -0.5700 
  9 N       -0.3060    -4.1980     0.1760 N.am  1 <1>  -0.6600 
 10 C        3.0950    -1.0350     0.6480 C.ar  1 <1>  -0.1500 
 11 C       -1.6800    -4.7570     0.0220 C.3   1 <1>   0.1400 
 12 C        0.6470    -5.0740     0.9160 C.3   1 <1>   0.1400 
 13 C       -1.6100    -6.1330    -0.6440 C.3   1 <1>  -0.1600 
 14 C        0.7120    -6.4550     0.2590 C.3   1 <1>  -0.1600 
 15 C       -0.6880    -7.0870     0.1360 C.3   1 <1>  -0.0190 
 16 C       -0.6630    -8.4770    -0.5110 C.2   1 <1>   0.5690 
 17 O        0.1850    -8.7110    -1.3440 O.2   1 <1>  -0.5700 
 18 N       -1.5840    -9.4130    -0.1430 N.am  1 <1>  -0.6600 
 19 C       -2.7250    -9.2330     0.8010 C.3   1 <1>   0.2350 
 20 C       -1.6760   -10.7580    -0.7760 C.3   1 <1>   0.2350 
 21 C       -3.7860   -10.2190     0.3520 C.3   1 <1>  -0.2420 
 22 C       -3.1280   -11.1770    -0.6100 C.3   1 <1>  -0.2420 
 23 C       -4.8430   -10.3990     1.4490 C.2   1 <1>   0.9470 
 24 C       -4.2330   -10.2730    -1.0890 C.3   1 <1>  -0.2000 
 25 C       -3.2720   -12.6920    -0.7580 C.2   1 <1>   0.9470 
 26 O       -6.0460   -10.3130     1.1680 O.co2 1 <1>  -0.9000 
 27 O       -4.4680   -10.4400     2.6290 O.co2 1 <1>  -0.9000 
 28 O       -3.9290   -13.1500    -1.7030 O.co2 1 <1>  -0.9000 
 29 O       -2.6000   -13.4300    -0.0250 O.co2 1 <1>  -0.9000 
 30 H        4.3250    -2.8170    -1.9390 H     1 <1>   0.1500 
 31 H        1.0760    -1.1250     1.3410 H     1 <1>   0.1500 
 32 H        5.0300    -1.1440    -0.2580 H     1 <1>   0.1500 
 33 H        3.3940    -0.3000     1.3780 H     1 <1>   0.1500 
 34 H       -2.1370    -4.8400     0.9930 H     1 <1>   0.0800 
 35 H       -2.2920    -4.1050    -0.5790 H     1 <1>   0.0800 
 36 H        1.6320    -4.6440     0.9400 H     1 <1>   0.0800 
 37 H        0.3040    -5.1740     1.9320 H     1 <1>   0.0800 
 38 H       -2.6010    -6.5470    -0.7050 H     1 <1>   0.0800 
 39 H       -1.2450    -6.0180    -1.6500 H     1 <1>   0.0800 
 40 H        1.1560    -6.3590    -0.7170 H     1 <1>   0.0800 
 41 H        1.3450    -7.1000     0.8420 H     1 <1>   0.0800 
 42 H       -1.0710    -7.1940     1.1340 H     1 <1>   0.0800 
 43 H       -2.3950    -9.4730     1.7980 H     1 <1>   0.0800 
 44 H       -3.1200    -8.2350     0.7780 H     1 <1>   0.0800 
 45 H       -1.4030   -10.7230    -1.8160 H     1 <1>   0.0800 
 46 H       -1.0290   -11.4420    -0.2530 H     1 <1>   0.0800 
 47 H       -4.0030    -9.4600    -1.7500 H     1 <1>   0.1000 
 48 H       -5.1850   -10.7290    -1.3090 H     1 <1>   0.1000 
@<TRIPOS>BOND
  1   1   2  1   
  2   2   3  ar  
  3   2   4  ar  
  4   3   5  1   
  5   3   6  ar  
  6   4   7  ar  
  7   4  30  1   
  8   5   8  2   
  9   5   9  am  
 10   6  10  ar  
 11   6  31  1   
 12   7  10  ar  
 13   7  32  1   
 14   9  11  1   
 15   9  12  1   
 16  10  33  1   
 17  11  13  1   
 18  11  34  1   
 19  11  35  1   
 20  12  14  1   
 21  12  36  1   
 22  12  37  1   
 23  13  15  1   
 24  13  38  1   
 25  13  39  1   
 26  14  15  1   
 27  14  40  1   
 28  14  41  1   
 29  15  16  1   
 30  15  42  1   
 31  16  17  2   
 32  16  18  am  
 33  18  19  1   
 34  18  20  1   
 35  19  21  1   
 36  19  43  1   
 37  19  44  1   
 38  20  22  1   
 39  20  45  1   
 40  20  46  1   
 41  21  22  1   
 42  21  23  1   
 43  21  24  1   
 44  22  24  1   
 45  22  25  1   
 46  23  26  ar  
 47  23  27  ar  
 48  24  47  1   
 49  24  48  1   
 50  25  28  ar  
 51  25  29  ar  
@<TRIPOS>SUBSTRUCTURE
  1 ****  15 GROUP 4 **** **** 0

# MOE 2024.06 (io_trps.svl 2023.06)
