@<TRIPOS>MOLECULE
NONAME
52 55 1 0 0 
SMALL
USER_CHARGES


@<TRIPOS>ATOM
  1 O        0.2300     1.0530    -0.2200 O.2   1 <1>  -0.5700 
  2 C        0.1420     2.2380    -0.4190 C.2   1 <1>   0.5690 
  3 N       -0.3370     3.0630     0.5390 N.am  1 <1>  -0.7300 
  4 C        0.5480     2.8230    -1.7770 C.3   1 <1>   0.1810 
  5 C       -0.4800     4.5270     0.3580 C.3   1 <1>   0.3640 
  6 O        0.7210     4.2260    -1.7460 O.3   1 <1>  -0.5600 
  7 C       -1.8140     4.9780     0.9410 C.ar  1 <1>  -0.1440 
  8 C       -0.3480     4.9270    -1.1310 C.3   1 <1>   0.2610 
  9 C       -1.8670     6.1130     1.7400 C.ar  1 <1>  -0.1500 
 10 C       -2.9880     4.2810     0.6830 C.ar  1 <1>  -0.1500 
 11 C       -0.1830     6.4440    -1.2630 C.2   1 <1>   0.5690 
 12 C       -3.0700     6.5410     2.2730 C.ar  1 <1>  -0.1500 
 13 C       -4.1910     4.7080     1.2170 C.ar  1 <1>  -0.1500 
 14 O       -1.0240     7.0580    -1.8770 O.2   1 <1>  -0.5700 
 15 N        0.8700     7.0910    -0.6800 N.am  1 <1>  -0.5100 
 16 C       -4.2320     5.8390     2.0130 C.ar  1 <1>  -0.1500 
 17 C        1.3160     8.5000    -0.9320 C.3   1 <1>   0.2250 
 18 C        2.2860     6.6460    -0.4550 C.3   1 <1>   0.2250 
 19 C        2.7670     7.9790    -1.0740 C.3   1 <1>   0.2580 
 20 O        3.6660     8.6450    -0.2070 O.3   1 <1>  -0.3400 
 21 C        4.1010     9.9090    -0.4610 C.ar  1 <1>   0.0830 
 22 C        4.8420    10.5530     0.5280 C.ar  1 <1>  -0.1430 
 23 C        3.8340    10.5680    -1.6610 C.ar  1 <1>  -0.1500 
 24 C        5.3020    11.8420     0.3050 C.ar  1 <1>  -0.1500 
 25 C        5.1650     9.8770     1.8560 C.3   1 <1>  -0.0170 
 26 C        4.2970    11.8540    -1.8680 C.ar  1 <1>  -0.1500 
 27 C        5.0310    12.4920    -0.8860 C.ar  1 <1>  -0.1500 
 28 C        6.4370     9.0350     1.7380 C.3   1 <1>  -0.2400 
 29 H       -0.6350     2.6690     1.4320 H     1 <1>   0.3700 
 30 H       -0.2080     2.5920    -2.5060 H     1 <1>   0.0800 
 31 H        1.4770     2.3840    -2.0910 H     1 <1>   0.0800 
 32 H        0.3120     4.9990     0.9120 H     1 <1>   0.0800 
 33 H       -1.2510     4.6560    -1.6480 H     1 <1>   0.0800 
 34 H       -0.9740     6.6770     1.9500 H     1 <1>   0.1500 
 35 H       -2.9750     3.3990     0.0660 H     1 <1>   0.1500 
 36 H       -3.1020     7.4230     2.8890 H     1 <1>   0.1500 
 37 H       -5.0950     4.1620     1.0130 H     1 <1>   0.1500 
 38 H       -5.1680     6.1720     2.4270 H     1 <1>   0.1500 
 39 H        0.9060     8.8920    -1.8460 H     1 <1>   0.0000 
 40 H        1.1520     9.1170    -0.0670 H     1 <1>   0.0000 
 41 H        2.4970     6.5450     0.5950 H     1 <1>   0.0000 
 42 H        2.5430     5.7870    -1.0470 H     1 <1>   0.0000 
 43 H        3.1490     7.8920    -2.0760 H     1 <1>   0.0000 
 44 H        3.2740    10.1010    -2.4480 H     1 <1>   0.1500 
 45 H        5.8780    12.3480     1.0600 H     1 <1>   0.1500 
 46 H        5.3010    10.6220     2.6200 H     1 <1>   0.0800 
 47 H        4.3430     9.2530     2.1630 H     1 <1>   0.0800 
 48 H        4.0880    12.3600    -2.7950 H     1 <1>   0.1500 
 49 H        5.3930    13.4920    -1.0470 H     1 <1>   0.1500 
 50 H        7.2680     9.6560     1.4530 H     1 <1>   0.0800 
 51 H        6.3060     8.2720     0.9910 H     1 <1>   0.0800 
 52 H        6.6600     8.5650     2.6780 H     1 <1>   0.0800 
@<TRIPOS>BOND
  1   1   2  2   
  2   2   3  am  
  3   2   4  1   
  4   3   5  1   
  5   3  29  1   
  6   4   6  1   
  7   4  30  1   
  8   4  31  1   
  9   5   7  1   
 10   5   8  1   
 11   5  32  1   
 12   6   8  1   
 13   7   9  ar  
 14   7  10  ar  
 15   8  11  1   
 16   8  33  1   
 17   9  12  ar  
 18   9  34  1   
 19  10  13  ar  
 20  10  35  1   
 21  11  14  2   
 22  11  15  am  
 23  12  16  ar  
 24  12  36  1   
 25  13  16  ar  
 26  13  37  1   
 27  15  17  1   
 28  15  18  1   
 29  16  38  1   
 30  17  19  1   
 31  17  39  1   
 32  17  40  1   
 33  18  19  1   
 34  18  41  1   
 35  18  42  1   
 36  19  20  1   
 37  19  43  1   
 38  20  21  1   
 39  21  22  ar  
 40  21  23  ar  
 41  22  24  ar  
 42  22  25  1   
 43  23  26  ar  
 44  23  44  1   
 45  24  27  ar  
 46  24  45  1   
 47  25  28  1   
 48  25  46  1   
 49  25  47  1   
 50  26  27  ar  
 51  26  48  1   
 52  27  49  1   
 53  28  50  1   
 54  28  51  1   
 55  28  52  1   
@<TRIPOS>SUBSTRUCTURE
  1 ****  15 GROUP 4 **** **** 0

# MOE 2024.06 (io_trps.svl 2023.06)
