@<TRIPOS>MOLECULE
NONAME
61 63 1 0 0 
SMALL
USER_CHARGES


@<TRIPOS>ATOM
  1 O       -0.7500     0.7270     0.1340 O.2   1 <1>  -0.5700 
  2 C       -1.7520     1.2200     0.6180 C.2   1 <1>   0.5440 
  3 N       -2.8530     0.4210     0.8240 N.am  1 <1>  -0.6600 
  4 C       -1.7440     2.6370     0.9380 C.ar  1 <1>   0.0860 
  5 C       -2.7630    -1.0730     0.7850 C.3   1 <1>   0.1400 
  6 C       -4.2620     0.9150     0.7410 C.3   1 <1>   0.1400 
  7 C       -1.0950     3.5390     0.0980 C.ar  1 <1>  -0.1500 
  8 C       -2.3420     3.1490     2.0890 C.ar  1 <1>  -0.1500 
  9 C       -3.5880    -1.6480    -0.3790 C.3   1 <1>   0.3440 
 10 C       -5.0160     0.2400    -0.4310 C.3   1 <1>   0.2000 
 11 C       -1.0250     4.8920     0.3870 C.ar  1 <1>  -0.1440 
 12 C       -2.3010     4.5000     2.3800 C.ar  1 <1>  -0.1500 
 13 O       -4.9020    -1.1560    -0.3200 O.3   1 <1>  -0.5600 
 14 C       -3.6110    -3.1730    -0.3220 C.ar  1 <1>  -0.1440 
 15 C       -6.5240     0.6220    -0.5410 C.3   1 <1>   0.0000 
 16 C       -1.6440     5.3730     1.5310 C.ar  1 <1>  -0.1500 
 17 C       -0.2650     5.8260    -0.5340 C.3   1 <1>   0.4860 
 18 C       -4.5800    -3.8580     0.4000 C.ar  1 <1>  -0.1500 
 19 C       -2.6350    -3.8970    -0.9930 C.ar  1 <1>  -0.1500 
 20 C       -6.6960     2.1430    -0.7070 C.3   1 <1>  -0.2400 
 21 C       -7.3290     0.1730     0.6940 C.3   1 <1>  -0.2400 
 22 C       -7.1340    -0.0530    -1.7840 C.3   1 <1>  -0.2400 
 23 N        1.1060     6.0290     0.0190 N.4   1 <1>  -0.9590 
 24 C       -4.5740    -5.2410     0.4500 C.ar  1 <1>  -0.1500 
 25 C       -2.6270    -5.2810    -0.9430 C.ar  1 <1>  -0.1500 
 26 C        1.8220     7.1300    -0.6900 C.3   1 <1>   0.2630 
 27 C        1.9120     4.7650     0.0000 C.3   1 <1>   0.2630 
 28 C       -3.5960    -5.9540    -0.2220 C.ar  1 <1>  -0.1500 
 29 H       -1.7410    -1.3930     0.6840 H     1 <1>   0.0800 
 30 H       -3.1380    -1.4750     1.7090 H     1 <1>   0.0800 
 31 H       -4.7610     0.6970     1.6680 H     1 <1>   0.0800 
 32 H       -4.2720     1.9790     0.5960 H     1 <1>   0.0800 
 33 H       -0.6320     3.1450    -0.7920 H     1 <1>   0.1500 
 34 H       -2.8380     2.4750     2.7660 H     1 <1>   0.1500 
 35 H       -3.1590    -1.3350    -1.3150 H     1 <1>   0.0800 
 36 H       -4.5350     0.5280    -1.3500 H     1 <1>   0.0800 
 37 H       -2.7780     4.8710     3.2720 H     1 <1>   0.1500 
 38 H       -1.6230     6.4220     1.7780 H     1 <1>   0.1500 
 39 H       -0.7850     6.7690    -0.5920 H     1 <1>   0.0800 
 40 H       -0.2100     5.4050    -1.5250 H     1 <1>   0.0800 
 41 H       -5.3460    -3.3120     0.9220 H     1 <1>   0.1500 
 42 H       -1.8740    -3.3870    -1.5570 H     1 <1>   0.1500 
 43 H       -7.7300     2.3850    -0.8820 H     1 <1>   0.0800 
 44 H       -6.1240     2.4980    -1.5450 H     1 <1>   0.0800 
 45 H       -6.3840     2.6720     0.1740 H     1 <1>   0.0800 
 46 H       -8.3740     0.3890     0.5600 H     1 <1>   0.0800 
 47 H       -6.9980     0.6760     1.5830 H     1 <1>   0.0800 
 48 H       -7.2250    -0.8880     0.8440 H     1 <1>   0.0800 
 49 H       -8.1670     0.2200    -1.9010 H     1 <1>   0.0800 
 50 H       -7.0810    -1.1250    -1.6960 H     1 <1>   0.0800 
 51 H       -6.6030     0.2370    -2.6720 H     1 <1>   0.0800 
 52 H        0.9760     6.2930     1.0080 H     1 <1>   0.4500 
 53 H       -5.3310    -5.7610     1.0100 H     1 <1>   0.1500 
 54 H       -1.8670    -5.8330    -1.4670 H     1 <1>   0.1500 
 55 H        1.9640     6.8780    -1.7290 H     1 <1>   0.0800 
 56 H        2.7890     7.2960    -0.2430 H     1 <1>   0.0800 
 57 H        1.2570     8.0470    -0.6310 H     1 <1>   0.0800 
 58 H        2.0360     4.4110    -1.0100 H     1 <1>   0.0800 
 59 H        1.4210     3.9960     0.5770 H     1 <1>   0.0800 
 60 H        2.8870     4.9360     0.4280 H     1 <1>   0.0800 
 61 H       -3.5910    -7.0290    -0.1830 H     1 <1>   0.1500 
@<TRIPOS>BOND
  1   1   2  2   
  2   2   3  am  
  3   2   4  1   
  4   3   5  1   
  5   3   6  1   
  6   4   7  ar  
  7   4   8  ar  
  8   5   9  1   
  9   5  29  1   
 10   5  30  1   
 11   6  10  1   
 12   6  31  1   
 13   6  32  1   
 14   7  11  ar  
 15   7  33  1   
 16   8  12  ar  
 17   8  34  1   
 18   9  13  1   
 19   9  14  1   
 20   9  35  1   
 21  10  13  1   
 22  10  15  1   
 23  10  36  1   
 24  11  16  ar  
 25  11  17  1   
 26  12  16  ar  
 27  12  37  1   
 28  14  18  ar  
 29  14  19  ar  
 30  15  20  1   
 31  15  21  1   
 32  15  22  1   
 33  16  38  1   
 34  17  23  1   
 35  17  39  1   
 36  17  40  1   
 37  18  24  ar  
 38  18  41  1   
 39  19  25  ar  
 40  19  42  1   
 41  20  43  1   
 42  20  44  1   
 43  20  45  1   
 44  21  46  1   
 45  21  47  1   
 46  21  48  1   
 47  22  49  1   
 48  22  50  1   
 49  22  51  1   
 50  23  26  1   
 51  23  27  1   
 52  23  52  1   
 53  24  28  ar  
 54  24  53  1   
 55  25  28  ar  
 56  25  54  1   
 57  26  55  1   
 58  26  56  1   
 59  26  57  1   
 60  27  58  1   
 61  27  59  1   
 62  27  60  1   
 63  28  61  1   
@<TRIPOS>SUBSTRUCTURE
  1 ****   3 GROUP 4 **** **** 0

# MOE 2024.06 (io_trps.svl 2023.06)
