@<TRIPOS>MOLECULE
NONAME
31 31 1 0 0 
SMALL
USER_CHARGES


@<TRIPOS>ATOM
  1 O        8.3450    -0.4530     0.6810 O.3   1 <1>  -0.3630 
  2 C        9.5580    -0.8510     0.2380 C.ar  1 <1>   0.0820 
  3 C        7.3520    -0.3130    -0.3090 C.3   1 <1>   0.1200 
  4 C        9.8530    -2.2110     0.1600 C.ar  1 <1>  -0.1440 
  5 C       10.5020     0.1060    -0.1290 C.ar  1 <1>  -0.1440 
  6 C        6.0690     0.2400     0.3250 C.3   1 <1>   0.1760 
  7 C       11.0880    -2.6040    -0.3270 C.ar  1 <1>  -0.1500 
  8 C        8.8550    -3.2720     0.6040 C.3   1 <1>  -0.0960 
  9 C       11.7310    -0.3110    -0.6120 C.ar  1 <1>  -0.1500 
 10 C       10.2150     1.5950    -0.0010 C.3   1 <1>  -0.0960 
 11 N        5.0100     0.3340    -0.7040 N.4   1 <1>  -0.2260 
 12 C        6.2870     1.6190     0.9650 C.3   1 <1>  -0.2400 
 13 C       12.0220    -1.6600    -0.7150 C.ar  1 <1>  -0.1500 
 14 O        3.8020     0.4450    -0.1040 O.2   1 <1>  -0.7500 
 15 H        7.1770    -1.2850    -0.7340 H     1 <1>   0.0800 
 16 H        7.7270     0.3560    -1.0630 H     1 <1>   0.0800 
 17 H        5.7320    -0.4560     1.0740 H     1 <1>   0.0800 
 18 H       11.3340    -3.6490    -0.4030 H     1 <1>   0.1500 
 19 H        8.3280    -2.9440     1.4820 H     1 <1>   0.0800 
 20 H        9.3600    -4.1900     0.8420 H     1 <1>   0.0800 
 21 H        8.1460    -3.4620    -0.1800 H     1 <1>   0.0800 
 22 H       12.4710     0.4110    -0.9080 H     1 <1>   0.1500 
 23 H        9.7040     1.7960     0.9250 H     1 <1>   0.0800 
 24 H        9.6000     1.9240    -0.8180 H     1 <1>   0.0800 
 25 H       11.1280     2.1610    -0.0070 H     1 <1>   0.0800 
 26 H        4.9810    -0.5050    -1.2930 H     1 <1>   0.3600 
 27 H        5.1440     1.1580    -1.2990 H     1 <1>   0.3600 
 28 H        6.6440     2.3310     0.2440 H     1 <1>   0.0800 
 29 H        7.0090     1.5440     1.7590 H     1 <1>   0.0800 
 30 H        5.3650     1.9740     1.3920 H     1 <1>   0.0800 
 31 H       12.9790    -1.9750    -1.0920 H     1 <1>   0.1500 
@<TRIPOS>BOND
  1   1   2  1   
  2   1   3  1   
  3   2   4  ar  
  4   2   5  ar  
  5   3   6  1   
  6   3  15  1   
  7   3  16  1   
  8   4   7  ar  
  9   4   8  1   
 10   5   9  ar  
 11   5  10  1   
 12   6  11  1   
 13   6  12  1   
 14   6  17  1   
 15   7  13  ar  
 16   7  18  1   
 17   8  19  1   
 18   8  20  1   
 19   8  21  1   
 20   9  13  ar  
 21   9  22  1   
 22  10  23  1   
 23  10  24  1   
 24  10  25  1   
 25  11  14  2   
 26  11  26  1   
 27  11  27  1   
 28  12  28  1   
 29  12  29  1   
 30  12  30  1   
 31  13  31  1   
@<TRIPOS>SUBSTRUCTURE
  1 ****   1 GROUP 4 **** **** 0

# MOE 2024.06 (io_trps.svl 2023.06)
