@<TRIPOS>MOLECULE
NONAME
53 55 1 0 0 
SMALL
USER_CHARGES


@<TRIPOS>ATOM
  1 O       -1.1940     0.3390     2.1190 O.2   1 <1>  -0.5700 
  2 C       -1.8870     0.8370     1.2520 C.2   1 <1>   0.7150 
  3 N       -2.7140     0.0340     0.5020 N.am  1 <1>  -0.6600 
  4 C       -1.8020     2.2480     1.0160 C.2   1 <1>  -0.2370 
  5 C       -2.6490    -1.4580     0.6770 C.3   1 <1>   0.3640 
  6 C       -3.6940     0.5990    -0.4760 C.3   1 <1>   0.1400 
  7 N       -0.6390     2.8790     0.7110 N.pl3 1 <1>   0.3140 
  8 C       -2.7470     3.2280     1.0360 C.2   1 <1>  -0.1500 
  9 C       -1.3990    -2.0030    -0.0210 C.ar  1 <1>  -0.1440 
 10 C       -3.9070    -2.2450     0.1950 C.3   1 <1>   0.2000 
 11 C       -4.5270    -0.4670    -1.1970 C.3   1 <1>   0.1200 
 12 N       -0.8170     4.1940     0.5110 N.2   1 <1>  -0.7070 
 13 C        0.7090     2.2740     0.5920 C.3   1 <1>   0.0960 
 14 C       -2.0850     4.3990     0.7140 C.2   1 <1>   0.1080 
 15 C       -0.5350    -2.8270     0.6870 C.ar  1 <1>  -0.1500 
 16 C       -1.1000    -1.7040    -1.3450 C.ar  1 <1>  -0.1500 
 17 O       -4.9440    -1.4260    -0.2820 O.3   1 <1>  -0.5600 
 18 C       -4.5040    -3.1170     1.3090 C.3   1 <1>   0.1200 
 19 C        0.8750     1.5290    -0.7380 C.3   1 <1>  -0.2400 
 20 C       -2.7490     5.7690     0.6110 C.3   1 <1>   0.1010 
 21 C        0.5990    -3.3450     0.0870 C.ar  1 <1>  -0.1500 
 22 C        0.0320    -2.2220    -1.9480 C.ar  1 <1>  -0.1500 
 23 O       -3.5760    -4.0560     1.7510 O.3   1 <1>  -0.6800 
 24 C       -2.6310     6.3240    -0.8140 C.3   1 <1>  -0.2400 
 25 C       -2.1350     6.7480     1.6190 C.3   1 <1>  -0.2400 
 26 C        0.8830    -3.0440    -1.2320 C.ar  1 <1>  -0.1500 
 27 H       -2.5390    -1.6510     1.7300 H     1 <1>   0.0800 
 28 H       -4.3750     1.2400     0.0550 H     1 <1>   0.0800 
 29 H       -3.1730     1.1990    -1.2010 H     1 <1>   0.0800 
 30 H       -3.7940     3.1370     1.2600 H     1 <1>   0.1500 
 31 H       -3.6300    -2.8910    -0.6190 H     1 <1>   0.0800 
 32 H       -3.9690    -0.9470    -1.9810 H     1 <1>   0.0800 
 33 H       -5.4040    -0.0180    -1.6290 H     1 <1>   0.0800 
 34 H        1.4330     3.0650     0.6570 H     1 <1>   0.0800 
 35 H        0.8660     1.6070     1.4190 H     1 <1>   0.0800 
 36 H       -0.7420    -3.0660     1.7170 H     1 <1>   0.1500 
 37 H       -1.7410    -1.0600    -1.9150 H     1 <1>   0.1500 
 38 H       -5.3710    -3.6440     0.9510 H     1 <1>   0.0800 
 39 H       -4.7780    -2.5040     2.1510 H     1 <1>   0.0800 
 40 H        0.7100     2.2010    -1.5620 H     1 <1>   0.0800 
 41 H        0.1820     0.7100    -0.7960 H     1 <1>   0.0800 
 42 H        1.8720     1.1330    -0.8090 H     1 <1>   0.0800 
 43 H       -3.7930     5.6570     0.8440 H     1 <1>   0.0800 
 44 H        1.2600    -3.9810     0.6500 H     1 <1>   0.1500 
 45 H        0.2540    -1.9840    -2.9740 H     1 <1>   0.1500 
 46 H       -3.3940    -4.7240     1.0590 H     1 <1>   0.4000 
 47 H       -1.5940     6.4510    -1.0740 H     1 <1>   0.0800 
 48 H       -3.1290     7.2730    -0.8920 H     1 <1>   0.0800 
 49 H       -3.0750     5.6380    -1.5120 H     1 <1>   0.0800 
 50 H       -1.0900     6.8890     1.4070 H     1 <1>   0.0800 
 51 H       -2.2280     6.3530     2.6150 H     1 <1>   0.0800 
 52 H       -2.6330     7.7000     1.5740 H     1 <1>   0.0800 
 53 H        1.7650    -3.4470    -1.6990 H     1 <1>   0.1500 
@<TRIPOS>BOND
  1   1   2  2   
  2   2   3  am  
  3   2   4  1   
  4   3   5  1   
  5   3   6  1   
  6   4   7  1   
  7   4   8  2   
  8   5   9  1   
  9   5  10  1   
 10   5  27  1   
 11   6  11  1   
 12   6  28  1   
 13   6  29  1   
 14   7  12  1   
 15   7  13  1   
 16   8  14  1   
 17   8  30  1   
 18   9  15  ar  
 19   9  16  ar  
 20  10  17  1   
 21  10  18  1   
 22  10  31  1   
 23  11  17  1   
 24  11  32  1   
 25  11  33  1   
 26  12  14  2   
 27  13  19  1   
 28  13  34  1   
 29  13  35  1   
 30  14  20  1   
 31  15  21  ar  
 32  15  36  1   
 33  16  22  ar  
 34  16  37  1   
 35  18  23  1   
 36  18  38  1   
 37  18  39  1   
 38  19  40  1   
 39  19  41  1   
 40  19  42  1   
 41  20  24  1   
 42  20  25  1   
 43  20  43  1   
 44  21  26  ar  
 45  21  44  1   
 46  22  26  ar  
 47  22  45  1   
 48  23  46  1   
 49  24  47  1   
 50  24  48  1   
 51  24  49  1   
 52  25  50  1   
 53  25  51  1   
 54  25  52  1   
 55  26  53  1   
@<TRIPOS>SUBSTRUCTURE
  1 ****   3 GROUP 4 **** **** 0

# MOE 2024.06 (io_trps.svl 2023.06)
