@<TRIPOS>MOLECULE
NONAME
41 42 1 0 0 
SMALL
USER_CHARGES


@<TRIPOS>ATOM
  1 S        0.4170    -0.0350     0.5320 S.o2  1 <1>   1.3330 
  2 O       -0.5330    -0.0630     1.6210 O.2   1 <1>  -0.6500 
  3 O        1.8290     0.0780     0.8170 O.2   1 <1>  -0.6500 
  4 N        0.1850    -1.4210    -0.4200 N.am  1 <1>  -0.8490 
  5 C       -0.0670     1.2920    -0.5700 C.3   1 <1>  -0.0550 
  6 C        1.3230    -1.7240    -1.2950 C.3   1 <1>   0.1160 
  7 C       -0.1520    -2.5980     0.3860 C.3   1 <1>   0.1160 
  8 C       -0.0410     2.6730     0.1050 C.3   1 <1>  -0.0800 
  9 C       -0.5870     3.7730    -0.7990 C.3   1 <1>   0.2000 
 10 C        1.3590     3.1670     0.4760 C.3   1 <1>   0.1400 
 11 O       -1.9710     3.7870    -0.7530 O.3   1 <1>  -0.6800 
 12 C        0.0140     5.0670    -0.2570 C.3   1 <1>   0.1400 
 13 N        1.2900     4.6490     0.3800 N.am  1 <1>  -0.6600 
 14 C        2.4270     5.4300     0.3970 C.2   1 <1>   0.6160 
 15 O        3.5090     4.8740     0.3840 O.2   1 <1>  -0.5700 
 16 C        2.3590     6.8740     0.4100 C.2   1 <1>   0.0140 
 17 C        1.4150     7.5750     1.1230 C.2   1 <1>  -0.0410 
 18 C        3.3130     7.6390    -0.3320 C.2   1 <1>  -0.1500 
 19 N        1.3650     8.9450     1.1020 N.am  1 <1>  -0.5390 
 20 C        3.2580     8.9990    -0.3410 C.2   1 <1>  -0.1360 
 21 C        2.2570     9.6950     0.3870 C.2   1 <1>   0.6160 
 22 O        2.1520    10.9090     0.4090 O.2   1 <1>  -0.5700 
 23 H        0.5750     1.2990    -1.4290 H     1 <1>   0.0800 
 24 H       -1.0670     1.1000    -0.9110 H     1 <1>   0.0800 
 25 H        1.0850    -2.5550    -1.9360 H     1 <1>   0.0800 
 26 H        2.1930    -1.9720    -0.7090 H     1 <1>   0.0800 
 27 H        1.5540    -0.8740    -1.9130 H     1 <1>   0.0800 
 28 H       -0.3080    -3.4530    -0.2490 H     1 <1>   0.0800 
 29 H       -1.0600    -2.4200     0.9370 H     1 <1>   0.0800 
 30 H        0.6400    -2.8130     1.0840 H     1 <1>   0.0800 
 31 H       -0.6200     2.6390     1.0120 H     1 <1>   0.0800 
 32 H       -0.2820     3.6310    -1.8220 H     1 <1>   0.0800 
 33 H        2.0970     2.8000    -0.2190 H     1 <1>   0.0800 
 34 H        1.6370     2.8640     1.4730 H     1 <1>   0.0800 
 35 H       -2.2880     3.8070     0.1720 H     1 <1>   0.4000 
 36 H       -0.6290     5.4990     0.4890 H     1 <1>   0.0800 
 37 H        0.1910     5.7700    -1.0530 H     1 <1>   0.0800 
 38 H        0.6870     7.0610     1.7300 H     1 <1>   0.1500 
 39 H        4.0730     7.1020    -0.8760 H     1 <1>   0.1500 
 40 H        0.6800     9.4940     1.6250 H     1 <1>   0.3700 
 41 H        3.9570     9.6030    -0.8870 H     1 <1>   0.1500 
@<TRIPOS>BOND
  1   1   2  2   
  2   1   3  2   
  3   1   4  am  
  4   1   5  1   
  5   4   6  1   
  6   4   7  1   
  7   5   8  1   
  8   5  23  1   
  9   5  24  1   
 10   6  25  1   
 11   6  26  1   
 12   6  27  1   
 13   7  28  1   
 14   7  29  1   
 15   7  30  1   
 16   8   9  1   
 17   8  10  1   
 18   8  31  1   
 19   9  11  1   
 20   9  12  1   
 21   9  32  1   
 22  10  13  1   
 23  10  33  1   
 24  10  34  1   
 25  11  35  1   
 26  12  13  1   
 27  12  36  1   
 28  12  37  1   
 29  13  14  am  
 30  14  15  2   
 31  14  16  1   
 32  16  17  2   
 33  16  18  1   
 34  17  19  1   
 35  17  38  1   
 36  18  20  2   
 37  18  39  1   
 38  19  21  am  
 39  19  40  1   
 40  20  21  1   
 41  20  41  1   
 42  21  22  2   
@<TRIPOS>SUBSTRUCTURE
  1 ****  13 GROUP 4 **** **** 0

# MOE 2024.06 (io_trps.svl 2023.06)
