@<TRIPOS>MOLECULE
NONAME
53 55 1 0 0 
SMALL
USER_CHARGES


@<TRIPOS>ATOM
  1 S       -0.6610    -0.4100     0.1760 S.o2  1 <1>   1.3330 
  2 O       -1.5210     0.2010     1.1590 O.2   1 <1>  -0.6500 
  3 O       -1.1800    -0.7420    -1.1290 O.2   1 <1>  -0.6500 
  4 N       -0.0700    -1.8780     0.8790 N.am  1 <1>  -0.6930 
  5 C        0.8100     0.5830     0.0350 C.3   1 <1>  -0.1350 
  6 C        1.0160    -2.6070     0.3810 C.ar  1 <1>   0.1990 
  7 C       -0.9870    -2.5250     1.8820 C.3   1 <1>   0.2570 
  8 C        1.2760    -2.7170    -0.9830 C.ar  1 <1>  -0.1500 
  9 C        1.8770    -3.2580     1.2660 C.ar  1 <1>  -0.1500 
 10 C       -1.2250    -4.0250     1.6700 C.2   1 <1>   0.5690 
 11 C        2.3630    -3.4510    -1.4090 C.ar  1 <1>   0.1900 
 12 C        2.9630    -3.9940     0.8210 C.ar  1 <1>  -0.1500 
 13 O       -0.8540    -4.7830     2.5370 O.2   1 <1>  -0.5700 
 14 N       -1.8500    -4.4830     0.5410 N.am  1 <1>  -0.6600 
 15 F        2.5950    -3.5410    -2.6910 F     1 <1>  -0.1900 
 16 C        3.2170    -4.0960    -0.5360 C.ar  1 <1>  -0.1500 
 17 C       -2.3550    -3.6600    -0.5880 C.3   1 <1>   0.1400 
 18 C       -2.1700    -5.9090     0.3160 C.3   1 <1>   0.1400 
 19 C       -3.2550    -4.5920    -1.4070 C.3   1 <1>   0.2000 
 20 C       -2.6800    -5.9840    -1.1260 C.3   1 <1>  -0.0800 
 21 O       -4.5700    -4.5350    -0.9260 O.3   1 <1>  -0.5600 
 22 C       -3.6600    -7.1470    -1.3610 C.3   1 <1>   0.0200 
 23 C       -5.3370    -3.4860    -1.4290 C.3   1 <1>   0.0400 
 24 C       -2.9910    -8.4840    -1.1050 C.2   1 <1>  -0.0400 
 25 O       -2.0180    -8.8910    -1.8760 O.3   1 <1>  -0.0190 
 26 C       -3.1990    -9.4240    -0.1710 C.2   1 <1>  -0.1500 
 27 N       -1.5620   -10.0530    -1.5060 N.2   1 <1>  -0.4100 
 28 C       -2.2550   -10.3980    -0.4810 C.2   1 <1>   0.1080 
 29 C       -2.0620   -11.6900     0.2810 C.3   1 <1>  -0.0590 
 30 H        1.2620     0.7110     0.9990 H     1 <1>   0.0800 
 31 H        0.5630     1.5490    -0.3590 H     1 <1>   0.0800 
 32 H        1.5180     0.1160    -0.6210 H     1 <1>   0.0800 
 33 H       -0.5790    -2.3790     2.8650 H     1 <1>   0.0800 
 34 H       -1.9520    -2.0530     1.8650 H     1 <1>   0.0800 
 35 H        0.6460    -2.2560    -1.7170 H     1 <1>   0.1500 
 36 H        1.6930    -3.1930     2.3240 H     1 <1>   0.1500 
 37 H        3.6060    -4.4910     1.5290 H     1 <1>   0.1500 
 38 H        4.0510    -4.6620    -0.9100 H     1 <1>   0.1500 
 39 H       -2.8840    -2.7910    -0.2410 H     1 <1>   0.0800 
 40 H       -1.5200    -3.3550    -1.1920 H     1 <1>   0.0800 
 41 H       -1.2990    -6.5270     0.4620 H     1 <1>   0.0800 
 42 H       -2.9390    -6.2030     1.0090 H     1 <1>   0.0800 
 43 H       -3.2490    -4.3570    -2.4580 H     1 <1>   0.0800 
 44 H       -1.8240    -6.1210    -1.7620 H     1 <1>   0.0800 
 45 H       -4.0170    -7.1210    -2.3750 H     1 <1>   0.0800 
 46 H       -4.5090    -7.0530    -0.7070 H     1 <1>   0.0800 
 47 H       -6.3150    -3.5450    -0.9840 H     1 <1>   0.0800 
 48 H       -5.4210    -3.5870    -2.4970 H     1 <1>   0.0800 
 49 H       -4.8820    -2.5450    -1.1730 H     1 <1>   0.0800 
 50 H       -3.9090    -9.4490     0.6350 H     1 <1>   0.1500 
 51 H       -2.9690   -12.2650     0.2600 H     1 <1>   0.0800 
 52 H       -1.7990   -11.4760     1.3000 H     1 <1>   0.0800 
 53 H       -1.2730   -12.2670    -0.1690 H     1 <1>   0.0800 
@<TRIPOS>BOND
  1   1   2  2   
  2   1   3  2   
  3   1   4  am  
  4   1   5  1   
  5   4   6  1   
  6   4   7  1   
  7   5  30  1   
  8   5  31  1   
  9   5  32  1   
 10   6   8  ar  
 11   6   9  ar  
 12   7  10  1   
 13   7  33  1   
 14   7  34  1   
 15   8  11  ar  
 16   8  35  1   
 17   9  12  ar  
 18   9  36  1   
 19  10  13  2   
 20  10  14  am  
 21  11  15  1   
 22  11  16  ar  
 23  12  16  ar  
 24  12  37  1   
 25  14  17  1   
 26  14  18  1   
 27  16  38  1   
 28  17  19  1   
 29  17  39  1   
 30  17  40  1   
 31  18  20  1   
 32  18  41  1   
 33  18  42  1   
 34  19  20  1   
 35  19  21  1   
 36  19  43  1   
 37  20  22  1   
 38  20  44  1   
 39  21  23  1   
 40  22  24  1   
 41  22  45  1   
 42  22  46  1   
 43  23  47  1   
 44  23  48  1   
 45  23  49  1   
 46  24  25  1   
 47  24  26  2   
 48  25  27  1   
 49  26  28  1   
 50  26  50  1   
 51  27  28  2   
 52  28  29  1   
 53  29  51  1   
 54  29  52  1   
 55  29  53  1   
@<TRIPOS>SUBSTRUCTURE
  1 ****  14 GROUP 4 **** **** 0

# MOE 2024.06 (io_trps.svl 2023.06)
