@<TRIPOS>MOLECULE
NONAME
49 50 1 0 0 
SMALL
USER_CHARGES


@<TRIPOS>ATOM
  1 S        0.7580     1.3660    -0.7520 S.o2  1 <1>   1.3330 
  2 O       -0.1240     1.9260     0.2470 O.2   1 <1>  -0.6500 
  3 O        1.3240     2.2290    -1.7650 O.2   1 <1>  -0.6500 
  4 N       -0.0770     0.1190    -1.5500 N.am  1 <1>  -0.8490 
  5 C        2.0800     0.4810     0.0760 C.3   1 <1>  -0.0550 
  6 C        0.5100    -0.2380    -2.8460 C.3   1 <1>   0.1160 
  7 C       -1.5020     0.4180    -1.7130 C.3   1 <1>   0.1160 
  8 C        3.0880     1.3980     0.7980 C.3   1 <1>  -0.0800 
  9 C        4.3040     0.6090     1.2560 C.3   1 <1>   0.2200 
 10 C        2.5490     1.9120     2.1320 C.3   1 <1>   0.1200 
 11 N        5.4550     1.5280     1.3580 N.am  1 <1>  -0.7300 
 12 C        3.8900     0.1150     2.6440 C.3   1 <1>   0.1200 
 13 O        2.8070     0.8990     3.0530 O.3   1 <1>  -0.5600 
 14 C        6.4480     1.6340     0.4420 C.2   1 <1>   0.5690 
 15 O        6.5350     0.8830    -0.4990 O.2   1 <1>  -0.5700 
 16 C        7.4600     2.7520     0.5950 C.3   1 <1>   0.0390 
 17 C        6.8040     4.1140     0.3510 C.2   1 <1>  -0.1240 
 18 C        6.0710     4.6930     1.4360 C.2   1 <1>   0.7670 
 19 C        6.8620     4.7850    -0.8280 C.2   1 <1>  -0.0380 
 20 O        5.9360     4.1010     2.4990 O.2   1 <1>  -0.5700 
 21 N        5.4740     5.9160     1.3150 N.2   1 <1>  -0.6610 
 22 N        6.2390     6.0000    -0.8810 N.pl3 1 <1>  -0.5500 
 23 C        7.5310     4.3310    -2.1160 C.3   1 <1>  -0.1020 
 24 C        5.5720     6.5140     0.1900 C.2   1 <1>   0.4390 
 25 C        4.9240     7.8620    -0.0010 C.3   1 <1>  -0.1790 
 26 H        1.6570    -0.2130     0.7770 H     1 <1>   0.0800 
 27 H        2.6130    -0.0850    -0.6620 H     1 <1>   0.0800 
 28 H        0.0010    -1.0920    -3.2600 H     1 <1>   0.0800 
 29 H        1.5500    -0.4870    -2.7290 H     1 <1>   0.0800 
 30 H        0.4280     0.5870    -3.5360 H     1 <1>   0.0800 
 31 H       -2.0010    -0.3960    -2.2100 H     1 <1>   0.0800 
 32 H       -1.6320     1.3200    -2.2900 H     1 <1>   0.0800 
 33 H       -1.9630     0.5550    -0.7490 H     1 <1>   0.0800 
 34 H        3.3650     2.2070     0.1440 H     1 <1>   0.0800 
 35 H        4.5490    -0.2100     0.5990 H     1 <1>   0.0800 
 36 H        1.4940     2.1250     2.1270 H     1 <1>   0.0800 
 37 H        3.0880     2.7890     2.4500 H     1 <1>   0.0800 
 38 H        5.3890     2.2420     2.1010 H     1 <1>   0.3700 
 39 H        4.6850     0.2060     3.3630 H     1 <1>   0.0800 
 40 H        3.5520    -0.9040     2.6000 H     1 <1>   0.0800 
 41 H        7.8760     2.7100     1.5850 H     1 <1>   0.0800 
 42 H        8.2720     2.5830    -0.0840 H     1 <1>   0.0800 
 43 H        6.2480     6.5450    -1.7460 H     1 <1>   0.4000 
 44 H        6.8670     4.4880    -2.9470 H     1 <1>   0.0800 
 45 H        7.7740     3.2850    -2.0980 H     1 <1>   0.0800 
 46 H        8.4320     4.8940    -2.2810 H     1 <1>   0.0800 
 47 H        4.1880     7.8070    -0.7810 H     1 <1>   0.0800 
 48 H        5.6670     8.5940    -0.2560 H     1 <1>   0.0800 
 49 H        4.4380     8.1690     0.9080 H     1 <1>   0.0800 
@<TRIPOS>BOND
  1   1   2  2   
  2   1   3  2   
  3   1   4  am  
  4   1   5  1   
  5   4   6  1   
  6   4   7  1   
  7   5   8  1   
  8   5  26  1   
  9   5  27  1   
 10   6  28  1   
 11   6  29  1   
 12   6  30  1   
 13   7  31  1   
 14   7  32  1   
 15   7  33  1   
 16   8   9  1   
 17   8  10  1   
 18   8  34  1   
 19   9  11  1   
 20   9  12  1   
 21   9  35  1   
 22  10  13  1   
 23  10  36  1   
 24  10  37  1   
 25  11  14  am  
 26  11  38  1   
 27  12  13  1   
 28  12  39  1   
 29  12  40  1   
 30  14  15  2   
 31  14  16  1   
 32  16  17  1   
 33  16  41  1   
 34  16  42  1   
 35  17  18  1   
 36  17  19  2   
 37  18  20  2   
 38  18  21  1   
 39  19  22  1   
 40  19  23  1   
 41  21  24  2   
 42  22  24  1   
 43  22  43  1   
 44  23  44  1   
 45  23  45  1   
 46  23  46  1   
 47  24  25  1   
 48  25  47  1   
 49  25  48  1   
 50  25  49  1   
@<TRIPOS>SUBSTRUCTURE
  1 ****   8 GROUP 4 **** **** 0

# MOE 2024.06 (io_trps.svl 2023.06)
