@<TRIPOS>MOLECULE
NONAME
55 57 1 0 0 
SMALL
USER_CHARGES


@<TRIPOS>ATOM
  1 S        1.1780    -0.8200     2.5310 S.3   1 <1>  -0.0800 
  2 C        1.2000    -0.0400     0.9720 C.2   1 <1>   0.1980 
  3 C        0.7520    -2.3090     1.7470 C.2   1 <1>  -0.1100 
  4 N        0.9030    -0.8070     0.0020 N.2   1 <1>  -0.5650 
  5 C        1.5860     1.4340     0.9130 C.3   1 <1>   0.5230 
  6 C        0.6420    -2.1280     0.4110 C.2   1 <1>   0.1410 
  7 N        1.5570     1.9100    -0.5130 N.4   1 <1>  -0.9590 
  8 C        0.3190    -3.1590    -0.5750 C.2   1 <1>   0.7160 
  9 C        2.4570     3.0750    -0.7570 C.3   1 <1>   0.2630 
 10 C        0.1590     2.1700    -0.9780 C.3   1 <1>   0.2630 
 11 O        0.9190    -3.1800    -1.6340 O.2   1 <1>  -0.5700 
 12 N       -0.6430    -4.1270    -0.3420 N.am  1 <1>  -0.6600 
 13 C       -0.7800    -5.2890    -1.2910 C.3   1 <1>   0.1400 
 14 C       -1.7170    -3.9530     0.6790 C.3   1 <1>   0.1400 
 15 C       -1.3700    -6.5430    -0.6000 C.3   1 <1>   0.0000 
 16 C       -2.9960    -4.6620     0.2420 C.3   1 <1>  -0.1600 
 17 C       -2.7850    -6.1560    -0.0520 C.3   1 <1>   0.2000 
 18 C       -1.5950    -7.6580    -1.6540 C.3   1 <1>   0.1200 
 19 C       -0.4040    -7.0620     0.5190 C.3   1 <1>  -0.0170 
 20 O       -3.1020    -6.8680     1.0930 O.3   1 <1>  -0.6800 
 21 O       -0.4760    -7.8590    -2.4480 O.3   1 <1>  -0.6800 
 22 C        0.9740    -7.5260     0.0540 C.ar  1 <1>  -0.1440 
 23 C        1.9980    -6.6160    -0.1610 C.ar  1 <1>  -0.1500 
 24 C        1.2190    -8.8760    -0.1500 C.ar  1 <1>  -0.1500 
 25 C        3.2400    -7.0450    -0.5940 C.ar  1 <1>  -0.1500 
 26 C        2.4610    -9.3080    -0.5810 C.ar  1 <1>  -0.1500 
 27 C        3.4730    -8.3920    -0.8060 C.ar  1 <1>  -0.1500 
 28 H        0.6360    -3.1850     2.3600 H     1 <1>   0.1500 
 29 H        2.5810     1.5370     1.3120 H     1 <1>   0.0800 
 30 H        0.9110     2.0160     1.5180 H     1 <1>   0.0800 
 31 H        1.8900     1.0890    -1.0540 H     1 <1>   0.4500 
 32 H        2.1280     3.9310    -0.1900 H     1 <1>   0.0800 
 33 H        2.4520     3.3340    -1.8040 H     1 <1>   0.0800 
 34 H        3.4680     2.8350    -0.4710 H     1 <1>   0.0800 
 35 H       -0.2820     2.9800    -0.4200 H     1 <1>   0.0800 
 36 H       -0.4470     1.2860    -0.8480 H     1 <1>   0.0800 
 37 H        0.1570     2.4290    -2.0250 H     1 <1>   0.0800 
 38 H       -1.4200    -4.9930    -2.1050 H     1 <1>   0.0800 
 39 H        0.1780    -5.5200    -1.7230 H     1 <1>   0.0800 
 40 H       -1.3850    -4.3530     1.6220 H     1 <1>   0.0800 
 41 H       -1.9270    -2.9040     0.8120 H     1 <1>   0.0800 
 42 H       -3.3390    -4.1830    -0.6580 H     1 <1>   0.0800 
 43 H       -3.7700    -4.5300     0.9780 H     1 <1>   0.0800 
 44 H       -3.5340    -6.4310    -0.7760 H     1 <1>   0.0800 
 45 H       -2.3980    -7.3980    -2.3220 H     1 <1>   0.0800 
 46 H       -1.8400    -8.5900    -1.1730 H     1 <1>   0.0800 
 47 H       -0.2610    -6.3030     1.2640 H     1 <1>   0.0800 
 48 H       -0.8590    -7.8980     1.0200 H     1 <1>   0.0800 
 49 H       -2.5470    -6.5840     1.8420 H     1 <1>   0.4000 
 50 H        0.3230    -7.9910    -1.8850 H     1 <1>   0.4000 
 51 H        1.8380    -5.5650     0.0000 H     1 <1>   0.1500 
 52 H        0.4440    -9.6040     0.0220 H     1 <1>   0.1500 
 53 H        4.0250    -6.3290    -0.7670 H     1 <1>   0.1500 
 54 H        2.6420   -10.3570    -0.7420 H     1 <1>   0.1500 
 55 H        4.4380    -8.7250    -1.1430 H     1 <1>   0.1500 
@<TRIPOS>BOND
  1   1   2  1   
  2   1   3  1   
  3   2   4  2   
  4   2   5  1   
  5   3   6  2   
  6   3  28  1   
  7   4   6  1   
  8   5   7  1   
  9   5  29  1   
 10   5  30  1   
 11   6   8  1   
 12   7   9  1   
 13   7  10  1   
 14   7  31  1   
 15   8  11  2   
 16   8  12  am  
 17   9  32  1   
 18   9  33  1   
 19   9  34  1   
 20  10  35  1   
 21  10  36  1   
 22  10  37  1   
 23  12  13  1   
 24  12  14  1   
 25  13  15  1   
 26  13  38  1   
 27  13  39  1   
 28  14  16  1   
 29  14  40  1   
 30  14  41  1   
 31  15  17  1   
 32  15  18  1   
 33  15  19  1   
 34  16  17  1   
 35  16  42  1   
 36  16  43  1   
 37  17  20  1   
 38  17  44  1   
 39  18  21  1   
 40  18  45  1   
 41  18  46  1   
 42  19  22  1   
 43  19  47  1   
 44  19  48  1   
 45  20  49  1   
 46  21  50  1   
 47  22  23  ar  
 48  22  24  ar  
 49  23  25  ar  
 50  23  51  1   
 51  24  26  ar  
 52  24  52  1   
 53  25  27  ar  
 54  25  53  1   
 55  26  27  ar  
 56  26  54  1   
 57  27  55  1   
@<TRIPOS>SUBSTRUCTURE
  1 ****  12 GROUP 4 **** **** 0

# MOE 2024.06 (io_trps.svl 2023.06)
