@<TRIPOS>MOLECULE
NONAME
45 47 1 0 0 
SMALL
USER_CHARGES


@<TRIPOS>ATOM
  1 CL       1.4440     0.4830    -1.5220 Cl    1 <1>  -0.1770 
  2 C        0.7430     1.7310    -0.5160 C.ar  1 <1>   0.1770 
  3 C        1.5110     2.4540     0.3930 C.ar  1 <1>  -0.1440 
  4 C       -0.6110     1.9710    -0.6680 C.ar  1 <1>  -0.1500 
  5 C        0.8790     3.4350     1.1470 C.ar  1 <1>  -0.1500 
  6 C        3.0070     2.2250     0.5960 C.3   1 <1>   0.3640 
  7 C       -1.2240     2.9490     0.0930 C.ar  1 <1>  -0.1500 
  8 C       -0.4770     3.6800     0.9990 C.ar  1 <1>  -0.1500 
  9 N        3.2450     0.8270     1.0260 N.am  1 <1>  -0.7300 
 10 C        3.8490     2.6280    -0.6430 C.3   1 <1>   0.2610 
 11 C        4.2130     0.0440     0.5000 C.2   1 <1>   0.5690 
 12 O        5.1280     2.0060    -0.6430 O.3   1 <1>  -0.5600 
 13 C        3.9360     4.1590    -0.7200 C.2   1 <1>   0.5690 
 14 O        4.3910    -1.0740     0.9120 O.2   1 <1>  -0.5700 
 15 C        5.0780     0.5950    -0.6380 C.3   1 <1>   0.1810 
 16 O        3.2530     4.6860    -1.5690 O.2   1 <1>  -0.5700 
 17 N        4.7110     4.9200     0.1340 N.am  1 <1>  -0.6600 
 18 C        5.6850     4.3930     1.1320 C.3   1 <1>   0.1400 
 19 C        4.7920     6.4000    -0.0240 C.3   1 <1>   0.1400 
 20 C        7.1020     4.7090     0.6510 C.3   1 <1>  -0.1600 
 21 C        6.1920     6.7700    -0.5210 C.3   1 <1>  -0.1600 
 22 C        7.2900     6.2210     0.4130 C.3   1 <1>  -0.0190 
 23 C        8.6910     6.5420    -0.0970 C.2   1 <1>   0.5690 
 24 O        9.4480     7.1670     0.5990 O.2   1 <1>  -0.5700 
 25 N        9.0860     6.1280    -1.3150 N.am  1 <1>  -0.8000 
 26 H       -1.1760     1.3960    -1.3790 H     1 <1>   0.1500 
 27 H        1.4340     4.0240     1.8570 H     1 <1>   0.1500 
 28 H        3.3230     2.8510     1.4110 H     1 <1>   0.0800 
 29 H       -2.2770     3.1420    -0.0210 H     1 <1>   0.1500 
 30 H       -0.9520     4.4450     1.5900 H     1 <1>   0.1500 
 31 H        2.6250     0.4280     1.7320 H     1 <1>   0.3700 
 32 H        3.3500     2.3010    -1.5350 H     1 <1>   0.0800 
 33 H        4.6850     0.2630    -1.5820 H     1 <1>   0.0800 
 34 H        6.0830     0.2300    -0.5310 H     1 <1>   0.0800 
 35 H        5.5090     4.8720     2.0810 H     1 <1>   0.0800 
 36 H        5.5780     3.3350     1.2790 H     1 <1>   0.0800 
 37 H        4.0530     6.7560    -0.7230 H     1 <1>   0.0800 
 38 H        4.6000     6.8690     0.9260 H     1 <1>   0.0800 
 39 H        7.8110     4.3710     1.3870 H     1 <1>   0.0800 
 40 H        7.2870     4.1610    -0.2570 H     1 <1>   0.0800 
 41 H        6.3120     6.3740    -1.5140 H     1 <1>   0.0800 
 42 H        6.2740     7.8410    -0.5830 H     1 <1>   0.0800 
 43 H        7.1830     6.7150     1.3630 H     1 <1>   0.0800 
 44 H       10.0250     6.3580    -1.6410 H     1 <1>   0.3700 
 45 H        8.4950     5.5920    -1.9490 H     1 <1>   0.3700 
@<TRIPOS>BOND
  1   1   2  1   
  2   2   3  ar  
  3   2   4  ar  
  4   3   5  ar  
  5   3   6  1   
  6   4   7  ar  
  7   4  26  1   
  8   5   8  ar  
  9   5  27  1   
 10   6   9  1   
 11   6  10  1   
 12   6  28  1   
 13   7   8  ar  
 14   7  29  1   
 15   8  30  1   
 16   9  11  am  
 17   9  31  1   
 18  10  12  1   
 19  10  13  1   
 20  10  32  1   
 21  11  14  2   
 22  11  15  1   
 23  12  15  1   
 24  13  16  2   
 25  13  17  am  
 26  15  33  1   
 27  15  34  1   
 28  17  18  1   
 29  17  19  1   
 30  18  20  1   
 31  18  35  1   
 32  18  36  1   
 33  19  21  1   
 34  19  37  1   
 35  19  38  1   
 36  20  22  1   
 37  20  39  1   
 38  20  40  1   
 39  21  22  1   
 40  21  41  1   
 41  21  42  1   
 42  22  23  1   
 43  22  43  1   
 44  23  24  2   
 45  23  25  am  
 46  25  44  1   
 47  25  45  1   
@<TRIPOS>SUBSTRUCTURE
  1 ****  13 GROUP 4 **** **** 0

# MOE 2024.06 (io_trps.svl 2023.06)
