@<TRIPOS>MOLECULE
NONAME
48 51 1 0 0 
SMALL
USER_CHARGES


@<TRIPOS>ATOM
  1 F        3.1650     0.0010     3.0400 F     1 <1>  -0.1900 
  2 C        2.9600     0.5940     1.8960 C.ar  1 <1>   0.1900 
  3 C        2.6120    -0.1740     0.7890 C.ar  1 <1>   0.0860 
  4 C        3.0900     1.9690     1.8550 C.ar  1 <1>  -0.1500 
  5 C        2.3870     0.5450    -0.3820 C.ar  1 <1>   0.1900 
  6 C        2.4950    -1.6050     0.8470 C.2   1 <1>   0.5440 
  7 C        2.8650     2.6430     0.6640 C.ar  1 <1>   0.0830 
  8 F        2.0290    -0.0990    -1.4590 F     1 <1>  -0.1900 
  9 C        2.5070     1.9200    -0.4710 C.ar  1 <1>  -0.1500 
 10 O        3.4990    -2.2830     0.7430 O.2   1 <1>  -0.5700 
 11 N        1.2760    -2.2320     0.9950 N.am  1 <1>  -0.6600 
 12 O        3.0080     3.9860     0.6830 O.3   1 <1>  -0.3630 
 13 C        1.1400    -3.7250     1.0000 C.3   1 <1>   0.1400 
 14 C       -0.0490    -1.5440     0.9310 C.3   1 <1>   0.1400 
 15 C        2.8510     4.7710    -0.4780 C.3   1 <1>   0.0400 
 16 C        0.2170    -4.1960    -0.1410 C.3   1 <1>   0.3440 
 17 C       -0.8960    -2.1200    -0.2210 C.3   1 <1>   0.2950 
 18 O       -1.0080    -3.5080    -0.0940 O.3   1 <1>  -0.5600 
 19 C       -0.0340    -5.6980    -0.0430 C.ar  1 <1>  -0.1440 
 20 C       -2.3120    -1.5390    -0.2200 C.3   1 <1>  -0.1950 
 21 C        0.8200    -6.5780    -0.6940 C.ar  1 <1>  -0.1500 
 22 C       -1.0910    -6.2110     0.6970 C.ar  1 <1>  -0.1500 
 23 C       -3.1490    -1.5380    -1.4600 C.3   1 <1>  -0.2000 
 24 C       -2.6150    -0.2450    -0.9090 C.3   1 <1>  -0.2000 
 25 C        0.6210    -7.9450    -0.6080 C.ar  1 <1>  -0.1500 
 26 C       -1.2920    -7.5780     0.7840 C.ar  1 <1>  -0.1500 
 27 C       -0.4350    -8.4470     0.1320 C.ar  1 <1>  -0.1500 
 28 H        3.3640     2.5170     2.7380 H     1 <1>   0.1500 
 29 H        2.3190     2.3970    -1.4140 H     1 <1>   0.1500 
 30 H        2.0990    -4.1990     0.8920 H     1 <1>   0.0800 
 31 H        0.7270    -4.0410     1.9410 H     1 <1>   0.0800 
 32 H       -0.5690    -1.6950     1.8610 H     1 <1>   0.0800 
 33 H        0.0670    -0.4860     0.7870 H     1 <1>   0.0800 
 34 H        3.0330     5.7980    -0.2150 H     1 <1>   0.0800 
 35 H        1.8440     4.6620    -0.8420 H     1 <1>   0.0800 
 36 H        3.5660     4.4520    -1.2160 H     1 <1>   0.0800 
 37 H        0.6810    -3.9780    -1.0880 H     1 <1>   0.0800 
 38 H       -0.4210    -1.9070    -1.1640 H     1 <1>   0.0800 
 39 H       -2.8220    -1.7290     0.7090 H     1 <1>   0.1000 
 40 H        1.6470    -6.2040    -1.2720 H     1 <1>   0.1500 
 41 H       -1.7660    -5.5440     1.2050 H     1 <1>   0.1500 
 42 H       -2.7260    -1.9380    -2.3650 H     1 <1>   0.1000 
 43 H       -4.1990    -1.7550    -1.3660 H     1 <1>   0.1000 
 44 H       -3.3080     0.4400    -0.4500 H     1 <1>   0.1000 
 45 H       -1.8430     0.2600    -1.4640 H     1 <1>   0.1000 
 46 H        1.2880    -8.6190    -1.1160 H     1 <1>   0.1500 
 47 H       -2.1160    -7.9630     1.3580 H     1 <1>   0.1500 
 48 H       -0.5910    -9.5090     0.1990 H     1 <1>   0.1500 
@<TRIPOS>BOND
  1   1   2  1   
  2   2   3  ar  
  3   2   4  ar  
  4   3   5  ar  
  5   3   6  1   
  6   4   7  ar  
  7   4  28  1   
  8   5   8  1   
  9   5   9  ar  
 10   6  10  2   
 11   6  11  am  
 12   7   9  ar  
 13   7  12  1   
 14   9  29  1   
 15  11  13  1   
 16  11  14  1   
 17  12  15  1   
 18  13  16  1   
 19  13  30  1   
 20  13  31  1   
 21  14  17  1   
 22  14  32  1   
 23  14  33  1   
 24  15  34  1   
 25  15  35  1   
 26  15  36  1   
 27  16  18  1   
 28  16  19  1   
 29  16  37  1   
 30  17  18  1   
 31  17  20  1   
 32  17  38  1   
 33  19  21  ar  
 34  19  22  ar  
 35  20  23  1   
 36  20  24  1   
 37  20  39  1   
 38  21  25  ar  
 39  21  40  1   
 40  22  26  ar  
 41  22  41  1   
 42  23  24  1   
 43  23  42  1   
 44  23  43  1   
 45  24  44  1   
 46  24  45  1   
 47  25  27  ar  
 48  25  46  1   
 49  26  27  ar  
 50  26  47  1   
 51  27  48  1   
@<TRIPOS>SUBSTRUCTURE
  1 ****  11 GROUP 4 **** **** 0

# MOE 2024.06 (io_trps.svl 2023.06)
