@<TRIPOS>MOLECULE
NONAME
55 58 1 0 0 
SMALL
USER_CHARGES


@<TRIPOS>ATOM
  1 F       -0.3990     0.5570    -0.3990 F     1 <1>  -0.3400 
  2 C        0.2900    -0.4370    -0.9510 C.3   1 <1>   1.1640 
  3 F       -0.5500    -1.0460    -1.7760 F     1 <1>  -0.3400 
  4 F        1.1980     0.1460    -1.7270 F     1 <1>  -0.3400 
  5 C        0.8920    -1.3800     0.1130 C.ar  1 <1>  -0.1440 
  6 C        0.1000    -2.1680     0.9610 C.ar  1 <1>  -0.1440 
  7 C        2.2790    -1.4540     0.2440 C.ar  1 <1>  -0.1500 
  8 C        0.7090    -3.0010     1.8900 C.ar  1 <1>  -0.1500 
  9 C       -1.4360    -2.1730     0.9330 C.3   1 <1>   0.0450 
 10 C        2.8710    -2.2830     1.1780 C.ar  1 <1>  -0.1500 
 11 C        2.0840    -3.0600     2.0020 C.ar  1 <1>  -0.1500 
 12 C       -2.0650    -3.1700    -0.0400 C.2   1 <1>   0.5690 
 13 O       -1.3500    -3.9930    -0.5640 O.2   1 <1>  -0.5700 
 14 N       -3.4160    -3.1300    -0.3000 N.am  1 <1>  -0.6600 
 15 C       -4.4030    -2.1980     0.3360 C.3   1 <1>   0.1400 
 16 C       -4.0400    -4.0630    -1.2840 C.3   1 <1>   0.1400 
 17 C       -5.1270    -1.3500    -0.7270 C.3   1 <1>   0.1440 
 18 C       -4.7800    -3.2670    -2.3670 C.3   1 <1>  -0.1600 
 19 C       -6.1200    -0.4520    -0.0160 C.ar  1 <1>   0.1670 
 20 C       -5.7950    -2.2800    -1.7620 C.3   1 <1>  -0.1600 
 21 C       -4.1750    -0.3240    -1.4010 C.3   1 <1>  -0.1600 
 22 N       -7.2430    -0.8470     0.5300 N.ar  1 <1>  -0.6200 
 23 C       -5.6930     0.8410     0.0170 C.ar  1 <1>  -0.1440 
 24 C       -4.3590     1.0140    -0.6650 C.3   1 <1>  -0.0170 
 25 C       -7.9620     0.1130     1.1190 C.ar  1 <1>   0.7200 
 26 C       -6.4940     1.7600     0.6430 C.ar  1 <1>   0.1600 
 27 N       -7.6300     1.4070     1.1970 N.ar  1 <1>  -0.6200 
 28 N       -9.1590    -0.2670     1.7000 N.pl3 1 <1>  -0.8380 
 29 C      -10.0850     0.7360     2.2990 C.3   1 <1>   0.1290 
 30 C       -9.7410    -1.6190     1.4670 C.3   1 <1>   0.1290 
 31 H        2.9260    -0.8660    -0.3840 H     1 <1>   0.1500 
 32 H        0.1130    -3.6230     2.5340 H     1 <1>   0.1500 
 33 H       -1.7950    -1.1900     0.7050 H     1 <1>   0.0800 
 34 H       -1.8000    -2.4130     1.9140 H     1 <1>   0.0800 
 35 H        3.9430    -2.3250     1.2610 H     1 <1>   0.1500 
 36 H        2.5390    -3.7130     2.7270 H     1 <1>   0.1500 
 37 H       -3.9360    -1.5510     1.0540 H     1 <1>   0.0800 
 38 H       -5.1340    -2.7850     0.8660 H     1 <1>   0.0800 
 39 H       -4.7310    -4.7040    -0.7650 H     1 <1>   0.0800 
 40 H       -3.2950    -4.6870    -1.7470 H     1 <1>   0.0800 
 41 H       -5.2920    -3.9540    -3.0180 H     1 <1>   0.0800 
 42 H       -4.0560    -2.7380    -2.9620 H     1 <1>   0.0800 
 43 H       -6.2600    -1.6990    -2.5390 H     1 <1>   0.0800 
 44 H       -6.5740    -2.8410    -1.2730 H     1 <1>   0.0800 
 45 H       -4.4730    -0.1800    -2.4250 H     1 <1>   0.0800 
 46 H       -3.1500    -0.6450    -1.3990 H     1 <1>   0.0800 
 47 H       -4.3640     1.8440    -1.3500 H     1 <1>   0.0800 
 48 H       -3.5870     1.1530     0.0730 H     1 <1>   0.0800 
 49 H       -6.2020     2.7940     0.6940 H     1 <1>   0.1500 
 50 H       -9.5300     1.4660     2.8630 H     1 <1>   0.0800 
 51 H      -10.7800     0.2560     2.9640 H     1 <1>   0.0800 
 52 H      -10.6270     1.2370     1.5160 H     1 <1>   0.0800 
 53 H       -8.9800    -2.3740     1.5690 H     1 <1>   0.0800 
 54 H      -10.1510    -1.6670     0.4730 H     1 <1>   0.0800 
 55 H      -10.5170    -1.8240     2.1820 H     1 <1>   0.0800 
@<TRIPOS>BOND
  1   1   2  1   
  2   2   3  1   
  3   2   4  1   
  4   2   5  1   
  5   5   6  ar  
  6   5   7  ar  
  7   6   8  ar  
  8   6   9  1   
  9   7  10  ar  
 10   7  31  1   
 11   8  11  ar  
 12   8  32  1   
 13   9  12  1   
 14   9  33  1   
 15   9  34  1   
 16  10  11  ar  
 17  10  35  1   
 18  11  36  1   
 19  12  13  2   
 20  12  14  am  
 21  14  15  1   
 22  14  16  1   
 23  15  17  1   
 24  15  37  1   
 25  15  38  1   
 26  16  18  1   
 27  16  39  1   
 28  16  40  1   
 29  17  19  1   
 30  17  20  1   
 31  17  21  1   
 32  18  20  1   
 33  18  41  1   
 34  18  42  1   
 35  19  22  ar  
 36  19  23  ar  
 37  20  43  1   
 38  20  44  1   
 39  21  24  1   
 40  21  45  1   
 41  21  46  1   
 42  22  25  ar  
 43  23  24  1   
 44  23  26  ar  
 45  24  47  1   
 46  24  48  1   
 47  25  27  ar  
 48  25  28  1   
 49  26  27  ar  
 50  26  49  1   
 51  28  29  1   
 52  28  30  1   
 53  29  50  1   
 54  29  51  1   
 55  29  52  1   
 56  30  53  1   
 57  30  54  1   
 58  30  55  1   
@<TRIPOS>SUBSTRUCTURE
  1 ****  15 GROUP 4 **** **** 0

# MOE 2024.06 (io_trps.svl 2023.06)
