@<TRIPOS>MOLECULE
NONAME
41 43 1 0 0 
SMALL
USER_CHARGES


@<TRIPOS>ATOM
  1 O       -0.4760    -0.9970    -0.2980 O.3   1 <1>  -0.5600 
  2 C        0.4880    -1.5510     0.5510 C.3   1 <1>   0.2000 
  3 C       -1.5550    -0.3950     0.3430 C.3   1 <1>   0.0400 
  4 C        1.8550    -1.6310    -0.1680 C.3   1 <1>   0.0000 
  5 C        0.1040    -3.0140     0.8040 C.3   1 <1>  -0.1600 
  6 C        2.9400    -1.9220     0.9090 C.3   1 <1>   0.2090 
  7 C        2.2310    -0.3710    -0.9990 C.3   1 <1>  -0.1600 
  8 C        1.6610    -2.8500    -1.0860 C.3   1 <1>  -0.1600 
  9 C        0.7650    -3.8300    -0.3170 C.3   1 <1>  -0.1600 
 10 N        4.3220    -1.5610     0.4430 N.pl3 1 <1>  -0.8380 
 11 C        3.1410     0.5780    -0.2080 C.3   1 <1>  -0.1600 
 12 C        5.3480    -2.4510     0.3140 C.ar  1 <1>   0.1000 
 13 C        4.4770    -0.0980     0.1380 C.3   1 <1>   0.2090 
 14 C        6.6880    -2.0350     0.3600 C.ar  1 <1>  -0.1500 
 15 C        5.1370    -3.8260     0.1270 C.ar  1 <1>  -0.1500 
 16 C        7.7180    -2.9280     0.2270 C.ar  1 <1>   0.2110 
 17 C        6.1850    -4.6980    -0.0030 C.ar  1 <1>   0.2110 
 18 N        7.4630    -4.2470     0.0470 N.ar  1 <1>  -0.1790 
 19 H        0.5410    -0.9660     1.4540 H     1 <1>   0.0800 
 20 H       -2.2360    -0.0420    -0.4110 H     1 <1>   0.0800 
 21 H       -1.2000     0.4370     0.9270 H     1 <1>   0.0800 
 22 H       -2.0510    -1.1140     0.9700 H     1 <1>   0.0800 
 23 H        0.5020    -3.3260     1.7520 H     1 <1>   0.0800 
 24 H       -0.9620    -3.1560     0.8210 H     1 <1>   0.0800 
 25 H        2.8950    -2.9450     1.2310 H     1 <1>   0.0800 
 26 H        2.7340    -1.3240     1.7800 H     1 <1>   0.0800 
 27 H        2.7710    -0.6800    -1.8780 H     1 <1>   0.0800 
 28 H        1.3600     0.1570    -1.3410 H     1 <1>   0.0800 
 29 H        1.1320    -2.5360    -1.9700 H     1 <1>   0.0800 
 30 H        2.5930    -3.2880    -1.3920 H     1 <1>   0.0800 
 31 H        1.3440    -4.6350     0.1010 H     1 <1>   0.0800 
 32 H        0.0200    -4.2420    -0.9770 H     1 <1>   0.0800 
 33 H        2.6460     0.8880     0.6950 H     1 <1>   0.0800 
 34 H        3.3360     1.4640    -0.7860 H     1 <1>   0.0800 
 35 H        4.9240     0.4010     0.9800 H     1 <1>   0.0800 
 36 H        5.1360     0.0060    -0.7070 H     1 <1>   0.0800 
 37 H        6.9080    -0.9940     0.5120 H     1 <1>   0.1500 
 38 H        4.1340    -4.2020     0.0720 H     1 <1>   0.1500 
 39 H        8.7440    -2.5970     0.2650 H     1 <1>   0.1500 
 40 H        6.0110    -5.7520    -0.1490 H     1 <1>   0.1500 
 41 H        8.2420    -4.9090    -0.0510 H     1 <1>   0.4570 
@<TRIPOS>BOND
  1   1   2  1   
  2   1   3  1   
  3   2   4  1   
  4   2   5  1   
  5   2  19  1   
  6   3  20  1   
  7   3  21  1   
  8   3  22  1   
  9   4   6  1   
 10   4   7  1   
 11   4   8  1   
 12   5   9  1   
 13   5  23  1   
 14   5  24  1   
 15   6  10  1   
 16   6  25  1   
 17   6  26  1   
 18   7  11  1   
 19   7  27  1   
 20   7  28  1   
 21   8   9  1   
 22   8  29  1   
 23   8  30  1   
 24   9  31  1   
 25   9  32  1   
 26  10  12  1   
 27  10  13  1   
 28  11  13  1   
 29  11  33  1   
 30  11  34  1   
 31  12  14  ar  
 32  12  15  ar  
 33  13  35  1   
 34  13  36  1   
 35  14  16  ar  
 36  14  37  1   
 37  15  17  ar  
 38  15  38  1   
 39  16  18  ar  
 40  16  39  1   
 41  17  18  ar  
 42  17  40  1   
 43  18  41  1   
@<TRIPOS>SUBSTRUCTURE
  1 ****   6 GROUP 4 **** **** 0

# MOE 2024.06 (io_trps.svl 2023.06)
