@<TRIPOS>MOLECULE
NONAME
57 61 1 0 0 
SMALL
USER_CHARGES


@<TRIPOS>ATOM
  1 O        0.8930    -0.7540    -2.8830 O.2   1 <1>  -0.5700 
  2 C        0.9700    -1.6060    -2.0320 C.2   1 <1>   0.5690 
  3 N        1.4880    -1.3160    -0.7960 N.am  1 <1>  -0.6600 
  4 C        0.4720    -2.9790    -2.4360 C.3   1 <1>  -0.0990 
  5 C        1.6410    -2.2730     0.3530 C.3   1 <1>   0.1400 
  6 C        2.0550     0.0520    -0.5410 C.3   1 <1>   0.3200 
  7 C        0.1020    -3.9200    -1.2950 C.3   1 <1>   0.1200 
  8 C        2.1590    -3.6980     0.0040 C.3   1 <1>   0.2800 
  9 C        3.5750     0.0230    -0.4490 C.2   1 <1>   0.2980 
 10 O        1.2480    -4.4760    -0.7280 O.3   1 <1>  -0.5600 
 11 C        3.4550    -3.6600    -0.8370 C.3   1 <1>  -0.1600 
 12 C        2.3750    -4.4800     1.3200 C.3   1 <1>  -0.1600 
 13 O        4.2660    -0.2950    -1.5150 O.3   1 <1>  -0.0190 
 14 N        4.2630     0.2680     0.5960 N.2   1 <1>  -0.5650 
 15 C        4.7030    -3.4940     0.0320 C.3   1 <1>   0.1400 
 16 C        3.5810    -5.4170     1.2550 C.3   1 <1>   0.1400 
 17 N        5.5010    -0.2520    -1.1130 N.2   1 <1>  -0.4100 
 18 C        5.4820     0.0880     0.1120 C.2   1 <1>   0.3350 
 19 N        4.8130    -4.5940     1.0390 N.am  1 <1>  -0.6600 
 20 C        6.7000     0.2780     0.9830 C.3   1 <1>  -0.0590 
 21 C        5.9080    -4.7190     1.8760 C.2   1 <1>   0.5440 
 22 O        5.8920    -5.5670     2.7490 O.2   1 <1>  -0.5700 
 23 C        7.0600    -3.8430     1.7790 C.ar  1 <1>   0.0860 
 24 C        7.8310    -3.7580     0.6140 C.ar  1 <1>  -0.1500 
 25 C        7.4330    -3.0530     2.8730 C.ar  1 <1>  -0.1500 
 26 C        8.8940    -2.8810     0.5520 C.ar  1 <1>  -0.1440 
 27 C        8.5090    -2.1830     2.8120 C.ar  1 <1>  -0.1500 
 28 C        9.2210    -2.1050     1.6310 C.ar  1 <1>   0.0820 
 29 C        9.8510    -2.5770    -0.5630 C.3   1 <1>  -0.0170 
 30 O       10.2650    -1.3010     1.3990 O.3   1 <1>  -0.3620 
 31 C       10.7580    -1.5130     0.0830 C.3   1 <1>   0.1200 
 32 H        1.2040    -3.4480    -3.0660 H     1 <1>   0.0800 
 33 H       -0.4090    -2.8280    -3.0310 H     1 <1>   0.0800 
 34 H        0.7090    -2.3460     0.8830 H     1 <1>   0.0800 
 35 H        2.3450    -1.8470     1.0470 H     1 <1>   0.0800 
 36 H        1.6570     0.4280     0.3840 H     1 <1>   0.0800 
 37 H        1.7740     0.7430    -1.3150 H     1 <1>   0.0800 
 38 H       -0.4690    -4.7420    -1.6910 H     1 <1>   0.0800 
 39 H       -0.4950    -3.4390    -0.5400 H     1 <1>   0.0800 
 40 H        3.4280    -2.8680    -1.5590 H     1 <1>   0.0800 
 41 H        3.5570    -4.5780    -1.3870 H     1 <1>   0.0800 
 42 H        1.4920    -5.0440     1.5630 H     1 <1>   0.0800 
 43 H        2.5530    -3.8060     2.1390 H     1 <1>   0.0800 
 44 H        4.6670    -2.5510     0.5490 H     1 <1>   0.0800 
 45 H        5.5630    -3.4920    -0.6110 H     1 <1>   0.0800 
 46 H        3.4680    -6.1180     0.4450 H     1 <1>   0.0800 
 47 H        3.6470    -5.9780     2.1710 H     1 <1>   0.0800 
 48 H        6.6060    -0.3240     1.8660 H     1 <1>   0.0800 
 49 H        6.7820     1.3090     1.2670 H     1 <1>   0.0800 
 50 H        7.5860    -0.0130     0.4490 H     1 <1>   0.0800 
 51 H        7.5910    -4.3810    -0.2290 H     1 <1>   0.1500 
 52 H        6.8640    -3.1340     3.7830 H     1 <1>   0.1500 
 53 H        8.7950    -1.5770     3.6530 H     1 <1>   0.1500 
 54 H        9.3380    -2.1780    -1.4200 H     1 <1>   0.0800 
 55 H       10.4160    -3.4470    -0.8430 H     1 <1>   0.0800 
 56 H       10.7140    -0.5780    -0.4480 H     1 <1>   0.0800 
 57 H       11.7750    -1.8530     0.1580 H     1 <1>   0.0800 
@<TRIPOS>BOND
  1   1   2  2   
  2   2   3  am  
  3   2   4  1   
  4   3   5  1   
  5   3   6  1   
  6   4   7  1   
  7   4  32  1   
  8   4  33  1   
  9   5   8  1   
 10   5  34  1   
 11   5  35  1   
 12   6   9  1   
 13   6  36  1   
 14   6  37  1   
 15   7  10  1   
 16   7  38  1   
 17   7  39  1   
 18   8  10  1   
 19   8  11  1   
 20   8  12  1   
 21   9  13  1   
 22   9  14  2   
 23  11  15  1   
 24  11  40  1   
 25  11  41  1   
 26  12  16  1   
 27  12  42  1   
 28  12  43  1   
 29  13  17  1   
 30  14  18  1   
 31  15  19  1   
 32  15  44  1   
 33  15  45  1   
 34  16  19  1   
 35  16  46  1   
 36  16  47  1   
 37  17  18  2   
 38  18  20  1   
 39  19  21  am  
 40  20  48  1   
 41  20  49  1   
 42  20  50  1   
 43  21  22  2   
 44  21  23  1   
 45  23  24  ar  
 46  23  25  ar  
 47  24  26  ar  
 48  24  51  1   
 49  25  27  ar  
 50  25  52  1   
 51  26  28  ar  
 52  26  29  1   
 53  27  28  ar  
 54  27  53  1   
 55  28  30  1   
 56  29  31  1   
 57  29  54  1   
 58  29  55  1   
 59  30  31  1   
 60  31  56  1   
 61  31  57  1   
@<TRIPOS>SUBSTRUCTURE
  1 ****  15 GROUP 4 **** **** 0

# MOE 2024.06 (io_trps.svl 2023.06)
