@<TRIPOS>MOLECULE
NONAME
34 35 1 0 0 
SMALL
USER_CHARGES


@<TRIPOS>ATOM
  1 F        0.1130     1.4030    -0.9960 F     1 <1>  -0.3400 
  2 C       -0.3120     1.7910     0.2070 C.3   1 <1>   0.9600 
  3 F       -0.8790     2.9770    -0.0020 F     1 <1>  -0.3400 
  4 O        0.8140     2.0310     1.0530 O.3   1 <1>  -0.3630 
  5 C       -1.3810     0.8020     0.7560 C.3   1 <1>   0.6000 
  6 C        1.9630     1.3390     0.8850 C.ar  1 <1>   0.0830 
  7 F       -1.7070     1.0630     2.0250 F     1 <1>  -0.3400 
  8 F       -0.9580    -0.4640     0.7790 F     1 <1>  -0.3400 
  9 C        3.0510     1.9340     0.2330 C.ar  1 <1>   0.0860 
 10 C        2.0620     0.0590     1.4130 C.ar  1 <1>  -0.1500 
 11 C        3.0050     3.2870    -0.2740 C.2   1 <1>   0.5440 
 12 C        4.2160     1.1770     0.0980 C.ar  1 <1>  -0.1500 
 13 C        3.2290    -0.6660     1.2670 C.ar  1 <1>  -0.1500 
 14 O        2.1660     3.6420    -1.0780 O.2   1 <1>  -0.5700 
 15 N        3.9360     4.1960     0.1310 N.am  1 <1>  -0.7300 
 16 C        4.3070    -0.1060     0.6040 C.ar  1 <1>  -0.1500 
 17 C        4.0880     5.5600    -0.4430 C.3   1 <1>   0.2810 
 18 C        5.3610     6.2700     0.0040 C.2   1 <1>   0.5690 
 19 C        2.9770     6.4980     0.0670 C.3   1 <1>  -0.1600 
 20 O        6.4650     5.7810    -0.0050 O.2   1 <1>  -0.5700 
 21 N        5.0840     7.5060     0.4480 N.am  1 <1>  -0.7300 
 22 C        3.6520     7.8300     0.4370 C.3   1 <1>   0.1400 
 23 H       -2.2820     0.8310     0.1730 H     1 <1>   0.0800 
 24 H        1.2360    -0.3740     1.9470 H     1 <1>   0.1500 
 25 H        5.0600     1.6050    -0.4150 H     1 <1>   0.1500 
 26 H        3.3010    -1.6630     1.6690 H     1 <1>   0.1500 
 27 H        4.7100     3.9070     0.7350 H     1 <1>   0.3700 
 28 H        5.2160    -0.6720     0.4850 H     1 <1>   0.1500 
 29 H        4.0770     5.5100    -1.5180 H     1 <1>   0.0800 
 30 H        2.5140     6.0850     0.9450 H     1 <1>   0.0800 
 31 H        2.2220     6.6410    -0.6840 H     1 <1>   0.0800 
 32 H        5.8030     8.1320     0.8170 H     1 <1>   0.3700 
 33 H        3.3320     8.1750     1.4060 H     1 <1>   0.0800 
 34 H        3.4560     8.5840    -0.3070 H     1 <1>   0.0800 
@<TRIPOS>BOND
  1   1   2  1   
  2   2   3  1   
  3   2   4  1   
  4   2   5  1   
  5   4   6  1   
  6   5   7  1   
  7   5   8  1   
  8   5  23  1   
  9   6   9  ar  
 10   6  10  ar  
 11   9  11  1   
 12   9  12  ar  
 13  10  13  ar  
 14  10  24  1   
 15  11  14  2   
 16  11  15  am  
 17  12  16  ar  
 18  12  25  1   
 19  13  16  ar  
 20  13  26  1   
 21  15  17  1   
 22  15  27  1   
 23  16  28  1   
 24  17  18  1   
 25  17  19  1   
 26  17  29  1   
 27  18  20  2   
 28  18  21  am  
 29  19  22  1   
 30  19  30  1   
 31  19  31  1   
 32  21  22  1   
 33  21  32  1   
 34  22  33  1   
 35  22  34  1   
@<TRIPOS>SUBSTRUCTURE
  1 ****  11 GROUP 4 **** **** 0

# MOE 2024.06 (io_trps.svl 2023.06)
