@<TRIPOS>MOLECULE
NONAME
46 48 1 0 0 
SMALL
USER_CHARGES


@<TRIPOS>ATOM
  1 S       -0.8790     0.7060     1.2550 S.o2  1 <1>   1.5000 
  2 O       -1.5240     1.9580     1.5930 O.2   1 <1>  -0.6500 
  3 O       -0.8360    -0.3190     2.2730 O.2   1 <1>  -0.6500 
  4 N       -1.6840     0.1080    -0.1160 N.am  1 <1>  -0.8490 
  5 C        0.8020     1.0660     0.6880 C.2   1 <1>  -0.0220 
  6 C       -1.0490    -0.9440    -0.9470 C.3   1 <1>   0.1960 
  7 C       -3.1390     0.0250    -0.0160 C.3   1 <1>   0.1960 
  8 S        1.0040     2.0890    -0.7330 S.3   1 <1>  -0.0800 
  9 C        2.0180     0.6980     1.1440 C.2   1 <1>  -0.1500 
 10 C       -1.4980    -2.3990    -0.6620 C.3   1 <1>  -0.1060 
 11 C       -3.5950    -1.3730     0.3960 C.3   1 <1>  -0.1600 
 12 C        2.7530     1.9580    -0.6680 C.2   1 <1>  -0.1400 
 13 C        3.1200     1.1960     0.3790 C.2   1 <1>  -0.1500 
 14 C       -1.1220    -3.2610    -1.8690 C.2   1 <1>   0.9060 
 15 C       -3.0390    -2.3970    -0.5910 C.3   1 <1>   0.2000 
 16 C       -0.8490    -3.0240     0.6100 C.3   1 <1>  -0.0650 
 17 C        3.5230     2.6850    -1.7550 C.3   1 <1>   0.0200 
 18 O       -0.3800    -2.8110    -2.7500 O.co2 1 <1>  -0.9000 
 19 O       -1.6120    -4.3980    -1.9580 O.co2 1 <1>  -0.9000 
 20 O       -3.5100    -3.6470    -0.2430 O.3   1 <1>  -0.6800 
 21 C        0.6820    -2.9090     0.6790 C.3   1 <1>  -0.1950 
 22 C        5.0330     2.4630    -1.6400 C.3   1 <1>  -0.2400 
 23 C        1.5640    -3.8400    -0.0880 C.3   1 <1>  -0.2000 
 24 C        1.4840    -3.9390     1.4090 C.3   1 <1>  -0.2000 
 25 H       -1.3190    -0.7200    -1.9660 H     1 <1>   0.0800 
 26 H        0.0230    -0.8720    -0.9130 H     1 <1>   0.0800 
 27 H       -3.5120     0.7550     0.6820 H     1 <1>   0.0800 
 28 H       -3.5570     0.2560    -0.9810 H     1 <1>   0.0800 
 29 H        2.1830     0.0730     2.0050 H     1 <1>   0.1500 
 30 H       -4.6680    -1.4100     0.3760 H     1 <1>   0.0800 
 31 H       -3.2680    -1.5820     1.3980 H     1 <1>   0.0800 
 32 H        4.1310     0.9510     0.6540 H     1 <1>   0.1500 
 33 H       -3.4300    -2.1840    -1.5730 H     1 <1>   0.0800 
 34 H       -1.2640    -2.5910     1.4980 H     1 <1>   0.0800 
 35 H       -1.1060    -4.0690     0.6430 H     1 <1>   0.0800 
 36 H        3.1840     2.3320    -2.7140 H     1 <1>   0.0800 
 37 H        3.3080     3.7370    -1.6930 H     1 <1>   0.0800 
 38 H       -2.9950    -4.2850    -0.8160 H     1 <1>   0.4000 
 39 H        1.0160    -1.8960     0.7940 H     1 <1>   0.1000 
 40 H        5.2610     1.4150    -1.7180 H     1 <1>   0.0800 
 41 H        5.3920     2.8300    -0.6940 H     1 <1>   0.0800 
 42 H        5.5420     2.9860    -2.4290 H     1 <1>   0.0800 
 43 H        1.0950    -4.5970    -0.6960 H     1 <1>   0.1000 
 44 H        2.4360    -3.4240    -0.5600 H     1 <1>   0.1000 
 45 H        2.3260    -3.6190     1.9950 H     1 <1>   0.1000 
 46 H        0.9790    -4.7880     1.8360 H     1 <1>   0.1000 
@<TRIPOS>BOND
  1   1   2  2   
  2   1   3  2   
  3   1   4  am  
  4   1   5  1   
  5   4   6  1   
  6   4   7  1   
  7   5   8  1   
  8   5   9  2   
  9   6  10  1   
 10   6  25  1   
 11   6  26  1   
 12   7  11  1   
 13   7  27  1   
 14   7  28  1   
 15   8  12  1   
 16   9  13  1   
 17   9  29  1   
 18  10  14  1   
 19  10  15  1   
 20  10  16  1   
 21  11  15  1   
 22  11  30  1   
 23  11  31  1   
 24  12  13  2   
 25  12  17  1   
 26  13  32  1   
 27  14  18  ar  
 28  14  19  ar  
 29  15  20  1   
 30  15  33  1   
 31  16  21  1   
 32  16  34  1   
 33  16  35  1   
 34  17  22  1   
 35  17  36  1   
 36  17  37  1   
 37  20  38  1   
 38  21  23  1   
 39  21  24  1   
 40  21  39  1   
 41  22  40  1   
 42  22  41  1   
 43  22  42  1   
 44  23  24  1   
 45  23  43  1   
 46  23  44  1   
 47  24  45  1   
 48  24  46  1   
@<TRIPOS>SUBSTRUCTURE
  1 ****   6 GROUP 4 **** **** 0

# MOE 2024.06 (io_trps.svl 2023.06)
