@<TRIPOS>MOLECULE
NONAME
52 55 1 0 0 
SMALL
USER_CHARGES


@<TRIPOS>ATOM
  1 O        0.1690    -0.1830    -1.2260 O.3   1 <1>  -0.5600 
  2 C        1.4590    -0.7360    -1.2030 C.3   1 <1>   0.3440 
  3 C        0.1520     1.1900    -1.4900 C.3   1 <1>   0.1200 
  4 C        1.3820    -2.2320    -0.9060 C.ar  1 <1>  -0.1440 
  5 C        2.3140    -0.0210    -0.1350 C.3   1 <1>   0.1100 
  6 C        0.9540     1.9550    -0.4220 C.3   1 <1>   0.1100 
  7 C        0.3460    -2.7930    -0.2030 C.ar  1 <1>  -0.1500 
  8 C        2.4220    -3.0600    -1.3570 C.ar  1 <1>  -0.1500 
  9 N        2.3410     1.4470    -0.3310 N.3   1 <1>  -0.8100 
 10 C        0.2990    -4.1710     0.0820 C.ar  1 <1>   0.0000 
 11 C        2.4050    -4.4020    -1.0950 C.ar  1 <1>  -0.1500 
 12 C        3.1010     2.1060     0.7400 C.3   1 <1>   0.2530 
 13 C        1.3520    -4.9940    -0.3700 C.ar  1 <1>   0.0000 
 14 C       -0.7580    -4.7630     0.8030 C.ar  1 <1>  -0.1500 
 15 C        3.2780     3.5840     0.4430 C.ar  1 <1>  -0.1430 
 16 C        1.3090    -6.3700    -0.0790 C.ar  1 <1>  -0.1500 
 17 C       -0.7770    -6.1030     1.0730 C.ar  1 <1>  -0.1500 
 18 C        2.9910     4.5500     1.3780 C.ar  1 <1>   0.1600 
 19 C        3.7360     4.0200    -0.7790 C.ar  1 <1>   0.1600 
 20 C        0.2750    -6.9260     0.6250 C.ar  1 <1>   0.0830 
 21 N        3.1410     5.8320     1.1320 N.ar  1 <1>  -0.6200 
 22 N        3.8990     5.2960    -1.0540 N.ar  1 <1>  -0.6200 
 23 O        0.3210    -8.2610     0.8580 O.3   1 <1>  -0.3620 
 24 C        3.5920     6.1340    -0.0760 C.ar  1 <1>   0.4770 
 25 C       -0.6990    -8.9260     1.5680 C.3   1 <1>   0.0400 
 26 C        3.7780     7.6120    -0.3750 C.3   1 <1>  -0.0170 
 27 C        5.1860     8.1050    -0.0080 C.3   1 <1>  -0.2400 
 28 H        1.8950    -0.5880    -2.1760 H     1 <1>   0.0800 
 29 H       -0.8730     1.5130    -1.4880 H     1 <1>   0.0800 
 30 H        0.5670     1.3610    -2.4690 H     1 <1>   0.0800 
 31 H        3.3170    -0.4060    -0.1830 H     1 <1>   0.0800 
 32 H        1.9120    -0.2580     0.8350 H     1 <1>   0.0800 
 33 H        0.4560     1.8520     0.5270 H     1 <1>   0.0800 
 34 H        0.9640     3.0000    -0.6830 H     1 <1>   0.0800 
 35 H       -0.4630    -2.1780     0.1490 H     1 <1>   0.1500 
 36 H        3.2360    -2.6300    -1.9140 H     1 <1>   0.1500 
 37 H        3.2020    -5.0350    -1.4420 H     1 <1>   0.1500 
 38 H        4.0760     1.6550     0.8130 H     1 <1>   0.0800 
 39 H        2.5960     1.9700     1.6820 H     1 <1>   0.0800 
 40 H       -1.5580    -4.1290     1.1410 H     1 <1>   0.1500 
 41 H        2.1100    -6.9970    -0.4220 H     1 <1>   0.1500 
 42 H       -1.5970    -6.5180     1.6250 H     1 <1>   0.1500 
 43 H        2.6280     4.2710     2.3520 H     1 <1>   0.1500 
 44 H        3.9680     3.3020    -1.5480 H     1 <1>   0.1500 
 45 H       -0.4430    -9.9690     1.6210 H     1 <1>   0.0800 
 46 H       -1.6280    -8.8040     1.0400 H     1 <1>   0.0800 
 47 H       -0.7600    -8.5140     2.5600 H     1 <1>   0.0800 
 48 H        3.0460     8.1740     0.1750 H     1 <1>   0.0800 
 49 H        3.6020     7.7810    -1.4220 H     1 <1>   0.0800 
 50 H        5.3650     7.9540     1.0430 H     1 <1>   0.0800 
 51 H        5.2840     9.1520    -0.2320 H     1 <1>   0.0800 
 52 H        5.9240     7.5570    -0.5660 H     1 <1>   0.0800 
@<TRIPOS>BOND
  1   1   2  1   
  2   1   3  1   
  3   2   4  1   
  4   2   5  1   
  5   2  28  1   
  6   3   6  1   
  7   3  29  1   
  8   3  30  1   
  9   4   7  ar  
 10   4   8  ar  
 11   5   9  1   
 12   5  31  1   
 13   5  32  1   
 14   6   9  1   
 15   6  33  1   
 16   6  34  1   
 17   7  10  ar  
 18   7  35  1   
 19   8  11  ar  
 20   8  36  1   
 21   9  12  1   
 22  10  13  ar  
 23  10  14  ar  
 24  11  13  ar  
 25  11  37  1   
 26  12  15  1   
 27  12  38  1   
 28  12  39  1   
 29  13  16  ar  
 30  14  17  ar  
 31  14  40  1   
 32  15  18  ar  
 33  15  19  ar  
 34  16  20  ar  
 35  16  41  1   
 36  17  20  ar  
 37  17  42  1   
 38  18  21  ar  
 39  18  43  1   
 40  19  22  ar  
 41  19  44  1   
 42  20  23  1   
 43  21  24  ar  
 44  22  24  ar  
 45  23  25  1   
 46  24  26  1   
 47  25  45  1   
 48  25  46  1   
 49  25  47  1   
 50  26  27  1   
 51  26  48  1   
 52  26  49  1   
 53  27  50  1   
 54  27  51  1   
 55  27  52  1   
@<TRIPOS>SUBSTRUCTURE
  1 ****   5 GROUP 4 **** **** 0

# MOE 2024.06 (io_trps.svl 2023.06)
