@<TRIPOS>MOLECULE
NONAME
42 44 1 0 0 
SMALL
USER_CHARGES


@<TRIPOS>ATOM
  1 CL      -2.8750    -0.2200    -1.8440 Cl    1 <1>  -0.1230 
  2 C       -2.4720    -1.7240    -1.0340 C.2   1 <1>   0.1230 
  3 C       -1.8360    -1.8420     0.1920 C.2   1 <1>   0.1390 
  4 C       -2.7100    -2.9770    -1.4620 C.2   1 <1>  -0.3020 
  5 N       -1.6810    -3.0920     0.5210 N.2   1 <1>  -0.7070 
  6 N       -2.2210    -3.7930    -0.5040 N.pl3 1 <1>   0.3140 
  7 C       -2.2440    -5.2630    -0.5040 C.3   1 <1>   0.0960 
  8 C       -3.1730    -5.7610     0.6050 C.3   1 <1>   0.1400 
  9 N       -3.1940    -7.2460     0.6390 N.am  1 <1>  -0.7300 
 10 C       -3.8110    -8.0210    -0.2860 C.2   1 <1>   0.5690 
 11 O       -4.3450    -7.5460    -1.2580 O.2   1 <1>  -0.5700 
 12 C       -3.8210    -9.5200    -0.0960 C.3   1 <1>  -0.0990 
 13 C       -5.2340   -10.0770    -0.2640 C.3   1 <1>   0.0700 
 14 S       -5.1740   -11.8860     0.0970 S.3   1 <1>  -0.3310 
 15 C       -6.8550   -12.5070    -0.1030 C.ar  1 <1>   0.1010 
 16 C       -7.0620   -13.8470     0.1690 C.ar  1 <1>  -0.1500 
 17 C       -7.9000   -11.6870    -0.5090 C.ar  1 <1>  -0.1500 
 18 C       -8.3320   -14.3780     0.0370 C.ar  1 <1>   0.0830 
 19 C       -9.1710   -12.2230    -0.6460 C.ar  1 <1>  -0.1500 
 20 O       -8.5280   -15.6910     0.3250 O.3   1 <1>  -0.3620 
 21 C       -9.3900   -13.5650    -0.3800 C.ar  1 <1>   0.0830 
 22 C       -9.8670   -16.1170     0.4900 C.3   1 <1>   0.1200 
 23 O      -10.6420   -14.0670    -0.5390 O.3   1 <1>  -0.3630 
 24 C      -10.7640   -15.4760    -0.5780 C.3   1 <1>   0.1200 
 25 H       -1.5130    -1.0110     0.7940 H     1 <1>   0.1500 
 26 H       -3.1850    -3.3200    -2.3630 H     1 <1>   0.1500 
 27 H       -1.2440    -5.6150    -0.3350 H     1 <1>   0.0800 
 28 H       -2.5900    -5.6050    -1.4620 H     1 <1>   0.0800 
 29 H       -4.1720    -5.4000     0.4230 H     1 <1>   0.0800 
 30 H       -2.8370    -5.3880     1.5580 H     1 <1>   0.0800 
 31 H       -2.7410    -7.6780     1.4480 H     1 <1>   0.3700 
 32 H       -3.4550    -9.7660     0.8840 H     1 <1>   0.0800 
 33 H       -3.1720    -9.9640    -0.8280 H     1 <1>   0.0800 
 34 H       -5.5860    -9.9540    -1.2740 H     1 <1>   0.0800 
 35 H       -5.9210    -9.6300     0.4330 H     1 <1>   0.0800 
 36 H       -6.2470   -14.4710     0.4840 H     1 <1>   0.1500 
 37 H       -7.7480   -10.6480    -0.7220 H     1 <1>   0.1500 
 38 H       -9.9950   -11.6080    -0.9610 H     1 <1>   0.1500 
 39 H      -10.1910   -15.8280     1.4740 H     1 <1>   0.0800 
 40 H       -9.8850   -17.1890     0.4120 H     1 <1>   0.0800 
 41 H      -11.7960   -15.7240    -0.4090 H     1 <1>   0.0800 
 42 H      -10.4750   -15.8100    -1.5590 H     1 <1>   0.0800 
@<TRIPOS>BOND
  1   1   2  1   
  2   2   3  1   
  3   2   4  2   
  4   3   5  2   
  5   3  25  1   
  6   4   6  1   
  7   4  26  1   
  8   5   6  1   
  9   6   7  1   
 10   7   8  1   
 11   7  27  1   
 12   7  28  1   
 13   8   9  1   
 14   8  29  1   
 15   8  30  1   
 16   9  10  am  
 17   9  31  1   
 18  10  11  2   
 19  10  12  1   
 20  12  13  1   
 21  12  32  1   
 22  12  33  1   
 23  13  14  1   
 24  13  34  1   
 25  13  35  1   
 26  14  15  1   
 27  15  16  ar  
 28  15  17  ar  
 29  16  18  ar  
 30  16  36  1   
 31  17  19  ar  
 32  17  37  1   
 33  18  20  1   
 34  18  21  ar  
 35  19  21  ar  
 36  19  38  1   
 37  20  22  1   
 38  21  23  1   
 39  22  24  1   
 40  22  39  1   
 41  22  40  1   
 42  23  24  1   
 43  24  41  1   
 44  24  42  1   
@<TRIPOS>SUBSTRUCTURE
  1 ****  13 GROUP 4 **** **** 0

# MOE 2024.06 (io_trps.svl 2023.06)
