@<TRIPOS>MOLECULE
NONAME
58 62 1 0 0 
SMALL
USER_CHARGES


@<TRIPOS>ATOM
  1 O       -0.2550    -1.0460     1.9760 O.2   1 <1>  -0.5700 
  2 C        0.2730    -2.0710     1.6170 C.2   1 <1>   0.5690 
  3 N        1.6040    -2.2900     1.8600 N.am  1 <1>  -0.6600 
  4 C       -0.6540    -3.0580     0.9260 C.3   1 <1>  -0.0990 
  5 C        2.3070    -3.5940     1.6390 C.3   1 <1>   0.1400 
  6 C        2.4240    -1.2210     2.5380 C.3   1 <1>   0.3210 
  7 C       -0.1170    -4.4420     0.5670 C.3   1 <1>   0.1200 
  8 C        2.2530    -4.1520     0.1880 C.3   1 <1>   0.2800 
  9 C        3.7250    -0.8900     1.8050 C.2   1 <1>   0.3350 
 10 O        0.9510    -4.3040    -0.3120 O.3   1 <1>  -0.5600 
 11 C        2.9400    -3.2040    -0.8190 C.3   1 <1>  -0.1600 
 12 C        2.8950    -5.5550     0.1740 C.3   1 <1>  -0.1600 
 13 N        4.8550    -1.4270     2.0550 N.2   1 <1>  -0.4100 
 14 N        3.7750     0.0030     0.8250 N.2   1 <1>  -0.5650 
 15 C        4.4340    -3.4880    -0.9730 C.3   1 <1>   0.1400 
 16 C        3.5560    -5.8700    -1.1660 C.3   1 <1>   0.1400 
 17 O        5.7130    -0.9120     1.2290 O.3   1 <1>  -0.0190 
 18 C        5.0100    -0.0640     0.5220 C.2   1 <1>   0.3930 
 19 N        4.6660    -4.8980    -1.4170 N.am  1 <1>  -0.6600 
 20 C        5.7140     0.7390    -0.5620 C.3   1 <1>  -0.0150 
 21 C        5.8360    -5.3250    -2.0010 C.2   1 <1>   0.5690 
 22 C        4.9590     1.6270    -1.5090 C.3   1 <1>  -0.2000 
 23 C        5.5680     0.3510    -2.0030 C.3   1 <1>  -0.2000 
 24 O        6.0290    -6.4940    -2.2440 O.2   1 <1>  -0.5700 
 25 C        6.9410    -4.3530    -2.3990 C.3   1 <1>   0.0440 
 26 C        7.5450    -3.5540    -1.2450 C.ar  1 <1>  -0.1440 
 27 C        7.8820    -2.2200    -1.4230 C.ar  1 <1>   0.1600 
 28 C        7.7730    -4.1350    -0.0130 C.ar  1 <1>  -0.1500 
 29 N        8.3980    -1.4320    -0.4940 N.ar  1 <1>  -0.6200 
 30 C        8.3150    -3.3320     0.9670 C.ar  1 <1>  -0.1500 
 31 C        8.6040    -2.0090     0.6790 C.ar  1 <1>   0.1600 
 32 H       -1.0060    -2.5930     0.0240 H     1 <1>   0.0800 
 33 H       -1.5090    -3.1900     1.5610 H     1 <1>   0.0800 
 34 H        1.9120    -4.3190     2.3270 H     1 <1>   0.0800 
 35 H        3.3430    -3.4900     1.9020 H     1 <1>   0.0800 
 36 H        2.6650    -1.5540     3.5310 H     1 <1>   0.0800 
 37 H        1.8640    -0.3090     2.6320 H     1 <1>   0.0800 
 38 H       -0.8820    -4.9870     0.0410 H     1 <1>   0.0800 
 39 H        0.1660    -5.0220     1.4270 H     1 <1>   0.0800 
 40 H        2.7960    -2.1820    -0.5300 H     1 <1>   0.0800 
 41 H        2.4900    -3.3170    -1.7900 H     1 <1>   0.0800 
 42 H        2.1570    -6.3020     0.4000 H     1 <1>   0.0800 
 43 H        3.6620    -5.6240     0.9250 H     1 <1>   0.0800 
 44 H        4.9330    -3.3300    -0.0310 H     1 <1>   0.0800 
 45 H        4.8460    -2.8030    -1.6920 H     1 <1>   0.0800 
 46 H        2.8320    -5.7990    -1.9600 H     1 <1>   0.0800 
 47 H        3.9350    -6.8780    -1.1470 H     1 <1>   0.0800 
 48 H        6.6840     1.0750    -0.2400 H     1 <1>   0.1000 
 49 H        5.4030     2.5640    -1.7960 H     1 <1>   0.1000 
 50 H        3.8890     1.6890    -1.4140 H     1 <1>   0.1000 
 51 H        4.9060    -0.4540    -2.2660 H     1 <1>   0.1000 
 52 H        6.4360     0.4030    -2.6370 H     1 <1>   0.1000 
 53 H        6.5410    -3.6890    -3.1410 H     1 <1>   0.0800 
 54 H        7.7310    -4.9120    -2.8670 H     1 <1>   0.0800 
 55 H        7.7190    -1.7700    -2.3880 H     1 <1>   0.1500 
 56 H        7.5400    -5.1690     0.1810 H     1 <1>   0.1500 
 57 H        8.5130    -3.7250     1.9470 H     1 <1>   0.1500 
 58 H        9.0260    -1.3940     1.4560 H     1 <1>   0.1500 
@<TRIPOS>BOND
  1   1   2  2   
  2   2   3  am  
  3   2   4  1   
  4   3   5  1   
  5   3   6  1   
  6   4   7  1   
  7   4  32  1   
  8   4  33  1   
  9   5   8  1   
 10   5  34  1   
 11   5  35  1   
 12   6   9  1   
 13   6  36  1   
 14   6  37  1   
 15   7  10  1   
 16   7  38  1   
 17   7  39  1   
 18   8  10  1   
 19   8  11  1   
 20   8  12  1   
 21   9  13  2   
 22   9  14  1   
 23  11  15  1   
 24  11  40  1   
 25  11  41  1   
 26  12  16  1   
 27  12  42  1   
 28  12  43  1   
 29  13  17  1   
 30  14  18  2   
 31  15  19  1   
 32  15  44  1   
 33  15  45  1   
 34  16  19  1   
 35  16  46  1   
 36  16  47  1   
 37  17  18  1   
 38  18  20  1   
 39  19  21  am  
 40  20  22  1   
 41  20  23  1   
 42  20  48  1   
 43  21  24  2   
 44  21  25  1   
 45  22  23  1   
 46  22  49  1   
 47  22  50  1   
 48  23  51  1   
 49  23  52  1   
 50  25  26  1   
 51  25  53  1   
 52  25  54  1   
 53  26  27  ar  
 54  26  28  ar  
 55  27  29  ar  
 56  27  55  1   
 57  28  30  ar  
 58  28  56  1   
 59  29  31  ar  
 60  30  31  ar  
 61  30  57  1   
 62  31  58  1   
@<TRIPOS>SUBSTRUCTURE
  1 ****  15 GROUP 4 **** **** 0

# MOE 2024.06 (io_trps.svl 2023.06)
