@<TRIPOS>MOLECULE
NONAME
50 53 1 0 0 
SMALL
USER_CHARGES


@<TRIPOS>ATOM
  1 F       -0.2710     0.3270    -0.4620 F     1 <1>  -0.3400 
  2 C       -1.5110    -0.1470    -0.4190 C.3   1 <1>   1.1640 
  3 F       -2.0790     0.1770    -1.5710 F     1 <1>  -0.3400 
  4 F       -2.1420     0.5360     0.5250 F     1 <1>  -0.3400 
  5 C       -1.5520    -1.6660    -0.1590 C.ar  1 <1>  -0.1440 
  6 C       -0.4160    -2.4240     0.0390 C.ar  1 <1>  -0.1500 
  7 C       -2.7920    -2.3150    -0.1060 C.ar  1 <1>  -0.1500 
  8 C       -0.4840    -3.8060     0.2750 C.ar  1 <1>   0.3610 
  9 C       -2.8730    -3.6670     0.1060 C.ar  1 <1>  -0.1500 
 10 N        0.6550    -4.5230     0.5640 N.ar  1 <1>  -0.1790 
 11 C       -1.7260    -4.4690     0.2560 C.ar  1 <1>   0.0000 
 12 C        0.6290    -5.8410     0.8300 C.ar  1 <1>   0.2180 
 13 C       -1.7620    -5.8900     0.4420 C.ar  1 <1>   0.1000 
 14 C       -0.5600    -6.5200     0.7730 C.ar  1 <1>  -0.1500 
 15 C        1.9340    -6.5390     1.1720 C.3   1 <1>  -0.0970 
 16 N       -2.8850    -6.6320     0.2800 N.pl3 1 <1>  -0.8380 
 17 C       -3.3220    -7.6550     1.2910 C.3   1 <1>   0.2090 
 18 C       -3.7050    -6.5650    -0.9770 C.3   1 <1>   0.2090 
 19 C       -4.1360    -8.7710     0.6350 C.3   1 <1>  -0.1600 
 20 C       -5.1760    -6.8130    -0.6500 C.3   1 <1>  -0.1600 
 21 C       -5.3990    -8.2200    -0.0580 C.3   1 <1>   0.3000 
 22 N       -5.8210    -9.1910    -1.0940 N.am  1 <1>  -0.6600 
 23 C       -6.6080    -8.2160     0.9060 C.3   1 <1>  -0.1600 
 24 C       -6.8830    -9.9370    -0.7030 C.2   1 <1>   0.5690 
 25 C       -5.1240    -9.3670    -2.3980 C.3   1 <1>   0.0600 
 26 C       -7.3460    -9.5410     0.6680 C.3   1 <1>  -0.0990 
 27 O       -7.4100   -10.8140    -1.3420 O.2   1 <1>  -0.5700 
 28 H        0.5510    -1.9500     0.0210 H     1 <1>   0.1500 
 29 H       -3.6980    -1.7390    -0.2300 H     1 <1>   0.1500 
 30 H       -3.8420    -4.1290     0.1710 H     1 <1>   0.1500 
 31 H        1.5430    -4.0170     0.5920 H     1 <1>   0.4570 
 32 H       -0.5720    -7.5800     0.9530 H     1 <1>   0.1500 
 33 H        2.3720    -6.1070     2.0550 H     1 <1>   0.0800 
 34 H        2.6310    -6.4560     0.3570 H     1 <1>   0.0800 
 35 H        1.7670    -7.5850     1.3610 H     1 <1>   0.0800 
 36 H       -3.9290    -7.1640     2.0330 H     1 <1>   0.0800 
 37 H       -2.4750    -8.0820     1.7960 H     1 <1>   0.0800 
 38 H       -3.3540    -7.3180    -1.6610 H     1 <1>   0.0800 
 39 H       -3.5870    -5.6140    -1.4640 H     1 <1>   0.0800 
 40 H       -4.4080    -9.4990     1.3770 H     1 <1>   0.0800 
 41 H       -3.4970    -9.2630    -0.0740 H     1 <1>   0.0800 
 42 H       -5.7860    -6.6760    -1.5240 H     1 <1>   0.0800 
 43 H       -5.4690    -6.0640     0.0640 H     1 <1>   0.0800 
 44 H       -7.2740    -7.4120     0.6460 H     1 <1>   0.0800 
 45 H       -6.3200    -8.0900     1.9340 H     1 <1>   0.0800 
 46 H       -5.2190    -8.4740    -2.9910 H     1 <1>   0.0800 
 47 H       -5.5660   -10.1840    -2.9430 H     1 <1>   0.0800 
 48 H       -4.0840    -9.5860    -2.2400 H     1 <1>   0.0800 
 49 H       -8.4140    -9.4210     0.6920 H     1 <1>   0.0800 
 50 H       -7.0400   -10.2940     1.3700 H     1 <1>   0.0800 
@<TRIPOS>BOND
  1   1   2  1   
  2   2   3  1   
  3   2   4  1   
  4   2   5  1   
  5   5   6  ar  
  6   5   7  ar  
  7   6   8  ar  
  8   6  28  1   
  9   7   9  ar  
 10   7  29  1   
 11   8  10  ar  
 12   8  11  ar  
 13   9  11  ar  
 14   9  30  1   
 15  10  12  ar  
 16  10  31  1   
 17  11  13  ar  
 18  12  14  ar  
 19  12  15  1   
 20  13  14  ar  
 21  13  16  1   
 22  14  32  1   
 23  15  33  1   
 24  15  34  1   
 25  15  35  1   
 26  16  17  1   
 27  16  18  1   
 28  17  19  1   
 29  17  36  1   
 30  17  37  1   
 31  18  20  1   
 32  18  38  1   
 33  18  39  1   
 34  19  21  1   
 35  19  40  1   
 36  19  41  1   
 37  20  21  1   
 38  20  42  1   
 39  20  43  1   
 40  21  22  1   
 41  21  23  1   
 42  22  24  am  
 43  22  25  1   
 44  23  26  1   
 45  23  44  1   
 46  23  45  1   
 47  24  26  1   
 48  24  27  2   
 49  25  46  1   
 50  25  47  1   
 51  25  48  1   
 52  26  49  1   
 53  26  50  1   
@<TRIPOS>SUBSTRUCTURE
  1 ****  16 GROUP 4 **** **** 0

# MOE 2024.06 (io_trps.svl 2023.06)
