@<TRIPOS>MOLECULE
NONAME
38 40 1 0 0 
SMALL
USER_CHARGES


@<TRIPOS>ATOM
  1 F       -1.0800    -0.9260    -0.2090 F     1 <1>  -0.3400 
  2 C       -0.6210    -1.8860     0.5810 C.3   1 <1>   1.2400 
  3 F        0.3850    -1.3860     1.2840 F     1 <1>  -0.3400 
  4 O       -0.1700    -2.9820    -0.2020 O.3   1 <1>  -0.3630 
  5 O       -1.6490    -2.3340     1.4490 O.3   1 <1>  -0.3630 
  6 C       -0.9060    -4.0220     0.2050 C.ar  1 <1>   0.0830 
  7 C       -1.7830    -3.6390     1.1830 C.ar  1 <1>   0.0830 
  8 C       -0.8510    -5.3260    -0.2480 C.ar  1 <1>  -0.1500 
  9 C       -2.6500    -4.5410     1.7620 C.ar  1 <1>  -0.1500 
 10 C       -1.7240    -6.2520     0.3160 C.ar  1 <1>  -0.1440 
 11 C       -2.6120    -5.8570     1.3190 C.ar  1 <1>  -0.1500 
 12 C       -1.7200    -7.6950    -0.1560 C.3   1 <1>   0.4870 
 13 N       -2.9400    -7.9240    -0.9710 N.4   1 <1>  -0.9590 
 14 C       -3.2120    -9.3770    -1.1630 C.3   1 <1>   0.5230 
 15 C       -3.0140    -7.1050    -2.2240 C.3   1 <1>   0.3430 
 16 C       -3.8590    -9.9100     0.1130 C.2   1 <1>   0.0070 
 17 C       -4.4620    -6.7610    -2.6280 C.3   1 <1>   0.1200 
 18 N       -4.0600    -9.1910     1.1780 N.2   1 <1>  -0.5650 
 19 N       -4.2950   -11.1860     0.2390 N.pl3 1 <1>   0.0330 
 20 O       -5.2430    -7.9100    -2.7080 O.3   1 <1>  -0.6800 
 21 C       -4.6510   -10.0420     2.0390 C.2   1 <1>   0.0770 
 22 C       -4.8000   -11.2620     1.4810 C.2   1 <1>  -0.3020 
 23 H       -0.1420    -5.5890    -1.0130 H     1 <1>   0.1500 
 24 H       -3.3290    -4.2250     2.5360 H     1 <1>   0.1500 
 25 H       -3.2810    -6.5730     1.7710 H     1 <1>   0.1500 
 26 H       -1.7250    -8.3440     0.7060 H     1 <1>   0.0800 
 27 H       -0.8350    -7.8970    -0.7350 H     1 <1>   0.0800 
 28 H       -3.7200    -7.6480    -0.3520 H     1 <1>   0.4500 
 29 H       -2.2990    -9.9080    -1.3720 H     1 <1>   0.0800 
 30 H       -3.8920    -9.5280    -1.9840 H     1 <1>   0.0800 
 31 H       -2.5320    -7.6260    -3.0350 H     1 <1>   0.0800 
 32 H       -2.4880    -6.1760    -2.0800 H     1 <1>   0.0800 
 33 H       -4.4720    -6.2780    -3.5910 H     1 <1>   0.0800 
 34 H       -4.9040    -6.0990    -1.9030 H     1 <1>   0.0800 
 35 H       -4.2700   -11.9470    -0.4500 H     1 <1>   0.2700 
 36 H       -6.1630    -7.6900    -2.9760 H     1 <1>   0.4000 
 37 H       -4.9440    -9.7310     3.0300 H     1 <1>   0.1500 
 38 H       -5.2320   -12.1560     1.8960 H     1 <1>   0.1500 
@<TRIPOS>BOND
  1   1   2  1   
  2   2   3  1   
  3   2   4  1   
  4   2   5  1   
  5   4   6  1   
  6   5   7  1   
  7   6   7  ar  
  8   6   8  ar  
  9   7   9  ar  
 10   8  10  ar  
 11   8  23  1   
 12   9  11  ar  
 13   9  24  1   
 14  10  11  ar  
 15  10  12  1   
 16  11  25  1   
 17  12  13  1   
 18  12  26  1   
 19  12  27  1   
 20  13  14  1   
 21  13  15  1   
 22  13  28  1   
 23  14  16  1   
 24  14  29  1   
 25  14  30  1   
 26  15  17  1   
 27  15  31  1   
 28  15  32  1   
 29  16  18  2   
 30  16  19  1   
 31  17  20  1   
 32  17  33  1   
 33  17  34  1   
 34  18  21  1   
 35  19  22  1   
 36  19  35  1   
 37  20  36  1   
 38  21  22  2   
 39  21  37  1   
 40  22  38  1   
@<TRIPOS>SUBSTRUCTURE
  1 ****  10 GROUP 4 **** **** 0

# MOE 2024.06 (io_trps.svl 2023.06)
