@<TRIPOS>MOLECULE
NONAME
50 52 1 0 0 
SMALL
USER_CHARGES


@<TRIPOS>ATOM
  1 O        2.1820    -0.3810    -2.3350 O.2   1 <1>  -0.5700 
  2 C        1.9370    -0.8560    -1.2490 C.2   1 <1>   0.5690 
  3 N        1.7220    -0.0390    -0.1560 N.am  1 <1>  -0.6600 
  4 C        1.8890    -2.3890    -1.1950 C.3   1 <1>   0.2370 
  5 C        1.7270     1.4400    -0.3170 C.3   1 <1>   0.1400 
  6 C        1.3860    -0.4990     1.2250 C.3   1 <1>   0.0600 
  7 N        0.6300    -2.8650    -0.5530 N.pl3 1 <1>   0.0480 
  8 C        3.1870    -2.9940    -0.6310 C.3   1 <1>  -0.2400 
  9 C        3.1190     1.9840     0.0040 C.3   1 <1>  -0.1600 
 10 C        0.3770    -3.6140     0.5690 C.ar  1 <1>  -0.1520 
 11 C       -0.5970    -2.5080    -1.0190 C.2   1 <1>   0.0360 
 12 C        3.2000     3.4930    -0.2450 C.3   1 <1>   0.0210 
 13 C       -1.0040    -3.6380     0.6840 C.ar  1 <1>   0.2270 
 14 C        1.1610    -4.2810     1.5210 C.ar  1 <1>  -0.1500 
 15 N       -1.5870    -2.9370    -0.3230 N.2   1 <1>  -0.5650 
 16 C        4.5970     3.9970     0.0680 C.2   1 <1>  -0.1810 
 17 C       -1.6250    -4.3120     1.7330 C.ar  1 <1>  -0.1500 
 18 C        0.5430    -4.9460     2.5570 C.ar  1 <1>  -0.1500 
 19 C        5.0440     4.5420     1.2710 C.2   1 <1>   0.1080 
 20 C        5.6790     4.0170    -0.7410 C.2   1 <1>  -0.3320 
 21 C       -0.8510    -4.9630     2.6660 C.ar  1 <1>  -0.1500 
 22 N        6.2930     4.8800     1.2240 N.2   1 <1>  -0.7070 
 23 C        4.2110     4.7420     2.5170 C.3   1 <1>  -0.0590 
 24 N        6.6850     4.5550    -0.0200 N.pl3 1 <1>   0.3000 
 25 C        5.8420     3.5490    -2.1780 C.3   1 <1>  -0.0600 
 26 H        1.8280    -2.7180    -2.2170 H     1 <1>   0.0800 
 27 H        0.9910     1.8800     0.3360 H     1 <1>   0.0800 
 28 H        1.4610     1.6980    -1.3290 H     1 <1>   0.0800 
 29 H        1.8640    -1.4340     1.4490 H     1 <1>   0.0800 
 30 H        0.3200    -0.6200     1.3160 H     1 <1>   0.0800 
 31 H        1.7170     0.2240     1.9500 H     1 <1>   0.0800 
 32 H        3.3710    -2.6600     0.3720 H     1 <1>   0.0800 
 33 H        4.0150    -2.6730    -1.2380 H     1 <1>   0.0800 
 34 H        3.1470    -4.0680    -0.6680 H     1 <1>   0.0800 
 35 H        3.8420     1.4930    -0.6230 H     1 <1>   0.0800 
 36 H        3.3650     1.7820     1.0310 H     1 <1>   0.0800 
 37 H       -0.7070    -1.9030    -1.9030 H     1 <1>   0.1500 
 38 H        2.4820     4.0120     0.3640 H     1 <1>   0.0800 
 39 H        2.9710     3.7050    -1.2750 H     1 <1>   0.0800 
 40 H        2.2320    -4.2890     1.4610 H     1 <1>   0.1500 
 41 H       -2.6970    -4.3060     1.7850 H     1 <1>   0.1500 
 42 H        1.1300    -5.4640     3.2960 H     1 <1>   0.1500 
 43 H       -1.3120    -5.4900     3.4830 H     1 <1>   0.1500 
 44 H        3.6450     3.8550     2.7280 H     1 <1>   0.0800 
 45 H        3.5440     5.5710     2.3750 H     1 <1>   0.0800 
 46 H        4.8530     4.9510     3.3520 H     1 <1>   0.0800 
 47 H        7.6450     4.7090    -0.3460 H     1 <1>   0.2700 
 48 H        4.9300     3.1110    -2.5410 H     1 <1>   0.0800 
 49 H        6.6190     2.8080    -2.2390 H     1 <1>   0.0800 
 50 H        6.0980     4.3800    -2.8110 H     1 <1>   0.0800 
@<TRIPOS>BOND
  1   1   2  2   
  2   2   3  am  
  3   2   4  1   
  4   3   5  1   
  5   3   6  1   
  6   4   7  1   
  7   4   8  1   
  8   4  26  1   
  9   5   9  1   
 10   5  27  1   
 11   5  28  1   
 12   6  29  1   
 13   6  30  1   
 14   6  31  1   
 15   7  10  1   
 16   7  11  1   
 17   8  32  1   
 18   8  33  1   
 19   8  34  1   
 20   9  12  1   
 21   9  35  1   
 22   9  36  1   
 23  10  13  ar  
 24  10  14  ar  
 25  11  15  2   
 26  11  37  1   
 27  12  16  1   
 28  12  38  1   
 29  12  39  1   
 30  13  15  1   
 31  13  17  ar  
 32  14  18  ar  
 33  14  40  1   
 34  16  19  1   
 35  16  20  2   
 36  17  21  ar  
 37  17  41  1   
 38  18  21  ar  
 39  18  42  1   
 40  19  22  2   
 41  19  23  1   
 42  20  24  1   
 43  20  25  1   
 44  21  43  1   
 45  22  24  1   
 46  23  44  1   
 47  23  45  1   
 48  23  46  1   
 49  24  47  1   
 50  25  48  1   
 51  25  49  1   
 52  25  50  1   
@<TRIPOS>SUBSTRUCTURE
  1 ****   3 GROUP 4 **** **** 0

# MOE 2024.06 (io_trps.svl 2023.06)
