@<TRIPOS>MOLECULE
NONAME
48 49 1 0 0 
SMALL
USER_CHARGES


@<TRIPOS>ATOM
  1 S        0.8100    -0.2060    -0.1310 S.o2  1 <1>   1.3330 
  2 O        0.7140    -0.5210    -1.5390 O.2   1 <1>  -0.6500 
  3 O        2.1120    -0.0890     0.4860 O.2   1 <1>  -0.6500 
  4 N       -0.0850    -1.3650     0.7280 N.am  1 <1>  -0.8490 
  5 C       -0.0880     1.3110     0.1810 C.3   1 <1>  -0.0550 
  6 C        0.7460    -2.4860     1.1780 C.3   1 <1>   0.1160 
  7 C       -1.2480    -1.8700    -0.0100 C.3   1 <1>   0.1160 
  8 C        0.5390     2.5370    -0.5110 C.3   1 <1>  -0.0800 
  9 C       -0.3360     3.7910    -0.4840 C.3   1 <1>   0.2000 
 10 C        1.8720     2.9880     0.1060 C.3   1 <1>   0.1400 
 11 O       -0.8670     3.9460     0.7870 O.3   1 <1>  -0.6800 
 12 C        0.6560     4.9250    -0.7280 C.3   1 <1>   0.1400 
 13 N        1.8970     4.4680    -0.0520 N.am  1 <1>  -0.6600 
 14 C        2.6960     5.2840     0.7170 C.2   1 <1>   0.5440 
 15 O        3.3170     4.7860     1.6360 O.2   1 <1>  -0.5700 
 16 C        2.7830     6.7110     0.4720 C.ar  1 <1>   0.0860 
 17 C        2.8870     7.2290    -0.8200 C.ar  1 <1>  -0.1500 
 18 C        2.7660     7.6220     1.5270 C.ar  1 <1>  -0.1500 
 19 C        2.9460     8.5910    -1.0600 C.ar  1 <1>  -0.1440 
 20 C        2.8250     8.9840     1.3060 C.ar  1 <1>  -0.1500 
 21 C        2.9110     9.4820     0.0090 C.ar  1 <1>   0.0820 
 22 C        3.0550     9.1050    -2.4890 C.3   1 <1>  -0.0970 
 23 O        2.9670    10.8070    -0.2690 O.3   1 <1>  -0.3620 
 24 C        2.9670    11.7880     0.7440 C.3   1 <1>   0.0400 
 25 H       -1.0930     1.1970    -0.1750 H     1 <1>   0.0800 
 26 H       -0.1380     1.4800     1.2390 H     1 <1>   0.0800 
 27 H        0.1520    -3.1930     1.7320 H     1 <1>   0.0800 
 28 H        1.5300    -2.1280     1.8230 H     1 <1>   0.0800 
 29 H        1.1940    -2.9830     0.3330 H     1 <1>   0.0800 
 30 H       -1.8230    -2.5310     0.6150 H     1 <1>   0.0800 
 31 H       -0.9320    -2.4050    -0.8910 H     1 <1>   0.0800 
 32 H       -1.8800    -1.0530    -0.3110 H     1 <1>   0.0800 
 33 H        0.7250     2.2920    -1.5430 H     1 <1>   0.0800 
 34 H       -1.1440     3.7710    -1.1960 H     1 <1>   0.0800 
 35 H        2.7130     2.5400    -0.3960 H     1 <1>   0.0800 
 36 H        1.9170     2.7380     1.1540 H     1 <1>   0.0800 
 37 H       -0.1330     4.1290     1.4110 H     1 <1>   0.4000 
 38 H        0.2940     5.8600    -0.3340 H     1 <1>   0.0800 
 39 H        0.8480     5.0250    -1.7820 H     1 <1>   0.0800 
 40 H        2.9280     6.5390    -1.6440 H     1 <1>   0.1500 
 41 H        2.7050     7.2440     2.5330 H     1 <1>   0.1500 
 42 H        2.8050     9.6410     2.1540 H     1 <1>   0.1500 
 43 H        3.0770     8.2960    -3.1960 H     1 <1>   0.0800 
 44 H        3.9560     9.6820    -2.5990 H     1 <1>   0.0800 
 45 H        2.2140     9.7360    -2.7130 H     1 <1>   0.0800 
 46 H        3.0250    12.7530     0.2750 H     1 <1>   0.0800 
 47 H        3.8240    11.6360     1.3760 H     1 <1>   0.0800 
 48 H        2.0530    11.7090     1.3060 H     1 <1>   0.0800 
@<TRIPOS>BOND
  1   1   2  2   
  2   1   3  2   
  3   1   4  am  
  4   1   5  1   
  5   4   6  1   
  6   4   7  1   
  7   5   8  1   
  8   5  25  1   
  9   5  26  1   
 10   6  27  1   
 11   6  28  1   
 12   6  29  1   
 13   7  30  1   
 14   7  31  1   
 15   7  32  1   
 16   8   9  1   
 17   8  10  1   
 18   8  33  1   
 19   9  11  1   
 20   9  12  1   
 21   9  34  1   
 22  10  13  1   
 23  10  35  1   
 24  10  36  1   
 25  11  37  1   
 26  12  13  1   
 27  12  38  1   
 28  12  39  1   
 29  13  14  am  
 30  14  15  2   
 31  14  16  1   
 32  16  17  ar  
 33  16  18  ar  
 34  17  19  ar  
 35  17  40  1   
 36  18  20  ar  
 37  18  41  1   
 38  19  21  ar  
 39  19  22  1   
 40  20  21  ar  
 41  20  42  1   
 42  21  23  1   
 43  22  43  1   
 44  22  44  1   
 45  22  45  1   
 46  23  24  1   
 47  24  46  1   
 48  24  47  1   
 49  24  48  1   
@<TRIPOS>SUBSTRUCTURE
  1 ****  13 GROUP 4 **** **** 0

# MOE 2024.06 (io_trps.svl 2023.06)
