@<TRIPOS>MOLECULE
NONAME
37 38 1 0 0 
SMALL
USER_CHARGES


@<TRIPOS>ATOM
  1 F       -0.6780    -1.1200    -0.9920 F     1 <1>  -0.3400 
  2 C       -0.0810    -1.6800     0.0510 C.3   1 <1>   1.0200 
  3 F        1.1380    -1.1670     0.1150 F     1 <1>  -0.3400 
  4 F       -0.7320    -1.2540     1.1250 F     1 <1>  -0.3400 
  5 C       -0.0650    -3.2050    -0.0450 C.3   1 <1>  -0.1600 
  6 C       -1.4750    -3.8370    -0.1190 C.3   1 <1>  -0.0990 
  7 C       -1.4610    -5.3560    -0.2180 C.2   1 <1>   0.5690 
  8 O       -0.4020    -5.9350    -0.1890 O.2   1 <1>  -0.5700 
  9 N       -2.6430    -6.0300    -0.3370 N.am  1 <1>  -0.6600 
 10 C       -4.0050    -5.4410    -0.3360 C.3   1 <1>   0.1400 
 11 C       -2.7130    -7.5080    -0.4250 C.3   1 <1>   0.1400 
 12 C       -4.9570    -6.6350    -0.4320 C.3   1 <1>   0.2000 
 13 C       -4.1430    -7.8580    -0.0110 C.3   1 <1>  -0.0800 
 14 O       -6.0490    -6.4840     0.4070 O.3   1 <1>  -0.6800 
 15 C       -4.6780    -9.1640    -0.6240 C.3   1 <1>  -0.0170 
 16 C       -3.8740   -10.3720    -0.1720 C.ar  1 <1>   0.1670 
 17 N       -2.7540   -10.6160    -0.8320 N.ar  1 <1>  -0.6200 
 18 C       -4.3280   -11.1550     0.8890 C.ar  1 <1>   0.1600 
 19 C       -2.1210   -11.6790    -0.3630 C.ar  1 <1>   0.1600 
 20 N       -3.6980   -12.2180     1.3590 N.ar  1 <1>  -0.6200 
 21 C       -2.5780   -12.4530     0.6970 C.ar  1 <1>   0.1600 
 22 H        0.4970    -3.4800    -0.9190 H     1 <1>   0.0800 
 23 H        0.4540    -3.5880     0.8140 H     1 <1>   0.0800 
 24 H       -1.9910    -3.4510    -0.9800 H     1 <1>   0.0800 
 25 H       -2.0330    -3.5660     0.7590 H     1 <1>   0.0800 
 26 H       -4.1600    -4.8970     0.5800 H     1 <1>   0.0800 
 27 H       -4.1310    -4.7900    -1.1830 H     1 <1>   0.0800 
 28 H       -2.5210    -7.8090    -1.4420 H     1 <1>   0.0800 
 29 H       -1.9870    -7.9730     0.2220 H     1 <1>   0.0800 
 30 H       -5.3160    -6.7320    -1.4430 H     1 <1>   0.0800 
 31 H       -4.1470    -7.9400     1.0620 H     1 <1>   0.0800 
 32 H       -5.7580    -6.4180     1.3380 H     1 <1>   0.4000 
 33 H       -4.6470    -9.1060    -1.6980 H     1 <1>   0.0800 
 34 H       -5.7080    -9.2910    -0.3390 H     1 <1>   0.0800 
 35 H       -5.2510   -10.8890     1.3710 H     1 <1>   0.1500 
 36 H       -1.1960   -11.9510    -0.8400 H     1 <1>   0.1500 
 37 H       -1.9920   -13.3000     1.0070 H     1 <1>   0.1500 
@<TRIPOS>BOND
  1   1   2  1   
  2   2   3  1   
  3   2   4  1   
  4   2   5  1   
  5   5   6  1   
  6   5  22  1   
  7   5  23  1   
  8   6   7  1   
  9   6  24  1   
 10   6  25  1   
 11   7   8  2   
 12   7   9  am  
 13   9  10  1   
 14   9  11  1   
 15  10  12  1   
 16  10  26  1   
 17  10  27  1   
 18  11  13  1   
 19  11  28  1   
 20  11  29  1   
 21  12  13  1   
 22  12  14  1   
 23  12  30  1   
 24  13  15  1   
 25  13  31  1   
 26  14  32  1   
 27  15  16  1   
 28  15  33  1   
 29  15  34  1   
 30  16  17  ar  
 31  16  18  ar  
 32  17  19  ar  
 33  18  20  ar  
 34  18  35  1   
 35  19  21  ar  
 36  19  36  1   
 37  20  21  ar  
 38  21  37  1   
@<TRIPOS>SUBSTRUCTURE
  1 ****   9 GROUP 4 **** **** 0

# MOE 2024.06 (io_trps.svl 2023.06)
