@<TRIPOS>MOLECULE
NONAME
48 50 1 0 0 
SMALL
USER_CHARGES


@<TRIPOS>ATOM
  1 S        0.7750    -0.6960    -0.9670 S.o2  1 <1>   1.0900 
  2 O        1.0230    -1.4120    -2.1970 O.2   1 <1>  -0.6500 
  3 O       -0.3320    -1.0790    -0.1220 O.2   1 <1>  -0.6500 
  4 C        0.5890     1.0270    -1.3760 C.3   1 <1>  -0.0550 
  5 C        2.2520    -0.7720     0.0240 C.3   1 <1>  -0.0550 
  6 C        1.1600     1.8890    -0.2680 C.3   1 <1>   0.2090 
  7 C        3.2220     0.3130    -0.4010 C.3   1 <1>   0.2090 
  8 N        2.6300     1.6610    -0.1480 N.pl3 1 <1>  -0.8380 
  9 C        3.3350     2.5750     0.6250 C.ar  1 <1>   0.1000 
 10 C        3.5840     3.8440     0.1260 C.ar  1 <1>  -0.1500 
 11 C        3.7880     2.2570     1.9000 C.ar  1 <1>  -0.1500 
 12 C        4.2780     4.8020     0.8570 C.ar  1 <1>   0.0860 
 13 C        4.4750     3.1910     2.6520 C.ar  1 <1>  -0.1500 
 14 C        4.5270     6.1160     0.2980 C.2   1 <1>   0.5440 
 15 C        4.7150     4.4520     2.1350 C.ar  1 <1>  -0.1500 
 16 O        3.5860     6.7690    -0.1160 O.2   1 <1>  -0.5700 
 17 N        5.8030     6.6390     0.2100 N.am  1 <1>  -0.6600 
 18 C        6.0010     8.0750    -0.1540 C.3   1 <1>   0.2200 
 19 C        7.0200     5.7780     0.3200 C.3   1 <1>   0.0600 
 20 C        6.3300     8.2190    -1.6410 C.3   1 <1>  -0.1600 
 21 C        7.0770     8.7520     0.7020 C.3   1 <1>  -0.1600 
 22 C        6.5910     9.6900    -1.9730 C.3   1 <1>   0.1200 
 23 C        7.2790    10.1920     0.2230 C.3   1 <1>   0.1200 
 24 O        7.5940    10.1830    -1.1370 O.3   1 <1>  -0.5600 
 25 H       -0.4490     1.2570    -1.5200 H     1 <1>   0.0800 
 26 H        1.1100     1.2540    -2.2860 H     1 <1>   0.0800 
 27 H        2.7110    -1.7350    -0.0820 H     1 <1>   0.0800 
 28 H        2.0140    -0.6290     1.0610 H     1 <1>   0.0800 
 29 H        0.6810     1.6580     0.6700 H     1 <1>   0.0800 
 30 H        0.9790     2.9280    -0.4900 H     1 <1>   0.0800 
 31 H        3.4460     0.2150    -1.4510 H     1 <1>   0.0800 
 32 H        4.1460     0.2110     0.1430 H     1 <1>   0.0800 
 33 H        3.2330     4.0950    -0.8580 H     1 <1>   0.1500 
 34 H        3.5920     1.2820     2.3030 H     1 <1>   0.1500 
 35 H        4.8190     2.9390     3.6410 H     1 <1>   0.1500 
 36 H        5.2420     5.1820     2.7230 H     1 <1>   0.1500 
 37 H        5.0810     8.6060     0.0260 H     1 <1>   0.0800 
 38 H        6.7730     4.7440     0.1570 H     1 <1>   0.0800 
 39 H        7.4520     5.8850     1.2990 H     1 <1>   0.0800 
 40 H        7.7500     6.0640    -0.4170 H     1 <1>   0.0800 
 41 H        5.5010     7.8620    -2.2260 H     1 <1>   0.0800 
 42 H        7.2030     7.6510    -1.9000 H     1 <1>   0.0800 
 43 H        8.0190     8.2420     0.6190 H     1 <1>   0.0800 
 44 H        6.7710     8.7550     1.7310 H     1 <1>   0.0800 
 45 H        5.7040    10.2860    -1.8360 H     1 <1>   0.0800 
 46 H        6.9290     9.7940    -2.9890 H     1 <1>   0.0800 
 47 H        8.0980    10.6540     0.7470 H     1 <1>   0.0800 
 48 H        6.3910    10.7840     0.3670 H     1 <1>   0.0800 
@<TRIPOS>BOND
  1   1   2  2   
  2   1   3  2   
  3   1   4  1   
  4   1   5  1   
  5   4   6  1   
  6   4  25  1   
  7   4  26  1   
  8   5   7  1   
  9   5  27  1   
 10   5  28  1   
 11   6   8  1   
 12   6  29  1   
 13   6  30  1   
 14   7   8  1   
 15   7  31  1   
 16   7  32  1   
 17   8   9  1   
 18   9  10  ar  
 19   9  11  ar  
 20  10  12  ar  
 21  10  33  1   
 22  11  13  ar  
 23  11  34  1   
 24  12  14  1   
 25  12  15  ar  
 26  13  15  ar  
 27  13  35  1   
 28  14  16  2   
 29  14  17  am  
 30  15  36  1   
 31  17  18  1   
 32  17  19  1   
 33  18  20  1   
 34  18  21  1   
 35  18  37  1   
 36  19  38  1   
 37  19  39  1   
 38  19  40  1   
 39  20  22  1   
 40  20  41  1   
 41  20  42  1   
 42  21  23  1   
 43  21  43  1   
 44  21  44  1   
 45  22  24  1   
 46  22  45  1   
 47  22  46  1   
 48  23  24  1   
 49  23  47  1   
 50  23  48  1   
@<TRIPOS>SUBSTRUCTURE
  1 ****  10 GROUP 4 **** **** 0

# MOE 2024.06 (io_trps.svl 2023.06)
