@<TRIPOS>MOLECULE
NONAME
53 55 1 0 0 
SMALL
USER_CHARGES


@<TRIPOS>ATOM
  1 O       -0.8670     0.2630     0.7310 O.2   1 <1>  -0.5700 
  2 C       -1.2790     1.3870     0.9660 C.2   1 <1>   0.7150 
  3 N       -2.5560     1.5150     1.4710 N.am  1 <1>  -0.6600 
  4 C       -0.4460     2.5350     0.7090 C.2   1 <1>  -0.2370 
  5 C       -3.2160     0.3540     2.1240 C.3   1 <1>   0.1400 
  6 C       -3.4060     2.7040     1.2130 C.3   1 <1>   0.1400 
  7 N        0.4120     2.6430    -0.3590 N.pl3 1 <1>   0.0480 
  8 C       -0.3320     3.6900     1.4430 C.2   1 <1>  -0.1500 
  9 C       -3.9460    -0.5030     1.0800 C.3   1 <1>   0.1400 
 10 C       -4.5630     2.3660     0.2680 C.3   1 <1>  -0.1600 
 11 C        1.0260     3.8490    -0.2860 C.2   1 <1>  -0.3020 
 12 C        0.6500     1.6400    -1.4140 C.3   1 <1>   0.0160 
 13 C        0.5910     4.5180     0.8130 C.2   1 <1>  -0.1500 
 14 N       -5.3130    -0.0170     0.6860 N.am  1 <1>  -0.6600 
 15 C       -5.6170     1.4400     0.8860 C.3   1 <1>   0.1400 
 16 C       -6.3350    -0.8450     0.2740 C.2   1 <1>   0.5690 
 17 O       -7.4830    -0.5030     0.4510 O.2   1 <1>  -0.5700 
 18 C       -6.1290    -2.2450    -0.3710 C.3   1 <1>   0.0610 
 19 C       -6.2020    -3.2700     0.7610 C.3   1 <1>   0.3430 
 20 C       -7.3350    -2.6530    -1.2400 C.3   1 <1>  -0.1600 
 21 C       -4.8480    -2.4030    -1.2280 C.3   1 <1>  -0.2400 
 22 N       -7.6360    -3.6920     0.9040 N.4   1 <1>  -0.9590 
 23 C       -8.3910    -3.1390    -0.2600 C.3   1 <1>   0.3430 
 24 C       -8.2300    -3.1860     2.1800 C.3   1 <1>   0.2630 
 25 H       -3.8850     0.6780     2.9000 H     1 <1>   0.0800 
 26 H       -2.4550    -0.2500     2.5880 H     1 <1>   0.0800 
 27 H       -2.8240     3.4850     0.7570 H     1 <1>   0.0800 
 28 H       -3.7830     3.0810     2.1480 H     1 <1>   0.0800 
 29 H       -0.8520     3.9300     2.3540 H     1 <1>   0.1500 
 30 H       -4.0360    -1.4930     1.4870 H     1 <1>   0.0800 
 31 H       -3.3230    -0.5560     0.2040 H     1 <1>   0.0800 
 32 H       -4.1950     1.9620    -0.6580 H     1 <1>   0.0800 
 33 H       -5.0520     3.2940     0.0340 H     1 <1>   0.0800 
 34 H        1.7470     4.1760    -1.0140 H     1 <1>   0.1500 
 35 H       -0.2900     1.3370    -1.8360 H     1 <1>   0.0800 
 36 H        1.1400     0.7860    -0.9820 H     1 <1>   0.0800 
 37 H        1.2710     2.0610    -2.1820 H     1 <1>   0.0800 
 38 H        0.8900     5.4950     1.1500 H     1 <1>   0.1500 
 39 H       -6.5570     1.6740     0.4150 H     1 <1>   0.0800 
 40 H       -5.7340     1.6480     1.9360 H     1 <1>   0.0800 
 41 H       -5.8210    -2.8540     1.6790 H     1 <1>   0.0800 
 42 H       -5.6060    -4.1270     0.4950 H     1 <1>   0.0800 
 43 H       -7.0960    -3.4690    -1.9000 H     1 <1>   0.0800 
 44 H       -7.7030    -1.8360    -1.8360 H     1 <1>   0.0800 
 45 H       -3.9630    -2.4750    -0.6250 H     1 <1>   0.0800 
 46 H       -4.7440    -1.5630    -1.8930 H     1 <1>   0.0800 
 47 H       -4.8800    -3.2970    -1.8250 H     1 <1>   0.0800 
 48 H       -7.6900    -4.7200     0.8810 H     1 <1>   0.4500 
 49 H       -9.0360    -3.8780    -0.7060 H     1 <1>   0.0800 
 50 H       -8.9860    -2.2960     0.0570 H     1 <1>   0.0800 
 51 H       -8.1910    -2.1070     2.2050 H     1 <1>   0.0800 
 52 H       -7.6890    -3.5720     3.0270 H     1 <1>   0.0800 
 53 H       -9.2610    -3.4920     2.2600 H     1 <1>   0.0800 
@<TRIPOS>BOND
  1   1   2  2   
  2   2   3  am  
  3   2   4  1   
  4   3   5  1   
  5   3   6  1   
  6   4   7  1   
  7   4   8  2   
  8   5   9  1   
  9   5  25  1   
 10   5  26  1   
 11   6  10  1   
 12   6  27  1   
 13   6  28  1   
 14   7  11  1   
 15   7  12  1   
 16   8  13  1   
 17   8  29  1   
 18   9  14  1   
 19   9  30  1   
 20   9  31  1   
 21  10  15  1   
 22  10  32  1   
 23  10  33  1   
 24  11  13  2   
 25  11  34  1   
 26  12  35  1   
 27  12  36  1   
 28  12  37  1   
 29  13  38  1   
 30  14  15  1   
 31  14  16  am  
 32  15  39  1   
 33  15  40  1   
 34  16  17  2   
 35  16  18  1   
 36  18  19  1   
 37  18  20  1   
 38  18  21  1   
 39  19  22  1   
 40  19  41  1   
 41  19  42  1   
 42  20  23  1   
 43  20  43  1   
 44  20  44  1   
 45  21  45  1   
 46  21  46  1   
 47  21  47  1   
 48  22  23  1   
 49  22  24  1   
 50  22  48  1   
 51  23  49  1   
 52  23  50  1   
 53  24  51  1   
 54  24  52  1   
 55  24  53  1   
@<TRIPOS>SUBSTRUCTURE
  1 ****   9 GROUP 4 **** **** 0

# MOE 2024.06 (io_trps.svl 2023.06)
