@<TRIPOS>MOLECULE
NONAME
44 46 1 0 0 
SMALL
USER_CHARGES


@<TRIPOS>ATOM
  1 O       -2.0510     0.2630     2.2430 O.2   1 <1>  -0.5700 
  2 C       -2.1880     0.6730     1.1060 C.2   1 <1>   0.7160 
  3 N       -2.6110    -0.1830     0.1160 N.am  1 <1>  -0.6600 
  4 C       -1.9320     2.0610     0.8090 C.2   1 <1>  -0.0860 
  5 C       -2.5950    -1.6650     0.3560 C.3   1 <1>   0.3640 
  6 C       -3.3150     0.3510    -1.0910 C.3   1 <1>   0.1400 
  7 C       -1.0520     2.6180    -0.0670 C.2   1 <1>  -0.0400 
  8 C       -2.5800     3.1660     1.3970 C.2   1 <1>  -0.1500 
  9 C       -1.2010    -2.2060     0.0270 C.ar  1 <1>  -0.1440 
 10 C       -3.6790    -2.4770    -0.4150 C.3   1 <1>   0.2000 
 11 C       -3.9990    -0.7300    -1.9380 C.3   1 <1>   0.1200 
 12 O       -1.1450     3.9250    -0.0630 O.3   1 <1>  -0.2800 
 13 C       -0.0250     1.9730    -0.9740 C.3   1 <1>  -0.0600 
 14 C       -2.0590     4.2660     0.8190 C.2   1 <1>  -0.0400 
 15 C       -0.5950    -1.9740    -1.2020 C.ar  1 <1>  -0.1500 
 16 C       -0.5220    -2.9550     0.9770 C.ar  1 <1>  -0.1500 
 17 O       -4.5980    -1.6720    -1.1090 O.3   1 <1>  -0.5600 
 18 C       -4.4940    -3.3840     0.5170 C.3   1 <1>   0.1200 
 19 C       -2.3500     5.7340     1.0320 C.3   1 <1>  -0.0600 
 20 C        0.6620    -2.4850    -1.4760 C.ar  1 <1>  -0.1500 
 21 C        0.7350    -3.4670     0.7060 C.ar  1 <1>  -0.1500 
 22 O       -3.6680    -4.2980     1.1660 O.3   1 <1>  -0.6800 
 23 C        1.3280    -3.2330    -0.5210 C.ar  1 <1>  -0.1500 
 24 H       -2.7670    -1.8330     1.4050 H     1 <1>   0.0800 
 25 H       -4.0670     1.0500    -0.7670 H     1 <1>   0.0800 
 26 H       -2.6180     0.8890    -1.7080 H     1 <1>   0.0800 
 27 H       -3.3350     3.0930     2.1590 H     1 <1>   0.1500 
 28 H       -3.2020    -3.1010    -1.1500 H     1 <1>   0.0800 
 29 H       -3.2970    -1.2270    -2.5830 H     1 <1>   0.0800 
 30 H       -4.7680    -0.2880    -2.5470 H     1 <1>   0.0800 
 31 H       -0.0170     0.9070    -0.8380 H     1 <1>   0.0800 
 32 H        0.9510     2.3560    -0.7390 H     1 <1>   0.0800 
 33 H       -0.2500     2.1990    -2.0000 H     1 <1>   0.0800 
 34 H       -1.0940    -1.3910    -1.9520 H     1 <1>   0.1500 
 35 H       -0.9720    -3.1420     1.9390 H     1 <1>   0.1500 
 36 H       -5.2300    -3.9350    -0.0420 H     1 <1>   0.0800 
 37 H       -4.9850    -2.7920     1.2710 H     1 <1>   0.0800 
 38 H       -3.1110     5.8580     1.7810 H     1 <1>   0.0800 
 39 H       -2.6860     6.1750     0.1120 H     1 <1>   0.0800 
 40 H       -1.4560     6.2370     1.3540 H     1 <1>   0.0800 
 41 H        1.1240    -2.3010    -2.4300 H     1 <1>   0.1500 
 42 H        1.2500    -4.0440     1.4530 H     1 <1>   0.1500 
 43 H       -3.2760    -4.9320     0.5330 H     1 <1>   0.4000 
 44 H        2.3050    -3.6310    -0.7310 H     1 <1>   0.1500 
@<TRIPOS>BOND
  1   1   2  2   
  2   2   3  am  
  3   2   4  1   
  4   3   5  1   
  5   3   6  1   
  6   4   7  2   
  7   4   8  1   
  8   5   9  1   
  9   5  10  1   
 10   5  24  1   
 11   6  11  1   
 12   6  25  1   
 13   6  26  1   
 14   7  12  1   
 15   7  13  1   
 16   8  14  2   
 17   8  27  1   
 18   9  15  ar  
 19   9  16  ar  
 20  10  17  1   
 21  10  18  1   
 22  10  28  1   
 23  11  17  1   
 24  11  29  1   
 25  11  30  1   
 26  12  14  1   
 27  13  31  1   
 28  13  32  1   
 29  13  33  1   
 30  14  19  1   
 31  15  20  ar  
 32  15  34  1   
 33  16  21  ar  
 34  16  35  1   
 35  18  22  1   
 36  18  36  1   
 37  18  37  1   
 38  19  38  1   
 39  19  39  1   
 40  19  40  1   
 41  20  23  ar  
 42  20  41  1   
 43  21  23  ar  
 44  21  42  1   
 45  22  43  1   
 46  23  44  1   
@<TRIPOS>SUBSTRUCTURE
  1 ****   3 GROUP 4 **** **** 0

# MOE 2024.06 (io_trps.svl 2023.06)
