@<TRIPOS>MOLECULE
NONAME
45 46 1 0 0 
SMALL
USER_CHARGES


@<TRIPOS>ATOM
  1 S        1.3500    -1.0880     2.1110 S.o2  1 <1>   1.4470 
  2 O        1.0810    -0.4950     3.3980 O.2   1 <1>  -0.6500 
  3 O        2.5160    -1.9220     1.9240 O.2   1 <1>  -0.6500 
  4 N        0.0240    -2.0680     1.8100 N.am  1 <1>  -0.9140 
  5 C        1.2080     0.1410     0.7850 C.ar  1 <1>  -0.0090 
  6 C        0.2180    -3.0250     0.7280 C.3   1 <1>   0.2760 
  7 C       -0.0080     0.7640     0.5260 C.ar  1 <1>  -0.1500 
  8 C        2.2940     0.4760    -0.0140 C.ar  1 <1>  -0.1500 
  9 C       -1.1320    -3.4030     0.1390 C.3   1 <1>  -0.0800 
 10 C        0.6570    -4.3700     1.2970 C.3   1 <1>   0.1200 
 11 C       -0.1540     1.6720    -0.5080 C.ar  1 <1>  -0.1430 
 12 C        2.1660     1.3900    -1.0450 C.ar  1 <1>  -0.1500 
 13 C       -1.6190    -4.5160     1.0780 C.3   1 <1>   0.1200 
 14 C       -2.1130    -2.2230    -0.0190 C.3   1 <1>  -0.0550 
 15 O       -0.5080    -4.9230     1.8260 O.3   1 <1>  -0.5600 
 16 C        0.9420     1.9840    -1.2940 C.ar  1 <1>  -0.1500 
 17 C       -1.5080     2.3090    -0.7660 C.3   1 <1>  -0.0970 
 18 S       -3.6080    -2.6560    -0.9000 S.o2  1 <1>   1.3330 
 19 O       -4.3960    -3.5540    -0.0860 O.2   1 <1>  -0.6500 
 20 O       -3.2240    -3.0490    -2.2360 O.2   1 <1>  -0.6500 
 21 N       -4.4280    -1.1720    -0.9930 N.am  1 <1>  -0.8490 
 22 C       -5.3080    -1.1010    -2.1630 C.3   1 <1>   0.1160 
 23 C       -5.1890    -0.8530     0.2210 C.3   1 <1>   0.1160 
 24 H       -0.0900    -2.6240     2.6600 H     1 <1>   0.4200 
 25 H        0.8920    -2.6470    -0.0250 H     1 <1>   0.0800 
 26 H       -0.8550     0.5270     1.1470 H     1 <1>   0.1500 
 27 H        3.2510     0.0150     0.1690 H     1 <1>   0.1500 
 28 H       -0.9640    -3.8420    -0.8300 H     1 <1>   0.0800 
 29 H        1.4040    -4.2870     2.0660 H     1 <1>   0.0800 
 30 H        1.0080    -5.0220     0.5160 H     1 <1>   0.0800 
 31 H        3.0170     1.6390    -1.6550 H     1 <1>   0.1500 
 32 H       -2.0020    -5.3620     0.5320 H     1 <1>   0.0800 
 33 H       -2.3670    -4.1640     1.7690 H     1 <1>   0.0800 
 34 H       -1.6180    -1.4390    -0.5590 H     1 <1>   0.0800 
 35 H       -2.3740    -1.8400     0.9470 H     1 <1>   0.0800 
 36 H        0.8500     2.6910    -2.1010 H     1 <1>   0.1500 
 37 H       -1.4830     2.9200    -1.6510 H     1 <1>   0.0800 
 38 H       -1.7860     2.9260     0.0690 H     1 <1>   0.0800 
 39 H       -2.2540     1.5460    -0.9000 H     1 <1>   0.0800 
 40 H       -5.8020    -0.1450    -2.2030 H     1 <1>   0.0800 
 41 H       -6.0490    -1.8820    -2.1240 H     1 <1>   0.0800 
 42 H       -4.7310    -1.2180    -3.0660 H     1 <1>   0.0800 
 43 H       -5.6180     0.1310     0.1400 H     1 <1>   0.0800 
 44 H       -4.5430    -0.8710     1.0810 H     1 <1>   0.0800 
 45 H       -5.9810    -1.5690     0.3690 H     1 <1>   0.0800 
@<TRIPOS>BOND
  1   1   2  2   
  2   1   3  2   
  3   1   4  am  
  4   1   5  1   
  5   4   6  1   
  6   4  24  1   
  7   5   7  ar  
  8   5   8  ar  
  9   6   9  1   
 10   6  10  1   
 11   6  25  1   
 12   7  11  ar  
 13   7  26  1   
 14   8  12  ar  
 15   8  27  1   
 16   9  13  1   
 17   9  14  1   
 18   9  28  1   
 19  10  15  1   
 20  10  29  1   
 21  10  30  1   
 22  11  16  ar  
 23  11  17  1   
 24  12  16  ar  
 25  12  31  1   
 26  13  15  1   
 27  13  32  1   
 28  13  33  1   
 29  14  18  1   
 30  14  34  1   
 31  14  35  1   
 32  16  36  1   
 33  17  37  1   
 34  17  38  1   
 35  17  39  1   
 36  18  19  2   
 37  18  20  2   
 38  18  21  am  
 39  21  22  1   
 40  21  23  1   
 41  22  40  1   
 42  22  41  1   
 43  22  42  1   
 44  23  43  1   
 45  23  44  1   
 46  23  45  1   
@<TRIPOS>SUBSTRUCTURE
  1 ****  14 GROUP 4 **** **** 0

# MOE 2024.06 (io_trps.svl 2023.06)
