@<TRIPOS>MOLECULE
NONAME
41 42 1 0 0 
SMALL
USER_CHARGES


@<TRIPOS>ATOM
  1 F       -1.7680    -0.8150    -1.0270 F     1 <1>  -0.1900 
  2 C       -2.2490     0.1850    -0.3280 C.ar  1 <1>   0.1900 
  3 C       -1.9830     1.4870    -0.7560 C.ar  1 <1>   0.0830 
  4 C       -2.9870    -0.0990     0.8120 C.ar  1 <1>  -0.1440 
  5 O       -1.2480     1.6640    -1.8900 O.3   1 <1>  -0.3630 
  6 C       -2.4760     2.5510    -0.0010 C.ar  1 <1>  -0.1500 
  7 C       -3.4460     0.9930     1.5320 C.ar  1 <1>   0.1900 
  8 C       -3.2640    -1.5300     1.2530 C.3   1 <1>   0.2540 
  9 C       -1.0190     2.9450    -2.4330 C.3   1 <1>   0.0400 
 10 C       -3.2090     2.3010     1.1490 C.ar  1 <1>  -0.1500 
 11 F       -4.1370     0.7970     2.6270 F     1 <1>  -0.1900 
 12 N       -4.3430    -2.1550     0.4640 N.3   1 <1>  -0.8100 
 13 C       -4.4040    -3.6030     0.7330 C.3   1 <1>   0.2900 
 14 C       -5.6480    -1.4770     0.6660 C.3   1 <1>   0.1100 
 15 C       -4.7600    -4.3640    -0.5300 C.2   1 <1>  -0.3320 
 16 C       -6.7040    -1.8740    -0.3730 C.3   1 <1>   0.1200 
 17 N       -5.2710    -5.6110    -0.5540 N.pl3 1 <1>   0.0480 
 18 C       -4.6330    -3.9810    -1.8210 C.2   1 <1>   0.0770 
 19 O       -7.8760    -1.1690    -0.1220 O.3   1 <1>  -0.6800 
 20 C       -5.4290    -5.8940    -1.8660 C.2   1 <1>   0.0360 
 21 C       -5.5920    -6.4900     0.5850 C.3   1 <1>   0.0160 
 22 N       -5.0600    -4.9440    -2.6600 N.2   1 <1>  -0.5650 
 23 H       -2.2990     3.5710    -0.2870 H     1 <1>   0.1500 
 24 H       -3.5140    -1.5620     2.3000 H     1 <1>   0.0800 
 25 H       -2.3560    -2.0950     1.1190 H     1 <1>   0.0800 
 26 H       -0.4530     2.8250    -3.3400 H     1 <1>   0.0800 
 27 H       -0.4570     3.5290    -1.7270 H     1 <1>   0.0800 
 28 H       -1.9660     3.4060    -2.6530 H     1 <1>   0.0800 
 29 H       -3.5940     3.1100     1.7440 H     1 <1>   0.1500 
 30 H       -5.1230    -3.8000     1.5100 H     1 <1>   0.0800 
 31 H       -3.4460    -3.9650     1.0660 H     1 <1>   0.0800 
 32 H       -5.5150    -0.4150     0.5690 H     1 <1>   0.0800 
 33 H       -6.0120    -1.6830     1.6580 H     1 <1>   0.0800 
 34 H       -6.9340    -2.9230    -0.3320 H     1 <1>   0.0800 
 35 H       -6.3670    -1.6150    -1.3620 H     1 <1>   0.0800 
 36 H       -4.2490    -3.0410    -2.1850 H     1 <1>   0.1500 
 37 H       -8.2800    -1.4570     0.7180 H     1 <1>   0.4000 
 38 H       -5.8270    -6.8340    -2.2040 H     1 <1>   0.1500 
 39 H       -4.7120    -6.6320     1.1830 H     1 <1>   0.0800 
 40 H       -5.9340    -7.4420     0.2200 H     1 <1>   0.0800 
 41 H       -6.3660    -6.0360     1.1770 H     1 <1>   0.0800 
@<TRIPOS>BOND
  1   1   2  1   
  2   2   3  ar  
  3   2   4  ar  
  4   3   5  1   
  5   3   6  ar  
  6   4   7  ar  
  7   4   8  1   
  8   5   9  1   
  9   6  10  ar  
 10   6  23  1   
 11   7  10  ar  
 12   7  11  1   
 13   8  12  1   
 14   8  24  1   
 15   8  25  1   
 16   9  26  1   
 17   9  27  1   
 18   9  28  1   
 19  10  29  1   
 20  12  13  1   
 21  12  14  1   
 22  13  15  1   
 23  13  30  1   
 24  13  31  1   
 25  14  16  1   
 26  14  32  1   
 27  14  33  1   
 28  15  17  1   
 29  15  18  2   
 30  16  19  1   
 31  16  34  1   
 32  16  35  1   
 33  17  20  1   
 34  17  21  1   
 35  18  22  1   
 36  18  36  1   
 37  19  37  1   
 38  20  22  2   
 39  20  38  1   
 40  21  39  1   
 41  21  40  1   
 42  21  41  1   
@<TRIPOS>SUBSTRUCTURE
  1 ****  12 GROUP 4 **** **** 0

# MOE 2024.06 (io_trps.svl 2023.06)
