@<TRIPOS>MOLECULE
NONAME
45 47 1 0 0 
SMALL
USER_CHARGES


@<TRIPOS>ATOM
  1 S       -4.0150     0.0320    -2.1680 S.3   1 <1>  -0.0800 
  2 C       -3.8050    -1.5270    -1.3920 C.2   1 <1>  -0.1100 
  3 C       -3.2020     0.8440    -0.8440 C.2   1 <1>  -0.1100 
  4 C       -3.1640    -1.3970    -0.2130 C.2   1 <1>  -0.1810 
  5 C       -2.8190    -0.0410     0.0940 C.2   1 <1>  -0.1500 
  6 C       -2.8070    -2.5270     0.7500 C.3   1 <1>   0.0820 
  7 C       -3.4430    -3.8680     0.3970 C.2   1 <1>   0.5690 
  8 O       -2.7100    -4.7180    -0.0540 O.2   1 <1>  -0.5700 
  9 N       -4.7830    -4.0980     0.5960 N.am  1 <1>  -0.6600 
 10 C       -5.4110    -5.4190     0.2710 C.3   1 <1>   0.1400 
 11 C       -5.7660    -3.0990     1.1130 C.3   1 <1>   0.1400 
 12 C       -6.5290    -5.2190    -0.7630 C.3   1 <1>   0.2000 
 13 C       -6.9050    -2.9060     0.1030 C.3   1 <1>  -0.1600 
 14 O       -7.0910    -6.4470    -1.0730 O.3   1 <1>  -0.6800 
 15 C       -7.6210    -4.2390    -0.2630 C.3   1 <1>  -0.1060 
 16 C       -8.3320    -4.8620     0.9560 C.2   1 <1>   0.9060 
 17 C       -8.6520    -4.0060    -1.4010 C.3   1 <1>  -0.0170 
 18 O       -8.7380    -6.0320     0.8690 O.co2 1 <1>  -0.9000 
 19 O       -8.4790    -4.2200     2.0010 O.co2 1 <1>  -0.9000 
 20 C       -9.5340    -2.7700    -1.2330 C.ar  1 <1>  -0.1430 
 21 C       -9.3730    -1.6740    -2.0680 C.ar  1 <1>  -0.1500 
 22 C      -10.5070    -2.7280    -0.2460 C.ar  1 <1>  -0.1500 
 23 C      -10.1710    -0.5530    -1.9200 C.ar  1 <1>  -0.1500 
 24 C      -11.3050    -1.6080    -0.0940 C.ar  1 <1>  -0.1500 
 25 C      -11.1390    -0.5190    -0.9310 C.ar  1 <1>  -0.1500 
 26 H       -4.1900    -2.3910    -1.9060 H     1 <1>   0.1500 
 27 H       -3.0950     1.9120    -0.9110 H     1 <1>   0.1500 
 28 H       -2.3000     0.2090     1.0030 H     1 <1>   0.1500 
 29 H       -3.1020    -2.2620     1.7480 H     1 <1>   0.0800 
 30 H       -1.7400    -2.6470     0.7530 H     1 <1>   0.0800 
 31 H       -4.6800    -6.0970    -0.1290 H     1 <1>   0.0800 
 32 H       -5.8180    -5.8450     1.1720 H     1 <1>   0.0800 
 33 H       -6.1610    -3.4520     2.0510 H     1 <1>   0.0800 
 34 H       -5.3040    -2.1470     1.2960 H     1 <1>   0.0800 
 35 H       -6.0810    -4.8470    -1.6680 H     1 <1>   0.0800 
 36 H       -7.6170    -2.2240     0.5360 H     1 <1>   0.0800 
 37 H       -6.5130    -2.4420    -0.7830 H     1 <1>   0.0800 
 38 H       -7.7950    -6.6040    -0.3700 H     1 <1>   0.4000 
 39 H       -8.1270    -3.9220    -2.3350 H     1 <1>   0.0800 
 40 H       -9.2880    -4.8710    -1.4850 H     1 <1>   0.0800 
 41 H       -8.6210    -1.6900    -2.8360 H     1 <1>   0.1500 
 42 H      -10.6380    -3.5680     0.4180 H     1 <1>   0.1500 
 43 H      -10.0380     0.2910    -2.5710 H     1 <1>   0.1500 
 44 H      -12.0500    -1.5910     0.6820 H     1 <1>   0.1500 
 45 H      -11.7590     0.3500    -0.8110 H     1 <1>   0.1500 
@<TRIPOS>BOND
  1   1   2  1   
  2   1   3  1   
  3   2   4  2   
  4   2  26  1   
  5   3   5  2   
  6   3  27  1   
  7   4   5  1   
  8   4   6  1   
  9   5  28  1   
 10   6   7  1   
 11   6  29  1   
 12   6  30  1   
 13   7   8  2   
 14   7   9  am  
 15   9  10  1   
 16   9  11  1   
 17  10  12  1   
 18  10  31  1   
 19  10  32  1   
 20  11  13  1   
 21  11  33  1   
 22  11  34  1   
 23  12  14  1   
 24  12  15  1   
 25  12  35  1   
 26  13  15  1   
 27  13  36  1   
 28  13  37  1   
 29  14  38  1   
 30  15  16  1   
 31  15  17  1   
 32  16  18  ar  
 33  16  19  ar  
 34  17  20  1   
 35  17  39  1   
 36  17  40  1   
 37  20  21  ar  
 38  20  22  ar  
 39  21  23  ar  
 40  21  41  1   
 41  22  24  ar  
 42  22  42  1   
 43  23  25  ar  
 44  23  43  1   
 45  24  25  ar  
 46  24  44  1   
 47  25  45  1   
@<TRIPOS>SUBSTRUCTURE
  1 ****  13 GROUP 4 **** **** 0

# MOE 2024.06 (io_trps.svl 2023.06)
