@<TRIPOS>MOLECULE
NONAME
45 47 1 0 0 
SMALL
USER_CHARGES


@<TRIPOS>ATOM
  1 CL      -0.6060     0.2150     0.1140 Cl    1 <1>  -0.1770 
  2 C       -2.0420    -0.6080    -0.4640 C.ar  1 <1>   0.1770 
  3 C       -3.0310    -1.0590     0.4080 C.ar  1 <1>   0.1310 
  4 C       -2.1500    -0.7900    -1.8260 C.ar  1 <1>  -0.1500 
  5 N       -4.1350    -1.6910    -0.0560 N.ar  1 <1>  -0.6200 
  6 C       -2.8330    -0.8260     1.8350 C.2   1 <1>   0.9790 
  7 C       -3.2770    -1.4360    -2.2740 C.ar  1 <1>  -0.1500 
  8 C       -4.2330    -1.8660    -1.3630 C.ar  1 <1>   0.4100 
  9 O       -2.2200    -1.6550     2.5400 O.co2 1 <1>  -0.9000 
 10 O       -3.2500     0.2180     2.3780 O.co2 1 <1>  -0.9000 
 11 N       -5.3590    -2.5180    -1.8170 N.pl3 1 <1>  -0.8380 
 12 C       -6.6540    -1.8030    -1.5740 C.3   1 <1>   0.2090 
 13 C       -5.4380    -3.9690    -1.4590 C.3   1 <1>   0.2090 
 14 C       -7.3300    -2.1950    -0.2400 C.3   1 <1>   0.2950 
 15 C       -6.1840    -4.2220    -0.1260 C.3   1 <1>   0.2000 
 16 O       -7.4320    -3.5920    -0.1490 O.3   1 <1>  -0.5600 
 17 C       -8.7340    -1.5680    -0.1290 C.3   1 <1>  -0.1950 
 18 C       -6.4440    -5.7090     0.1510 C.3   1 <1>  -0.1600 
 19 C       -9.8060    -2.1470     0.7410 C.3   1 <1>  -0.2000 
 20 C       -9.9460    -2.1860    -0.7560 C.3   1 <1>  -0.2000 
 21 C       -5.1490    -6.5110     0.3620 C.3   1 <1>  -0.1600 
 22 C       -5.4550    -7.9640     0.7440 C.3   1 <1>  -0.1600 
 23 C       -4.1630    -8.7590     0.9550 C.3   1 <1>  -0.2400 
 24 H       -1.3840    -0.4400    -2.4920 H     1 <1>   0.1500 
 25 H       -3.4410    -1.6210    -3.3180 H     1 <1>   0.1500 
 26 H       -6.4790    -0.7410    -1.5720 H     1 <1>   0.0800 
 27 H       -7.3290    -2.0220    -2.3820 H     1 <1>   0.0800 
 28 H       -5.9400    -4.4970    -2.2500 H     1 <1>   0.0800 
 29 H       -4.4400    -4.3640    -1.3820 H     1 <1>   0.0800 
 30 H       -6.7290    -1.8470     0.5840 H     1 <1>   0.0800 
 31 H       -5.6140    -3.8080     0.6890 H     1 <1>   0.0800 
 32 H       -8.6740    -0.4930    -0.1440 H     1 <1>   0.1000 
 33 H       -7.0420    -5.7790     1.0430 H     1 <1>   0.0800 
 34 H       -7.0040    -6.1300    -0.6650 H     1 <1>   0.0800 
 35 H       -9.6090    -3.0670     1.2640 H     1 <1>   0.1000 
 36 H      -10.4270    -1.4750     1.3080 H     1 <1>   0.1000 
 37 H      -10.6720    -1.5470    -1.2260 H     1 <1>   0.1000 
 38 H       -9.8500    -3.1390    -1.2480 H     1 <1>   0.1000 
 39 H       -4.5590    -6.5020    -0.5380 H     1 <1>   0.0800 
 40 H       -4.5700    -6.0500     1.1460 H     1 <1>   0.0800 
 41 H       -6.0340    -7.9830     1.6520 H     1 <1>   0.0800 
 42 H       -6.0360    -8.4290    -0.0330 H     1 <1>   0.0800 
 43 H       -3.5740    -8.3150     1.7390 H     1 <1>   0.0800 
 44 H       -3.5800    -8.7770     0.0510 H     1 <1>   0.0800 
 45 H       -4.3950    -9.7720     1.2330 H     1 <1>   0.0800 
@<TRIPOS>BOND
  1   1   2  1   
  2   2   3  ar  
  3   2   4  ar  
  4   3   5  ar  
  5   3   6  1   
  6   4   7  ar  
  7   4  24  1   
  8   5   8  ar  
  9   6   9  ar  
 10   6  10  ar  
 11   7   8  ar  
 12   7  25  1   
 13   8  11  1   
 14  11  12  1   
 15  11  13  1   
 16  12  14  1   
 17  12  26  1   
 18  12  27  1   
 19  13  15  1   
 20  13  28  1   
 21  13  29  1   
 22  14  16  1   
 23  14  17  1   
 24  14  30  1   
 25  15  16  1   
 26  15  18  1   
 27  15  31  1   
 28  17  19  1   
 29  17  20  1   
 30  17  32  1   
 31  18  21  1   
 32  18  33  1   
 33  18  34  1   
 34  19  20  1   
 35  19  35  1   
 36  19  36  1   
 37  20  37  1   
 38  20  38  1   
 39  21  22  1   
 40  21  39  1   
 41  21  40  1   
 42  22  23  1   
 43  22  41  1   
 44  22  42  1   
 45  23  43  1   
 46  23  44  1   
 47  23  45  1   
@<TRIPOS>SUBSTRUCTURE
  1 ****   5 GROUP 4 **** **** 0

# MOE 2024.06 (io_trps.svl 2023.06)
