@<TRIPOS>MOLECULE
NONAME
52 55 1 0 0 
SMALL
USER_CHARGES


@<TRIPOS>ATOM
  1 O        1.6050     0.3550     0.8250 O.3   1 <1>  -0.6800 
  2 C        2.4270    -0.1020    -0.2000 C.3   1 <1>   0.2000 
  3 C        3.3690    -1.1490     0.3830 C.3   1 <1>  -0.0800 
  4 C        3.3590     1.0420    -0.6110 C.3   1 <1>   0.3430 
  5 C        4.4130    -0.2880     1.0990 C.3   1 <1>   0.3430 
  6 C        3.9980    -2.0290    -0.7150 C.3   1 <1>   0.0210 
  7 N        4.5510     0.9540     0.2890 N.4   1 <1>  -0.9590 
  8 C        4.8480    -3.1340    -0.1170 C.2   1 <1>   0.1080 
  9 C        4.7940     2.1560     1.1260 C.3   1 <1>   0.4860 
 10 N        5.9300    -2.9130     0.5650 N.2   1 <1>  -0.7070 
 11 C        4.5650    -4.4910    -0.2300 C.2   1 <1>  -0.1500 
 12 C        4.8800     3.3970     0.2460 C.ar  1 <1>  -0.1440 
 13 N        6.3730    -4.1420     0.9050 N.pl3 1 <1>   0.3000 
 14 C        5.5610    -5.1110     0.4360 C.2   1 <1>  -0.3320 
 15 C        6.0340     3.8220    -0.4260 C.ar  1 <1>  -0.1440 
 16 C        3.7100     4.1380     0.1270 C.ar  1 <1>  -0.1500 
 17 C        5.7910    -6.5950     0.6550 C.3   1 <1>  -0.0600 
 18 C        5.9530     4.9560    -1.2280 C.ar  1 <1>  -0.1500 
 19 C        7.4380     3.1960    -0.3430 C.3   1 <1>   0.2390 
 20 C        3.6530     5.2650    -0.6690 C.ar  1 <1>  -0.1500 
 21 C        4.7780     5.6700    -1.3540 C.ar  1 <1>  -0.1500 
 22 N        7.5080     1.7200    -0.2340 N.pl3 1 <1>   0.3140 
 23 N        7.0210     0.8740    -1.1700 N.2   1 <1>  -0.7070 
 24 C        8.1060     1.0380     0.7630 C.2   1 <1>  -0.3020 
 25 C        7.3640    -0.3130    -0.7620 C.2   1 <1>   0.1390 
 26 C        8.0320    -0.2730     0.4530 C.2   1 <1>  -0.1500 
 27 H        0.9060    -0.2990     1.0370 H     1 <1>   0.4000 
 28 H        1.8100    -0.4510    -1.0110 H     1 <1>   0.0800 
 29 H        2.8610    -1.7900     1.0830 H     1 <1>   0.0800 
 30 H        2.8480     1.9850    -0.5320 H     1 <1>   0.0800 
 31 H        3.6780     0.9010    -1.6300 H     1 <1>   0.0800 
 32 H        5.3590    -0.7920     1.2090 H     1 <1>   0.0800 
 33 H        4.0350    -0.0390     2.0770 H     1 <1>   0.0800 
 34 H        4.6120    -1.4450    -1.3770 H     1 <1>   0.0800 
 35 H        3.2200    -2.4820    -1.3040 H     1 <1>   0.0800 
 36 H        5.3890     0.8510    -0.3230 H     1 <1>   0.4500 
 37 H        3.9860     2.2720     1.8290 H     1 <1>   0.0800 
 38 H        5.7100     2.0370     1.6810 H     1 <1>   0.0800 
 39 H        3.7290    -4.9320    -0.7440 H     1 <1>   0.1500 
 40 H        7.2290    -4.2940     1.4550 H     1 <1>   0.2700 
 41 H        2.8170     3.8440     0.6560 H     1 <1>   0.1500 
 42 H        5.0090    -7.1640     0.1840 H     1 <1>   0.0800 
 43 H        5.7930    -6.8220     1.7060 H     1 <1>   0.0800 
 44 H        6.7330    -6.8940     0.2290 H     1 <1>   0.0800 
 45 H        6.8170     5.3090    -1.7660 H     1 <1>   0.1500 
 46 H        7.9520     3.6180     0.5010 H     1 <1>   0.0800 
 47 H        7.9970     3.4610    -1.2210 H     1 <1>   0.0800 
 48 H        2.7380     5.8270    -0.7550 H     1 <1>   0.1500 
 49 H        4.7410     6.5460    -1.9810 H     1 <1>   0.1500 
 50 H        8.5630     1.5060     1.6170 H     1 <1>   0.1500 
 51 H        7.1510    -1.2250    -1.2990 H     1 <1>   0.1500 
 52 H        8.4020    -1.1280     0.9930 H     1 <1>   0.1500 
@<TRIPOS>BOND
  1   1   2  1   
  2   1  27  1   
  3   2   3  1   
  4   2   4  1   
  5   2  28  1   
  6   3   5  1   
  7   3   6  1   
  8   3  29  1   
  9   4   7  1   
 10   4  30  1   
 11   4  31  1   
 12   5   7  1   
 13   5  32  1   
 14   5  33  1   
 15   6   8  1   
 16   6  34  1   
 17   6  35  1   
 18   7   9  1   
 19   7  36  1   
 20   8  10  2   
 21   8  11  1   
 22   9  12  1   
 23   9  37  1   
 24   9  38  1   
 25  10  13  1   
 26  11  14  2   
 27  11  39  1   
 28  12  15  ar  
 29  12  16  ar  
 30  13  14  1   
 31  13  40  1   
 32  14  17  1   
 33  15  18  ar  
 34  15  19  1   
 35  16  20  ar  
 36  16  41  1   
 37  17  42  1   
 38  17  43  1   
 39  17  44  1   
 40  18  21  ar  
 41  18  45  1   
 42  19  22  1   
 43  19  46  1   
 44  19  47  1   
 45  20  21  ar  
 46  20  48  1   
 47  21  49  1   
 48  22  23  1   
 49  22  24  1   
 50  23  25  2   
 51  24  26  2   
 52  24  50  1   
 53  25  26  1   
 54  25  51  1   
 55  26  52  1   
@<TRIPOS>SUBSTRUCTURE
  1 ****   7 GROUP 4 **** **** 0

# MOE 2024.06 (io_trps.svl 2023.06)
