@<TRIPOS>MOLECULE
NONAME
56 58 1 0 0 
SMALL
USER_CHARGES


@<TRIPOS>ATOM
  1 F       -0.1830     0.2820    -0.0580 F     1 <1>  -0.1900 
  2 C       -1.4620     0.5490    -0.1390 C.ar  1 <1>   0.1900 
  3 C       -1.9920     1.7750     0.2780 C.ar  1 <1>   0.0830 
  4 C       -2.2650    -0.4470    -0.6620 C.ar  1 <1>  -0.1500 
  5 O       -1.3070     2.8300     0.8060 O.3   1 <1>  -0.3630 
  6 C       -3.3590     1.9600     0.1500 C.ar  1 <1>  -0.1500 
  7 C       -3.6250    -0.2280    -0.7770 C.ar  1 <1>  -0.1500 
  8 C        0.0830     2.8020     1.0450 C.3   1 <1>   0.0400 
  9 C       -4.2020     0.9760    -0.3690 C.ar  1 <1>   0.0530 
 10 C       -5.6170     1.2210    -0.4890 C.2   1 <1>   0.0870 
 11 O       -6.0230     2.3480    -1.0150 O.3   1 <1>  -0.0190 
 12 C       -6.7320     0.5140    -0.1530 C.2   1 <1>  -0.0860 
 13 N       -7.3230     2.4480    -1.0720 N.2   1 <1>  -0.4100 
 14 C       -7.7760     1.3580    -0.5630 C.2   1 <1>   0.3720 
 15 C       -6.8830    -0.7590     0.4880 C.2   1 <1>   0.7160 
 16 N       -9.1500     1.0740    -0.4680 N.pl3 1 <1>  -0.8210 
 17 O       -5.9540    -1.5350     0.6020 O.2   1 <1>  -0.5700 
 18 N       -8.0980    -1.1310     0.9750 N.am  1 <1>  -0.7300 
 19 C       -9.6740     0.3630    -1.6670 C.3   1 <1>   0.1290 
 20 C       -9.9960     2.2530    -0.1220 C.3   1 <1>   0.1290 
 21 C       -8.4940    -2.4580     1.4740 C.3   1 <1>   0.1400 
 22 C       -9.6290    -2.9780     0.5950 C.3   1 <1>  -0.1600 
 23 C      -10.0720    -4.3830     1.0130 C.3   1 <1>   0.0210 
 24 C      -11.2010    -4.8530     0.1130 C.2   1 <1>  -0.1810 
 25 C      -11.0690    -5.5080    -1.1110 C.2   1 <1>   0.1080 
 26 C      -12.5340    -4.7340     0.2970 C.2   1 <1>  -0.3320 
 27 N      -12.2150    -5.7760    -1.6510 N.2   1 <1>  -0.7070 
 28 C       -9.7650    -5.8900    -1.7770 C.3   1 <1>  -0.0590 
 29 N      -13.1200    -5.3020    -0.7780 N.pl3 1 <1>   0.3000 
 30 C      -13.3240    -4.1090     1.4350 C.3   1 <1>  -0.0600 
 31 H       -1.8300    -1.3790    -0.9730 H     1 <1>   0.1500 
 32 H       -3.7810     2.8980     0.4640 H     1 <1>   0.1500 
 33 H       -4.2510    -1.0010    -1.1870 H     1 <1>   0.1500 
 34 H        0.3650     3.7430     1.4820 H     1 <1>   0.0800 
 35 H        0.5970     2.6660     0.1100 H     1 <1>   0.0800 
 36 H        0.3040     2.0020     1.7290 H     1 <1>   0.0800 
 37 H       -8.8560    -0.4620     0.7710 H     1 <1>   0.3700 
 38 H       -9.0570    -0.4920    -1.8860 H     1 <1>   0.0800 
 39 H       -9.6680     1.0220    -2.5190 H     1 <1>   0.0800 
 40 H      -10.6790     0.0250    -1.4860 H     1 <1>   0.0800 
 41 H       -9.5580     2.7860     0.7050 H     1 <1>   0.0800 
 42 H      -10.9830     1.9290     0.1590 H     1 <1>   0.0800 
 43 H      -10.0660     2.9210    -0.9630 H     1 <1>   0.0800 
 44 H       -8.8200    -2.3700     2.4970 H     1 <1>   0.0800 
 45 H       -7.6540    -3.1320     1.4380 H     1 <1>   0.0800 
 46 H       -9.3000    -3.0060    -0.4280 H     1 <1>   0.0800 
 47 H      -10.4720    -2.3130     0.6650 H     1 <1>   0.0800 
 48 H      -10.4070    -4.3750     2.0340 H     1 <1>   0.0800 
 49 H       -9.2470    -5.0700     0.9440 H     1 <1>   0.0800 
 50 H       -9.1180    -5.0360    -1.8400 H     1 <1>   0.0800 
 51 H       -9.9580    -6.2540    -2.7690 H     1 <1>   0.0800 
 52 H       -9.2840    -6.6640    -1.2100 H     1 <1>   0.0800 
 53 H      -14.1290    -5.3810    -0.9470 H     1 <1>   0.2700 
 54 H      -12.6630    -3.6750     2.1630 H     1 <1>   0.0800 
 55 H      -13.9250    -4.8570     1.9210 H     1 <1>   0.0800 
 56 H      -13.9670    -3.3350     1.0570 H     1 <1>   0.0800 
@<TRIPOS>BOND
  1   1   2  1   
  2   2   3  ar  
  3   2   4  ar  
  4   3   5  1   
  5   3   6  ar  
  6   4   7  ar  
  7   4  31  1   
  8   5   8  1   
  9   6   9  ar  
 10   6  32  1   
 11   7   9  ar  
 12   7  33  1   
 13   8  34  1   
 14   8  35  1   
 15   8  36  1   
 16   9  10  1   
 17  10  11  1   
 18  10  12  2   
 19  11  13  1   
 20  12  14  1   
 21  12  15  1   
 22  13  14  2   
 23  14  16  1   
 24  15  17  2   
 25  15  18  am  
 26  16  19  1   
 27  16  20  1   
 28  18  21  1   
 29  18  37  1   
 30  19  38  1   
 31  19  39  1   
 32  19  40  1   
 33  20  41  1   
 34  20  42  1   
 35  20  43  1   
 36  21  22  1   
 37  21  44  1   
 38  21  45  1   
 39  22  23  1   
 40  22  46  1   
 41  22  47  1   
 42  23  24  1   
 43  23  48  1   
 44  23  49  1   
 45  24  25  1   
 46  24  26  2   
 47  25  27  2   
 48  25  28  1   
 49  26  29  1   
 50  26  30  1   
 51  27  29  1   
 52  28  50  1   
 53  28  51  1   
 54  28  52  1   
 55  29  53  1   
 56  30  54  1   
 57  30  55  1   
 58  30  56  1   
@<TRIPOS>SUBSTRUCTURE
  1 ****  15 GROUP 4 **** **** 0

# MOE 2024.06 (io_trps.svl 2023.06)
