@<TRIPOS>MOLECULE
NONAME
53 55 1 0 0 
SMALL
USER_CHARGES


@<TRIPOS>ATOM
  1 O       -0.4590     0.2040    -0.8370 O.co2 1 <1>  -0.9000 
  2 C       -0.7130     0.8560     0.1820 C.2   1 <1>   0.9060 
  3 O       -1.1620     0.3110     1.2030 O.co2 1 <1>  -0.9000 
  4 C       -0.4540     2.3630     0.2170 C.3   1 <1>  -0.1060 
  5 C       -1.6950     3.0250     0.8550 C.3   1 <1>   0.2000 
  6 C       -0.4160     2.8910    -1.2370 C.3   1 <1>   0.1100 
  7 C        0.8440     2.5910     1.0650 C.3   1 <1>  -0.0170 
  8 O       -1.7400     2.7270     2.2040 O.3   1 <1>  -0.6800 
  9 C       -1.7830     4.5490     0.6620 C.3   1 <1>  -0.1600 
 10 N       -0.3790     4.3730    -1.3750 N.3   1 <1>  -0.8100 
 11 C        2.1550     2.7970     0.3070 C.ar  1 <1>  -0.1440 
 12 C       -0.6170     5.1380    -0.1400 C.3   1 <1>   0.1100 
 13 C        0.7850     4.7960    -2.2130 C.3   1 <1>   0.1710 
 14 C        2.6030     1.8670    -0.6180 C.ar  1 <1>  -0.1500 
 15 C        2.9260     3.9230     0.5570 C.ar  1 <1>  -0.1500 
 16 C        1.2240     6.2620    -2.1420 C.2   1 <1>   0.5690 
 17 C        3.7800     2.0810    -1.3140 C.ar  1 <1>  -0.1500 
 18 C        4.1020     4.1430    -0.1380 C.ar  1 <1>  -0.1500 
 19 O        0.9460     7.0200    -3.0450 O.2   1 <1>  -0.5700 
 20 N        1.9570     6.6380    -1.0560 N.am  1 <1>  -0.4930 
 21 C        4.5270     3.2220    -1.0800 C.ar  1 <1>  -0.1500 
 22 C        2.5160     7.9020    -0.7460 C.2   1 <1>   0.0630 
 23 C        2.8960     8.3500     0.4710 C.2   1 <1>  -0.3320 
 24 C        2.8120     8.9490    -1.6190 C.2   1 <1>   0.1390 
 25 N        3.4030     9.5940     0.2800 N.pl3 1 <1>   0.3140 
 26 C        2.7920     7.6750     1.8300 C.3   1 <1>  -0.0600 
 27 N        3.3510     9.9620    -1.0100 N.2   1 <1>  -0.7070 
 28 C        3.9510    10.4990     1.2980 C.3   1 <1>   0.0160 
 29 H       -2.5760     2.5830     0.4160 H     1 <1>   0.0800 
 30 H       -1.3120     2.5520    -1.7290 H     1 <1>   0.0800 
 31 H        0.3940     2.4330    -1.7740 H     1 <1>   0.0800 
 32 H        0.6960     3.4300     1.7160 H     1 <1>   0.0800 
 33 H        0.9810     1.7520     1.7260 H     1 <1>   0.0800 
 34 H       -1.6250     1.7350     2.2460 H     1 <1>   0.4000 
 35 H       -2.6880     4.7670     0.1250 H     1 <1>   0.0800 
 36 H       -1.8430     5.0460     1.6140 H     1 <1>   0.0800 
 37 H        0.2680     5.1420     0.4650 H     1 <1>   0.0800 
 38 H       -0.8500     6.1590    -0.3930 H     1 <1>   0.0800 
 39 H        1.6420     4.2030    -1.9520 H     1 <1>   0.0800 
 40 H        0.5520     4.5710    -3.2390 H     1 <1>   0.0800 
 41 H        2.0260     0.9730    -0.8030 H     1 <1>   0.1500 
 42 H        2.6110     4.6260     1.3050 H     1 <1>   0.1500 
 43 H        4.1080     1.3540    -2.0350 H     1 <1>   0.1500 
 44 H        4.6910     5.0240     0.0540 H     1 <1>   0.1500 
 45 H        2.1370     5.8950    -0.3820 H     1 <1>   0.3700 
 46 H        5.4410     3.3870    -1.6240 H     1 <1>   0.1500 
 47 H        2.6180     8.9200    -2.6780 H     1 <1>   0.1500 
 48 H        2.1520     6.8150     1.7740 H     1 <1>   0.0800 
 49 H        2.3700     8.3520     2.5500 H     1 <1>   0.0800 
 50 H        3.7660     7.3660     2.1680 H     1 <1>   0.0800 
 51 H        4.7130     9.9880     1.8540 H     1 <1>   0.0800 
 52 H        3.1600    10.8110     1.9530 H     1 <1>   0.0800 
 53 H        4.3740    11.3590     0.8120 H     1 <1>   0.0800 
@<TRIPOS>BOND
  1   1   2  ar  
  2   2   3  ar  
  3   2   4  1   
  4   4   5  1   
  5   4   6  1   
  6   4   7  1   
  7   5   8  1   
  8   5   9  1   
  9   5  29  1   
 10   6  10  1   
 11   6  30  1   
 12   6  31  1   
 13   7  11  1   
 14   7  32  1   
 15   7  33  1   
 16   8  34  1   
 17   9  12  1   
 18   9  35  1   
 19   9  36  1   
 20  10  12  1   
 21  10  13  1   
 22  11  14  ar  
 23  11  15  ar  
 24  12  37  1   
 25  12  38  1   
 26  13  16  1   
 27  13  39  1   
 28  13  40  1   
 29  14  17  ar  
 30  14  41  1   
 31  15  18  ar  
 32  15  42  1   
 33  16  19  2   
 34  16  20  am  
 35  17  21  ar  
 36  17  43  1   
 37  18  21  ar  
 38  18  44  1   
 39  20  22  1   
 40  20  45  1   
 41  21  46  1   
 42  22  23  2   
 43  22  24  1   
 44  23  25  1   
 45  23  26  1   
 46  24  27  2   
 47  24  47  1   
 48  25  27  1   
 49  25  28  1   
 50  26  48  1   
 51  26  49  1   
 52  26  50  1   
 53  28  51  1   
 54  28  52  1   
 55  28  53  1   
@<TRIPOS>SUBSTRUCTURE
  1 ****  15 GROUP 4 **** **** 0

# MOE 2024.06 (io_trps.svl 2023.06)
