@<TRIPOS>MOLECULE
NONAME
48 50 1 0 0 
SMALL
USER_CHARGES


@<TRIPOS>ATOM
  1 S       -0.2330     0.3250    -0.1650 S.o2  1 <1>   1.3330 
  2 O        0.4210    -0.1050    -1.3790 O.2   1 <1>  -0.6500 
  3 O       -1.6570     0.1510    -0.0020 O.2   1 <1>  -0.6500 
  4 N        0.1290     1.9620     0.0750 N.am  1 <1>  -0.8490 
  5 C        0.5720    -0.4430     1.2240 C.3   1 <1>  -0.1350 
  6 C        1.3420     2.3940    -0.6430 C.3   1 <1>   0.1960 
  7 C       -0.9950     2.8420    -0.2890 C.3   1 <1>   0.1960 
  8 C        1.6440     3.8860    -0.3990 C.3   1 <1>   0.2000 
  9 C       -0.6410     4.3240    -0.0660 C.3   1 <1>   0.1200 
 10 O        0.5280     4.6650    -0.7560 O.3   1 <1>  -0.5600 
 11 C        2.8640     4.3550    -1.2070 C.3   1 <1>   0.2090 
 12 N        3.0600     5.8100    -1.0370 N.pl3 1 <1>  -0.8190 
 13 C        4.1770     6.5310    -0.8280 C.2   1 <1>   0.4860 
 14 N        3.9600     7.7790    -0.4640 N.2   1 <1>  -0.6210 
 15 C        5.4710     6.0010    -0.9870 C.2   1 <1>  -0.1360 
 16 C        5.0130     8.5670    -0.2260 C.2   1 <1>   0.2710 
 17 C        6.5390     6.7980    -0.7470 C.2   1 <1>  -0.0380 
 18 N        6.2740     8.0650    -0.3690 N.pl3 1 <1>  -0.6000 
 19 C        4.8190     9.9260     0.1750 C.2   1 <1>   0.0140 
 20 C        7.9870     6.3750    -0.8750 C.3   1 <1>  -0.1020 
 21 C        5.8910    10.8280     0.4470 C.2   1 <1>   0.5410 
 22 C        3.5160    10.4490     0.3240 C.2   1 <1>  -0.1500 
 23 O        7.1010    10.5150     0.3590 O.2   1 <1>  -0.5700 
 24 C        5.6080    12.1540     0.8380 C.2   1 <1>  -0.1360 
 25 C        3.2670    11.7440     0.7060 C.2   1 <1>  -0.1500 
 26 C        4.3280    12.6120     0.9680 C.2   1 <1>  -0.1500 
 27 H        0.4090    -1.5030     1.2000 H     1 <1>   0.0800 
 28 H        0.1740    -0.0540     2.1400 H     1 <1>   0.0800 
 29 H        1.6260    -0.2550     1.1940 H     1 <1>   0.0800 
 30 H        1.2160     2.2360    -1.7020 H     1 <1>   0.0800 
 31 H        2.1800     1.8030    -0.3160 H     1 <1>   0.0800 
 32 H       -1.8540     2.6010     0.3130 H     1 <1>   0.0800 
 33 H       -1.2620     2.6910    -1.3220 H     1 <1>   0.0800 
 34 H        1.8420     4.0440     0.6470 H     1 <1>   0.0800 
 35 H       -0.4940     4.5220     0.9820 H     1 <1>   0.0800 
 36 H       -1.4330     4.9540    -0.4300 H     1 <1>   0.0800 
 37 H        2.7070     4.1410    -2.2510 H     1 <1>   0.0800 
 38 H        3.7370     3.8230    -0.8760 H     1 <1>   0.0800 
 39 H        2.1790     6.3290    -0.9510 H     1 <1>   0.4000 
 40 H        5.5890     4.9860    -1.3000 H     1 <1>   0.1500 
 41 H        7.0410     8.7290    -0.1710 H     1 <1>   0.4000 
 42 H        8.4820     6.9870    -1.6070 H     1 <1>   0.0800 
 43 H        8.0550     5.3470    -1.1800 H     1 <1>   0.0800 
 44 H        8.4850     6.4890     0.0710 H     1 <1>   0.0800 
 45 H        2.6750     9.8050     0.1300 H     1 <1>   0.1500 
 46 H        6.4500    12.7930     1.0310 H     1 <1>   0.1500 
 47 H        2.2550    12.1010     0.8070 H     1 <1>   0.1500 
 48 H        4.1220    13.6260     1.2670 H     1 <1>   0.1500 
@<TRIPOS>BOND
  1   1   2  2   
  2   1   3  2   
  3   1   4  am  
  4   1   5  1   
  5   4   6  1   
  6   4   7  1   
  7   5  27  1   
  8   5  28  1   
  9   5  29  1   
 10   6   8  1   
 11   6  30  1   
 12   6  31  1   
 13   7   9  1   
 14   7  32  1   
 15   7  33  1   
 16   8  10  1   
 17   8  11  1   
 18   8  34  1   
 19   9  10  1   
 20   9  35  1   
 21   9  36  1   
 22  11  12  1   
 23  11  37  1   
 24  11  38  1   
 25  12  13  1   
 26  12  39  1   
 27  13  14  2   
 28  13  15  1   
 29  14  16  1   
 30  15  17  2   
 31  15  40  1   
 32  16  18  1   
 33  16  19  2   
 34  17  18  1   
 35  17  20  1   
 36  18  41  1   
 37  19  21  1   
 38  19  22  1   
 39  20  42  1   
 40  20  43  1   
 41  20  44  1   
 42  21  23  2   
 43  21  24  1   
 44  22  25  2   
 45  22  45  1   
 46  24  26  2   
 47  24  46  1   
 48  25  26  1   
 49  25  47  1   
 50  26  48  1   
@<TRIPOS>SUBSTRUCTURE
  1 ****  12 GROUP 4 **** **** 0

# MOE 2024.06 (io_trps.svl 2023.06)
