@<TRIPOS>MOLECULE
NONAME
52 54 1 0 0 
SMALL
USER_CHARGES


@<TRIPOS>ATOM
  1 F        2.1400    -0.5240    -2.4330 F     1 <1>  -0.1900 
  2 C        2.5000    -0.3320    -1.1880 C.ar  1 <1>   0.1900 
  3 C        2.0270    -1.1940    -0.1920 C.ar  1 <1>   0.0860 
  4 C        3.3210     0.7500    -0.9540 C.ar  1 <1>  -0.1500 
  5 C        2.4280    -0.8730     1.1380 C.ar  1 <1>  -0.1710 
  6 C        1.1890    -2.3190    -0.5180 C.2   1 <1>   0.5440 
  7 C        3.7100     1.0310     0.3530 C.ar  1 <1>  -0.1500 
  8 O        2.0650    -1.5410     2.1330 O.3   1 <1>  -0.8290 
  9 C        3.2650     0.2310     1.3740 C.ar  1 <1>  -0.1500 
 10 O        1.4990    -3.0890    -1.4270 O.2   1 <1>  -0.5700 
 11 N       -0.0180    -2.5860     0.1130 N.am  1 <1>  -0.6600 
 12 C       -0.4290    -3.9900     0.3210 C.3   1 <1>   0.1400 
 13 C       -0.6670    -1.5850     0.9910 C.3   1 <1>   0.1400 
 14 C       -1.7100    -4.2590    -0.4710 C.3   1 <1>   0.1400 
 15 C       -2.1800    -1.5450     0.7560 C.3   1 <1>  -0.1600 
 16 N       -2.9900    -3.9060     0.2430 N.am  1 <1>  -0.6600 
 17 C       -2.9100    -2.7960     1.2590 C.3   1 <1>   0.1400 
 18 C       -4.1930    -4.5560     0.0680 C.2   1 <1>   0.5690 
 19 O       -5.0720    -4.4250     0.8920 O.2   1 <1>  -0.5700 
 20 C       -4.4910    -5.5330    -1.1020 C.3   1 <1>   0.0610 
 21 C       -3.8890    -6.8830    -0.7140 C.3   1 <1>   0.3430 
 22 C       -5.9860    -5.8960    -1.1950 C.3   1 <1>  -0.1600 
 23 C       -4.0350    -5.0330    -2.4960 C.3   1 <1>  -0.2400 
 24 N       -4.9150    -7.6080     0.1070 N.4   1 <1>  -0.9590 
 25 C       -6.2200    -6.9050    -0.0810 C.3   1 <1>   0.3430 
 26 C       -4.5460    -7.6140     1.5570 C.3   1 <1>   0.2630 
 27 H        3.6520     1.3670    -1.7670 H     1 <1>   0.1500 
 28 H        4.3510     1.8690     0.5560 H     1 <1>   0.1500 
 29 H        3.5400     0.4150     2.3960 H     1 <1>   0.1500 
 30 H       -0.5550    -4.1950     1.3690 H     1 <1>   0.0800 
 31 H        0.3480    -4.6410    -0.0380 H     1 <1>   0.0800 
 32 H       -0.2580    -0.6100     0.7910 H     1 <1>   0.0800 
 33 H       -0.4420    -1.8190     2.0190 H     1 <1>   0.0800 
 34 H       -1.7100    -5.3030    -0.7130 H     1 <1>   0.0800 
 35 H       -1.6490    -3.7040    -1.3920 H     1 <1>   0.0800 
 36 H       -2.3980    -1.3590    -0.2800 H     1 <1>   0.0800 
 37 H       -2.5520    -0.7070     1.3160 H     1 <1>   0.0800 
 38 H       -3.9050    -2.4890     1.5330 H     1 <1>   0.0800 
 39 H       -2.4370    -3.1600     2.1560 H     1 <1>   0.0800 
 40 H       -2.9690    -6.7580    -0.1680 H     1 <1>   0.0800 
 41 H       -3.6900    -7.4450    -1.6110 H     1 <1>   0.0800 
 42 H       -6.2220    -6.3700    -2.1310 H     1 <1>   0.0800 
 43 H       -6.6250    -5.0360    -1.0850 H     1 <1>   0.0800 
 44 H       -2.9690    -5.0260    -2.6030 H     1 <1>   0.0800 
 45 H       -4.3970    -4.0320    -2.6590 H     1 <1>   0.0800 
 46 H       -4.4190    -5.6590    -3.2820 H     1 <1>   0.0800 
 47 H       -5.0000    -8.5770    -0.2320 H     1 <1>   0.4500 
 48 H       -7.0130    -7.5920    -0.3320 H     1 <1>   0.0800 
 49 H       -6.4850    -6.3740     0.8210 H     1 <1>   0.0800 
 50 H       -4.4740    -6.6020     1.9270 H     1 <1>   0.0800 
 51 H       -3.5970    -8.1030     1.7030 H     1 <1>   0.0800 
 52 H       -5.2950    -8.1350     2.1320 H     1 <1>   0.0800 
@<TRIPOS>BOND
  1   1   2  1   
  2   2   3  ar  
  3   2   4  ar  
  4   3   5  ar  
  5   3   6  1   
  6   4   7  ar  
  7   4  27  1   
  8   5   8  1   
  9   5   9  ar  
 10   6  10  2   
 11   6  11  am  
 12   7   9  ar  
 13   7  28  1   
 14   9  29  1   
 15  11  12  1   
 16  11  13  1   
 17  12  14  1   
 18  12  30  1   
 19  12  31  1   
 20  13  15  1   
 21  13  32  1   
 22  13  33  1   
 23  14  16  1   
 24  14  34  1   
 25  14  35  1   
 26  15  17  1   
 27  15  36  1   
 28  15  37  1   
 29  16  17  1   
 30  16  18  am  
 31  17  38  1   
 32  17  39  1   
 33  18  19  2   
 34  18  20  1   
 35  20  21  1   
 36  20  22  1   
 37  20  23  1   
 38  21  24  1   
 39  21  40  1   
 40  21  41  1   
 41  22  25  1   
 42  22  42  1   
 43  22  43  1   
 44  23  44  1   
 45  23  45  1   
 46  23  46  1   
 47  24  25  1   
 48  24  26  1   
 49  24  47  1   
 50  25  48  1   
 51  25  49  1   
 52  26  50  1   
 53  26  51  1   
 54  26  52  1   
@<TRIPOS>SUBSTRUCTURE
  1 ****  12 GROUP 4 **** **** 0

# MOE 2024.06 (io_trps.svl 2023.06)
