@<TRIPOS>MOLECULE
NONAME
46 47 1 0 0 
SMALL
USER_CHARGES


@<TRIPOS>ATOM
  1 S       -0.5690     0.9360     0.0570 S.3   1 <1>  -0.3320 
  2 C        0.2550    -0.6490     0.0600 C.ar  1 <1>   0.7220 
  3 C        0.5230     2.1130    -0.8880 C.3   1 <1>   0.1310 
  4 N        1.4380    -0.7030    -0.5330 N.ar  1 <1>  -0.6200 
  5 N       -0.4180    -1.6100     0.6690 N.ar  1 <1>  -0.6200 
  6 C        0.9510     3.2750    -0.0020 C.2   1 <1>   0.5690 
  7 C        2.0120    -1.8830    -0.5110 C.ar  1 <1>   0.1660 
  8 C        0.1830    -2.7780     0.6720 C.ar  1 <1>   0.1600 
  9 O        0.4600     4.3560    -0.2330 O.2   1 <1>  -0.5700 
 10 N        1.8710     3.1080     1.0010 N.am  1 <1>  -0.6600 
 11 C        1.4140    -2.9680     0.0890 C.ar  1 <1>  -0.1500 
 12 C        3.3670    -1.9990    -1.1770 C.3   1 <1>  -0.0970 
 13 C        2.2400     4.2510     1.8900 C.3   1 <1>   0.3210 
 14 C        2.6220     1.8480     1.2600 C.3   1 <1>   0.0600 
 15 C        3.5910     4.8330     1.4970 C.2   1 <1>   0.1080 
 16 N        4.6760     4.6990     2.2010 N.2   1 <1>  -0.7070 
 17 C        3.8070     5.5760     0.3420 C.2   1 <1>  -0.1500 
 18 N        5.6150     5.3630     1.5010 N.pl3 1 <1>   0.3000 
 19 C        5.1180     5.9070     0.3690 C.2   1 <1>  -0.3320 
 20 C        5.9620     6.7160    -0.6090 C.3   1 <1>   0.1800 
 21 C        6.5360     7.9420     0.1090 C.3   1 <1>  -0.2400 
 22 C        5.1030     7.1880    -1.7890 C.3   1 <1>  -0.2400 
 23 C        7.1040     5.8450    -1.1420 C.3   1 <1>  -0.2400 
 24 H       -0.0680     2.4800    -1.7060 H     1 <1>   0.0800 
 25 H        1.3750     1.5960    -1.2800 H     1 <1>   0.0800 
 26 H       -0.3200    -3.6010     1.1520 H     1 <1>   0.1500 
 27 H        1.8840    -3.9330     0.1040 H     1 <1>   0.1500 
 28 H        4.0600    -1.3250    -0.7070 H     1 <1>   0.0800 
 29 H        3.2810    -1.7380    -2.2160 H     1 <1>   0.0800 
 30 H        3.7510    -3.0000    -1.1010 H     1 <1>   0.0800 
 31 H        2.2840     3.9100     2.9090 H     1 <1>   0.0800 
 32 H        1.4960     5.0260     1.8370 H     1 <1>   0.0800 
 33 H        2.9190     1.3910     0.3340 H     1 <1>   0.0800 
 34 H        2.0040     1.1630     1.8150 H     1 <1>   0.0800 
 35 H        3.5130     2.0530     1.8300 H     1 <1>   0.0800 
 36 H        3.0510     5.8090    -0.3880 H     1 <1>   0.1500 
 37 H        6.5880     5.4320     1.8180 H     1 <1>   0.2700 
 38 H        5.7370     8.5370     0.5140 H     1 <1>   0.0800 
 39 H        7.1020     8.5490    -0.5740 H     1 <1>   0.0800 
 40 H        7.1820     7.6480     0.9160 H     1 <1>   0.0800 
 41 H        4.2930     7.8030    -1.4380 H     1 <1>   0.0800 
 42 H        4.6900     6.3440    -2.3110 H     1 <1>   0.0800 
 43 H        5.6920     7.7630    -2.4810 H     1 <1>   0.0800 
 44 H        7.7530     5.5310    -0.3450 H     1 <1>   0.0800 
 45 H        7.6890     6.3890    -1.8620 H     1 <1>   0.0800 
 46 H        6.7040     4.9670    -1.6190 H     1 <1>   0.0800 
@<TRIPOS>BOND
  1   1   2  1   
  2   1   3  1   
  3   2   4  ar  
  4   2   5  ar  
  5   3   6  1   
  6   3  24  1   
  7   3  25  1   
  8   4   7  ar  
  9   5   8  ar  
 10   6   9  2   
 11   6  10  am  
 12   7  11  ar  
 13   7  12  1   
 14   8  11  ar  
 15   8  26  1   
 16  10  13  1   
 17  10  14  1   
 18  11  27  1   
 19  12  28  1   
 20  12  29  1   
 21  12  30  1   
 22  13  15  1   
 23  13  31  1   
 24  13  32  1   
 25  14  33  1   
 26  14  34  1   
 27  14  35  1   
 28  15  16  2   
 29  15  17  1   
 30  16  18  1   
 31  17  19  2   
 32  17  36  1   
 33  18  19  1   
 34  18  37  1   
 35  19  20  1   
 36  20  21  1   
 37  20  22  1   
 38  20  23  1   
 39  21  38  1   
 40  21  39  1   
 41  21  40  1   
 42  22  41  1   
 43  22  42  1   
 44  22  43  1   
 45  23  44  1   
 46  23  45  1   
 47  23  46  1   
@<TRIPOS>SUBSTRUCTURE
  1 ****  10 GROUP 4 **** **** 0

# MOE 2024.06 (io_trps.svl 2023.06)
