@<TRIPOS>MOLECULE
NONAME
43 45 1 0 0 
SMALL
USER_CHARGES


@<TRIPOS>ATOM
  1 S        2.0720     0.2410    -1.9910 S.3   1 <1>  -0.4600 
  2 C        2.6030     0.3050    -0.2540 C.3   1 <1>   0.2500 
  3 C        0.8930    -1.1350    -2.0220 C.3   1 <1>  -0.0100 
  4 C        3.4160     1.5680    -0.0380 C.2   1 <1>  -0.0400 
  5 O        2.7930     2.6940     0.2290 O.3   1 <1>  -0.2800 
  6 C        4.7500     1.7700    -0.0610 C.2   1 <1>  -0.1500 
  7 C        3.6880     3.6660     0.3810 C.2   1 <1>   0.0550 
  8 C        4.9300     3.1270     0.2080 C.2   1 <1>  -0.1500 
  9 C        3.2780     5.0230     0.6730 C.2   1 <1>   0.7150 
 10 O        2.1460     5.2880     1.0360 O.2   1 <1>  -0.5700 
 11 N        4.2100     6.0260     0.5410 N.am  1 <1>  -0.4940 
 12 C        4.0970     7.4300     0.6980 C.2   1 <1>  -0.0880 
 13 N        5.1320     8.3250     0.7150 N.pl3 1 <1>   0.3140 
 14 C        2.9650     8.1590     0.8380 C.2   1 <1>  -0.1500 
 15 N        4.6670     9.5950     0.8440 N.2   1 <1>  -0.7070 
 16 C        6.6150     8.1100     0.6740 C.3   1 <1>   0.2710 
 17 C        3.3820     9.4790     0.9210 C.2   1 <1>   0.1080 
 18 C        7.0450     6.7620     0.0540 C.3   1 <1>  -0.1950 
 19 C        7.2140     8.2520     2.0800 C.3   1 <1>  -0.2400 
 20 C        2.4680    10.6710     1.0800 C.3   1 <1>  -0.0590 
 21 C        8.2380     6.7030    -0.8500 C.3   1 <1>  -0.2000 
 22 C        6.8630     6.4650    -1.4030 C.3   1 <1>  -0.2000 
 23 H        3.1930    -0.5740    -0.0720 H     1 <1>   0.0800 
 24 H        1.7220     0.3030     0.3630 H     1 <1>   0.0800 
 25 H        0.5380    -1.2360    -3.0320 H     1 <1>   0.0800 
 26 H        0.0840    -0.8960    -1.3550 H     1 <1>   0.0800 
 27 H        1.4090    -2.0250    -1.7080 H     1 <1>   0.0800 
 28 H        5.5310     1.0540    -0.2510 H     1 <1>   0.1500 
 29 H        5.8870     3.6110     0.2620 H     1 <1>   0.1500 
 30 H        5.1050     5.7070     0.1760 H     1 <1>   0.3700 
 31 H        1.9490     7.8090     0.8750 H     1 <1>   0.1500 
 32 H        7.0090     8.9000     0.0600 H     1 <1>   0.0800 
 33 H        6.9760     5.9520     0.7600 H     1 <1>   0.1000 
 34 H        6.8120     7.5030     2.7380 H     1 <1>   0.0800 
 35 H        6.9870     9.2270     2.4760 H     1 <1>   0.0800 
 36 H        8.2820     8.1430     2.0380 H     1 <1>   0.0800 
 37 H        1.4430    10.3540     1.1300 H     1 <1>   0.0800 
 38 H        2.5940    11.3330     0.2440 H     1 <1>   0.0800 
 39 H        2.7200    11.1950     1.9830 H     1 <1>   0.0800 
 40 H        8.9120     5.8670    -0.7680 H     1 <1>   0.1000 
 41 H        8.7460     7.6110    -1.1260 H     1 <1>   0.1000 
 42 H        6.4290     7.2180    -2.0410 H     1 <1>   0.1000 
 43 H        6.6100     5.4670    -1.7210 H     1 <1>   0.1000 
@<TRIPOS>BOND
  1   1   2  1   
  2   1   3  1   
  3   2   4  1   
  4   2  23  1   
  5   2  24  1   
  6   3  25  1   
  7   3  26  1   
  8   3  27  1   
  9   4   5  1   
 10   4   6  2   
 11   5   7  1   
 12   6   8  1   
 13   6  28  1   
 14   7   8  2   
 15   7   9  1   
 16   8  29  1   
 17   9  10  2   
 18   9  11  am  
 19  11  12  1   
 20  11  30  1   
 21  12  13  1   
 22  12  14  2   
 23  13  15  1   
 24  13  16  1   
 25  14  17  1   
 26  14  31  1   
 27  15  17  2   
 28  16  18  1   
 29  16  19  1   
 30  16  32  1   
 31  17  20  1   
 32  18  21  1   
 33  18  22  1   
 34  18  33  1   
 35  19  34  1   
 36  19  35  1   
 37  19  36  1   
 38  20  37  1   
 39  20  38  1   
 40  20  39  1   
 41  21  22  1   
 42  21  40  1   
 43  21  41  1   
 44  22  42  1   
 45  22  43  1   
@<TRIPOS>SUBSTRUCTURE
  1 ****  11 GROUP 4 **** **** 0

# MOE 2024.06 (io_trps.svl 2023.06)
