@<TRIPOS>MOLECULE
NONAME
51 52 1 0 0 
SMALL
USER_CHARGES


@<TRIPOS>ATOM
  1 S       -0.2140     2.3090    -1.1110 S.3   1 <1>  -0.4600 
  2 C        0.8760     3.7360    -1.3730 C.3   1 <1>   0.0700 
  3 C       -1.1830     2.2450    -2.6420 C.3   1 <1>  -0.0100 
  4 C        1.7060     3.9710    -0.1020 C.3   1 <1>  -0.0800 
  5 C        2.5220     5.2620    -0.2470 C.3   1 <1>  -0.1600 
  6 C        2.6560     2.7980     0.2030 C.3   1 <1>  -0.1600 
  7 C        3.4210     5.5230     0.9570 C.3   1 <1>   0.3430 
  8 C        3.5290     3.0830     1.4240 C.3   1 <1>   0.3430 
  9 N        4.3050     4.3280     1.2100 N.4   1 <1>  -0.9590 
 10 C        5.3170     4.5760     2.2850 C.3   1 <1>   0.4860 
 11 C        6.0400     5.8400     1.8970 C.ar  1 <1>  -0.1440 
 12 C        6.8620     5.8420     0.7810 C.ar  1 <1>  -0.1500 
 13 C        5.7320     7.0260     2.5420 C.ar  1 <1>  -0.1500 
 14 C        7.2150     7.0340     0.1800 C.ar  1 <1>   0.0820 
 15 C        6.0750     8.2230     1.9480 C.ar  1 <1>  -0.1500 
 16 O        7.9960     6.9230    -0.9290 O.3   1 <1>  -0.3620 
 17 C        6.6980     8.2240     0.7090 C.ar  1 <1>   0.0820 
 18 C        7.6810     7.6750    -2.0790 C.3   1 <1>   0.0400 
 19 O        6.6160     9.3590    -0.0230 O.3   1 <1>  -0.3630 
 20 C        5.2740     9.7460    -0.3880 C.3   1 <1>   0.0940 
 21 C        4.2450     8.5760    -0.4500 C.2   1 <1>   0.9060 
 22 C        5.3700    10.5440    -1.6960 C.3   1 <1>  -0.2400 
 23 O        3.3660     8.4950     0.4240 O.co2 1 <1>  -0.9000 
 24 O        4.3070     7.6960    -1.3250 O.co2 1 <1>  -0.9000 
 25 H        0.2440     4.5810    -1.5850 H     1 <1>   0.0800 
 26 H        1.4980     3.5220    -2.2240 H     1 <1>   0.0800 
 27 H       -1.8570     1.4100    -2.5670 H     1 <1>   0.0800 
 28 H       -0.5010     2.1130    -3.4630 H     1 <1>   0.0800 
 29 H       -1.7260     3.1680    -2.7310 H     1 <1>   0.0800 
 30 H        1.0230     4.0940     0.7220 H     1 <1>   0.0800 
 31 H        1.8660     6.1090    -0.3570 H     1 <1>   0.0800 
 32 H        3.1360     5.2330    -1.1310 H     1 <1>   0.0800 
 33 H        3.2830     2.5980    -0.6480 H     1 <1>   0.0800 
 34 H        2.0860     1.9070     0.4000 H     1 <1>   0.0800 
 35 H        2.8200     5.7410     1.8230 H     1 <1>   0.0800 
 36 H        4.0210     6.3920     0.7410 H     1 <1>   0.0800 
 37 H        4.1980     2.2530     1.5850 H     1 <1>   0.0800 
 38 H        2.9010     3.1920     2.2930 H     1 <1>   0.0800 
 39 H        4.8350     4.2540     0.3320 H     1 <1>   0.4500 
 40 H        6.0130     3.7570     2.3500 H     1 <1>   0.0800 
 41 H        4.8280     4.7070     3.2360 H     1 <1>   0.0800 
 42 H        7.1890     4.9290     0.3170 H     1 <1>   0.1500 
 43 H        5.1600     7.0450     3.4540 H     1 <1>   0.1500 
 44 H        5.7800     9.1550     2.3950 H     1 <1>   0.1500 
 45 H        8.2100     7.2530    -2.9130 H     1 <1>   0.0800 
 46 H        7.9930     8.6920    -1.9280 H     1 <1>   0.0800 
 47 H        6.6210     7.6230    -2.2520 H     1 <1>   0.0800 
 48 H        4.9320    10.4060     0.3860 H     1 <1>   0.0800 
 49 H        5.6860     9.8990    -2.4960 H     1 <1>   0.0800 
 50 H        6.0620    11.3590    -1.5860 H     1 <1>   0.0800 
 51 H        4.4020    10.9380    -1.9460 H     1 <1>   0.0800 
@<TRIPOS>BOND
  1   1   2  1   
  2   1   3  1   
  3   2   4  1   
  4   2  25  1   
  5   2  26  1   
  6   3  27  1   
  7   3  28  1   
  8   3  29  1   
  9   4   5  1   
 10   4   6  1   
 11   4  30  1   
 12   5   7  1   
 13   5  31  1   
 14   5  32  1   
 15   6   8  1   
 16   6  33  1   
 17   6  34  1   
 18   7   9  1   
 19   7  35  1   
 20   7  36  1   
 21   8   9  1   
 22   8  37  1   
 23   8  38  1   
 24   9  10  1   
 25   9  39  1   
 26  10  11  1   
 27  10  40  1   
 28  10  41  1   
 29  11  12  ar  
 30  11  13  ar  
 31  12  14  ar  
 32  12  42  1   
 33  13  15  ar  
 34  13  43  1   
 35  14  16  1   
 36  14  17  ar  
 37  15  17  ar  
 38  15  44  1   
 39  16  18  1   
 40  17  19  1   
 41  18  45  1   
 42  18  46  1   
 43  18  47  1   
 44  19  20  1   
 45  20  21  1   
 46  20  22  1   
 47  20  48  1   
 48  21  23  ar  
 49  21  24  ar  
 50  22  49  1   
 51  22  50  1   
 52  22  51  1   
@<TRIPOS>SUBSTRUCTURE
  1 ****   7 GROUP 4 **** **** 0

# MOE 2024.06 (io_trps.svl 2023.06)
