@<TRIPOS>MOLECULE
NONAME
58 63 1 0 0 
SMALL
USER_CHARGES


@<TRIPOS>ATOM
  1 O        1.8850     2.4830    -0.9230 O.3   1 <1>  -0.6800 
  2 C        1.1380     3.0160     0.1040 C.3   1 <1>   0.2000 
  3 C       -0.1980     3.4950    -0.4650 C.3   1 <1>  -0.1600 
  4 C        1.9340     4.1670     0.7150 C.3   1 <1>  -0.1600 
  5 C       -1.0060     4.2460     0.5970 C.3   1 <1>   0.2090 
  6 C        1.0980     4.8920     1.7670 C.3   1 <1>   0.2090 
  7 N       -0.1820     5.3620     1.1480 N.pl3 1 <1>  -0.8380 
  8 C       -0.4340     6.6790     0.9240 C.ar  1 <1>   0.4100 
  9 N        0.6000     7.4930     0.8080 N.ar  1 <1>  -0.6200 
 10 C       -1.7540     7.1610     0.8140 C.ar  1 <1>  -0.1500 
 11 C        0.3680     8.7600     0.5420 C.ar  1 <1>   0.7710 
 12 C       -1.9610     8.4720     0.5470 C.ar  1 <1>   0.2110 
 13 N       -0.8700     9.2620     0.4050 N.ar  1 <1>  -0.1790 
 14 N        1.4500     9.5310     0.4120 N.pl3 1 <1>  -0.8690 
 15 C        1.6990    10.9490     0.1140 C.3   1 <1>   0.3690 
 16 C        3.2200    11.1510     0.1170 C.3   1 <1>  -0.1600 
 17 C        1.1490    11.3180    -1.2760 C.3   1 <1>  -0.1600 
 18 C        1.0740    11.8500     1.1950 C.3   1 <1>  -0.1600 
 19 C        3.5800    12.6280    -0.1900 C.3   1 <1>   0.2560 
 20 C        1.4650    12.7930    -1.5850 C.3   1 <1>  -0.0800 
 21 C        1.3910    13.3260     0.8880 C.3   1 <1>  -0.0800 
 22 N        5.0740    12.8420    -0.1900 N.pl3 1 <1>   0.5800 
 23 C        2.9920    12.9940    -1.5750 C.3   1 <1>  -0.1600 
 24 C        2.9180    13.5240     0.8840 C.3   1 <1>  -0.1600 
 25 C        0.8330    13.6890    -0.5020 C.3   1 <1>  -0.1600 
 26 N        5.6390    14.0190    -0.4390 N.2   1 <1>  -0.4180 
 27 N        5.9640    11.8920     0.0560 N.2   1 <1>  -0.7070 
 28 N        6.8980    13.8360    -0.3550 N.2   1 <1>  -0.2270 
 29 C        7.0540    12.5540    -0.0580 C.2   1 <1>   0.3660 
 30 H        1.4120     1.7400    -1.3430 H     1 <1>   0.4000 
 31 H        0.9800     2.2450     0.8400 H     1 <1>   0.0800 
 32 H       -0.7700     2.6540    -0.8110 H     1 <1>   0.0800 
 33 H       -0.0220     4.1590    -1.2930 H     1 <1>   0.0800 
 34 H        2.2110     4.8700    -0.0500 H     1 <1>   0.0800 
 35 H        2.8290     3.7850     1.1720 H     1 <1>   0.0800 
 36 H       -1.2780     3.5770     1.3960 H     1 <1>   0.0800 
 37 H       -1.9090     4.6140     0.1450 H     1 <1>   0.0800 
 38 H        1.6580     5.7160     2.1740 H     1 <1>   0.0800 
 39 H        0.8720     4.2220     2.5790 H     1 <1>   0.0800 
 40 H       -2.5730     6.4830     0.9580 H     1 <1>   0.1500 
 41 H       -2.9450     8.9030     0.4510 H     1 <1>   0.1500 
 42 H       -0.9220    10.2540     0.2000 H     1 <1>   0.4570 
 43 H        2.3210     9.0040     0.5340 H     1 <1>   0.4000 
 44 H        3.6690    10.5160    -0.6270 H     1 <1>   0.0800 
 45 H        3.6170    10.8830     1.0810 H     1 <1>   0.0800 
 46 H        0.0870    11.1810    -1.3250 H     1 <1>   0.0800 
 47 H        1.6020    10.6910    -2.0260 H     1 <1>   0.0800 
 48 H        1.4760    11.5940     2.1610 H     1 <1>   0.0800 
 49 H        0.0090    11.7330     1.2360 H     1 <1>   0.0800 
 50 H        1.0730    13.0580    -2.5530 H     1 <1>   0.0800 
 51 H        0.9460    13.9610     1.6370 H     1 <1>   0.0800 
 52 H        3.4440    12.3830    -2.3370 H     1 <1>   0.0800 
 53 H        3.2140    14.0230    -1.8060 H     1 <1>   0.0800 
 54 H        3.1390    14.5600     0.6840 H     1 <1>   0.0800 
 55 H        3.3180    13.2860     1.8550 H     1 <1>   0.0800 
 56 H       -0.2380    13.5800    -0.5110 H     1 <1>   0.0800 
 57 H        1.0470    14.7230    -0.7190 H     1 <1>   0.0800 
 58 H        8.0350    12.1280     0.0720 H     1 <1>   0.1500 
@<TRIPOS>BOND
  1   1   2  1   
  2   1  30  1   
  3   2   3  1   
  4   2   4  1   
  5   2  31  1   
  6   3   5  1   
  7   3  32  1   
  8   3  33  1   
  9   4   6  1   
 10   4  34  1   
 11   4  35  1   
 12   5   7  1   
 13   5  36  1   
 14   5  37  1   
 15   6   7  1   
 16   6  38  1   
 17   6  39  1   
 18   7   8  1   
 19   8   9  ar  
 20   8  10  ar  
 21   9  11  ar  
 22  10  12  ar  
 23  10  40  1   
 24  11  13  ar  
 25  11  14  1   
 26  12  13  ar  
 27  12  41  1   
 28  13  42  1   
 29  14  15  1   
 30  14  43  1   
 31  15  16  1   
 32  15  17  1   
 33  15  18  1   
 34  16  19  1   
 35  16  44  1   
 36  16  45  1   
 37  17  20  1   
 38  17  46  1   
 39  17  47  1   
 40  18  21  1   
 41  18  48  1   
 42  18  49  1   
 43  19  22  1   
 44  19  23  1   
 45  19  24  1   
 46  20  23  1   
 47  20  25  1   
 48  20  50  1   
 49  21  24  1   
 50  21  25  1   
 51  21  51  1   
 52  22  26  1   
 53  22  27  1   
 54  23  52  1   
 55  23  53  1   
 56  24  54  1   
 57  24  55  1   
 58  25  56  1   
 59  25  57  1   
 60  26  28  2   
 61  27  29  2   
 62  28  29  1   
 63  29  58  1   
@<TRIPOS>SUBSTRUCTURE
  1 ****  14 GROUP 4 **** **** 0

# MOE 2024.06 (io_trps.svl 2023.06)
