@<TRIPOS>MOLECULE
NONAME
45 46 1 0 0 
SMALL
USER_CHARGES


@<TRIPOS>ATOM
  1 S        0.1530     0.0250     0.5830 S.o2  1 <1>   1.3330 
  2 O       -0.5360     1.2510     0.9160 O.2   1 <1>  -0.6500 
  3 O        0.6750    -0.8080     1.6430 O.2   1 <1>  -0.6500 
  4 N       -0.8910    -0.9310    -0.3550 N.am  1 <1>  -0.8490 
  5 C        1.4570     0.4320    -0.5790 C.3   1 <1>  -0.0550 
  6 C       -0.4870    -2.3390    -0.4210 C.3   1 <1>   0.1160 
  7 C       -2.2840    -0.8320     0.0900 C.3   1 <1>   0.1160 
  8 C        2.5330     1.3710     0.0020 C.3   1 <1>  -0.0800 
  9 C        3.4680     1.8670    -1.0870 C.3   1 <1>   0.2200 
 10 C        3.5060     0.6270     0.9190 C.3   1 <1>   0.1200 
 11 N        4.1000     3.1320    -0.6440 N.am  1 <1>  -0.7300 
 12 C        4.5160     0.7570    -1.1520 C.3   1 <1>   0.1200 
 13 O        4.5010     0.1110     0.0890 O.3   1 <1>  -0.5600 
 14 C        3.9870     4.3420    -1.2670 C.2   1 <1>   0.5440 
 15 O        3.3070     4.3920    -2.2730 O.2   1 <1>  -0.5700 
 16 C        4.6250     5.5470    -0.7570 C.ar  1 <1>   0.0860 
 17 C        5.7040     5.5530     0.1360 C.ar  1 <1>   0.1900 
 18 C        4.1540     6.8010    -1.1640 C.ar  1 <1>  -0.1500 
 19 F        6.1970     4.4080     0.5400 F     1 <1>  -0.1900 
 20 C        6.3050     6.7100     0.6280 C.ar  1 <1>   0.0820 
 21 C        4.7190     7.9760    -0.7050 C.ar  1 <1>  -0.1500 
 22 O        7.3500     6.5520     1.5010 O.3   1 <1>  -0.3620 
 23 C        5.7790     7.9240     0.1810 C.ar  1 <1>   0.1900 
 24 C        8.0970     7.6270     2.0280 C.3   1 <1>   0.0400 
 25 F        6.2560     9.0750     0.5750 F     1 <1>  -0.1900 
 26 H        1.9190    -0.4700    -0.9300 H     1 <1>   0.0800 
 27 H        1.0030     0.9160    -1.4220 H     1 <1>   0.0800 
 28 H       -1.1260    -2.8760    -1.1010 H     1 <1>   0.0800 
 29 H       -0.5500    -2.7960     0.5530 H     1 <1>   0.0800 
 30 H        0.5270    -2.4200    -0.7740 H     1 <1>   0.0800 
 31 H       -2.9190    -1.4370    -0.5340 H     1 <1>   0.0800 
 32 H       -2.6220     0.1890     0.0220 H     1 <1>   0.0800 
 33 H       -2.3740    -1.1590     1.1130 H     1 <1>   0.0800 
 34 H        2.0520     2.1900     0.5090 H     1 <1>   0.0800 
 35 H        2.9760     2.0050    -2.0350 H     1 <1>   0.0800 
 36 H        3.0580    -0.1790     1.4720 H     1 <1>   0.0800 
 37 H        3.9770     1.3090     1.6060 H     1 <1>   0.0800 
 38 H        4.7520     3.0380     0.1410 H     1 <1>   0.3700 
 39 H        5.5040     1.1350    -1.3490 H     1 <1>   0.0800 
 40 H        4.2500     0.0290    -1.8970 H     1 <1>   0.0800 
 41 H        3.3270     6.8510    -1.8550 H     1 <1>   0.1500 
 42 H        4.3410     8.9310    -1.0300 H     1 <1>   0.1500 
 43 H        8.8740     7.2190     2.6500 H     1 <1>   0.0800 
 44 H        7.4490     8.2500     2.6180 H     1 <1>   0.0800 
 45 H        8.5350     8.1820     1.2170 H     1 <1>   0.0800 
@<TRIPOS>BOND
  1   1   2  2   
  2   1   3  2   
  3   1   4  am  
  4   1   5  1   
  5   4   6  1   
  6   4   7  1   
  7   5   8  1   
  8   5  26  1   
  9   5  27  1   
 10   6  28  1   
 11   6  29  1   
 12   6  30  1   
 13   7  31  1   
 14   7  32  1   
 15   7  33  1   
 16   8   9  1   
 17   8  10  1   
 18   8  34  1   
 19   9  11  1   
 20   9  12  1   
 21   9  35  1   
 22  10  13  1   
 23  10  36  1   
 24  10  37  1   
 25  11  14  am  
 26  11  38  1   
 27  12  13  1   
 28  12  39  1   
 29  12  40  1   
 30  14  15  2   
 31  14  16  1   
 32  16  17  ar  
 33  16  18  ar  
 34  17  19  1   
 35  17  20  ar  
 36  18  21  ar  
 37  18  41  1   
 38  20  22  1   
 39  20  23  ar  
 40  21  23  ar  
 41  21  42  1   
 42  22  24  1   
 43  23  25  1   
 44  24  43  1   
 45  24  44  1   
 46  24  45  1   
@<TRIPOS>SUBSTRUCTURE
  1 ****  11 GROUP 4 **** **** 0

# MOE 2024.06 (io_trps.svl 2023.06)
