@<TRIPOS>MOLECULE
NONAME
48 51 1 0 0 
SMALL
USER_CHARGES


@<TRIPOS>ATOM
  1 O       -2.0770     2.1100    -3.0620 O.2   1 <1>  -0.5700 
  2 C       -2.1840     1.7650    -1.9010 C.2   1 <1>   0.5440 
  3 N       -2.3490     0.4320    -1.6130 N.am  1 <1>  -0.6600 
  4 C       -2.1530     2.7600    -0.8560 C.ar  1 <1>   0.0860 
  5 C       -1.9270    -0.1990    -0.3350 C.3   1 <1>   0.1400 
  6 C       -3.0990    -0.4360    -2.5640 C.3   1 <1>   0.1400 
  7 C       -3.1650     2.8070     0.0970 C.ar  1 <1>   0.1600 
  8 C       -1.1460     3.7070    -0.7520 C.ar  1 <1>  -0.1500 
  9 C       -3.1350    -0.7440     0.4420 C.3   1 <1>  -0.1600 
 10 C       -3.7750    -1.6140    -1.8470 C.3   1 <1>  -0.1600 
 11 N       -3.2350     3.6510     1.1130 N.ar  1 <1>  -0.6200 
 12 C       -1.2070     4.6040     0.2940 C.ar  1 <1>  -0.1500 
 13 C       -4.2980    -1.2360    -0.4520 C.3   1 <1>   0.4240 
 14 C       -2.2540     4.5530     1.2100 C.ar  1 <1>   0.3830 
 15 O       -5.1730    -0.1510    -0.6610 O.3   1 <1>  -0.5600 
 16 C       -5.0280    -2.4450     0.1790 C.ar  1 <1>  -0.1430 
 17 C       -2.2800     5.5000     2.2950 C.1   1 <1>   0.4840 
 18 C       -6.1470     0.0960     0.3070 C.3   1 <1>   0.1200 
 19 C       -6.3670    -2.3640     0.5480 C.ar  1 <1>  -0.1440 
 20 C       -4.3570    -3.6460     0.3900 C.ar  1 <1>  -0.1500 
 21 N       -2.2540     6.2670     3.1410 N.1   1 <1>  -0.5570 
 22 C       -7.1260    -1.0720     0.3320 C.3   1 <1>  -0.0170 
 23 C       -7.0100    -3.4550     1.1090 C.ar  1 <1>  -0.1500 
 24 C       -4.9980    -4.7370     0.9510 C.ar  1 <1>  -0.1500 
 25 C       -6.3360    -4.6450     1.3160 C.ar  1 <1>   0.0830 
 26 O       -7.0420    -5.6610     1.8720 O.3   1 <1>  -0.3630 
 27 C       -6.4510    -6.9190     2.1120 C.3   1 <1>   0.0400 
 28 H       -1.3770     0.4970     0.2740 H     1 <1>   0.0800 
 29 H       -1.2630    -1.0130    -0.5740 H     1 <1>   0.0800 
 30 H       -2.4300    -0.7950    -3.3270 H     1 <1>   0.0800 
 31 H       -3.8570     0.1620    -3.0430 H     1 <1>   0.0800 
 32 H       -3.9650     2.0920    -0.0010 H     1 <1>   0.1500 
 33 H       -0.3490     3.7300    -1.4760 H     1 <1>   0.1500 
 34 H       -3.4840     0.0000     1.1300 H     1 <1>   0.0800 
 35 H       -2.7750    -1.5570     1.0440 H     1 <1>   0.0800 
 36 H       -3.0640    -2.4130    -1.7650 H     1 <1>   0.0800 
 37 H       -4.5890    -1.9780    -2.4470 H     1 <1>   0.0800 
 38 H       -0.4400     5.3510     0.4030 H     1 <1>   0.1500 
 39 H       -6.6550     1.0070     0.0390 H     1 <1>   0.0800 
 40 H       -5.6760     0.2230     1.2650 H     1 <1>   0.0800 
 41 H       -3.3220    -3.7450     0.1170 H     1 <1>   0.1500 
 42 H       -7.6580    -1.1150    -0.6010 H     1 <1>   0.0800 
 43 H       -7.8380    -0.9210     1.1230 H     1 <1>   0.0800 
 44 H       -8.0450    -3.3950     1.3930 H     1 <1>   0.1500 
 45 H       -4.4430    -5.6440     1.0960 H     1 <1>   0.1500 
 46 H       -7.1960    -7.5590     2.5490 H     1 <1>   0.0800 
 47 H       -5.6300    -6.7930     2.7960 H     1 <1>   0.0800 
 48 H       -6.1160    -7.3310     1.1770 H     1 <1>   0.0800 
@<TRIPOS>BOND
  1   1   2  2   
  2   2   3  am  
  3   2   4  1   
  4   3   5  1   
  5   3   6  1   
  6   4   7  ar  
  7   4   8  ar  
  8   5   9  1   
  9   5  28  1   
 10   5  29  1   
 11   6  10  1   
 12   6  30  1   
 13   6  31  1   
 14   7  11  ar  
 15   7  32  1   
 16   8  12  ar  
 17   8  33  1   
 18   9  13  1   
 19   9  34  1   
 20   9  35  1   
 21  10  13  1   
 22  10  36  1   
 23  10  37  1   
 24  11  14  ar  
 25  12  14  ar  
 26  12  38  1   
 27  13  15  1   
 28  13  16  1   
 29  14  17  1   
 30  15  18  1   
 31  16  19  ar  
 32  16  20  ar  
 33  17  21  3   
 34  18  22  1   
 35  18  39  1   
 36  18  40  1   
 37  19  22  1   
 38  19  23  ar  
 39  20  24  ar  
 40  20  41  1   
 41  22  42  1   
 42  22  43  1   
 43  23  25  ar  
 44  23  44  1   
 45  24  25  ar  
 46  24  45  1   
 47  25  26  1   
 48  26  27  1   
 49  27  46  1   
 50  27  47  1   
 51  27  48  1   
@<TRIPOS>SUBSTRUCTURE
  1 ****   9 GROUP 4 **** **** 0

# MOE 2024.06 (io_trps.svl 2023.06)
