@<TRIPOS>MOLECULE
NONAME
56 58 1 0 0 
SMALL
USER_CHARGES


@<TRIPOS>ATOM
  1 S        2.1930     2.8660    -0.5320 S.o2  1 <1>   1.3330 
  2 O        1.7190     3.6980    -1.6110 O.2   1 <1>  -0.6500 
  3 O        2.7410     3.5360     0.6280 O.2   1 <1>  -0.6500 
  4 N        3.3050     1.7350    -1.1180 N.am  1 <1>  -0.8490 
  5 C        0.8150     1.8680     0.0570 C.3   1 <1>  -0.0550 
  6 C        3.0300     1.2950    -2.4920 C.3   1 <1>   0.1160 
  7 C        4.6950     2.1940    -1.0140 C.3   1 <1>   0.1160 
  8 C       -0.3610     2.6290     0.7290 C.3   1 <1>  -0.0800 
  9 C       -0.9980     3.6880    -0.1810 C.3   1 <1>   0.2000 
 10 C        0.0480     3.4280     1.9720 C.3   1 <1>   0.3430 
 11 O       -2.3580     3.7410     0.0960 O.3   1 <1>  -0.6800 
 12 C       -0.3450     5.0260     0.2020 C.3   1 <1>   0.3430 
 13 N        0.4270     4.7680     1.4630 N.4   1 <1>  -0.9590 
 14 C        0.4010     5.8850     2.4330 C.3   1 <1>   0.5240 
 15 C        1.1120     7.0530     1.7840 C.2   1 <1>  -0.1810 
 16 C        0.7410     8.3880     1.8870 C.2   1 <1>   0.1390 
 17 C        2.2090     7.0690     0.9940 C.2   1 <1>  -0.3020 
 18 N        1.5260     9.1620     1.2130 N.2   1 <1>  -0.7070 
 19 N        2.4570     8.3560     0.6390 N.pl3 1 <1>   0.5930 
 20 C        3.5000     8.8170    -0.2130 C.ar  1 <1>  -0.0230 
 21 C        3.9460     8.0480    -1.2850 C.ar  1 <1>  -0.1500 
 22 C        4.1020    10.0500     0.0080 C.ar  1 <1>  -0.1500 
 23 C        4.9700     8.4840    -2.1100 C.ar  1 <1>  -0.1440 
 24 C        5.1250    10.4910    -0.8100 C.ar  1 <1>  -0.1500 
 25 C        5.5670     9.7160    -1.8700 C.ar  1 <1>  -0.1440 
 26 C        5.4150     7.6000    -3.2670 C.3   1 <1>  -0.0970 
 27 C        6.6960    10.2390    -2.7460 C.3   1 <1>  -0.0970 
 28 H        0.4220     1.3120    -0.7730 H     1 <1>   0.0800 
 29 H        1.1970     1.1480     0.7560 H     1 <1>   0.0800 
 30 H        3.7180     0.5170    -2.7760 H     1 <1>   0.0800 
 31 H        3.1310     2.1190    -3.1800 H     1 <1>   0.0800 
 32 H        2.0300     0.9030    -2.5670 H     1 <1>   0.0800 
 33 H        5.3680     1.4290    -1.3640 H     1 <1>   0.0800 
 34 H        4.9400     2.4090     0.0130 H     1 <1>   0.0800 
 35 H        4.8420     3.0870    -1.6000 H     1 <1>   0.0800 
 36 H       -1.0910     1.8860     1.0050 H     1 <1>   0.0800 
 37 H       -0.8910     3.4740    -1.2330 H     1 <1>   0.0800 
 38 H        0.8660     2.9590     2.4980 H     1 <1>   0.0800 
 39 H       -0.7980     3.5160     2.6340 H     1 <1>   0.0800 
 40 H       -2.5650     3.8710     1.0410 H     1 <1>   0.4000 
 41 H       -1.1030     5.7800     0.3440 H     1 <1>   0.0800 
 42 H        0.3270     5.3490    -0.5770 H     1 <1>   0.0800 
 43 H        1.4290     4.6960     1.1870 H     1 <1>   0.4500 
 44 H       -0.6160     6.1510     2.6730 H     1 <1>   0.0800 
 45 H        0.9170     5.6100     3.3380 H     1 <1>   0.0800 
 46 H       -0.0980     8.7620     2.4520 H     1 <1>   0.1500 
 47 H        2.8430     6.2690     0.6560 H     1 <1>   0.1500 
 48 H        3.4830     7.0980    -1.4830 H     1 <1>   0.1500 
 49 H        3.7680    10.6680     0.8240 H     1 <1>   0.1500 
 50 H        5.5730    11.4490    -0.6140 H     1 <1>   0.1500 
 51 H        4.8400     6.6930    -3.3080 H     1 <1>   0.0800 
 52 H        6.4520     7.3390    -3.1530 H     1 <1>   0.0800 
 53 H        5.2860     8.1220    -4.1980 H     1 <1>   0.0800 
 54 H        7.0360    11.2010    -2.4050 H     1 <1>   0.0800 
 55 H        6.3560    10.3420    -3.7610 H     1 <1>   0.0800 
 56 H        7.5280     9.5600    -2.7210 H     1 <1>   0.0800 
@<TRIPOS>BOND
  1   1   2  2   
  2   1   3  2   
  3   1   4  am  
  4   1   5  1   
  5   4   6  1   
  6   4   7  1   
  7   5   8  1   
  8   5  28  1   
  9   5  29  1   
 10   6  30  1   
 11   6  31  1   
 12   6  32  1   
 13   7  33  1   
 14   7  34  1   
 15   7  35  1   
 16   8   9  1   
 17   8  10  1   
 18   8  36  1   
 19   9  11  1   
 20   9  12  1   
 21   9  37  1   
 22  10  13  1   
 23  10  38  1   
 24  10  39  1   
 25  11  40  1   
 26  12  13  1   
 27  12  41  1   
 28  12  42  1   
 29  13  14  1   
 30  13  43  1   
 31  14  15  1   
 32  14  44  1   
 33  14  45  1   
 34  15  16  1   
 35  15  17  2   
 36  16  18  2   
 37  16  46  1   
 38  17  19  1   
 39  17  47  1   
 40  18  19  1   
 41  19  20  1   
 42  20  21  ar  
 43  20  22  ar  
 44  21  23  ar  
 45  21  48  1   
 46  22  24  ar  
 47  22  49  1   
 48  23  25  ar  
 49  23  26  1   
 50  24  25  ar  
 51  24  50  1   
 52  25  27  1   
 53  26  51  1   
 54  26  52  1   
 55  26  53  1   
 56  27  54  1   
 57  27  55  1   
 58  27  56  1   
@<TRIPOS>SUBSTRUCTURE
  1 ****  17 GROUP 4 **** **** 0

# MOE 2024.06 (io_trps.svl 2023.06)
