@<TRIPOS>MOLECULE
NONAME
46 48 1 0 0 
SMALL
USER_CHARGES


@<TRIPOS>ATOM
  1 S       -5.9710    -0.1360     1.2900 S.3   1 <1>  -0.0800 
  2 C       -4.5390    -0.5180     0.3500 C.2   1 <1>  -0.1100 
  3 C       -5.7810    -1.5900     2.2530 C.2   1 <1>  -0.1100 
  4 C       -4.0090    -1.6920     0.7430 C.2   1 <1>  -0.1810 
  5 C       -4.7110    -2.2940     1.8400 C.2   1 <1>  -0.1500 
  6 C       -2.7950    -2.3900     0.1340 C.3   1 <1>   0.0820 
  7 C       -3.2030    -3.7650    -0.3780 C.2   1 <1>   0.5690 
  8 O       -2.8060    -4.7270     0.2320 O.2   1 <1>  -0.5700 
  9 N       -4.0970    -3.9100    -1.4150 N.am  1 <1>  -0.6600 
 10 C       -4.7100    -2.7890    -2.2000 C.3   1 <1>   0.1400 
 11 C       -4.9380    -5.1410    -1.4800 C.3   1 <1>   0.1400 
 12 C       -6.1850    -2.5340    -1.7790 C.3   1 <1>   0.4230 
 13 C       -6.3160    -4.8710    -0.8310 C.3   1 <1>   0.3430 
 14 N       -6.5990    -3.3950    -0.6050 N.4   1 <1>  -0.9590 
 15 C       -7.1720    -2.7180    -2.9530 C.3   1 <1>   0.1200 
 16 C       -8.0120    -3.0710    -0.2300 C.3   1 <1>   0.4230 
 17 O       -8.4790    -2.4430    -2.5350 O.3   1 <1>  -0.5600 
 18 C       -8.9510    -3.2060    -1.4550 C.3   1 <1>   0.1200 
 19 C       -8.4560    -3.9230     0.9700 C.3   1 <1>  -0.1600 
 20 C       -9.7240    -3.3680     1.6380 C.3   1 <1>  -0.1600 
 21 C      -10.0890    -4.1880     2.8770 C.3   1 <1>  -0.2400 
 22 H       -4.2500     0.1900    -0.4080 H     1 <1>   0.1500 
 23 H       -6.4900    -1.7550     3.0460 H     1 <1>   0.1500 
 24 H       -4.3680    -3.2180     2.2810 H     1 <1>   0.1500 
 25 H       -2.0370    -2.5070     0.8880 H     1 <1>   0.0800 
 26 H       -2.3720    -1.8120    -0.6660 H     1 <1>   0.0800 
 27 H       -4.1460    -1.8830    -2.0790 H     1 <1>   0.0800 
 28 H       -4.6650    -3.0350    -3.2470 H     1 <1>   0.0800 
 29 H       -5.0690    -5.4270    -2.5090 H     1 <1>   0.0800 
 30 H       -4.4590    -5.9680    -0.9820 H     1 <1>   0.0800 
 31 H       -6.2540    -1.5000    -1.4850 H     1 <1>   0.0800 
 32 H       -6.3500    -5.3850     0.1160 H     1 <1>   0.0800 
 33 H       -7.0790    -5.3020    -1.4560 H     1 <1>   0.0800 
 34 H       -5.9880    -3.0930     0.1710 H     1 <1>   0.4500 
 35 H       -7.1380    -3.7190    -3.3470 H     1 <1>   0.0800 
 36 H       -6.9380    -2.0290    -3.7470 H     1 <1>   0.0800 
 37 H       -8.0460    -2.0390     0.0810 H     1 <1>   0.0800 
 38 H       -9.9330    -2.8400    -1.2130 H     1 <1>   0.0800 
 39 H       -9.0400    -4.2300    -1.7700 H     1 <1>   0.0800 
 40 H       -8.6440    -4.9360     0.6600 H     1 <1>   0.0800 
 41 H       -7.6710    -3.9290     1.7050 H     1 <1>   0.0800 
 42 H       -9.5660    -2.3430     1.9330 H     1 <1>   0.0800 
 43 H      -10.5550    -3.3930     0.9530 H     1 <1>   0.0800 
 44 H       -9.2960    -4.1580     3.6040 H     1 <1>   0.0800 
 45 H      -10.2810    -5.2140     2.6140 H     1 <1>   0.0800 
 46 H      -10.9780    -3.7870     3.3340 H     1 <1>   0.0800 
@<TRIPOS>BOND
  1   1   2  1   
  2   1   3  1   
  3   2   4  2   
  4   2  22  1   
  5   3   5  2   
  6   3  23  1   
  7   4   5  1   
  8   4   6  1   
  9   5  24  1   
 10   6   7  1   
 11   6  25  1   
 12   6  26  1   
 13   7   8  2   
 14   7   9  am  
 15   9  10  1   
 16   9  11  1   
 17  10  12  1   
 18  10  27  1   
 19  10  28  1   
 20  11  13  1   
 21  11  29  1   
 22  11  30  1   
 23  12  14  1   
 24  12  15  1   
 25  12  31  1   
 26  13  14  1   
 27  13  32  1   
 28  13  33  1   
 29  14  16  1   
 30  14  34  1   
 31  15  17  1   
 32  15  35  1   
 33  15  36  1   
 34  16  18  1   
 35  16  19  1   
 36  16  37  1   
 37  17  18  1   
 38  18  38  1   
 39  18  39  1   
 40  19  20  1   
 41  19  40  1   
 42  19  41  1   
 43  20  21  1   
 44  20  42  1   
 45  20  43  1   
 46  21  44  1   
 47  21  45  1   
 48  21  46  1   
@<TRIPOS>SUBSTRUCTURE
  1 ****  14 GROUP 4 **** **** 0

# MOE 2024.06 (io_trps.svl 2023.06)
