@<TRIPOS>MOLECULE
NONAME
45 46 1 0 0 
SMALL
USER_CHARGES


@<TRIPOS>ATOM
  1 O       -1.2510     0.2980     1.3020 O.2   1 <1>  -0.5700 
  2 C       -2.1240     0.7750     0.6150 C.2   1 <1>   0.5690 
  3 N       -3.3660     0.1990     0.5420 N.am  1 <1>  -0.6600 
  4 C       -1.8190     2.0490    -0.1690 C.3   1 <1>  -0.0990 
  5 C       -3.6610    -1.0590     1.3050 C.3   1 <1>   0.3210 
  6 C       -4.4880     0.6870    -0.3320 C.3   1 <1>   0.1400 
  7 C       -0.4580     2.6940     0.1560 C.3   1 <1>  -0.1600 
  8 C       -4.0040    -2.2160     0.3730 C.2   1 <1>   0.0460 
  9 C       -5.6270     1.2950     0.4950 C.3   1 <1>   0.1200 
 10 C       -0.2310     3.9740    -0.6580 C.3   1 <1>  -0.0170 
 11 N       -5.2870    -2.5040     0.0630 N.2   1 <1>  -0.5650 
 12 C       -3.1550    -3.0730    -0.2410 C.2   1 <1>  -0.3320 
 13 O       -5.1090     2.2360     1.3730 O.3   1 <1>  -0.6800 
 14 C        1.1160     4.5920    -0.3210 C.ar  1 <1>  -0.1440 
 15 C       -5.1910    -3.5250    -0.7240 C.2   1 <1>   0.0360 
 16 N       -3.9220    -3.9210    -0.9500 N.pl3 1 <1>   0.0330 
 17 C       -1.6370    -3.1470    -0.2120 C.3   1 <1>  -0.0600 
 18 C        1.2170     5.5580     0.6680 C.ar  1 <1>  -0.1500 
 19 C        2.2580     4.1940    -1.0000 C.ar  1 <1>  -0.1500 
 20 C        2.4440     6.1220     0.9730 C.ar  1 <1>  -0.1500 
 21 C        3.4850     4.7570    -0.6970 C.ar  1 <1>  -0.1500 
 22 C        3.5790     5.7230     0.2900 C.ar  1 <1>  -0.1500 
 23 H       -2.5930     2.7650     0.0380 H     1 <1>   0.0800 
 24 H       -1.8490     1.8080    -1.2150 H     1 <1>   0.0800 
 25 H       -4.4850    -0.8910     1.9740 H     1 <1>   0.0800 
 26 H       -2.8180    -1.3460     1.9070 H     1 <1>   0.0800 
 27 H       -4.8740    -0.1270    -0.9200 H     1 <1>   0.0800 
 28 H       -4.1400     1.4250    -1.0300 H     1 <1>   0.0800 
 29 H        0.3310     1.9930    -0.0550 H     1 <1>   0.0800 
 30 H       -0.4150     2.9280     1.2060 H     1 <1>   0.0800 
 31 H       -6.1280     0.5330     1.0660 H     1 <1>   0.0800 
 32 H       -6.3450     1.7840    -0.1400 H     1 <1>   0.0800 
 33 H       -1.0130     4.6830    -0.4490 H     1 <1>   0.0800 
 34 H       -0.2660     3.7490    -1.7100 H     1 <1>   0.0800 
 35 H       -4.3510     1.8350     1.8470 H     1 <1>   0.4000 
 36 H       -6.0330    -4.0270    -1.1690 H     1 <1>   0.1500 
 37 H       -3.6130    -4.7010    -1.5360 H     1 <1>   0.2700 
 38 H       -1.2310    -2.3540     0.3920 H     1 <1>   0.0800 
 39 H       -1.2420    -3.0480    -1.2070 H     1 <1>   0.0800 
 40 H       -1.3180    -4.0870     0.2020 H     1 <1>   0.0800 
 41 H        0.3410     5.8730     1.2070 H     1 <1>   0.1500 
 42 H        2.1950     3.4430    -1.7670 H     1 <1>   0.1500 
 43 H        2.5140     6.8710     1.7420 H     1 <1>   0.1500 
 44 H        4.3660     4.4430    -1.2280 H     1 <1>   0.1500 
 45 H        4.5330     6.1610     0.5270 H     1 <1>   0.1500 
@<TRIPOS>BOND
  1   1   2  2   
  2   2   3  am  
  3   2   4  1   
  4   3   5  1   
  5   3   6  1   
  6   4   7  1   
  7   4  23  1   
  8   4  24  1   
  9   5   8  1   
 10   5  25  1   
 11   5  26  1   
 12   6   9  1   
 13   6  27  1   
 14   6  28  1   
 15   7  10  1   
 16   7  29  1   
 17   7  30  1   
 18   8  11  1   
 19   8  12  2   
 20   9  13  1   
 21   9  31  1   
 22   9  32  1   
 23  10  14  1   
 24  10  33  1   
 25  10  34  1   
 26  11  15  2   
 27  12  16  1   
 28  12  17  1   
 29  13  35  1   
 30  14  18  ar  
 31  14  19  ar  
 32  15  16  1   
 33  15  36  1   
 34  16  37  1   
 35  17  38  1   
 36  17  39  1   
 37  17  40  1   
 38  18  20  ar  
 39  18  41  1   
 40  19  21  ar  
 41  19  42  1   
 42  20  22  ar  
 43  20  43  1   
 44  21  22  ar  
 45  21  44  1   
 46  22  45  1   
@<TRIPOS>SUBSTRUCTURE
  1 ****   2 GROUP 4 **** **** 0

# MOE 2024.06 (io_trps.svl 2023.06)
