@<TRIPOS>MOLECULE
NONAME
41 42 1 0 0 
SMALL
USER_CHARGES


@<TRIPOS>ATOM
  1 O        0.0950    -0.1660    -0.7410 O.2   1 <1>  -0.5700 
  2 C        1.1910    -0.6320    -0.5170 C.2   1 <1>   0.5690 
  3 N        2.2950     0.1380    -0.2630 N.am  1 <1>  -0.4930 
  4 C        1.2860    -2.1820    -0.5310 C.3   1 <1>   0.4840 
  5 C        2.3870     1.5530    -0.2020 C.2   1 <1>   0.0630 
  6 N       -0.0660    -2.8210    -0.3160 N.4   1 <1>  -0.9590 
  7 C        2.3070    -2.7470     0.4720 C.3   1 <1>  -0.2400 
  8 C        3.5210     2.3040     0.1210 C.2   1 <1>   0.1080 
  9 C        1.4330     2.4770    -0.4350 C.2   1 <1>  -0.3020 
 10 C       -0.5970    -2.6600     1.0720 C.3   1 <1>   0.3430 
 11 C       -0.1560    -4.2220    -0.8170 C.3   1 <1>   0.3430 
 12 N        3.2920     3.5780     0.0910 N.2   1 <1>  -0.7070 
 13 C        4.8850     1.7510     0.4730 C.3   1 <1>  -0.0590 
 14 N        1.9990     3.6880    -0.2530 N.pl3 1 <1>   0.3140 
 15 C       -2.0610    -3.1010     1.1160 C.3   1 <1>  -0.1600 
 16 C       -1.6150    -4.6820    -0.7960 C.3   1 <1>  -0.1600 
 17 C        1.3420     4.9910    -0.4030 C.3   1 <1>   0.0160 
 18 C       -2.2420    -4.5330     0.5960 C.3   1 <1>  -0.1600 
 19 H        3.1850    -0.3260    -0.0830 H     1 <1>   0.3700 
 20 H        1.6180    -2.4470    -1.5210 H     1 <1>   0.0800 
 21 H       -0.7000    -2.2400    -0.8920 H     1 <1>   0.4500 
 22 H        2.1140    -2.3880     1.4680 H     1 <1>   0.0800 
 23 H        3.2990    -2.4360     0.1960 H     1 <1>   0.0800 
 24 H        2.2980    -3.8210     0.4710 H     1 <1>   0.0800 
 25 H        0.4050     2.3480    -0.7170 H     1 <1>   0.1500 
 26 H       -0.5280    -1.6270     1.3780 H     1 <1>   0.0800 
 27 H       -0.0220    -3.2600     1.7580 H     1 <1>   0.0800 
 28 H        0.4320    -4.8730    -0.1910 H     1 <1>   0.0800 
 29 H        0.2230    -4.2820    -1.8250 H     1 <1>   0.0800 
 30 H        4.8120     1.1090     1.3310 H     1 <1>   0.0800 
 31 H        5.5530     2.5610     0.7070 H     1 <1>   0.0800 
 32 H        5.2860     1.2060    -0.3600 H     1 <1>   0.0800 
 33 H       -2.6530    -2.4190     0.5300 H     1 <1>   0.0800 
 34 H       -2.4150    -3.0410     2.1300 H     1 <1>   0.0800 
 35 H       -1.6620    -5.7140    -1.0980 H     1 <1>   0.0800 
 36 H       -2.1790    -4.1130    -1.5140 H     1 <1>   0.0800 
 37 H        0.4090     4.9810     0.1280 H     1 <1>   0.0800 
 38 H        1.1710     5.1790    -1.4460 H     1 <1>   0.0800 
 39 H        1.9810     5.7540     0.0020 H     1 <1>   0.0800 
 40 H       -3.2910    -4.7750     0.5530 H     1 <1>   0.0800 
 41 H       -1.7750    -5.2250     1.2780 H     1 <1>   0.0800 
@<TRIPOS>BOND
  1   1   2  2   
  2   2   3  am  
  3   2   4  1   
  4   3   5  1   
  5   3  19  1   
  6   4   6  1   
  7   4   7  1   
  8   4  20  1   
  9   5   8  1   
 10   5   9  2   
 11   6  10  1   
 12   6  11  1   
 13   6  21  1   
 14   7  22  1   
 15   7  23  1   
 16   7  24  1   
 17   8  12  2   
 18   8  13  1   
 19   9  14  1   
 20   9  25  1   
 21  10  15  1   
 22  10  26  1   
 23  10  27  1   
 24  11  16  1   
 25  11  28  1   
 26  11  29  1   
 27  12  14  1   
 28  13  30  1   
 29  13  31  1   
 30  13  32  1   
 31  14  17  1   
 32  15  18  1   
 33  15  33  1   
 34  15  34  1   
 35  16  18  1   
 36  16  35  1   
 37  16  36  1   
 38  17  37  1   
 39  17  38  1   
 40  17  39  1   
 41  18  40  1   
 42  18  41  1   
@<TRIPOS>SUBSTRUCTURE
  1 ****   2 GROUP 4 **** **** 0

# MOE 2024.06 (io_trps.svl 2023.06)
