@<TRIPOS>MOLECULE
NONAME
44 45 1 0 0 
SMALL
USER_CHARGES


@<TRIPOS>ATOM
  1 CL       1.2270    -0.7350     0.9010 Cl    1 <1>  -0.1770 
  2 C        0.5320    -2.2780     0.4530 C.ar  1 <1>   0.1770 
  3 C        0.2830    -3.2420     1.4190 C.ar  1 <1>  -0.1440 
  4 C        0.2430    -2.5050    -0.8800 C.ar  1 <1>  -0.1500 
  5 C       -0.2680    -4.4500     1.0190 C.ar  1 <1>  -0.1500 
  6 C        0.6040    -2.9870     2.8840 C.3   1 <1>  -0.0960 
  7 C       -0.3060    -3.7160    -1.2610 C.ar  1 <1>  -0.1500 
  8 C       -0.5710    -4.7040    -0.3160 C.ar  1 <1>   0.1170 
  9 N       -1.1230    -5.9490    -0.6470 N.am  1 <1>  -0.5470 
 10 C       -1.7410    -6.4310    -1.7660 C.2   1 <1>   0.5690 
 11 O       -1.9370    -5.7920    -2.7710 O.2   1 <1>  -0.5700 
 12 C       -2.2060    -7.8880    -1.7020 C.3   1 <1>   0.1710 
 13 N       -2.4010    -8.3950    -0.2980 N.3   1 <1>  -0.8100 
 14 C       -2.4780    -9.8810    -0.1910 C.3   1 <1>   0.1900 
 15 C       -3.6320    -7.7690     0.2390 C.3   1 <1>   0.1100 
 16 C       -2.6790   -10.2730     1.2920 C.3   1 <1>  -0.1600 
 17 C       -1.2020   -10.5590    -0.7310 C.3   1 <1>  -0.0990 
 18 C       -3.7980    -8.0840     1.7220 C.3   1 <1>  -0.1600 
 19 C       -3.8910    -9.5930     1.9320 C.3   1 <1>  -0.1600 
 20 C       -1.2310   -12.0600    -0.5540 C.2   1 <1>   0.5690 
 21 O       -2.0800   -12.7080    -1.1050 O.2   1 <1>  -0.5700 
 22 N       -0.3050   -12.6650     0.2100 N.am  1 <1>  -0.8000 
 23 H        0.4470    -1.7410    -1.6080 H     1 <1>   0.1500 
 24 H       -0.4700    -5.2100     1.7510 H     1 <1>   0.1500 
 25 H        0.0550    -2.1310     3.2360 H     1 <1>   0.0800 
 26 H        1.6550    -2.7950     3.0010 H     1 <1>   0.0800 
 27 H        0.3420    -3.8330     3.4930 H     1 <1>   0.0800 
 28 H       -0.5250    -3.8870    -2.2990 H     1 <1>   0.1500 
 29 H       -1.1570    -6.6450     0.1050 H     1 <1>   0.3700 
 30 H       -1.4460    -8.4430    -2.2110 H     1 <1>   0.0800 
 31 H       -3.1170    -7.9920    -2.2640 H     1 <1>   0.0800 
 32 H       -3.3240   -10.2350    -0.7590 H     1 <1>   0.0800 
 33 H       -4.4910    -8.1280    -0.3050 H     1 <1>   0.0800 
 34 H       -3.5920    -6.6990     0.1230 H     1 <1>   0.0800 
 35 H       -1.7940   -10.0120     1.8460 H     1 <1>   0.0800 
 36 H       -2.8170   -11.3360     1.3780 H     1 <1>   0.0800 
 37 H       -0.3400   -10.1500    -0.2390 H     1 <1>   0.0800 
 38 H       -1.1070   -10.4030    -1.7860 H     1 <1>   0.0800 
 39 H       -4.6930    -7.6130     2.0900 H     1 <1>   0.0800 
 40 H       -2.9620    -7.6820     2.2670 H     1 <1>   0.0800 
 41 H       -3.9280    -9.8190     2.9840 H     1 <1>   0.0800 
 42 H       -4.7930    -9.9660     1.4760 H     1 <1>   0.0800 
 43 H       -0.3340   -13.6800     0.3120 H     1 <1>   0.3700 
 44 H        0.4410   -12.1770     0.7030 H     1 <1>   0.3700 
@<TRIPOS>BOND
  1   1   2  1   
  2   2   3  ar  
  3   2   4  ar  
  4   3   5  ar  
  5   3   6  1   
  6   4   7  ar  
  7   4  23  1   
  8   5   8  ar  
  9   5  24  1   
 10   6  25  1   
 11   6  26  1   
 12   6  27  1   
 13   7   8  ar  
 14   7  28  1   
 15   8   9  1   
 16   9  10  am  
 17   9  29  1   
 18  10  11  2   
 19  10  12  1   
 20  12  13  1   
 21  12  30  1   
 22  12  31  1   
 23  13  14  1   
 24  13  15  1   
 25  14  16  1   
 26  14  17  1   
 27  14  32  1   
 28  15  18  1   
 29  15  33  1   
 30  15  34  1   
 31  16  19  1   
 32  16  35  1   
 33  16  36  1   
 34  17  20  1   
 35  17  37  1   
 36  17  38  1   
 37  18  19  1   
 38  18  39  1   
 39  18  40  1   
 40  19  41  1   
 41  19  42  1   
 42  20  21  2   
 43  20  22  am  
 44  22  43  1   
 45  22  44  1   
@<TRIPOS>SUBSTRUCTURE
  1 ****   9 GROUP 4 **** **** 0

# MOE 2024.06 (io_trps.svl 2023.06)
