@<TRIPOS>MOLECULE
NONAME
44 46 1 0 0 
SMALL
USER_CHARGES


@<TRIPOS>ATOM
  1 S       -0.1740     0.1210     1.5050 S.3   1 <1>  -0.0800 
  2 C       -0.5020    -1.3720     0.6130 C.2   1 <1>  -0.0450 
  3 C        1.4700     0.2010     0.9180 C.2   1 <1>  -0.1100 
  4 C        0.6260    -1.7310    -0.0600 C.2   1 <1>  -0.1810 
  5 C       -1.8090    -1.9790     0.7340 C.2   1 <1>   0.7150 
  6 C        1.7290    -0.8420     0.1110 C.2   1 <1>  -0.1500 
  7 C        0.7840    -2.9610    -0.9370 C.3   1 <1>  -0.0590 
  8 O       -1.8950    -3.1810     0.9190 O.2   1 <1>  -0.5700 
  9 N       -2.9780    -1.2530     0.6190 N.am  1 <1>  -0.6600 
 10 C       -4.2830    -1.8660     1.0040 C.3   1 <1>   0.1400 
 11 C       -3.0290     0.0840    -0.0400 C.3   1 <1>   0.1400 
 12 C       -5.3170    -0.7810     1.3180 C.3   1 <1>  -0.1600 
 13 C       -4.3410     0.2280    -0.8090 C.3   1 <1>  -0.1600 
 14 C       -5.5560     0.2010     0.1440 C.3   1 <1>   0.2800 
 15 O       -5.6690     1.4660     0.7510 O.3   1 <1>  -0.5600 
 16 C       -6.8580    -0.1450    -0.6250 C.3   1 <1>  -0.1600 
 17 C       -6.3060     2.4900     0.0390 C.3   1 <1>   0.1200 
 18 C       -8.0710     0.6440    -0.1230 C.3   1 <1>   0.2800 
 19 C       -7.7810     2.1450    -0.2210 C.3   1 <1>  -0.1600 
 20 O       -8.2450     0.3570     1.2040 O.3   1 <1>  -0.6800 
 21 C       -9.3640     0.2520    -0.8320 C.3   1 <1>  -0.2400 
 22 H        2.0760     1.0280     1.2420 H     1 <1>   0.1500 
 23 H        2.6710    -1.0250    -0.3770 H     1 <1>   0.1500 
 24 H       -0.1370    -3.5120    -1.0010 H     1 <1>   0.0800 
 25 H        1.5370    -3.6080    -0.5240 H     1 <1>   0.0800 
 26 H        1.0780    -2.6700    -1.9290 H     1 <1>   0.0800 
 27 H       -4.1430    -2.4910     1.8700 H     1 <1>   0.0800 
 28 H       -4.6310    -2.4870     0.1960 H     1 <1>   0.0800 
 29 H       -2.2010     0.1910    -0.7200 H     1 <1>   0.0800 
 30 H       -2.9600     0.8550     0.7100 H     1 <1>   0.0800 
 31 H       -4.9590    -0.2420     2.1780 H     1 <1>   0.0800 
 32 H       -6.2330    -1.2630     1.6050 H     1 <1>   0.0800 
 33 H       -4.4030    -0.5890    -1.5060 H     1 <1>   0.0800 
 34 H       -4.3250     1.1320    -1.3860 H     1 <1>   0.0800 
 35 H       -7.0540    -1.2010    -0.5810 H     1 <1>   0.0800 
 36 H       -6.7240     0.0900    -1.6650 H     1 <1>   0.0800 
 37 H       -5.7830     2.6440    -0.8870 H     1 <1>   0.0800 
 38 H       -6.2310     3.3900     0.6240 H     1 <1>   0.0800 
 39 H       -8.0220     2.4920    -1.2090 H     1 <1>   0.0800 
 40 H       -8.4150     2.6870     0.4590 H     1 <1>   0.0800 
 41 H       -7.4430     0.6820     1.6670 H     1 <1>   0.4000 
 42 H       -9.2870     0.4480    -1.8860 H     1 <1>   0.0800 
 43 H      -10.1880     0.8200    -0.4390 H     1 <1>   0.0800 
 44 H       -9.5610    -0.7950    -0.6930 H     1 <1>   0.0800 
@<TRIPOS>BOND
  1   1   2  1   
  2   1   3  1   
  3   2   4  2   
  4   2   5  1   
  5   3   6  2   
  6   3  22  1   
  7   4   6  1   
  8   4   7  1   
  9   5   8  2   
 10   5   9  am  
 11   6  23  1   
 12   7  24  1   
 13   7  25  1   
 14   7  26  1   
 15   9  10  1   
 16   9  11  1   
 17  10  12  1   
 18  10  27  1   
 19  10  28  1   
 20  11  13  1   
 21  11  29  1   
 22  11  30  1   
 23  12  14  1   
 24  12  31  1   
 25  12  32  1   
 26  13  14  1   
 27  13  33  1   
 28  13  34  1   
 29  14  15  1   
 30  14  16  1   
 31  15  17  1   
 32  16  18  1   
 33  16  35  1   
 34  16  36  1   
 35  17  19  1   
 36  17  37  1   
 37  17  38  1   
 38  18  19  1   
 39  18  20  1   
 40  18  21  1   
 41  19  39  1   
 42  19  40  1   
 43  20  41  1   
 44  21  42  1   
 45  21  43  1   
 46  21  44  1   
@<TRIPOS>SUBSTRUCTURE
  1 ****  11 GROUP 4 **** **** 0

# MOE 2024.06 (io_trps.svl 2023.06)
