@<TRIPOS>MOLECULE
NONAME
39 42 1 0 0 
SMALL
USER_CHARGES


@<TRIPOS>ATOM
  1 S        0.1020    -0.6950     0.0860 S.3   1 <1>  -0.4600 
  2 C       -1.3200     0.4410    -0.0010 C.3   1 <1>   0.2510 
  3 C       -0.7970    -2.2750     0.0530 C.3   1 <1>   0.2510 
  4 C       -2.5020    -0.4960    -0.0860 C.2   1 <1>   0.1080 
  5 C       -2.2410    -1.8500    -0.0610 C.2   1 <1>  -0.1810 
  6 N       -3.7630    -0.2240    -0.1830 N.2   1 <1>  -0.7070 
  7 C       -3.4480    -2.4550    -0.1460 C.2   1 <1>  -0.0880 
  8 N       -4.3650    -1.4400    -0.2150 N.pl3 1 <1>   0.3140 
  9 N       -3.6780    -3.8510    -0.1790 N.am  1 <1>  -0.4940 
 10 C       -5.8190    -1.5240    -0.4050 C.3   1 <1>   0.0160 
 11 C       -4.6790    -4.6230     0.3670 C.2   1 <1>   0.5440 
 12 O       -5.6270    -4.0940     0.9140 O.2   1 <1>  -0.5700 
 13 C       -4.5960    -6.0670     0.2720 C.ar  1 <1>   0.0860 
 14 C       -5.7510    -6.8410     0.1390 C.ar  1 <1>  -0.1500 
 15 C       -3.3710    -6.7400     0.3080 C.ar  1 <1>  -0.1500 
 16 C       -5.6990    -8.2190     0.0230 C.ar  1 <1>  -0.1430 
 17 C       -3.3050    -8.1150     0.1900 C.ar  1 <1>  -0.1500 
 18 C       -4.4620    -8.8580     0.0390 C.ar  1 <1>   0.0820 
 19 C       -6.9800    -9.0250    -0.1170 C.3   1 <1>  -0.0170 
 20 O       -4.3450   -10.1990    -0.0730 O.3   1 <1>  -0.3630 
 21 C       -6.7240   -10.4920     0.2360 C.3   1 <1>  -0.1600 
 22 C       -5.4550   -10.9820    -0.4660 C.3   1 <1>   0.1200 
 23 H       -1.2210     1.0480    -0.8820 H     1 <1>   0.0800 
 24 H       -1.3400     1.0350     0.8940 H     1 <1>   0.0800 
 25 H       -0.5950    -2.7930     0.9730 H     1 <1>   0.0800 
 26 H       -0.4610    -2.8320    -0.8030 H     1 <1>   0.0800 
 27 H       -2.9410    -4.3890    -0.6320 H     1 <1>   0.3700 
 28 H       -6.1670    -0.6210    -0.8710 H     1 <1>   0.0800 
 29 H       -6.2890    -1.6380     0.5540 H     1 <1>   0.0800 
 30 H       -6.0500    -2.3660    -1.0280 H     1 <1>   0.0800 
 31 H       -6.7040    -6.3410     0.1280 H     1 <1>   0.1500 
 32 H       -2.4580    -6.1890     0.4420 H     1 <1>   0.1500 
 33 H       -2.3600    -8.6270     0.2170 H     1 <1>   0.1500 
 34 H       -7.3220    -8.9540    -1.1350 H     1 <1>   0.0800 
 35 H       -7.7440    -8.6250     0.5270 H     1 <1>   0.0800 
 36 H       -7.5640   -11.0930    -0.0620 H     1 <1>   0.0800 
 37 H       -6.5960   -10.5970     1.3000 H     1 <1>   0.0800 
 38 H       -5.2420   -12.0040    -0.2080 H     1 <1>   0.0800 
 39 H       -5.5520   -10.8990    -1.5350 H     1 <1>   0.0800 
@<TRIPOS>BOND
  1   1   2  1   
  2   1   3  1   
  3   2   4  1   
  4   2  23  1   
  5   2  24  1   
  6   3   5  1   
  7   3  25  1   
  8   3  26  1   
  9   4   5  1   
 10   4   6  2   
 11   5   7  2   
 12   6   8  1   
 13   7   8  1   
 14   7   9  1   
 15   8  10  1   
 16   9  11  am  
 17   9  27  1   
 18  10  28  1   
 19  10  29  1   
 20  10  30  1   
 21  11  12  2   
 22  11  13  1   
 23  13  14  ar  
 24  13  15  ar  
 25  14  16  ar  
 26  14  31  1   
 27  15  17  ar  
 28  15  32  1   
 29  16  18  ar  
 30  16  19  1   
 31  17  18  ar  
 32  17  33  1   
 33  18  20  1   
 34  19  21  1   
 35  19  34  1   
 36  19  35  1   
 37  20  22  1   
 38  21  22  1   
 39  21  36  1   
 40  21  37  1   
 41  22  38  1   
 42  22  39  1   
@<TRIPOS>SUBSTRUCTURE
  1 ****  11 GROUP 4 **** **** 0

# MOE 2024.06 (io_trps.svl 2023.06)
