@<TRIPOS>MOLECULE
NONAME
39 41 1 0 0 
SMALL
USER_CHARGES


@<TRIPOS>ATOM
  1 CL       1.8050    -2.9870     3.1230 Cl    1 <1>  -0.1770 
  2 C        2.0490    -2.3260     1.5180 C.ar  1 <1>   0.1770 
  3 C        1.5220    -2.9820     0.3980 C.ar  1 <1>   0.4100 
  4 C        2.7660    -1.1630     1.3830 C.ar  1 <1>  -0.1500 
  5 N        1.6870    -2.5200    -0.8370 N.ar  1 <1>  -0.6200 
  6 N        0.7950    -4.1460     0.5410 N.pl3 1 <1>  -0.8690 
  7 C        2.9350    -0.6810     0.0910 C.ar  1 <1>  -0.1430 
  8 C        2.3780    -1.3960    -0.9570 C.ar  1 <1>   0.1600 
  9 C        0.6090    -5.1460    -0.5430 C.3   1 <1>   0.2890 
 10 C        3.7030     0.5970    -0.2280 C.3   1 <1>   1.1640 
 11 C       -0.8110    -5.6930    -0.5300 C.3   1 <1>  -0.0800 
 12 C        1.3950    -6.4040    -0.1970 C.3   1 <1>   0.1200 
 13 F        2.9450     1.4890    -0.8500 F     1 <1>  -0.3400 
 14 F        4.7390     0.3670    -1.0230 F     1 <1>  -0.3400 
 15 F        4.1850     1.2010     0.8510 F     1 <1>  -0.3400 
 16 C       -0.7460    -6.7930     0.5340 C.3   1 <1>   0.1200 
 17 C       -1.9240    -4.6550    -0.3000 C.3   1 <1>  -0.0160 
 18 O        0.6060    -7.1030     0.7190 O.3   1 <1>  -0.5600 
 19 C       -3.2970    -5.3050    -0.3790 C.ar  1 <1>  -0.1430 
 20 C       -3.9070    -5.5730    -1.5870 C.ar  1 <1>  -0.1500 
 21 C       -4.0040    -5.6620     0.7520 C.ar  1 <1>  -0.1500 
 22 C       -5.1540    -6.1740    -1.6070 C.ar  1 <1>   0.1600 
 23 C       -5.2470    -6.2590     0.6230 C.ar  1 <1>   0.1600 
 24 N       -5.8390    -6.5270    -0.5300 N.ar  1 <1>  -0.6200 
 25 H        3.1680    -0.6660     2.2500 H     1 <1>   0.1500 
 26 H        0.8440    -4.5910     1.4640 H     1 <1>   0.4000 
 27 H        2.5050    -1.0280    -1.9640 H     1 <1>   0.1500 
 28 H        0.8850    -4.7510    -1.5050 H     1 <1>   0.0800 
 29 H       -0.9860    -6.1720    -1.4770 H     1 <1>   0.0800 
 30 H        2.3540    -6.1860     0.2390 H     1 <1>   0.0800 
 31 H        1.5190    -7.0250    -1.0660 H     1 <1>   0.0800 
 32 H       -1.2710    -7.6810     0.2250 H     1 <1>   0.0800 
 33 H       -1.1310    -6.4520     1.4790 H     1 <1>   0.0800 
 34 H       -1.8500    -3.8810    -1.0450 H     1 <1>   0.0800 
 35 H       -1.8070    -4.1840     0.6610 H     1 <1>   0.0800 
 36 H       -3.4230    -5.3200    -2.5130 H     1 <1>   0.1500 
 37 H       -3.6000    -5.4820     1.7320 H     1 <1>   0.1500 
 38 H       -5.6140    -6.3760    -2.5590 H     1 <1>   0.1500 
 39 H       -5.7830    -6.5310     1.5160 H     1 <1>   0.1500 
@<TRIPOS>BOND
  1   1   2  1   
  2   2   3  ar  
  3   2   4  ar  
  4   3   5  ar  
  5   3   6  1   
  6   4   7  ar  
  7   4  25  1   
  8   5   8  ar  
  9   6   9  1   
 10   6  26  1   
 11   7   8  ar  
 12   7  10  1   
 13   8  27  1   
 14   9  11  1   
 15   9  12  1   
 16   9  28  1   
 17  10  13  1   
 18  10  14  1   
 19  10  15  1   
 20  11  16  1   
 21  11  17  1   
 22  11  29  1   
 23  12  18  1   
 24  12  30  1   
 25  12  31  1   
 26  16  18  1   
 27  16  32  1   
 28  16  33  1   
 29  17  19  1   
 30  17  34  1   
 31  17  35  1   
 32  19  20  ar  
 33  19  21  ar  
 34  20  22  ar  
 35  20  36  1   
 36  21  23  ar  
 37  21  37  1   
 38  22  24  ar  
 39  22  38  1   
 40  23  24  ar  
 41  23  39  1   
@<TRIPOS>SUBSTRUCTURE
  1 ****   6 GROUP 4 **** **** 0

# MOE 2024.06 (io_trps.svl 2023.06)
