@<TRIPOS>MOLECULE
NONAME
49 51 1 0 0 
SMALL
USER_CHARGES


@<TRIPOS>ATOM
  1 F       -2.4570    -0.3770    -2.2930 F     1 <1>  -0.1900 
  2 C       -2.8670    -1.1020    -1.2870 C.ar  1 <1>   0.1900 
  3 C       -3.7970    -0.5680    -0.4170 C.ar  1 <1>  -0.1500 
  4 C       -2.3540    -2.3740    -1.1280 C.ar  1 <1>  -0.1500 
  5 C       -4.2300    -1.3420     0.6480 C.ar  1 <1>  -0.1500 
  6 C       -2.7940    -3.1370    -0.0600 C.ar  1 <1>  -0.1500 
  7 C       -3.7360    -2.6290     0.8270 C.ar  1 <1>  -0.1430 
  8 C       -4.2200    -3.4860     1.9950 C.3   1 <1>   0.0440 
  9 C       -4.6510    -4.8860     1.5710 C.2   1 <1>   0.5690 
 10 O       -4.0550    -5.8200     2.0520 O.2   1 <1>  -0.5700 
 11 N       -5.6830    -5.1020     0.6860 N.am  1 <1>  -0.6600 
 12 C       -5.9670    -6.4700     0.1690 C.3   1 <1>   0.1400 
 13 C       -6.6190    -4.0560     0.1870 C.3   1 <1>   0.1400 
 14 C       -7.4040    -6.8880     0.5470 C.3   1 <1>   0.4230 
 15 C       -8.0490    -4.4540     0.5750 C.3   1 <1>  -0.1600 
 16 N       -7.7350    -8.3350     0.2010 N.4   1 <1>  -0.9590 
 17 C       -8.4670    -5.8610     0.0560 C.3   1 <1>   0.0000 
 18 C       -9.2030    -8.6380     0.1690 C.3   1 <1>   0.3430 
 19 C       -7.0770    -8.8710    -1.0370 C.3   1 <1>   0.2630 
 20 C       -9.8530    -6.2260     0.6680 C.3   1 <1>  -0.1600 
 21 C       -8.5410    -5.8620    -1.4980 C.3   1 <1>   0.1200 
 22 C       -9.9760    -7.7010     1.0960 C.3   1 <1>  -0.1600 
 23 O       -9.3260    -4.8250    -1.9740 O.3   1 <1>  -0.6800 
 24 H       -4.1690     0.4290    -0.5720 H     1 <1>   0.1500 
 25 H       -1.6270    -2.7530    -1.8240 H     1 <1>   0.1500 
 26 H       -4.9510    -0.9310     1.3340 H     1 <1>   0.1500 
 27 H       -2.3970    -4.1300     0.0770 H     1 <1>   0.1500 
 28 H       -5.0390    -3.0130     2.5020 H     1 <1>   0.0800 
 29 H       -3.4160    -3.5750     2.7030 H     1 <1>   0.0800 
 30 H       -5.8310    -6.4590    -0.8970 H     1 <1>   0.0800 
 31 H       -5.2730    -7.1780     0.5860 H     1 <1>   0.0800 
 32 H       -6.3950    -3.0950     0.6140 H     1 <1>   0.0800 
 33 H       -6.5250    -3.9650    -0.8830 H     1 <1>   0.0800 
 34 H       -7.4330    -6.8250     1.6230 H     1 <1>   0.0800 
 35 H       -8.1080    -4.4270     1.6500 H     1 <1>   0.0800 
 36 H       -8.7260    -3.7000     0.2130 H     1 <1>   0.0800 
 37 H       -7.3530    -8.8780     0.9910 H     1 <1>   0.4500 
 38 H       -9.5800    -8.5120    -0.8330 H     1 <1>   0.0800 
 39 H       -9.3730    -9.6630     0.4610 H     1 <1>   0.0800 
 40 H       -7.3970    -8.3190    -1.9050 H     1 <1>   0.0800 
 41 H       -7.3350    -9.9090    -1.1770 H     1 <1>   0.0800 
 42 H       -6.0040    -8.8010    -0.9570 H     1 <1>   0.0800 
 43 H      -10.0540    -5.6230     1.5390 H     1 <1>   0.0800 
 44 H      -10.6370    -6.0000    -0.0330 H     1 <1>   0.0800 
 45 H       -8.9580    -6.7780    -1.8750 H     1 <1>   0.0800 
 46 H       -7.5680    -5.7280    -1.9360 H     1 <1>   0.0800 
 47 H      -11.0160    -7.9820     1.0970 H     1 <1>   0.0800 
 48 H       -9.6170    -7.8270     2.1030 H     1 <1>   0.0800 
 49 H      -10.2620    -4.9120    -1.7040 H     1 <1>   0.4000 
@<TRIPOS>BOND
  1   1   2  1   
  2   2   3  ar  
  3   2   4  ar  
  4   3   5  ar  
  5   3  24  1   
  6   4   6  ar  
  7   4  25  1   
  8   5   7  ar  
  9   5  26  1   
 10   6   7  ar  
 11   6  27  1   
 12   7   8  1   
 13   8   9  1   
 14   8  28  1   
 15   8  29  1   
 16   9  10  2   
 17   9  11  am  
 18  11  12  1   
 19  11  13  1   
 20  12  14  1   
 21  12  30  1   
 22  12  31  1   
 23  13  15  1   
 24  13  32  1   
 25  13  33  1   
 26  14  16  1   
 27  14  17  1   
 28  14  34  1   
 29  15  17  1   
 30  15  35  1   
 31  15  36  1   
 32  16  18  1   
 33  16  19  1   
 34  16  37  1   
 35  17  20  1   
 36  17  21  1   
 37  18  22  1   
 38  18  38  1   
 39  18  39  1   
 40  19  40  1   
 41  19  41  1   
 42  19  42  1   
 43  20  22  1   
 44  20  43  1   
 45  20  44  1   
 46  21  23  1   
 47  21  45  1   
 48  21  46  1   
 49  22  47  1   
 50  22  48  1   
 51  23  49  1   
@<TRIPOS>SUBSTRUCTURE
  1 ****  11 GROUP 4 **** **** 0

# MOE 2024.06 (io_trps.svl 2023.06)
