@<TRIPOS>MOLECULE
NONAME
39 41 1 0 0 
SMALL
USER_CHARGES


@<TRIPOS>ATOM
  1 F       -0.6350    -0.0220    -0.5520 F     1 <1>  -0.1900 
  2 C       -1.7460    -0.7160    -0.4340 C.ar  1 <1>   0.1900 
  3 C       -1.7570    -1.9720     0.1420 C.ar  1 <1>   0.3920 
  4 C       -2.9260    -0.1930    -0.8880 C.ar  1 <1>   0.1600 
  5 O       -0.6030    -2.5070     0.6000 O.3   1 <1>  -0.3630 
  6 N       -2.8770    -2.6600     0.2550 N.ar  1 <1>  -0.6200 
  7 N       -4.0550    -0.8640    -0.7830 N.ar  1 <1>  -0.6200 
  8 C       -0.5820    -3.7750     1.2260 C.3   1 <1>   0.0400 
  9 C       -3.9740    -2.0670    -0.2120 C.ar  1 <1>   0.7200 
 10 N       -5.1480    -2.7680    -0.0860 N.pl3 1 <1>  -0.8380 
 11 C       -6.4260    -2.3140    -0.6930 C.3   1 <1>   0.2090 
 12 C       -5.1940    -4.2320     0.1630 C.3   1 <1>   0.2090 
 13 C       -7.4160    -3.4260    -0.3500 C.3   1 <1>   0.2000 
 14 C       -6.5520    -4.6910    -0.3820 C.3   1 <1>  -0.0800 
 15 O       -7.8690    -3.2140     0.9440 O.3   1 <1>  -0.6800 
 16 C       -7.1430    -5.9020     0.3650 C.3   1 <1>   0.0200 
 17 C       -6.3260    -7.1700     0.1820 C.2   1 <1>  -0.0400 
 18 O       -6.6210    -8.2160     0.9070 O.3   1 <1>  -0.0190 
 19 C       -5.2940    -7.5030    -0.6120 C.2   1 <1>  -0.1500 
 20 N       -5.8430    -9.2270     0.6450 N.2   1 <1>  -0.4100 
 21 C       -5.0340    -8.8260    -0.2670 C.2   1 <1>   0.1080 
 22 C       -3.9500    -9.6860    -0.8780 C.3   1 <1>  -0.0590 
 23 H       -2.9430     0.7820    -1.3400 H     1 <1>   0.1500 
 24 H        0.4300    -3.9910     1.5160 H     1 <1>   0.0800 
 25 H       -0.9330    -4.5130     0.5270 H     1 <1>   0.0800 
 26 H       -1.2180    -3.7450     2.0930 H     1 <1>   0.0800 
 27 H       -6.7380    -1.3620    -0.2990 H     1 <1>   0.0800 
 28 H       -6.3040    -2.2400    -1.7600 H     1 <1>   0.0800 
 29 H       -4.3810    -4.7350    -0.3330 H     1 <1>   0.0800 
 30 H       -5.1240    -4.4070     1.2240 H     1 <1>   0.0800 
 31 H       -8.2640    -3.4630    -1.0120 H     1 <1>   0.0800 
 32 H       -6.4160    -4.9600    -1.4150 H     1 <1>   0.0800 
 33 H       -7.1030    -2.9310     1.4870 H     1 <1>   0.4000 
 34 H       -8.1420    -6.0870     0.0130 H     1 <1>   0.0800 
 35 H       -7.2060    -5.6870     1.4180 H     1 <1>   0.0800 
 36 H       -4.7670    -6.9290    -1.3500 H     1 <1>   0.1500 
 37 H       -2.9870    -9.2530    -0.6810 H     1 <1>   0.0800 
 38 H       -4.0970    -9.7590    -1.9400 H     1 <1>   0.0800 
 39 H       -3.9810   -10.6730    -0.4530 H     1 <1>   0.0800 
@<TRIPOS>BOND
  1   1   2  1   
  2   2   3  ar  
  3   2   4  ar  
  4   3   5  1   
  5   3   6  ar  
  6   4   7  ar  
  7   4  23  1   
  8   5   8  1   
  9   6   9  ar  
 10   7   9  ar  
 11   8  24  1   
 12   8  25  1   
 13   8  26  1   
 14   9  10  1   
 15  10  11  1   
 16  10  12  1   
 17  11  13  1   
 18  11  27  1   
 19  11  28  1   
 20  12  14  1   
 21  12  29  1   
 22  12  30  1   
 23  13  14  1   
 24  13  15  1   
 25  13  31  1   
 26  14  16  1   
 27  14  32  1   
 28  15  33  1   
 29  16  17  1   
 30  16  34  1   
 31  16  35  1   
 32  17  18  1   
 33  17  19  2   
 34  18  20  1   
 35  19  21  1   
 36  19  36  1   
 37  20  21  2   
 38  21  22  1   
 39  22  37  1   
 40  22  38  1   
 41  22  39  1   
@<TRIPOS>SUBSTRUCTURE
  1 ****  12 GROUP 4 **** **** 0

# MOE 2024.06 (io_trps.svl 2023.06)
