@<TRIPOS>MOLECULE
NONAME
53 56 1 0 0 
SMALL
USER_CHARGES


@<TRIPOS>ATOM
  1 O       -2.6570    -0.9080    -0.6600 O.2   1 <1>  -0.5700 
  2 C       -2.9750     0.1360    -0.1000 C.2   1 <1>   0.4690 
  3 C       -3.9540     0.1500     0.9350 C.2   1 <1>   0.0290 
  4 C       -2.3680     1.3780    -0.4990 C.ar  1 <1>   0.0860 
  5 C       -4.5410    -1.0820     1.3670 C.2   1 <1>   0.6160 
  6 C       -4.2890     1.3400     1.5130 C.2   1 <1>  -0.0500 
  7 C       -2.7670     2.5770     0.1180 C.ar  1 <1>   0.4100 
  8 C       -1.3890     1.4490    -1.4880 C.ar  1 <1>  -0.1500 
  9 O       -4.3170    -1.4840     2.4950 O.2   1 <1>  -0.5700 
 10 N       -5.3990    -1.8140     0.5760 N.am  1 <1>  -0.6600 
 11 N       -3.7380     2.5300     1.1240 N.pl3 1 <1>  -0.5690 
 12 N       -2.2610     3.7720    -0.2070 N.ar  1 <1>  -0.6200 
 13 C       -0.8750     2.6810    -1.8070 C.ar  1 <1>  -0.1500 
 14 C       -5.8630    -1.4310    -0.7870 C.3   1 <1>   0.1400 
 15 C       -5.6010    -3.2680     0.7930 C.3   1 <1>   0.1400 
 16 C       -4.1620     3.7710     1.8320 C.3   1 <1>   0.2090 
 17 C       -1.3420     3.8060    -1.1420 C.ar  1 <1>   0.1670 
 18 C       -6.5350    -2.6890    -1.3430 C.3   1 <1>   0.2000 
 19 C       -5.8470    -3.8420    -0.6080 C.3   1 <1>  -0.0800 
 20 C       -3.2460     4.0130     3.0290 C.3   1 <1>  -0.2400 
 21 C       -0.7860     5.1730    -1.4830 C.3   1 <1>  -0.0970 
 22 O       -7.8700    -2.6740    -0.9740 O.3   1 <1>  -0.6800 
 23 C       -4.5210    -4.2160    -1.3010 C.3   1 <1>   0.0200 
 24 C       -3.7820    -5.3010    -0.5440 C.2   1 <1>  -0.0400 
 25 O       -4.2900    -6.5000    -0.4380 O.3   1 <1>  -0.0190 
 26 C       -2.6110    -5.2860     0.1090 C.2   1 <1>  -0.1500 
 27 N       -3.5200    -7.2890     0.2550 N.2   1 <1>  -0.4100 
 28 C       -2.5010    -6.5850     0.5980 C.2   1 <1>   0.1080 
 29 C       -1.3460    -7.1020     1.4230 C.3   1 <1>  -0.0590 
 30 H       -5.0100     1.3590     2.3160 H     1 <1>   0.1500 
 31 H       -1.0490     0.5560    -1.9850 H     1 <1>   0.1500 
 32 H       -0.1180     2.7730    -2.5650 H     1 <1>   0.1500 
 33 H       -6.5430    -0.5980    -0.7540 H     1 <1>   0.0800 
 34 H       -5.0190    -1.1810    -1.4030 H     1 <1>   0.0800 
 35 H       -4.7500    -3.7120     1.2810 H     1 <1>   0.0800 
 36 H       -6.4680    -3.4110     1.4150 H     1 <1>   0.0800 
 37 H       -4.1350     4.6140     1.1630 H     1 <1>   0.0800 
 38 H       -5.1770     3.6600     2.1700 H     1 <1>   0.0800 
 39 H       -6.4810    -2.7610    -2.4160 H     1 <1>   0.0800 
 40 H       -6.4750    -4.7150    -0.5670 H     1 <1>   0.0800 
 41 H       -2.2330     4.1520     2.6940 H     1 <1>   0.0800 
 42 H       -3.2870     3.1800     3.7070 H     1 <1>   0.0800 
 43 H       -3.5570     4.8990     3.5510 H     1 <1>   0.0800 
 44 H       -0.0410     5.1110    -2.2540 H     1 <1>   0.0800 
 45 H       -0.3440     5.6090    -0.6060 H     1 <1>   0.0800 
 46 H       -1.5830     5.8100    -1.8200 H     1 <1>   0.0800 
 47 H       -7.9340    -2.5030    -0.0130 H     1 <1>   0.4000 
 48 H       -3.8790    -3.3550    -1.3720 H     1 <1>   0.0800 
 49 H       -4.7180    -4.5670    -2.2980 H     1 <1>   0.0800 
 50 H       -1.9110    -4.4820     0.2450 H     1 <1>   0.1500 
 51 H       -0.4270    -6.9860     0.8780 H     1 <1>   0.0800 
 52 H       -1.4910    -8.1440     1.6460 H     1 <1>   0.0800 
 53 H       -1.2840    -6.5540     2.3450 H     1 <1>   0.0800 
@<TRIPOS>BOND
  1   1   2  2   
  2   2   3  1   
  3   2   4  1   
  4   3   5  1   
  5   3   6  2   
  6   4   7  ar  
  7   4   8  ar  
  8   5   9  2   
  9   5  10  am  
 10   6  11  1   
 11   6  30  1   
 12   7  11  1   
 13   7  12  ar  
 14   8  13  ar  
 15   8  31  1   
 16  10  14  1   
 17  10  15  1   
 18  11  16  1   
 19  12  17  ar  
 20  13  17  ar  
 21  13  32  1   
 22  14  18  1   
 23  14  33  1   
 24  14  34  1   
 25  15  19  1   
 26  15  35  1   
 27  15  36  1   
 28  16  20  1   
 29  16  37  1   
 30  16  38  1   
 31  17  21  1   
 32  18  19  1   
 33  18  22  1   
 34  18  39  1   
 35  19  23  1   
 36  19  40  1   
 37  20  41  1   
 38  20  42  1   
 39  20  43  1   
 40  21  44  1   
 41  21  45  1   
 42  21  46  1   
 43  22  47  1   
 44  23  24  1   
 45  23  48  1   
 46  23  49  1   
 47  24  25  1   
 48  24  26  2   
 49  25  27  1   
 50  26  28  1   
 51  26  50  1   
 52  27  28  2   
 53  28  29  1   
 54  29  51  1   
 55  29  52  1   
 56  29  53  1   
@<TRIPOS>SUBSTRUCTURE
  1 ****   1 GROUP 4 **** **** 0

# MOE 2024.06 (io_trps.svl 2023.06)
