@<TRIPOS>MOLECULE
NONAME
54 57 1 0 0 
SMALL
USER_CHARGES


@<TRIPOS>ATOM
  1 O       -3.0040     0.7510    -2.7060 O.2   1 <1>  -0.5700 
  2 C       -2.5450     0.9490    -1.6080 C.2   1 <1>   0.5690 
  3 N       -2.2060    -0.0800    -0.7880 N.am  1 <1>  -0.7300 
  4 C       -2.3730     2.3780    -1.1180 C.3   1 <1>   0.0820 
  5 C       -2.2680    -1.5150    -1.1540 C.3   1 <1>   0.2200 
  6 C       -0.9430     2.7270    -0.7190 C.2   1 <1>  -0.1810 
  7 C       -3.4200    -2.2190    -0.4500 C.3   1 <1>  -0.0800 
  8 C       -1.0790    -2.2340    -0.5320 C.3   1 <1>   0.1200 
  9 C       -0.5400     3.9020    -0.0340 C.ar  1 <1>   0.0000 
 10 C        0.1790     2.0140    -0.9370 C.2   1 <1>  -0.0100 
 11 C       -2.8230    -2.5840     0.9140 C.3   1 <1>   0.1200 
 12 C       -4.7430    -1.4340    -0.3740 C.3   1 <1>  -0.0160 
 13 O       -1.4360    -2.4410     0.8000 O.3   1 <1>  -0.5600 
 14 C       -1.1580     5.0530     0.4730 C.ar  1 <1>  -0.1440 
 15 C        0.8340     3.7660     0.1090 C.ar  1 <1>   0.1400 
 16 O        1.2450     2.6210    -0.4420 O.3   1 <1>  -0.2800 
 17 C       -5.8400    -2.2800     0.2530 C.ar  1 <1>  -0.1440 
 18 C       -0.3760     5.9980     1.1090 C.ar  1 <1>  -0.1500 
 19 C       -2.6540     5.2830     0.3370 C.3   1 <1>  -0.0970 
 20 C        1.6300     4.7170     0.7450 C.ar  1 <1>  -0.1440 
 21 C       -6.5550    -3.2010    -0.4850 C.ar  1 <1>  -0.1500 
 22 C       -6.1770    -2.1760     1.5880 C.ar  1 <1>  -0.1500 
 23 C        1.0060     5.8430     1.2550 C.ar  1 <1>  -0.1440 
 24 C        3.1330     4.4900     0.8580 C.3   1 <1>  -0.0970 
 25 C       -7.5400    -3.9560     0.1290 C.ar  1 <1>   0.1600 
 26 C       -7.1800    -2.9790     2.1050 C.ar  1 <1>   0.1600 
 27 C        1.7870     6.9320     1.9770 C.3   1 <1>  -0.0970 
 28 N       -7.8680    -3.8680     1.4080 N.ar  1 <1>  -0.6200 
 29 H       -1.8000     0.1000     0.1350 H     1 <1>   0.3700 
 30 H       -2.6930     3.0490    -1.8930 H     1 <1>   0.0800 
 31 H       -3.0200     2.5070    -0.2730 H     1 <1>   0.0800 
 32 H       -2.3020    -1.6330    -2.2240 H     1 <1>   0.0800 
 33 H       -3.6080    -3.1400    -0.9730 H     1 <1>   0.0800 
 34 H       -0.1690    -1.6620    -0.5810 H     1 <1>   0.0800 
 35 H       -0.9330    -3.1970    -0.9890 H     1 <1>   0.0800 
 36 H        0.3250     1.0700    -1.4320 H     1 <1>   0.1500 
 37 H       -3.0500    -3.6000     1.1890 H     1 <1>   0.0800 
 38 H       -3.1550    -1.9150     1.6880 H     1 <1>   0.0800 
 39 H       -5.0410    -1.1420    -1.3660 H     1 <1>   0.0800 
 40 H       -4.6150    -0.5350     0.2020 H     1 <1>   0.0800 
 41 H       -0.8380     6.8840     1.5050 H     1 <1>   0.1500 
 42 H       -2.9250     6.2610     0.6910 H     1 <1>   0.0800 
 43 H       -3.1920     4.5550     0.9150 H     1 <1>   0.0800 
 44 H       -2.9460     5.2100    -0.6950 H     1 <1>   0.0800 
 45 H       -6.3560    -3.3390    -1.5320 H     1 <1>   0.1500 
 46 H       -5.6710    -1.4800     2.2310 H     1 <1>   0.1500 
 47 H        3.6690     5.3960     0.6450 H     1 <1>   0.0800 
 48 H        3.4620     3.7410     0.1600 H     1 <1>   0.0800 
 49 H        3.3760     4.1600     1.8510 H     1 <1>   0.0800 
 50 H       -8.0880    -4.6690    -0.4630 H     1 <1>   0.1500 
 51 H       -7.4290    -2.8860     3.1480 H     1 <1>   0.1500 
 52 H        1.1250     7.6060     2.4910 H     1 <1>   0.0800 
 53 H        2.3660     7.4960     1.2690 H     1 <1>   0.0800 
 54 H        2.4480     6.4970     2.7050 H     1 <1>   0.0800 
@<TRIPOS>BOND
  1   1   2  2   
  2   2   3  am  
  3   2   4  1   
  4   3   5  1   
  5   3  29  1   
  6   4   6  1   
  7   4  30  1   
  8   4  31  1   
  9   5   7  1   
 10   5   8  1   
 11   5  32  1   
 12   6   9  1   
 13   6  10  2   
 14   7  11  1   
 15   7  12  1   
 16   7  33  1   
 17   8  13  1   
 18   8  34  1   
 19   8  35  1   
 20   9  14  ar  
 21   9  15  ar  
 22  10  16  1   
 23  10  36  1   
 24  11  13  1   
 25  11  37  1   
 26  11  38  1   
 27  12  17  1   
 28  12  39  1   
 29  12  40  1   
 30  14  18  ar  
 31  14  19  1   
 32  15  16  1   
 33  15  20  ar  
 34  17  21  ar  
 35  17  22  ar  
 36  18  23  ar  
 37  18  41  1   
 38  19  42  1   
 39  19  43  1   
 40  19  44  1   
 41  20  23  ar  
 42  20  24  1   
 43  21  25  ar  
 44  21  45  1   
 45  22  26  ar  
 46  22  46  1   
 47  23  27  1   
 48  24  47  1   
 49  24  48  1   
 50  24  49  1   
 51  25  28  ar  
 52  25  50  1   
 53  26  28  ar  
 54  26  51  1   
 55  27  52  1   
 56  27  53  1   
 57  27  54  1   
@<TRIPOS>SUBSTRUCTURE
  1 ****   3 GROUP 4 **** **** 0

# MOE 2024.06 (io_trps.svl 2023.06)
