@<TRIPOS>MOLECULE
NONAME
53 55 1 0 0 
SMALL
USER_CHARGES


@<TRIPOS>ATOM
  1 O       -0.9320     0.5510    -0.4420 O.2   1 <1>  -0.5700 
  2 C       -0.6670     1.6670    -0.0770 C.2   1 <1>   0.5690 
  3 N       -1.6460     2.5450     0.2260 N.am  1 <1>  -0.7300 
  4 C        0.7940     2.1190     0.0050 C.3   1 <1>   0.1810 
  5 C       -1.4010     3.9310     0.6860 C.3   1 <1>   0.3640 
  6 O        0.9830     3.2890     0.7770 O.3   1 <1>  -0.5600 
  7 C       -2.3090     4.8720    -0.1050 C.ar  1 <1>  -0.1440 
  8 C        0.0830     4.3520     0.5010 C.3   1 <1>   0.2610 
  9 C       -2.4390     4.7610    -1.4840 C.ar  1 <1>  -0.1500 
 10 C       -3.0110     5.8710     0.5560 C.ar  1 <1>  -0.1500 
 11 C        0.4430     5.5880     1.3510 C.2   1 <1>   0.5690 
 12 C       -3.2480     5.6350    -2.1880 C.ar  1 <1>  -0.1500 
 13 C       -3.8210     6.7450    -0.1460 C.ar  1 <1>  -0.1500 
 14 O       -0.3280     5.9550     2.2090 O.2   1 <1>  -0.5700 
 15 N        1.6190     6.2840     1.1500 N.am  1 <1>  -0.6600 
 16 C       -3.9390     6.6300    -1.5190 C.ar  1 <1>  -0.1500 
 17 C        2.7010     5.8830     0.1980 C.3   1 <1>   0.1400 
 18 C        1.9640     7.4600     2.0120 C.3   1 <1>   0.1400 
 19 C        3.1960     7.0930    -0.6230 C.3   1 <1>   0.3430 
 20 C        2.4510     8.6470     1.1640 C.3   1 <1>   0.3430 
 21 N        3.5840     8.2610     0.2460 N.4   1 <1>  -0.9590 
 22 C        4.0420     9.4050    -0.5910 C.3   1 <1>   0.3430 
 23 C        4.7800    10.4350     0.2670 C.3   1 <1>  -0.1600 
 24 C        5.3520    11.5580    -0.6070 C.3   1 <1>  -0.1600 
 25 C        6.0930    12.5910     0.2450 C.3   1 <1>  -0.2400 
 26 H       -2.6190     2.2440     0.1580 H     1 <1>   0.3700 
 27 H        1.1620     2.3020    -0.9870 H     1 <1>   0.0800 
 28 H        1.3790     1.3350     0.4510 H     1 <1>   0.0800 
 29 H       -1.6590     3.9770     1.7300 H     1 <1>   0.0800 
 30 H        0.2170     4.6190    -0.5300 H     1 <1>   0.0800 
 31 H       -1.9160     3.9890    -2.0230 H     1 <1>   0.1500 
 32 H       -2.9290     5.9780     1.6260 H     1 <1>   0.1500 
 33 H       -3.3450     5.5410    -3.2560 H     1 <1>   0.1500 
 34 H       -4.3610     7.5160     0.3770 H     1 <1>   0.1500 
 35 H       -4.5700     7.3100    -2.0650 H     1 <1>   0.1500 
 36 H        3.5210     5.4660     0.7570 H     1 <1>   0.0800 
 37 H        2.3580     5.1240    -0.4800 H     1 <1>   0.0800 
 38 H        1.1090     7.7790     2.5840 H     1 <1>   0.0800 
 39 H        2.7280     7.1720     2.7130 H     1 <1>   0.0800 
 40 H        2.4080     7.3920    -1.2940 H     1 <1>   0.0800 
 41 H        4.0390     6.7880    -1.2210 H     1 <1>   0.0800 
 42 H        2.7650     9.4380     1.8260 H     1 <1>   0.0800 
 43 H        1.6200     9.0130     0.5840 H     1 <1>   0.0800 
 44 H        4.3740     7.9650     0.8340 H     1 <1>   0.4500 
 45 H        4.7170     9.0490    -1.3530 H     1 <1>   0.0800 
 46 H        3.2000     9.8700    -1.0800 H     1 <1>   0.0800 
 47 H        4.1100    10.8720     0.9860 H     1 <1>   0.0800 
 48 H        5.5910     9.9570     0.7890 H     1 <1>   0.0800 
 49 H        6.0370    11.1510    -1.3330 H     1 <1>   0.0800 
 50 H        4.5570    12.0530    -1.1410 H     1 <1>   0.0800 
 51 H        6.9140    12.1350     0.7710 H     1 <1>   0.0800 
 52 H        5.4300    13.0420     0.9630 H     1 <1>   0.0800 
 53 H        6.4880    13.3710    -0.3840 H     1 <1>   0.0800 
@<TRIPOS>BOND
  1   1   2  2   
  2   2   3  am  
  3   2   4  1   
  4   3   5  1   
  5   3  26  1   
  6   4   6  1   
  7   4  27  1   
  8   4  28  1   
  9   5   7  1   
 10   5   8  1   
 11   5  29  1   
 12   6   8  1   
 13   7   9  ar  
 14   7  10  ar  
 15   8  11  1   
 16   8  30  1   
 17   9  12  ar  
 18   9  31  1   
 19  10  13  ar  
 20  10  32  1   
 21  11  14  2   
 22  11  15  am  
 23  12  16  ar  
 24  12  33  1   
 25  13  16  ar  
 26  13  34  1   
 27  15  17  1   
 28  15  18  1   
 29  16  35  1   
 30  17  19  1   
 31  17  36  1   
 32  17  37  1   
 33  18  20  1   
 34  18  38  1   
 35  18  39  1   
 36  19  21  1   
 37  19  40  1   
 38  19  41  1   
 39  20  21  1   
 40  20  42  1   
 41  20  43  1   
 42  21  22  1   
 43  21  44  1   
 44  22  23  1   
 45  22  45  1   
 46  22  46  1   
 47  23  24  1   
 48  23  47  1   
 49  23  48  1   
 50  24  25  1   
 51  24  49  1   
 52  24  50  1   
 53  25  51  1   
 54  25  52  1   
 55  25  53  1   
@<TRIPOS>SUBSTRUCTURE
  1 ****  11 GROUP 4 **** **** 0

# MOE 2024.06 (io_trps.svl 2023.06)
