@<TRIPOS>MOLECULE
NONAME
47 50 1 0 0 
SMALL
USER_CHARGES


@<TRIPOS>ATOM
  1 S        0.8990     0.6830    -2.3510 S.3   1 <1>  -0.2320 
  2 C        1.1610    -0.2990    -0.9510 C.cat 1 <1>   0.8400 
  3 C        2.3420     1.6340    -1.9930 C.2   1 <1>  -0.0490 
  4 N        0.3810    -1.3040    -0.6300 N.pl3 1 <1>  -0.7940 
  5 N        2.2360     0.0910    -0.2760 N.pl3 1 <1>  -0.6850 
  6 C        2.9210     1.1860    -0.8650 C.2   1 <1>   0.2030 
  7 C        0.6170    -2.1490     0.5560 C.3   1 <1>   0.3290 
  8 C        2.6690    -0.6630     0.9300 C.3   1 <1>   0.3290 
  9 C        4.1880     1.7380    -0.2150 C.3   1 <1>   0.0390 
 10 C        1.4650    -1.3710     1.5730 C.3   1 <1>  -0.1600 
 11 C        4.8460     2.8040    -1.0690 C.2   1 <1>   0.5690 
 12 O        5.2480     2.4670    -2.1510 O.2   1 <1>  -0.5700 
 13 N        4.9560     4.0760    -0.5860 N.am  1 <1>  -0.4940 
 14 C        5.4030     5.2060    -1.2400 C.2   1 <1>   0.5420 
 15 O        5.6230     6.2640    -0.5360 O.3   1 <1>  -0.2800 
 16 N        5.6310     5.4040    -2.4880 N.2   1 <1>  -0.3380 
 17 C        6.0080     7.1670    -1.3980 C.2   1 <1>   0.4250 
 18 N        6.0250     6.6690    -2.5900 N.2   1 <1>  -0.3380 
 19 C        6.3850     8.5040    -0.9970 C.ar  1 <1>   0.0530 
 20 C        5.8280     9.1700     0.1080 C.ar  1 <1>   0.0830 
 21 C        7.3520     9.1850    -1.7420 C.ar  1 <1>  -0.1500 
 22 O        4.8620     8.5330     0.8190 O.3   1 <1>  -0.3620 
 23 C        6.2560    10.4530     0.4440 C.ar  1 <1>  -0.1500 
 24 C        7.7680    10.4580    -1.4080 C.ar  1 <1>  -0.1500 
 25 C        4.1700     9.1500     1.8810 C.3   1 <1>   0.1200 
 26 C        7.2210    11.0940    -0.3100 C.ar  1 <1>  -0.1500 
 27 C        3.1270     8.1650     2.3990 C.3   1 <1>  -0.2400 
 28 H        2.5940     2.4230    -2.6840 H     1 <1>   0.1500 
 29 H       -0.4130    -1.5440    -1.2310 H     1 <1>   0.4500 
 30 H        1.1280    -3.0490     0.2530 H     1 <1>   0.0800 
 31 H       -0.3250    -2.4250     1.0020 H     1 <1>   0.0800 
 32 H        3.1100     0.0060     1.6490 H     1 <1>   0.0800 
 33 H        3.4110    -1.3890     0.6390 H     1 <1>   0.0800 
 34 H        4.8980     0.9400    -0.0930 H     1 <1>   0.0800 
 35 H        3.9510     2.1370     0.7530 H     1 <1>   0.0800 
 36 H        1.8100    -2.0430     2.3390 H     1 <1>   0.0800 
 37 H        0.8450    -0.6360     2.0550 H     1 <1>   0.0800 
 38 H        4.7120     4.2570     0.3830 H     1 <1>   0.3700 
 39 H        7.7870     8.7020    -2.6010 H     1 <1>   0.1500 
 40 H        5.8510    10.9770     1.2880 H     1 <1>   0.1500 
 41 H        8.5170    10.9560    -2.0010 H     1 <1>   0.1500 
 42 H        3.6970    10.0420     1.5080 H     1 <1>   0.0800 
 43 H        4.8770     9.3950     2.6540 H     1 <1>   0.0800 
 44 H        7.5460    12.0860    -0.0450 H     1 <1>   0.1500 
 45 H        2.4350     7.9140     1.6140 H     1 <1>   0.0800 
 46 H        2.5780     8.6100     3.2090 H     1 <1>   0.0800 
 47 H        3.6070     7.2730     2.7590 H     1 <1>   0.0800 
@<TRIPOS>BOND
  1   1   2  1   
  2   1   3  1   
  3   2   4  ar  
  4   2   5  ar  
  5   3   6  2   
  6   3  28  1   
  7   4   7  1   
  8   4  29  1   
  9   5   6  1   
 10   5   8  1   
 11   6   9  1   
 12   7  10  1   
 13   7  30  1   
 14   7  31  1   
 15   8  10  1   
 16   8  32  1   
 17   8  33  1   
 18   9  11  1   
 19   9  34  1   
 20   9  35  1   
 21  10  36  1   
 22  10  37  1   
 23  11  12  2   
 24  11  13  am  
 25  13  14  1   
 26  13  38  1   
 27  14  15  1   
 28  14  16  2   
 29  15  17  1   
 30  16  18  1   
 31  17  18  2   
 32  17  19  1   
 33  19  20  ar  
 34  19  21  ar  
 35  20  22  1   
 36  20  23  ar  
 37  21  24  ar  
 38  21  39  1   
 39  22  25  1   
 40  23  26  ar  
 41  23  40  1   
 42  24  26  ar  
 43  24  41  1   
 44  25  27  1   
 45  25  42  1   
 46  25  43  1   
 47  26  44  1   
 48  27  45  1   
 49  27  46  1   
 50  27  47  1   
@<TRIPOS>SUBSTRUCTURE
  1 ****  13 GROUP 4 **** **** 0

# MOE 2024.06 (io_trps.svl 2023.06)
