@<TRIPOS>MOLECULE
NONAME
48 51 1 0 0 
SMALL
USER_CHARGES


@<TRIPOS>ATOM
  1 S       -0.2200    -0.4330     0.3750 S.3   1 <1>  -0.0800 
  2 C       -0.3900     1.3040     0.1500 C.2   1 <1>   0.4620 
  3 C       -1.9520    -0.6050     0.2960 C.2   1 <1>  -0.1400 
  4 N       -1.6120     1.6850     0.0360 N.2   1 <1>  -0.5650 
  5 N        0.7320     2.0930     0.1180 N.pl3 1 <1>  -0.8220 
  6 C       -2.4790     0.6170     0.1160 C.2   1 <1>   0.0770 
  7 C       -2.4970    -2.0100     0.4360 C.3   1 <1>   0.5230 
  8 C        2.1240     1.6020     0.0810 C.3   1 <1>   0.2090 
  9 C        0.6570     3.5480    -0.1120 C.3   1 <1>   0.2090 
 10 N       -3.9910    -1.9850     0.3330 N.4   1 <1>  -0.9590 
 11 C        2.9320     2.7920    -0.4250 C.3   1 <1>  -0.1600 
 12 C        2.1050     4.0180    -0.0390 C.3   1 <1>  -0.1600 
 13 C       -4.5440    -3.2900     0.8310 C.3   1 <1>   0.3430 
 14 C       -4.3870    -1.8730    -1.1100 C.3   1 <1>   0.3430 
 15 C       -4.8040    -4.1340    -0.4040 C.3   1 <1>   0.0370 
 16 C       -5.3000    -3.0600    -1.3860 C.3   1 <1>  -0.1600 
 17 C       -5.8600    -5.2250    -0.1480 C.ar  1 <1>  -0.1430 
 18 C       -3.3980    -4.6330    -0.7650 C.2   1 <1>   0.9060 
 19 C       -5.5870    -6.5610    -0.4190 C.ar  1 <1>  -0.1500 
 20 C       -7.1120    -4.8980     0.3620 C.ar  1 <1>  -0.1500 
 21 O       -2.6790    -5.0710     0.1400 O.co2 1 <1>  -0.9000 
 22 O       -2.9230    -4.3560    -1.8700 O.co2 1 <1>  -0.9000 
 23 C       -6.5360    -7.5410    -0.1850 C.ar  1 <1>  -0.1500 
 24 C       -8.0620    -5.8770     0.5960 C.ar  1 <1>  -0.1500 
 25 C       -7.7750    -7.2010     0.3230 C.ar  1 <1>  -0.1500 
 26 H       -3.5260     0.8460     0.0250 H     1 <1>   0.1500 
 27 H       -2.1990    -2.4130     1.3900 H     1 <1>   0.0800 
 28 H       -2.0750    -2.6420    -0.3320 H     1 <1>   0.0800 
 29 H        2.2240     0.7540    -0.5760 H     1 <1>   0.0800 
 30 H        2.4300     1.3340     1.0780 H     1 <1>   0.0800 
 31 H        0.0430     4.0230     0.6340 H     1 <1>   0.0800 
 32 H        0.2450     3.7290    -1.0900 H     1 <1>   0.0800 
 33 H       -4.3460    -1.2090     0.8970 H     1 <1>   0.4500 
 34 H        3.0090     2.7280    -1.4960 H     1 <1>   0.0800 
 35 H        3.9200     2.8130    -0.0020 H     1 <1>   0.0800 
 36 H        2.3250     4.3030     0.9750 H     1 <1>   0.0800 
 37 H        2.2840     4.8570    -0.6870 H     1 <1>   0.0800 
 38 H       -5.4770    -3.1170     1.3390 H     1 <1>   0.0800 
 39 H       -3.8690    -3.7870     1.5100 H     1 <1>   0.0800 
 40 H       -3.5120    -1.9600    -1.7380 H     1 <1>   0.0800 
 41 H       -4.8810    -0.9390    -1.3200 H     1 <1>   0.0800 
 42 H       -5.2220    -3.3860    -2.4090 H     1 <1>   0.0800 
 43 H       -6.3190    -2.7810    -1.1930 H     1 <1>   0.0800 
 44 H       -4.6300    -6.8640    -0.8130 H     1 <1>   0.1500 
 45 H       -7.3720    -3.8800     0.5830 H     1 <1>   0.1500 
 46 H       -6.3030    -8.5690    -0.4000 H     1 <1>   0.1500 
 47 H       -9.0280    -5.6110     0.9900 H     1 <1>   0.1500 
 48 H       -8.5110    -7.9640     0.5030 H     1 <1>   0.1500 
@<TRIPOS>BOND
  1   1   2  1   
  2   1   3  1   
  3   2   4  2   
  4   2   5  1   
  5   3   6  2   
  6   3   7  1   
  7   4   6  1   
  8   5   8  1   
  9   5   9  1   
 10   6  26  1   
 11   7  10  1   
 12   7  27  1   
 13   7  28  1   
 14   8  11  1   
 15   8  29  1   
 16   8  30  1   
 17   9  12  1   
 18   9  31  1   
 19   9  32  1   
 20  10  13  1   
 21  10  14  1   
 22  10  33  1   
 23  11  12  1   
 24  11  34  1   
 25  11  35  1   
 26  12  36  1   
 27  12  37  1   
 28  13  15  1   
 29  13  38  1   
 30  13  39  1   
 31  14  16  1   
 32  14  40  1   
 33  14  41  1   
 34  15  16  1   
 35  15  17  1   
 36  15  18  1   
 37  16  42  1   
 38  16  43  1   
 39  17  19  ar  
 40  17  20  ar  
 41  18  21  ar  
 42  18  22  ar  
 43  19  23  ar  
 44  19  44  1   
 45  20  24  ar  
 46  20  45  1   
 47  23  25  ar  
 48  23  46  1   
 49  24  25  ar  
 50  24  47  1   
 51  25  48  1   
@<TRIPOS>SUBSTRUCTURE
  1 ****   7 GROUP 4 **** **** 0

# MOE 2024.06 (io_trps.svl 2023.06)
