@<TRIPOS>MOLECULE
NONAME
54 56 1 0 0 
SMALL
USER_CHARGES


@<TRIPOS>ATOM
  1 O       -1.8970     0.7880    -2.3270 O.2   1 <1>  -0.5700 
  2 C       -1.9690     1.0420    -1.1410 C.2   1 <1>   0.5440 
  3 N       -2.2400    -0.0040    -0.2790 N.am  1 <1>  -0.6600 
  4 C       -1.8620     2.4140    -0.6920 C.ar  1 <1>   0.0860 
  5 C       -2.8840     0.1860     1.0540 C.3   1 <1>   0.1400 
  6 C       -2.2790    -1.4150    -0.7580 C.3   1 <1>   0.1400 
  7 C       -0.9940     2.8120     0.3330 C.ar  1 <1>   0.0820 
  8 C       -2.6640     3.3950    -1.2700 C.ar  1 <1>  -0.1500 
  9 C       -4.3510    -0.3020     1.0210 C.3   1 <1>   0.4230 
 10 C       -3.7390    -1.8900    -0.8330 C.3   1 <1>   0.3430 
 11 O       -0.1740     1.9290     0.9370 O.3   1 <1>  -0.3630 
 12 C       -0.9690     4.1240     0.7800 C.ar  1 <1>  -0.1500 
 13 C       -2.6440     4.7060    -0.8330 C.ar  1 <1>   0.0820 
 14 N       -4.4710    -1.7230     0.4850 N.4   1 <1>  -0.9590 
 15 C       -5.2270     0.6740     0.2020 C.3   1 <1>   0.1200 
 16 C        1.0080     1.5940     0.2430 C.3   1 <1>   0.0400 
 17 C       -1.7900     5.0740     0.2040 C.ar  1 <1>  -0.1500 
 18 O       -3.4870     5.5670    -1.4580 O.3   1 <1>  -0.3620 
 19 C       -5.9280    -2.0970     0.4090 C.3   1 <1>   0.4230 
 20 O       -6.5540     0.2310     0.1790 O.3   1 <1>  -0.5600 
 21 C       -3.4970     6.9410    -1.1400 C.3   1 <1>   0.0400 
 22 C       -6.7440    -1.0400    -0.3760 C.3   1 <1>   0.1200 
 23 C       -6.0940    -3.5190    -0.1530 C.3   1 <1>  -0.1600 
 24 C       -7.4990    -4.0880     0.1000 C.3   1 <1>  -0.1600 
 25 C       -7.5990    -5.5320    -0.3980 C.3   1 <1>  -0.2400 
 26 H       -2.3310    -0.3670     1.7940 H     1 <1>   0.0800 
 27 H       -2.8620     1.2190     1.3510 H     1 <1>   0.0800 
 28 H       -1.8230    -1.5020    -1.7300 H     1 <1>   0.0800 
 29 H       -1.7190    -2.0390    -0.0840 H     1 <1>   0.0800 
 30 H       -3.3210     3.1320    -2.0810 H     1 <1>   0.1500 
 31 H       -4.7220    -0.2780     2.0320 H     1 <1>   0.0800 
 32 H       -3.7510    -2.9250    -1.1330 H     1 <1>   0.0800 
 33 H       -4.2350    -1.3200    -1.6010 H     1 <1>   0.0800 
 34 H       -0.3020     4.3960     1.5790 H     1 <1>   0.1500 
 35 H       -4.0260    -2.3450     1.1680 H     1 <1>   0.4500 
 36 H       -4.8760     0.7670    -0.8120 H     1 <1>   0.0800 
 37 H       -5.2200     1.6500     0.6530 H     1 <1>   0.0800 
 38 H        1.5830     0.9260     0.8580 H     1 <1>   0.0800 
 39 H        1.5680     2.4930     0.0540 H     1 <1>   0.0800 
 40 H        0.7530     1.1130    -0.6850 H     1 <1>   0.0800 
 41 H       -1.7530     6.0830     0.5680 H     1 <1>   0.1500 
 42 H       -6.3220    -2.1050     1.4120 H     1 <1>   0.0800 
 43 H       -4.2150     7.4250    -1.7770 H     1 <1>   0.0800 
 44 H       -2.5170     7.3490    -1.3180 H     1 <1>   0.0800 
 45 H       -3.7840     7.0600    -0.1100 H     1 <1>   0.0800 
 46 H       -7.7950    -1.2570    -0.3150 H     1 <1>   0.0800 
 47 H       -6.4620    -1.0120    -1.4140 H     1 <1>   0.0800 
 48 H       -5.9090    -3.5260    -1.2130 H     1 <1>   0.0800 
 49 H       -5.3830    -4.1710     0.3250 H     1 <1>   0.0800 
 50 H       -7.7230    -4.0690     1.1540 H     1 <1>   0.0800 
 51 H       -8.2450    -3.5010    -0.4090 H     1 <1>   0.0800 
 52 H       -6.8950    -6.1650     0.1150 H     1 <1>   0.0800 
 53 H       -7.4080    -5.5870    -1.4560 H     1 <1>   0.0800 
 54 H       -8.5890    -5.9160    -0.2150 H     1 <1>   0.0800 
@<TRIPOS>BOND
  1   1   2  2   
  2   2   3  am  
  3   2   4  1   
  4   3   5  1   
  5   3   6  1   
  6   4   7  ar  
  7   4   8  ar  
  8   5   9  1   
  9   5  26  1   
 10   5  27  1   
 11   6  10  1   
 12   6  28  1   
 13   6  29  1   
 14   7  11  1   
 15   7  12  ar  
 16   8  13  ar  
 17   8  30  1   
 18   9  14  1   
 19   9  15  1   
 20   9  31  1   
 21  10  14  1   
 22  10  32  1   
 23  10  33  1   
 24  11  16  1   
 25  12  17  ar  
 26  12  34  1   
 27  13  17  ar  
 28  13  18  1   
 29  14  19  1   
 30  14  35  1   
 31  15  20  1   
 32  15  36  1   
 33  15  37  1   
 34  16  38  1   
 35  16  39  1   
 36  16  40  1   
 37  17  41  1   
 38  18  21  1   
 39  19  22  1   
 40  19  23  1   
 41  19  42  1   
 42  20  22  1   
 43  21  43  1   
 44  21  44  1   
 45  21  45  1   
 46  22  46  1   
 47  22  47  1   
 48  23  24  1   
 49  23  48  1   
 50  23  49  1   
 51  24  25  1   
 52  24  50  1   
 53  24  51  1   
 54  25  52  1   
 55  25  53  1   
 56  25  54  1   
@<TRIPOS>SUBSTRUCTURE
  1 ****   3 GROUP 4 **** **** 0

# MOE 2024.06 (io_trps.svl 2023.06)
