@<TRIPOS>MOLECULE
F1913-0659
35 34 1 0 0 
SMALL
USER_CHARGES


@<TRIPOS>ATOM
  1 O       -1.2810     1.3970    -1.4830 O.2   1 <1>  -0.5700 
  2 C       -1.3430     1.2360    -0.2910 C.2   1 <1>   0.6590 
  3 O       -0.5310     1.8600     0.5550 O.3   1 <1>  -0.4300 
  4 C       -2.3730     0.3190     0.3410 C.3   1 <1>  -0.0990 
  5 C        0.4680     2.7600     0.1290 C.3   1 <1>   0.1200 
  6 C       -2.4100    -1.1120    -0.2540 C.3   1 <1>  -0.0800 
  7 C       -0.1460     4.1510    -0.0060 C.3   1 <1>  -0.2400 
  8 C       -3.7450    -1.8170     0.0780 C.3   1 <1>  -0.1600 
  9 C       -1.2510    -2.0010     0.2550 C.3   1 <1>  -0.1600 
 10 C       -4.9530    -1.2470    -0.6840 C.3   1 <1>  -0.1600 
 11 C        0.1550    -1.5260    -0.1420 C.3   1 <1>  -0.1600 
 12 C       -6.2120    -2.0750    -0.4100 C.3   1 <1>  -0.2400 
 13 C        1.2060    -2.5950     0.1690 C.3   1 <1>  -0.2400 
 14 H       -3.3160     0.8060     0.2000 H     1 <1>   0.0800 
 15 H       -2.1980     0.2650     1.3990 H     1 <1>   0.0800 
 16 H        0.8800     2.4170    -0.8060 H     1 <1>   0.0800 
 17 H        1.2440     2.7620     0.8750 H     1 <1>   0.0800 
 18 H       -2.3330    -1.0460    -1.3270 H     1 <1>   0.0800 
 19 H       -0.9100     4.1480    -0.7630 H     1 <1>   0.0800 
 20 H        0.6130     4.8550    -0.2960 H     1 <1>   0.0800 
 21 H       -0.5670     4.4660     0.9320 H     1 <1>   0.0800 
 22 H       -3.9270    -1.7670     1.1380 H     1 <1>   0.0800 
 23 H       -3.6610    -2.8580    -0.1840 H     1 <1>   0.0800 
 24 H       -1.3850    -2.9900    -0.1510 H     1 <1>   0.0800 
 25 H       -1.3040    -2.0870     1.3270 H     1 <1>   0.0800 
 26 H       -4.7490    -1.2570    -1.7420 H     1 <1>   0.0800 
 27 H       -5.1450    -0.2300    -0.3920 H     1 <1>   0.0800 
 28 H        0.4120    -0.6350     0.4010 H     1 <1>   0.0800 
 29 H        0.1800    -1.3010    -1.1960 H     1 <1>   0.0800 
 30 H       -6.0700    -3.0930    -0.7280 H     1 <1>   0.0800 
 31 H       -7.0470    -1.6620    -0.9490 H     1 <1>   0.0800 
 32 H       -6.4450    -2.0680     0.6400 H     1 <1>   0.0800 
 33 H        1.2060    -2.8280     1.2190 H     1 <1>   0.0800 
 34 H        2.1830    -2.2380    -0.1030 H     1 <1>   0.0800 
 35 H        1.0050    -3.4940    -0.3870 H     1 <1>   0.0800 
@<TRIPOS>BOND
  1   1   2  2   
  2   2   3  1   
  3   2   4  1   
  4   3   5  1   
  5   4   6  1   
  6   4  14  1   
  7   4  15  1   
  8   5   7  1   
  9   5  16  1   
 10   5  17  1   
 11   6   8  1   
 12   6   9  1   
 13   6  18  1   
 14   7  19  1   
 15   7  20  1   
 16   7  21  1   
 17   8  10  1   
 18   8  22  1   
 19   8  23  1   
 20   9  11  1   
 21   9  24  1   
 22   9  25  1   
 23  10  12  1   
 24  10  26  1   
 25  10  27  1   
 26  11  13  1   
 27  11  28  1   
 28  11  29  1   
 29  12  30  1   
 30  12  31  1   
 31  12  32  1   
 32  13  33  1   
 33  13  34  1   
 34  13  35  1   
@<TRIPOS>SUBSTRUCTURE
  1 ****   4 GROUP 4 **** **** 0

# MOE 2024.06 (io_trps.svl 2023.06)
