@<TRIPOS>MOLECULE
NONAME
33 34 1 0 0 
SMALL
USER_CHARGES


@<TRIPOS>ATOM
  1 CL       3.2130    -1.2420    -1.3540 Cl    1 <1>  -0.1770 
  2 C        3.1160     0.4780    -1.0560 C.ar  1 <1>   0.1770 
  3 C        4.1500     1.3130    -1.4430 C.ar  1 <1>   0.1600 
  4 C        2.0000     0.9990    -0.4340 C.ar  1 <1>  -0.1500 
  5 N        4.1620     2.6260    -1.2540 N.ar  1 <1>  -0.6200 
  6 C        2.0020     2.3620    -0.2370 C.ar  1 <1>  -0.1500 
  7 C        3.0940     3.1230    -0.6540 C.ar  1 <1>   0.4100 
  8 N        3.1450     4.4720    -0.4720 N.pl3 1 <1>  -0.8690 
  9 C        3.1080     5.0330     0.8970 C.3   1 <1>   0.2890 
 10 C        2.7320     6.5240     0.8240 C.3   1 <1>   0.1400 
 11 C        4.5190     4.9980     1.4990 C.3   1 <1>  -0.0990 
 12 N        4.0290     7.2230     0.8950 N.am  1 <1>  -0.6600 
 13 C        5.0260     6.3940     1.2770 C.2   1 <1>   0.5690 
 14 C        4.1630     8.6690     0.6130 C.3   1 <1>   0.1400 
 15 O        6.1780     6.7060     1.4470 O.2   1 <1>  -0.5700 
 16 C        4.1290     8.9080    -0.8980 C.3   1 <1>  -0.1600 
 17 C        4.2970    10.3940    -1.2320 C.3   1 <1>  -0.2400 
 18 H        5.0040     0.8760    -1.9280 H     1 <1>   0.1500 
 19 H        1.1840     0.3680    -0.1310 H     1 <1>   0.1500 
 20 H        1.1680     2.8520     0.2280 H     1 <1>   0.1500 
 21 H        3.9420     4.8500    -0.9960 H     1 <1>   0.4000 
 22 H        2.4030     4.4860     1.5000 H     1 <1>   0.0800 
 23 H        2.1340     6.8050     1.6720 H     1 <1>   0.0800 
 24 H        2.2090     6.7520    -0.0890 H     1 <1>   0.0800 
 25 H        5.1580     4.2720     1.0300 H     1 <1>   0.0800 
 26 H        4.4750     4.8180     2.5550 H     1 <1>   0.0800 
 27 H        5.1000     9.0220     1.0120 H     1 <1>   0.0800 
 28 H        3.3650     9.2050     1.0980 H     1 <1>   0.0800 
 29 H        3.1940     8.5610    -1.3010 H     1 <1>   0.0800 
 30 H        4.9280     8.3510    -1.3580 H     1 <1>   0.0800 
 31 H        3.5020    10.9720    -0.7950 H     1 <1>   0.0800 
 32 H        4.2760    10.5340    -2.2990 H     1 <1>   0.0800 
 33 H        5.2380    10.7580    -0.8590 H     1 <1>   0.0800 
@<TRIPOS>BOND
  1   1   2  1   
  2   2   3  ar  
  3   2   4  ar  
  4   3   5  ar  
  5   3  18  1   
  6   4   6  ar  
  7   4  19  1   
  8   5   7  ar  
  9   6   7  ar  
 10   6  20  1   
 11   7   8  1   
 12   8   9  1   
 13   8  21  1   
 14   9  10  1   
 15   9  11  1   
 16   9  22  1   
 17  10  12  1   
 18  10  23  1   
 19  10  24  1   
 20  11  13  1   
 21  11  25  1   
 22  11  26  1   
 23  12  13  am  
 24  12  14  1   
 25  13  15  2   
 26  14  16  1   
 27  14  27  1   
 28  14  28  1   
 29  16  17  1   
 30  16  29  1   
 31  16  30  1   
 32  17  31  1   
 33  17  32  1   
 34  17  33  1   
@<TRIPOS>SUBSTRUCTURE
  1 ****   8 GROUP 4 **** **** 0

# MOE 2024.06 (io_trps.svl 2023.06)
