@<TRIPOS>MOLECULE
NONAME
45 46 1 0 0 
SMALL
USER_CHARGES


@<TRIPOS>ATOM
  1 S        1.0450    -0.9120     1.5000 S.o2  1 <1>   1.4470 
  2 O        0.7900    -0.3370     2.7990 O.2   1 <1>  -0.6500 
  3 O        2.2560    -1.6720     1.2870 O.2   1 <1>  -0.6500 
  4 N       -0.2220    -1.9840     1.2560 N.am  1 <1>  -0.9140 
  5 C        0.8140     0.3090     0.1650 C.ar  1 <1>  -0.0090 
  6 C        0.0190    -2.9930     0.2330 C.3   1 <1>   0.2760 
  7 C       -0.2880     1.1750     0.0970 C.ar  1 <1>  -0.1430 
  8 C        1.7670     0.3740    -0.8530 C.ar  1 <1>  -0.1500 
  9 C       -1.3110    -3.5550    -0.2490 C.3   1 <1>  -0.0800 
 10 C        0.6280    -4.2430     0.8640 C.3   1 <1>   0.1200 
 11 C       -0.4180     2.0630    -0.9630 C.ar  1 <1>  -0.1500 
 12 C       -1.3710     1.1890     1.1700 C.3   1 <1>  -0.0970 
 13 C        1.6450     1.2560    -1.9130 C.ar  1 <1>  -0.1500 
 14 C       -1.6170    -4.6610     0.7710 C.3   1 <1>   0.1200 
 15 C       -2.4380    -2.5120    -0.4060 C.3   1 <1>  -0.0550 
 16 O       -0.4420    -4.8690     1.4990 O.3   1 <1>  -0.5600 
 17 C        0.5480     2.0870    -1.9470 C.ar  1 <1>   0.1900 
 18 S       -3.9040    -3.1780    -1.1860 S.o2  1 <1>   1.3330 
 19 F        0.4180     2.9220    -2.9410 F     1 <1>  -0.1900 
 20 O       -3.5350    -3.5780    -2.5250 O.2   1 <1>  -0.6500 
 21 O       -4.5210    -4.1370    -0.2960 O.2   1 <1>  -0.6500 
 22 N       -4.9240    -1.8250    -1.2900 N.am  1 <1>  -0.8490 
 23 C       -5.6750    -1.5670    -0.0560 C.3   1 <1>   0.1160 
 24 C       -5.8470    -1.9130    -2.4260 C.3   1 <1>   0.1160 
 25 H       -0.2930    -2.5010     2.1360 H     1 <1>   0.4200 
 26 H        0.6090    -2.6020    -0.5800 H     1 <1>   0.0800 
 27 H        2.6250    -0.2780    -0.8200 H     1 <1>   0.1500 
 28 H       -1.1470    -4.0270    -1.2030 H     1 <1>   0.0800 
 29 H        1.4030    -4.0340     1.5810 H     1 <1>   0.0800 
 30 H        1.0030    -4.9110     0.1080 H     1 <1>   0.0800 
 31 H       -1.2530     2.7360    -1.0350 H     1 <1>   0.1500 
 32 H       -2.1620     1.8700     0.9130 H     1 <1>   0.0800 
 33 H       -0.9570     1.5040     2.1110 H     1 <1>   0.0800 
 34 H       -1.8030     0.2120     1.2890 H     1 <1>   0.0800 
 35 H        2.3830     1.3020    -2.6940 H     1 <1>   0.1500 
 36 H       -1.8970    -5.5830     0.2880 H     1 <1>   0.0800 
 37 H       -2.3860    -4.3720     1.4670 H     1 <1>   0.0800 
 38 H       -2.0740    -1.6990    -1.0030 H     1 <1>   0.0800 
 39 H       -2.7000    -2.1190     0.5560 H     1 <1>   0.0800 
 40 H       -6.2350    -0.6520    -0.1490 H     1 <1>   0.0800 
 41 H       -5.0010    -1.4700     0.7770 H     1 <1>   0.0800 
 42 H       -6.3580    -2.3770     0.1450 H     1 <1>   0.0800 
 43 H       -6.4670    -1.0340    -2.4730 H     1 <1>   0.0800 
 44 H       -6.4740    -2.7850    -2.3340 H     1 <1>   0.0800 
 45 H       -5.2930    -1.9810    -3.3470 H     1 <1>   0.0800 
@<TRIPOS>BOND
  1   1   2  2   
  2   1   3  2   
  3   1   4  am  
  4   1   5  1   
  5   4   6  1   
  6   4  25  1   
  7   5   7  ar  
  8   5   8  ar  
  9   6   9  1   
 10   6  10  1   
 11   6  26  1   
 12   7  11  ar  
 13   7  12  1   
 14   8  13  ar  
 15   8  27  1   
 16   9  14  1   
 17   9  15  1   
 18   9  28  1   
 19  10  16  1   
 20  10  29  1   
 21  10  30  1   
 22  11  17  ar  
 23  11  31  1   
 24  12  32  1   
 25  12  33  1   
 26  12  34  1   
 27  13  17  ar  
 28  13  35  1   
 29  14  16  1   
 30  14  36  1   
 31  14  37  1   
 32  15  18  1   
 33  15  38  1   
 34  15  39  1   
 35  17  19  1   
 36  18  20  2   
 37  18  21  2   
 38  18  22  am  
 39  22  23  1   
 40  22  24  1   
 41  23  40  1   
 42  23  41  1   
 43  23  42  1   
 44  24  43  1   
 45  24  44  1   
 46  24  45  1   
@<TRIPOS>SUBSTRUCTURE
  1 ****  15 GROUP 4 **** **** 0

# MOE 2024.06 (io_trps.svl 2023.06)
