@<TRIPOS>MOLECULE
NONAME
45 47 1 0 0 
SMALL
USER_CHARGES


@<TRIPOS>ATOM
  1 CL       0.0940     0.4340     0.7930 Cl    1 <1>  -0.1770 
  2 C        1.4860    -0.5920     0.5770 C.ar  1 <1>   0.1770 
  3 C        1.3560    -1.9500     0.6830 C.ar  1 <1>  -0.1500 
  4 C        2.7140     0.0010     0.3080 C.ar  1 <1>  -0.1500 
  5 C        2.4520    -2.8180     0.4860 C.ar  1 <1>   0.0000 
  6 C        3.8190    -0.8020     0.1870 C.ar  1 <1>  -0.1500 
  7 C        3.7140    -2.1970     0.3160 C.ar  1 <1>   0.3610 
  8 C        2.3800    -4.2570     0.4930 C.ar  1 <1>   0.1000 
  9 N        4.8540    -2.9670     0.3300 N.ar  1 <1>  -0.1790 
 10 N        1.2320    -4.9850     0.3520 N.pl3 1 <1>  -0.8380 
 11 C        3.6020    -4.9360     0.6000 C.ar  1 <1>  -0.1500 
 12 C        4.8070    -4.2960     0.5110 C.ar  1 <1>   0.2110 
 13 C       -0.0850    -4.5150    -0.1880 C.3   1 <1>   0.2090 
 14 C        1.1630    -6.4760     0.4810 C.3   1 <1>   0.2090 
 15 C       -0.7810    -5.7660    -0.7180 C.3   1 <1>   0.2000 
 16 C       -0.2810    -6.8830     0.1810 C.3   1 <1>  -0.0800 
 17 O       -2.1620    -5.6740    -0.6450 O.3   1 <1>  -0.6800 
 18 C       -0.4230    -8.2750    -0.4630 C.3   1 <1>  -0.0550 
 19 S        0.2740    -9.5830     0.5430 S.o2  1 <1>   1.3330 
 20 O        1.7150    -9.4400     0.5360 O.2   1 <1>  -0.6500 
 21 O       -0.4330    -9.5850     1.8020 O.2   1 <1>  -0.6500 
 22 N       -0.1270   -10.9910    -0.3150 N.am  1 <1>  -0.8490 
 23 C        0.8200   -11.3150    -1.3870 C.3   1 <1>   0.1160 
 24 C       -0.2990   -12.1500     0.5670 C.3   1 <1>   0.1160 
 25 H        0.3920    -2.3330     0.9420 H     1 <1>   0.1500 
 26 H        2.7680     1.0730     0.2140 H     1 <1>   0.1500 
 27 H        4.7760    -0.3450     0.0020 H     1 <1>   0.1500 
 28 H        5.7540    -2.4880     0.2390 H     1 <1>   0.4570 
 29 H        3.6170    -6.0020     0.7310 H     1 <1>   0.1500 
 30 H        5.7300    -4.8510     0.5730 H     1 <1>   0.1500 
 31 H       -0.6710    -4.1050     0.6150 H     1 <1>   0.0800 
 32 H        0.0510    -3.7930    -0.9740 H     1 <1>   0.0800 
 33 H        1.8240    -6.9220    -0.2440 H     1 <1>   0.0800 
 34 H        1.4520    -6.7890     1.4710 H     1 <1>   0.0800 
 35 H       -0.5040    -5.9280    -1.7450 H     1 <1>   0.0800 
 36 H       -0.8160    -6.8650     1.1160 H     1 <1>   0.0800 
 37 H       -2.4620    -5.6040     0.2830 H     1 <1>   0.4000 
 38 H        0.0540    -8.2750    -1.4230 H     1 <1>   0.0800 
 39 H       -1.4670    -8.4740    -0.6170 H     1 <1>   0.0800 
 40 H        0.4660   -12.1620    -1.9490 H     1 <1>   0.0800 
 41 H        1.7900   -11.5470    -0.9770 H     1 <1>   0.0800 
 42 H        0.9200   -10.4800    -2.0600 H     1 <1>   0.0800 
 43 H       -0.5740   -13.0180    -0.0070 H     1 <1>   0.0800 
 44 H       -1.0840   -11.9570     1.2790 H     1 <1>   0.0800 
 45 H        0.6130   -12.3520     1.1030 H     1 <1>   0.0800 
@<TRIPOS>BOND
  1   1   2  1   
  2   2   3  ar  
  3   2   4  ar  
  4   3   5  ar  
  5   3  25  1   
  6   4   6  ar  
  7   4  26  1   
  8   5   7  ar  
  9   5   8  ar  
 10   6   7  ar  
 11   6  27  1   
 12   7   9  ar  
 13   8  10  1   
 14   8  11  ar  
 15   9  12  ar  
 16   9  28  1   
 17  10  13  1   
 18  10  14  1   
 19  11  12  ar  
 20  11  29  1   
 21  12  30  1   
 22  13  15  1   
 23  13  31  1   
 24  13  32  1   
 25  14  16  1   
 26  14  33  1   
 27  14  34  1   
 28  15  16  1   
 29  15  17  1   
 30  15  35  1   
 31  16  18  1   
 32  16  36  1   
 33  17  37  1   
 34  18  19  1   
 35  18  38  1   
 36  18  39  1   
 37  19  20  2   
 38  19  21  2   
 39  19  22  am  
 40  22  23  1   
 41  22  24  1   
 42  23  40  1   
 43  23  41  1   
 44  23  42  1   
 45  24  43  1   
 46  24  44  1   
 47  24  45  1   
@<TRIPOS>SUBSTRUCTURE
  1 ****  10 GROUP 4 **** **** 0

# MOE 2024.06 (io_trps.svl 2023.06)
