@<TRIPOS>MOLECULE
NONAME
41 43 1 0 0 
SMALL
USER_CHARGES


@<TRIPOS>ATOM
  1 O        0.4960     0.0110    -0.8670 O.3   1 <1>  -0.2800 
  2 C        1.5490    -0.4970    -0.2530 C.2   1 <1>  -0.0400 
  3 C       -0.5790    -0.4310    -0.2470 C.2   1 <1>  -0.0100 
  4 C        1.1610    -1.2790     0.7790 C.2   1 <1>  -0.1500 
  5 C        2.9340    -0.1470    -0.7650 C.3   1 <1>   0.3890 
  6 C       -0.2390    -1.2360     0.7820 C.2   1 <1>  -0.1500 
  7 N        3.1120     1.3180    -0.6830 N.pl3 1 <1>  -0.8690 
  8 C        4.2070     2.0720    -0.5230 C.ar  1 <1>   0.4100 
  9 N        3.9800     3.3570    -0.3940 N.ar  1 <1>  -0.6200 
 10 C        5.5070     1.5340    -0.5000 C.ar  1 <1>  -0.1500 
 11 C        5.0220     4.1600    -0.2310 C.ar  1 <1>   0.7710 
 12 C        6.5600     2.3710    -0.3330 C.ar  1 <1>   0.2180 
 13 N        6.2810     3.6900    -0.1990 N.ar  1 <1>  -0.1790 
 14 N        4.8180     5.4920    -0.0910 N.pl3 1 <1>  -0.8380 
 15 C        8.0110     1.9100    -0.2900 C.3   1 <1>  -0.0170 
 16 C        3.4420     6.0670    -0.0840 C.3   1 <1>   0.2090 
 17 C        5.8240     6.5800     0.0450 C.3   1 <1>   0.2090 
 18 C        8.6670     2.1870     1.0690 C.3   1 <1>  -0.2400 
 19 C        3.6230     7.5300     0.2970 C.3   1 <1>  -0.1600 
 20 C        5.0390     7.8700    -0.1520 C.3   1 <1>  -0.1600 
 21 H       -1.5470    -0.1230    -0.6030 H     1 <1>   0.1500 
 22 H        1.7630    -1.8330     1.4770 H     1 <1>   0.1500 
 23 H        3.0240    -0.4630    -1.7900 H     1 <1>   0.0800 
 24 H        3.6770    -0.6490    -0.1710 H     1 <1>   0.0800 
 25 H       -0.8810    -1.7490     1.4760 H     1 <1>   0.1500 
 26 H        2.2070     1.8050    -0.7020 H     1 <1>   0.4000 
 27 H        5.6360     0.4750    -0.6180 H     1 <1>   0.1500 
 28 H        7.0020     4.3840    -0.0550 H     1 <1>   0.4570 
 29 H        8.5700     2.3980    -1.0700 H     1 <1>   0.0800 
 30 H        8.0540     0.8510    -0.4830 H     1 <1>   0.0800 
 31 H        2.8060     5.5560     0.6210 H     1 <1>   0.0800 
 32 H        3.0180     5.9870    -1.0710 H     1 <1>   0.0800 
 33 H        6.6050     6.5000    -0.6930 H     1 <1>   0.0800 
 34 H        6.2420     6.5620     1.0380 H     1 <1>   0.0800 
 35 H        8.7190     3.2410     1.2760 H     1 <1>   0.0800 
 36 H        9.6710     1.7970     1.0740 H     1 <1>   0.0800 
 37 H        8.1180     1.7030     1.8590 H     1 <1>   0.0800 
 38 H        3.5410     7.6270     1.3660 H     1 <1>   0.0800 
 39 H        2.8820     8.1570    -0.1670 H     1 <1>   0.0800 
 40 H        5.0370     8.1270    -1.1970 H     1 <1>   0.0800 
 41 H        5.4590     8.6870     0.4070 H     1 <1>   0.0800 
@<TRIPOS>BOND
  1   1   2  1   
  2   1   3  1   
  3   2   4  2   
  4   2   5  1   
  5   3   6  2   
  6   3  21  1   
  7   4   6  1   
  8   4  22  1   
  9   5   7  1   
 10   5  23  1   
 11   5  24  1   
 12   6  25  1   
 13   7   8  1   
 14   7  26  1   
 15   8   9  ar  
 16   8  10  ar  
 17   9  11  ar  
 18  10  12  ar  
 19  10  27  1   
 20  11  13  ar  
 21  11  14  1   
 22  12  13  ar  
 23  12  15  1   
 24  13  28  1   
 25  14  16  1   
 26  14  17  1   
 27  15  18  1   
 28  15  29  1   
 29  15  30  1   
 30  16  19  1   
 31  16  31  1   
 32  16  32  1   
 33  17  20  1   
 34  17  33  1   
 35  17  34  1   
 36  18  35  1   
 37  18  36  1   
 38  18  37  1   
 39  19  20  1   
 40  19  38  1   
 41  19  39  1   
 42  20  40  1   
 43  20  41  1   
@<TRIPOS>SUBSTRUCTURE
  1 ****   8 GROUP 4 **** **** 0

# MOE 2024.06 (io_trps.svl 2023.06)
