@<TRIPOS>MOLECULE
NONAME
42 43 1 0 0 
SMALL
USER_CHARGES


@<TRIPOS>ATOM
  1 O       -1.3760     0.1290     1.7280 O.2   1 <1>  -0.5700 
  2 C       -1.5810     0.6740     0.6720 C.2   1 <1>   0.5690 
  3 N       -2.0160    -0.0180    -0.4140 N.am  1 <1>  -0.7300 
  4 C       -1.3640     2.1810     0.5620 C.3   1 <1>  -0.0190 
  5 C       -2.2430    -1.4840    -0.4340 C.3   1 <1>   0.1400 
  6 C       -2.6550     2.9240     0.1680 C.3   1 <1>  -0.1600 
  7 C       -0.1960     2.5310    -0.3930 C.3   1 <1>  -0.1600 
  8 C       -3.6470    -1.8080     0.0740 C.3   1 <1>   0.1200 
  9 C       -2.4800     4.4570     0.2160 C.3   1 <1>   0.2000 
 10 C       -0.2620     3.9660    -0.9520 C.3   1 <1>  -0.1600 
 11 O       -3.8610    -3.2010    -0.0430 O.3   1 <1>  -0.3420 
 12 O       -3.2900     5.0160    -0.7880 O.3   1 <1>  -0.5600 
 13 C       -1.0110     4.9060    -0.0040 C.3   1 <1>   0.2000 
 14 C       -5.0790    -3.6800     0.3350 C.2   1 <1>   0.3510 
 15 C       -4.6320     5.1780    -0.4430 C.3   1 <1>   0.0400 
 16 O       -1.0000     6.1690    -0.5590 O.3   1 <1>  -0.6800 
 17 N       -6.0730    -2.9920     0.7340 N.2   1 <1>  -0.4100 
 18 C       -5.4310    -5.0010     0.3420 C.2   1 <1>   0.1080 
 19 O       -7.0440    -3.8410     0.9930 O.3   1 <1>   0.2420 
 20 N       -6.6350    -5.0660     0.7470 N.2   1 <1>  -0.4100 
 21 C       -4.5720    -6.1830    -0.0530 C.3   1 <1>  -0.0590 
 22 H       -2.1970     0.4830    -1.2860 H     1 <1>   0.3700 
 23 H       -1.0910     2.5210     1.5470 H     1 <1>   0.0800 
 24 H       -2.1230    -1.8470    -1.4400 H     1 <1>   0.0800 
 25 H       -1.5170    -1.9640     0.2010 H     1 <1>   0.0800 
 26 H       -3.4480     2.6390     0.8360 H     1 <1>   0.0800 
 27 H       -2.9310     2.6310    -0.8310 H     1 <1>   0.0800 
 28 H        0.7270     2.4000     0.1460 H     1 <1>   0.0800 
 29 H       -0.1720     1.8480    -1.2250 H     1 <1>   0.0800 
 30 H       -4.3900    -1.3010    -0.5160 H     1 <1>   0.0800 
 31 H       -3.7430    -1.5350     1.1120 H     1 <1>   0.0800 
 32 H       -2.7970     4.8370     1.1730 H     1 <1>   0.0800 
 33 H       -0.7800     3.9520    -1.8960 H     1 <1>   0.0800 
 34 H        0.7360     4.3340    -1.1200 H     1 <1>   0.0800 
 35 H       -0.4890     4.9540     0.9360 H     1 <1>   0.0800 
 36 H       -5.1430     5.6100    -1.2850 H     1 <1>   0.0800 
 37 H       -4.7040     5.8410     0.4020 H     1 <1>   0.0800 
 38 H       -5.0630     4.2200    -0.2130 H     1 <1>   0.0800 
 39 H       -1.8230     6.2330    -1.0950 H     1 <1>   0.4000 
 40 H       -3.5780    -6.0620     0.3380 H     1 <1>   0.0800 
 41 H       -4.5240    -6.2540    -1.1240 H     1 <1>   0.0800 
 42 H       -4.9930    -7.0910     0.3400 H     1 <1>   0.0800 
@<TRIPOS>BOND
  1   1   2  2   
  2   2   3  am  
  3   2   4  1   
  4   3   5  1   
  5   3  22  1   
  6   4   6  1   
  7   4   7  1   
  8   4  23  1   
  9   5   8  1   
 10   5  24  1   
 11   5  25  1   
 12   6   9  1   
 13   6  26  1   
 14   6  27  1   
 15   7  10  1   
 16   7  28  1   
 17   7  29  1   
 18   8  11  1   
 19   8  30  1   
 20   8  31  1   
 21   9  12  1   
 22   9  13  1   
 23   9  32  1   
 24  10  13  1   
 25  10  33  1   
 26  10  34  1   
 27  11  14  1   
 28  12  15  1   
 29  13  16  1   
 30  13  35  1   
 31  14  17  2   
 32  14  18  1   
 33  15  36  1   
 34  15  37  1   
 35  15  38  1   
 36  16  39  1   
 37  17  19  1   
 38  18  20  2   
 39  18  21  1   
 40  19  20  1   
 41  21  40  1   
 42  21  41  1   
 43  21  42  1   
@<TRIPOS>SUBSTRUCTURE
  1 ****   3 GROUP 4 **** **** 0

# MOE 2024.06 (io_trps.svl 2023.06)
