@<TRIPOS>MOLECULE
NONAME
37 38 1 0 0 
SMALL
USER_CHARGES


@<TRIPOS>ATOM
  1 O       -0.8810     0.0330    -0.7500 O.2   1 <1>  -0.5700 
  2 C       -1.3190    -1.0940    -0.8720 C.2   1 <1>   0.7800 
  3 O       -0.6450    -2.1570    -0.4260 O.3   1 <1>  -0.4300 
  4 N       -2.5210    -1.3340    -1.4630 N.am  1 <1>  -0.6600 
  5 C        0.6090    -2.1630     0.2220 C.3   1 <1>   0.2800 
  6 C       -3.1970    -2.6520    -1.4550 C.3   1 <1>   0.2350 
  7 C       -3.4290    -0.2460    -1.8920 C.3   1 <1>   0.2350 
  8 C        1.6910    -1.6040    -0.7090 C.3   1 <1>  -0.2400 
  9 C        0.9030    -3.6360     0.5070 C.3   1 <1>  -0.2400 
 10 C        0.5240    -1.3990     1.5480 C.3   1 <1>  -0.2400 
 11 C       -4.6850    -2.3250    -1.5650 C.3   1 <1>  -0.1950 
 12 C       -4.8250    -0.8620    -1.8360 C.3   1 <1>  -0.1950 
 13 C       -5.4520    -1.4580    -0.6110 C.3   1 <1>  -0.1950 
 14 C       -4.9490    -1.1600     0.8140 C.3   1 <1>  -0.0650 
 15 C       -5.3750     0.2230     1.3140 C.3   1 <1>   0.1200 
 16 O       -6.7550     0.3210     1.2950 O.3   1 <1>  -0.6800 
 17 H       -2.8710    -3.2230    -2.3070 H     1 <1>   0.0800 
 18 H       -2.9850    -3.1950    -0.5500 H     1 <1>   0.0800 
 19 H       -3.3490     0.6060    -1.2390 H     1 <1>   0.0800 
 20 H       -3.1820     0.0430    -2.8990 H     1 <1>   0.0800 
 21 H        2.6610    -1.7400    -0.2680 H     1 <1>   0.0800 
 22 H        1.5550    -0.5510    -0.8750 H     1 <1>   0.0800 
 23 H        1.6710    -2.1150    -1.6550 H     1 <1>   0.0800 
 24 H        1.8500    -3.7390     1.0040 H     1 <1>   0.0800 
 25 H        0.9400    -4.1940    -0.4110 H     1 <1>   0.0800 
 26 H        0.1400    -4.0530     1.1410 H     1 <1>   0.0800 
 27 H        1.4370    -1.5230     2.1010 H     1 <1>   0.0800 
 28 H       -0.2890    -1.7710     2.1440 H     1 <1>   0.0800 
 29 H        0.3880    -0.3460     1.3820 H     1 <1>   0.0800 
 30 H       -5.2470    -3.0390    -2.1420 H     1 <1>   0.1000 
 31 H       -5.4870    -0.5170    -2.6120 H     1 <1>   0.1000 
 32 H       -6.5200    -1.5890    -0.6300 H     1 <1>   0.1000 
 33 H       -3.8770    -1.2050     0.8530 H     1 <1>   0.0800 
 34 H       -5.3200    -1.9100     1.4910 H     1 <1>   0.0800 
 35 H       -4.9740     0.9980     0.6830 H     1 <1>   0.0800 
 36 H       -5.0440     0.3830     2.3260 H     1 <1>   0.0800 
 37 H       -7.0830     0.1300     0.3960 H     1 <1>   0.4000 
@<TRIPOS>BOND
  1   1   2  2   
  2   2   3  1   
  3   2   4  am  
  4   3   5  1   
  5   4   6  1   
  6   4   7  1   
  7   5   8  1   
  8   5   9  1   
  9   5  10  1   
 10   6  11  1   
 11   6  17  1   
 12   6  18  1   
 13   7  12  1   
 14   7  19  1   
 15   7  20  1   
 16   8  21  1   
 17   8  22  1   
 18   8  23  1   
 19   9  24  1   
 20   9  25  1   
 21   9  26  1   
 22  10  27  1   
 23  10  28  1   
 24  10  29  1   
 25  11  12  1   
 26  11  13  1   
 27  11  30  1   
 28  12  13  1   
 29  12  31  1   
 30  13  14  1   
 31  13  32  1   
 32  14  15  1   
 33  14  33  1   
 34  14  34  1   
 35  15  16  1   
 36  15  35  1   
 37  15  36  1   
 38  16  37  1   
@<TRIPOS>SUBSTRUCTURE
  1 ****   4 GROUP 4 **** **** 0

# MOE 2024.06 (io_trps.svl 2023.06)
