@<TRIPOS>MOLECULE
NONAME
49 51 1 0 0 
SMALL
USER_CHARGES


@<TRIPOS>ATOM
  1 O       -1.7950     0.2490     2.0290 O.2   1 <1>  -0.5700 
  2 C       -1.9700     0.6070     0.8770 C.2   1 <1>   0.7150 
  3 N       -2.8210    -0.1280     0.0860 N.am  1 <1>  -0.6600 
  4 C       -1.3120     1.7950     0.3920 C.2   1 <1>   0.0550 
  5 C       -2.8670    -1.6170     0.2700 C.3   1 <1>   0.3640 
  6 C       -4.0070     0.5280    -0.5340 C.3   1 <1>   0.1400 
  7 O       -1.3490     2.1470    -0.8750 O.3   1 <1>  -0.0190 
  8 C       -0.5680     2.7340     1.0170 C.2   1 <1>  -0.1500 
  9 C       -1.4500    -2.1580     0.0460 C.ar  1 <1>  -0.1440 
 10 C       -3.8530    -2.3640    -0.6820 C.3   1 <1>   0.2000 
 11 C       -4.6280    -0.3530    -1.6180 C.3   1 <1>   0.1200 
 12 N       -0.7000     3.2450    -1.1180 N.2   1 <1>  -0.4100 
 13 C       -0.2140     3.6210     0.0120 C.2   1 <1>   0.1080 
 14 C       -0.7640    -1.8940    -1.1330 C.ar  1 <1>  -0.1500 
 15 C       -0.8300    -2.9200     1.0260 C.ar  1 <1>  -0.1500 
 16 O       -4.9570    -1.5860    -1.0640 O.3   1 <1>  -0.5600 
 17 C       -4.4350    -3.6480    -0.0640 C.3   1 <1>   0.1200 
 18 C        0.6340     4.8670     0.2000 C.3   1 <1>   0.0210 
 19 C        0.5120    -2.3920    -1.3330 C.ar  1 <1>  -0.1500 
 20 C        0.4450    -3.4200     0.8280 C.ar  1 <1>  -0.1500 
 21 O       -3.4480    -4.4790     0.4570 O.3   1 <1>  -0.6800 
 22 C       -0.2110     6.1540     0.2580 C.3   1 <1>  -0.0800 
 23 C        1.1170    -3.1580    -0.3530 C.ar  1 <1>  -0.1500 
 24 C        0.6980     7.3880     0.3180 C.3   1 <1>  -0.2400 
 25 C       -1.1680     6.1610     1.4590 C.3   1 <1>  -0.2400 
 26 H       -3.1660    -1.8160     1.2860 H     1 <1>   0.0800 
 27 H       -4.7440     0.7140     0.2280 H     1 <1>   0.0800 
 28 H       -3.7310     1.4730    -0.9660 H     1 <1>   0.0800 
 29 H       -0.3040     2.7880     2.0570 H     1 <1>   0.1500 
 30 H       -3.3390    -2.6310    -1.5880 H     1 <1>   0.0800 
 31 H       -3.9490    -0.4980    -2.4410 H     1 <1>   0.0800 
 32 H       -5.5340     0.0950    -1.9860 H     1 <1>   0.0800 
 33 H       -1.2180    -1.2900    -1.9000 H     1 <1>   0.1500 
 34 H       -1.3410    -3.1280     1.9510 H     1 <1>   0.1500 
 35 H       -4.9770    -4.2020    -0.8100 H     1 <1>   0.0800 
 36 H       -5.1000    -3.3970     0.7440 H     1 <1>   0.0800 
 37 H        1.2140     4.7700     1.1000 H     1 <1>   0.0800 
 38 H        1.3200     4.9290    -0.6260 H     1 <1>   0.0800 
 39 H        1.0350    -2.1800    -2.2490 H     1 <1>   0.1500 
 40 H        0.9140    -4.0100     1.5960 H     1 <1>   0.1500 
 41 H       -2.7390    -4.6490    -0.1980 H     1 <1>   0.4000 
 42 H       -0.7980     6.2110    -0.6450 H     1 <1>   0.0800 
 43 H        2.1090    -3.5450    -0.5050 H     1 <1>   0.1500 
 44 H        1.3020     7.3730     1.2080 H     1 <1>   0.0800 
 45 H        0.1070     8.2870     0.3200 H     1 <1>   0.0800 
 46 H        1.3480     7.4160    -0.5390 H     1 <1>   0.0800 
 47 H       -0.6230     6.0690     2.3820 H     1 <1>   0.0800 
 48 H       -1.8690     5.3480     1.3900 H     1 <1>   0.0800 
 49 H       -1.7290     7.0780     1.4820 H     1 <1>   0.0800 
@<TRIPOS>BOND
  1   1   2  2   
  2   2   3  am  
  3   2   4  1   
  4   3   5  1   
  5   3   6  1   
  6   4   7  1   
  7   4   8  2   
  8   5   9  1   
  9   5  10  1   
 10   5  26  1   
 11   6  11  1   
 12   6  27  1   
 13   6  28  1   
 14   7  12  1   
 15   8  13  1   
 16   8  29  1   
 17   9  14  ar  
 18   9  15  ar  
 19  10  16  1   
 20  10  17  1   
 21  10  30  1   
 22  11  16  1   
 23  11  31  1   
 24  11  32  1   
 25  12  13  2   
 26  13  18  1   
 27  14  19  ar  
 28  14  33  1   
 29  15  20  ar  
 30  15  34  1   
 31  17  21  1   
 32  17  35  1   
 33  17  36  1   
 34  18  22  1   
 35  18  37  1   
 36  18  38  1   
 37  19  23  ar  
 38  19  39  1   
 39  20  23  ar  
 40  20  40  1   
 41  21  41  1   
 42  22  24  1   
 43  22  25  1   
 44  22  42  1   
 45  23  43  1   
 46  24  44  1   
 47  24  45  1   
 48  24  46  1   
 49  25  47  1   
 50  25  48  1   
 51  25  49  1   
@<TRIPOS>SUBSTRUCTURE
  1 ****   2 GROUP 4 **** **** 0

# MOE 2024.06 (io_trps.svl 2023.06)
