@<TRIPOS>MOLECULE
NONAME
30 31 1 0 0 
SMALL
USER_CHARGES


@<TRIPOS>ATOM
  1 O       -0.3080    -0.0040     0.0630 O.3   1 <1>  -0.5600 
  2 C       -0.1920    -1.2900    -0.4610 C.3   1 <1>   0.1200 
  3 C       -1.4720     0.6700    -0.3030 C.3   1 <1>   0.1200 
  4 C       -1.3200    -2.1670     0.0910 C.3   1 <1>  -0.1600 
  5 C       -2.6880    -0.0740     0.2560 C.3   1 <1>  -0.1600 
  6 C       -2.7000    -1.5460    -0.2000 C.3   1 <1>  -0.0800 
  7 C       -3.8380    -2.3510     0.4600 C.3   1 <1>   0.3440 
  8 O       -5.0540    -1.7870     0.1270 O.3   1 <1>  -0.6800 
  9 C       -3.8830    -3.8120     0.0240 C.ar  1 <1>  -0.1440 
 10 C       -4.2020    -4.1590    -1.2820 C.ar  1 <1>  -0.1500 
 11 C       -3.6010    -4.8170     0.9380 C.ar  1 <1>  -0.1500 
 12 C       -4.2370    -5.4880    -1.6680 C.ar  1 <1>  -0.1500 
 13 C       -3.6350    -6.1460     0.5540 C.ar  1 <1>  -0.1500 
 14 C       -3.9530    -6.4830    -0.7500 C.ar  1 <1>  -0.1500 
 15 H       -0.2310    -1.2290    -1.5350 H     1 <1>   0.0800 
 16 H        0.7670    -1.6790    -0.1660 H     1 <1>   0.0800 
 17 H       -1.4170     1.6650     0.1040 H     1 <1>   0.0800 
 18 H       -1.5110     0.7330    -1.3770 H     1 <1>   0.0800 
 19 H       -1.2510    -3.1430    -0.3560 H     1 <1>   0.0800 
 20 H       -1.1790    -2.2780     1.1520 H     1 <1>   0.0800 
 21 H       -2.6600    -0.0190     1.3300 H     1 <1>   0.0800 
 22 H       -3.5850     0.4200    -0.0750 H     1 <1>   0.0800 
 23 H       -2.8500    -1.5680    -1.2660 H     1 <1>   0.0800 
 24 H       -3.7450    -2.2930     1.5310 H     1 <1>   0.0800 
 25 H       -5.7450    -2.4630     0.2610 H     1 <1>   0.4000 
 26 H       -4.4250    -3.3920    -2.0040 H     1 <1>   0.1500 
 27 H       -3.3500    -4.5710     1.9560 H     1 <1>   0.1500 
 28 H       -4.4850    -5.7470    -2.6830 H     1 <1>   0.1500 
 29 H       -3.4150    -6.9200     1.2690 H     1 <1>   0.1500 
 30 H       -3.9800    -7.5160    -1.0490 H     1 <1>   0.1500 
@<TRIPOS>BOND
  1   1   2  1   
  2   1   3  1   
  3   2   4  1   
  4   2  15  1   
  5   2  16  1   
  6   3   5  1   
  7   3  17  1   
  8   3  18  1   
  9   4   6  1   
 10   4  19  1   
 11   4  20  1   
 12   5   6  1   
 13   5  21  1   
 14   5  22  1   
 15   6   7  1   
 16   6  23  1   
 17   7   8  1   
 18   7   9  1   
 19   7  24  1   
 20   8  25  1   
 21   9  10  ar  
 22   9  11  ar  
 23  10  12  ar  
 24  10  26  1   
 25  11  13  ar  
 26  11  27  1   
 27  12  14  ar  
 28  12  28  1   
 29  13  14  ar  
 30  13  29  1   
 31  14  30  1   
@<TRIPOS>SUBSTRUCTURE
  1 ****   7 GROUP 4 **** **** 0

# MOE 2024.06 (io_trps.svl 2023.06)
