@<TRIPOS>MOLECULE
NONAME
49 52 1 0 0 
SMALL
USER_CHARGES


@<TRIPOS>ATOM
  1 O       -0.3300     2.0070     2.5920 O.2   1 <1>  -0.5700 
  2 C        0.0460     2.5610     1.5740 C.2   1 <1>   0.5440 
  3 N       -0.8810     3.1940     0.7680 N.am  1 <1>  -0.6600 
  4 C        1.4600     2.5790     1.2740 C.ar  1 <1>   0.0860 
  5 C       -2.3530     3.0690     1.0020 C.3   1 <1>   0.1400 
  6 C       -0.5340     3.9890    -0.4400 C.3   1 <1>   0.1400 
  7 C        2.0100     1.8220     0.2370 C.ar  1 <1>   0.0830 
  8 C        2.3220     3.3740     2.0320 C.ar  1 <1>  -0.1500 
  9 C       -3.0440     2.4000    -0.2120 C.3   1 <1>   0.0000 
 10 C       -1.1900     3.3660    -1.6780 C.3   1 <1>  -0.1600 
 11 O        1.2010     1.0390    -0.5230 O.3   1 <1>  -0.3630 
 12 C        3.3830     1.8710    -0.0220 C.ar  1 <1>   0.0830 
 13 C        3.6770     3.4330     1.7660 C.ar  1 <1>  -0.1500 
 14 C       -4.5640     2.2900    -0.0010 C.3   1 <1>   0.2000 
 15 C       -2.7070     3.1910    -1.4960 C.3   1 <1>  -0.1600 
 16 C       -2.6380     0.9190    -0.3110 C.3   1 <1>  -0.1600 
 17 C        1.7210     0.4930    -1.7180 C.3   1 <1>   0.1200 
 18 O        3.9400     1.1260    -1.0100 O.3   1 <1>  -0.3630 
 19 C        4.2100     2.6800     0.7330 C.ar  1 <1>  -0.1500 
 20 O       -5.0860     3.4440     0.5880 O.3   1 <1>  -0.5600 
 21 C       -4.7710     1.0610     0.8910 C.3   1 <1>  -0.1600 
 22 C       -3.5280     0.1820     0.6940 C.3   1 <1>  -0.1600 
 23 C        3.1720     0.0480    -1.5080 C.3   1 <1>   0.1200 
 24 C       -6.4730     3.5510     0.5430 C.3   1 <1>   0.0400 
 25 H       -2.5490     2.5050     1.8960 H     1 <1>   0.0800 
 26 H       -2.7550     4.0550     1.1520 H     1 <1>   0.0800 
 27 H       -0.8980     4.9930    -0.3050 H     1 <1>   0.0800 
 28 H        0.5310     4.0390    -0.5800 H     1 <1>   0.0800 
 29 H        1.9070     3.9510     2.8410 H     1 <1>   0.1500 
 30 H       -1.0000     3.9940    -2.5300 H     1 <1>   0.0800 
 31 H       -0.7330     2.4120    -1.8690 H     1 <1>   0.0800 
 32 H        4.3200     4.0580     2.3620 H     1 <1>   0.1500 
 33 H       -5.0410     2.1350    -0.9540 H     1 <1>   0.0800 
 34 H       -3.1200     2.6970    -2.3580 H     1 <1>   0.0800 
 35 H       -3.1630     4.1640    -1.4280 H     1 <1>   0.0800 
 36 H       -2.8490     0.5500    -1.2990 H     1 <1>   0.0800 
 37 H       -1.5940     0.7580    -0.1030 H     1 <1>   0.0800 
 38 H        1.1010    -0.3380    -1.9990 H     1 <1>   0.0800 
 39 H        1.6690     1.2490    -2.4820 H     1 <1>   0.0800 
 40 H        5.2630     2.7120     0.5170 H     1 <1>   0.1500 
 41 H       -4.8380     1.3580     1.9230 H     1 <1>   0.0800 
 42 H       -5.6630     0.5330     0.6060 H     1 <1>   0.0800 
 43 H       -3.0050     0.0820     1.6310 H     1 <1>   0.0800 
 44 H       -3.7850    -0.8000     0.3350 H     1 <1>   0.0800 
 45 H        3.6140    -0.2760    -2.4330 H     1 <1>   0.0800 
 46 H        3.2190    -0.7550    -0.7930 H     1 <1>   0.0800 
 47 H       -6.7500     4.4830     1.0030 H     1 <1>   0.0800 
 48 H       -6.9140     2.7350     1.0890 H     1 <1>   0.0800 
 49 H       -6.7980     3.5420    -0.4820 H     1 <1>   0.0800 
@<TRIPOS>BOND
  1   1   2  2   
  2   2   3  am  
  3   2   4  1   
  4   3   5  1   
  5   3   6  1   
  6   4   7  ar  
  7   4   8  ar  
  8   5   9  1   
  9   5  25  1   
 10   5  26  1   
 11   6  10  1   
 12   6  27  1   
 13   6  28  1   
 14   7  11  1   
 15   7  12  ar  
 16   8  13  ar  
 17   8  29  1   
 18   9  14  1   
 19   9  15  1   
 20   9  16  1   
 21  10  15  1   
 22  10  30  1   
 23  10  31  1   
 24  11  17  1   
 25  12  18  1   
 26  12  19  ar  
 27  13  19  ar  
 28  13  32  1   
 29  14  20  1   
 30  14  21  1   
 31  14  33  1   
 32  15  34  1   
 33  15  35  1   
 34  16  22  1   
 35  16  36  1   
 36  16  37  1   
 37  17  23  1   
 38  17  38  1   
 39  17  39  1   
 40  18  23  1   
 41  19  40  1   
 42  20  24  1   
 43  21  22  1   
 44  21  41  1   
 45  21  42  1   
 46  22  43  1   
 47  22  44  1   
 48  23  45  1   
 49  23  46  1   
 50  24  47  1   
 51  24  48  1   
 52  24  49  1   
@<TRIPOS>SUBSTRUCTURE
  1 ****   3 GROUP 4 **** **** 0

# MOE 2024.06 (io_trps.svl 2023.06)
