@<TRIPOS>MOLECULE
NONAME
35 37 1 0 0 
SMALL
USER_CHARGES


@<TRIPOS>ATOM
  1 CL      -3.4240     1.3550    -0.2270 Cl    1 <1>  -0.1770 
  2 C       -3.5900    -0.3670     0.0370 C.ar  1 <1>   0.1770 
  3 C       -4.0550    -1.1950    -0.9560 C.ar  1 <1>   0.1600 
  4 C       -3.2610    -0.9350     1.2450 C.ar  1 <1>   0.1600 
  5 N       -4.1860    -2.4920    -0.7720 N.ar  1 <1>  -0.6200 
  6 N       -3.3810    -2.2280     1.4570 N.ar  1 <1>  -0.6200 
  7 C       -3.8300    -2.9400     0.4310 C.ar  1 <1>   0.7200 
  8 N       -3.9350    -4.2620     0.6750 N.pl3 1 <1>  -0.8690 
  9 C       -4.6270    -5.2460    -0.1870 C.3   1 <1>   0.2890 
 10 C       -6.0980    -5.3040     0.1890 C.3   1 <1>  -0.0800 
 11 C       -4.1470    -6.6610     0.1440 C.3   1 <1>   0.1200 
 12 C       -6.0760    -6.2990     1.3490 C.3   1 <1>   0.1200 
 13 C       -6.9590    -5.7990    -0.9890 C.3   1 <1>  -0.0160 
 14 O       -5.0480    -7.2000     1.0710 O.3   1 <1>  -0.5600 
 15 C       -8.4310    -5.8780    -0.6170 C.ar  1 <1>  -0.1430 
 16 C       -9.2180    -4.7490    -0.5140 C.ar  1 <1>  -0.1500 
 17 C       -9.0580    -7.0820    -0.3630 C.ar  1 <1>  -0.1500 
 18 C      -10.5540    -4.8740    -0.1720 C.ar  1 <1>   0.1600 
 19 C      -10.4010    -7.0970    -0.0280 C.ar  1 <1>   0.1600 
 20 N      -11.1650    -6.0220     0.0750 N.ar  1 <1>  -0.6200 
 21 H       -4.3220    -0.7800    -1.9120 H     1 <1>   0.1500 
 22 H       -2.8960    -0.3140     2.0440 H     1 <1>   0.1500 
 23 H       -3.7970    -4.5230     1.6510 H     1 <1>   0.4000 
 24 H       -4.4640    -5.0070    -1.2240 H     1 <1>   0.0800 
 25 H       -6.4610    -4.3430     0.5090 H     1 <1>   0.0800 
 26 H       -3.1560    -6.6680     0.5610 H     1 <1>   0.0800 
 27 H       -4.1770    -7.2830    -0.7330 H     1 <1>   0.0800 
 28 H       -6.9990    -6.8370     1.4730 H     1 <1>   0.0800 
 29 H       -5.8280    -5.7980     2.2700 H     1 <1>   0.0800 
 30 H       -6.6190    -6.7660    -1.3170 H     1 <1>   0.0800 
 31 H       -6.8500    -5.1200    -1.8180 H     1 <1>   0.0800 
 32 H       -8.8050    -3.7740    -0.6980 H     1 <1>   0.1500 
 33 H       -8.5140    -8.0070    -0.4220 H     1 <1>   0.1500 
 34 H      -11.1520    -3.9820    -0.0960 H     1 <1>   0.1500 
 35 H      -10.8730    -8.0460     0.1670 H     1 <1>   0.1500 
@<TRIPOS>BOND
  1   1   2  1   
  2   2   3  ar  
  3   2   4  ar  
  4   3   5  ar  
  5   3  21  1   
  6   4   6  ar  
  7   4  22  1   
  8   5   7  ar  
  9   6   7  ar  
 10   7   8  1   
 11   8   9  1   
 12   8  23  1   
 13   9  10  1   
 14   9  11  1   
 15   9  24  1   
 16  10  12  1   
 17  10  13  1   
 18  10  25  1   
 19  11  14  1   
 20  11  26  1   
 21  11  27  1   
 22  12  14  1   
 23  12  28  1   
 24  12  29  1   
 25  13  15  1   
 26  13  30  1   
 27  13  31  1   
 28  15  16  ar  
 29  15  17  ar  
 30  16  18  ar  
 31  16  32  1   
 32  17  19  ar  
 33  17  33  1   
 34  18  20  ar  
 35  18  34  1   
 36  19  20  ar  
 37  19  35  1   
@<TRIPOS>SUBSTRUCTURE
  1 ****  10 GROUP 4 **** **** 0

# MOE 2024.06 (io_trps.svl 2023.06)
