@<TRIPOS>MOLECULE
NONAME
53 55 1 0 0 
SMALL
USER_CHARGES


@<TRIPOS>ATOM
  1 O       -1.9740    -0.4350     1.1680 O.2   1 <1>  -0.5700 
  2 C       -1.7840     0.6650     0.7110 C.2   1 <1>   0.5690 
  3 N       -0.5510     1.2160     0.8180 N.am  1 <1>  -0.7300 
  4 C       -2.9310     1.4570     0.0960 C.3   1 <1>   0.0420 
  5 C       -0.1320     2.5530     0.3420 C.3   1 <1>   0.1400 
  6 C       -3.7930     0.5360    -0.7670 C.2   1 <1>   0.5690 
  7 C       -2.4390     2.7120    -0.6710 C.3   1 <1>  -0.1600 
  8 C       -1.3560     3.4490     0.1290 C.3   1 <1>  -0.1600 
  9 O       -3.5310     0.4650    -1.9480 O.2   1 <1>  -0.5700 
 10 N       -4.8670    -0.1600    -0.2560 N.am  1 <1>  -0.6600 
 11 C       -5.7210    -0.9450    -1.2150 C.3   1 <1>   0.1400 
 12 C       -5.1850    -0.2770     1.1990 C.3   1 <1>   0.1400 
 13 C       -6.8300    -1.8320    -0.6050 C.3   1 <1>   0.1400 
 14 C       -6.4360     0.5370     1.5440 C.3   1 <1>  -0.1600 
 15 N       -7.7880    -1.1540     0.3360 N.am  1 <1>  -0.6600 
 16 C       -7.6110     0.3040     0.5890 C.3   1 <1>   0.1400 
 17 C       -8.7170    -1.8860     1.0470 C.2   1 <1>   0.5440 
 18 O       -9.3700    -1.3420     1.9170 O.2   1 <1>  -0.5700 
 19 C       -8.9050    -3.3010     0.7870 C.ar  1 <1>   0.0860 
 20 C       -9.7260    -3.7830    -0.2410 C.ar  1 <1>  -0.1440 
 21 C       -8.2310    -4.2300     1.5790 C.ar  1 <1>  -0.1500 
 22 C       -9.8430    -5.1470    -0.4560 C.ar  1 <1>  -0.1500 
 23 C      -10.5190    -2.8320    -1.1340 C.3   1 <1>  -0.0170 
 24 C       -8.3500    -5.5890     1.3590 C.ar  1 <1>  -0.1500 
 25 C       -9.1560    -6.0490     0.3370 C.ar  1 <1>  -0.1500 
 26 C      -11.8500    -2.4620    -0.4770 C.3   1 <1>  -0.2400 
 27 H        0.1740     0.6150     1.2160 H     1 <1>   0.3700 
 28 H       -3.5260     1.8190     0.9100 H     1 <1>   0.0800 
 29 H        0.4010     2.4370    -0.5870 H     1 <1>   0.0800 
 30 H        0.5300     3.0020     1.0630 H     1 <1>   0.0800 
 31 H       -3.2710     3.3650    -0.8660 H     1 <1>   0.0800 
 32 H       -2.0180     2.4210    -1.6190 H     1 <1>   0.0800 
 33 H       -1.0550     4.3360    -0.3990 H     1 <1>   0.0800 
 34 H       -1.7460     3.7540     1.0850 H     1 <1>   0.0800 
 35 H       -5.0730    -1.5810    -1.7930 H     1 <1>   0.0800 
 36 H       -6.1730    -0.2570    -1.9080 H     1 <1>   0.0800 
 37 H       -4.3650     0.0520     1.8090 H     1 <1>   0.0800 
 38 H       -5.3390    -1.3130     1.4490 H     1 <1>   0.0800 
 39 H       -6.3570    -2.6500    -0.0900 H     1 <1>   0.0800 
 40 H       -7.3960    -2.2570    -1.4150 H     1 <1>   0.0800 
 41 H       -6.1920     1.5830     1.5450 H     1 <1>   0.0800 
 42 H       -6.7490     0.2810     2.5400 H     1 <1>   0.0800 
 43 H       -7.4450     0.8160    -0.3420 H     1 <1>   0.0800 
 44 H       -8.5070     0.7190     1.0190 H     1 <1>   0.0800 
 45 H       -7.6090    -3.8700     2.3800 H     1 <1>   0.1500 
 46 H      -10.4760    -5.5190    -1.2430 H     1 <1>   0.1500 
 47 H      -10.7120    -3.3000    -2.0840 H     1 <1>   0.0800 
 48 H       -9.9550    -1.9370    -1.3300 H     1 <1>   0.0800 
 49 H       -7.8190    -6.2860     1.9840 H     1 <1>   0.1500 
 50 H       -9.2550    -7.1060     0.1610 H     1 <1>   0.1500 
 51 H      -12.4320    -3.3470    -0.2910 H     1 <1>   0.0800 
 52 H      -12.4110    -1.8060    -1.1170 H     1 <1>   0.0800 
 53 H      -11.6770    -1.9620     0.4600 H     1 <1>   0.0800 
@<TRIPOS>BOND
  1   1   2  2   
  2   2   3  am  
  3   2   4  1   
  4   3   5  1   
  5   3  27  1   
  6   4   6  1   
  7   4   7  1   
  8   4  28  1   
  9   5   8  1   
 10   5  29  1   
 11   5  30  1   
 12   6   9  2   
 13   6  10  am  
 14   7   8  1   
 15   7  31  1   
 16   7  32  1   
 17   8  33  1   
 18   8  34  1   
 19  10  11  1   
 20  10  12  1   
 21  11  13  1   
 22  11  35  1   
 23  11  36  1   
 24  12  14  1   
 25  12  37  1   
 26  12  38  1   
 27  13  15  1   
 28  13  39  1   
 29  13  40  1   
 30  14  16  1   
 31  14  41  1   
 32  14  42  1   
 33  15  16  1   
 34  15  17  am  
 35  16  43  1   
 36  16  44  1   
 37  17  18  2   
 38  17  19  1   
 39  19  20  ar  
 40  19  21  ar  
 41  20  22  ar  
 42  20  23  1   
 43  21  24  ar  
 44  21  45  1   
 45  22  25  ar  
 46  22  46  1   
 47  23  26  1   
 48  23  47  1   
 49  23  48  1   
 50  24  25  ar  
 51  24  49  1   
 52  25  50  1   
 53  26  51  1   
 54  26  52  1   
 55  26  53  1   
@<TRIPOS>SUBSTRUCTURE
  1 ****  13 GROUP 4 **** **** 0

# MOE 2024.06 (io_trps.svl 2023.06)
