@<TRIPOS>MOLECULE
NONAME
53 56 1 0 0 
SMALL
USER_CHARGES


@<TRIPOS>ATOM
  1 O       -2.3500     0.2390    -0.0110 O.2   1 <1>  -0.5700 
  2 C       -2.5100     1.1660    -0.7870 C.2   1 <1>   0.5440 
  3 N       -3.5760     1.0540    -1.6460 N.am  1 <1>  -0.6600 
  4 C       -1.6650     2.3500    -0.7540 C.ar  1 <1>   0.0860 
  5 C       -4.8910     1.5690    -1.1540 C.3   1 <1>   0.1400 
  6 C       -3.7190    -0.2250    -2.4190 C.3   1 <1>   0.1400 
  7 C       -0.7510     2.5500     0.2800 C.ar  1 <1>  -0.1500 
  8 C       -1.7310     3.3310    -1.7450 C.ar  1 <1>  -0.1500 
  9 C       -5.5940     0.5370    -0.2270 C.3   1 <1>   0.4230 
 10 C       -4.6650    -1.2310    -1.7170 C.3   1 <1>   0.3430 
 11 C        0.0690     3.6690     0.3560 C.ar  1 <1>   0.0540 
 12 C       -0.9270     4.4540    -1.6960 C.ar  1 <1>  -0.1500 
 13 N       -4.9350    -0.8240    -0.2940 N.4   1 <1>  -0.9590 
 14 C       -7.1040     0.4340    -0.5370 C.3   1 <1>   0.1200 
 15 C        1.0020     3.8310     1.4510 C.2   1 <1>  -0.0540 
 16 C       -0.0360     4.6200    -0.6540 C.ar  1 <1>  -0.1500 
 17 C       -5.6730    -1.8090     0.5580 C.3   1 <1>   0.4230 
 18 O       -7.7140    -0.5210     0.2860 O.3   1 <1>  -0.5600 
 19 C        1.4760     5.0280     2.0000 C.2   1 <1>   0.1390 
 20 C        1.6260     2.8810     2.1930 C.2   1 <1>  -0.3020 
 21 C       -7.1810    -1.8160     0.2070 C.3   1 <1>   0.1200 
 22 C       -5.0250    -3.1990     0.4670 C.3   1 <1>  -0.1600 
 23 N        2.3080     4.8460     2.9780 N.2   1 <1>  -0.7070 
 24 N        2.3990     3.5100     3.0950 N.pl3 1 <1>   0.3000 
 25 C       -5.5090    -4.1470     1.5750 C.3   1 <1>  -0.1600 
 26 C       -4.7810    -5.4920     1.4990 C.3   1 <1>  -0.2400 
 27 H       -4.7440     2.4890    -0.6120 H     1 <1>   0.0800 
 28 H       -5.5140     1.7970    -2.0020 H     1 <1>   0.0800 
 29 H       -4.0830    -0.0110    -3.4090 H     1 <1>   0.0800 
 30 H       -2.7490    -0.6800    -2.5280 H     1 <1>   0.0800 
 31 H       -0.6770     1.8090     1.0560 H     1 <1>   0.1500 
 32 H       -2.4140     3.2160    -2.5680 H     1 <1>   0.1500 
 33 H       -5.5060     0.9040     0.7820 H     1 <1>   0.0800 
 34 H       -4.2050    -2.2050    -1.7470 H     1 <1>   0.0800 
 35 H       -5.5920    -1.2890    -2.2620 H     1 <1>   0.0800 
 36 H       -0.9910     5.1990    -2.4710 H     1 <1>   0.1500 
 37 H       -3.9850    -0.6710     0.1080 H     1 <1>   0.4500 
 38 H       -7.2780     0.1620    -1.5630 H     1 <1>   0.0800 
 39 H       -7.5870     1.3770    -0.3470 H     1 <1>   0.0800 
 40 H        0.5910     5.4940    -0.6300 H     1 <1>   0.1500 
 41 H       -5.5920    -1.4870     1.5840 H     1 <1>   0.0800 
 42 H        1.1830     6.0050     1.6570 H     1 <1>   0.1500 
 43 H        1.5620     1.8120     2.1200 H     1 <1>   0.1500 
 44 H       -7.7240    -2.4250     0.9080 H     1 <1>   0.0800 
 45 H       -7.3510    -2.2020    -0.7820 H     1 <1>   0.0800 
 46 H       -5.2390    -3.6490    -0.4870 H     1 <1>   0.0800 
 47 H       -3.9580    -3.0910     0.5660 H     1 <1>   0.0800 
 48 H        2.9990     3.0640     3.8000 H     1 <1>   0.2700 
 49 H       -5.3260    -3.7080     2.5420 H     1 <1>   0.0800 
 50 H       -6.5680    -4.3270     1.4850 H     1 <1>   0.0800 
 51 H       -3.7200    -5.3580     1.6210 H     1 <1>   0.0800 
 52 H       -4.9630    -5.9730     0.5530 H     1 <1>   0.0800 
 53 H       -5.1300    -6.1430     2.2810 H     1 <1>   0.0800 
@<TRIPOS>BOND
  1   1   2  2   
  2   2   3  am  
  3   2   4  1   
  4   3   5  1   
  5   3   6  1   
  6   4   7  ar  
  7   4   8  ar  
  8   5   9  1   
  9   5  27  1   
 10   5  28  1   
 11   6  10  1   
 12   6  29  1   
 13   6  30  1   
 14   7  11  ar  
 15   7  31  1   
 16   8  12  ar  
 17   8  32  1   
 18   9  13  1   
 19   9  14  1   
 20   9  33  1   
 21  10  13  1   
 22  10  34  1   
 23  10  35  1   
 24  11  15  1   
 25  11  16  ar  
 26  12  16  ar  
 27  12  36  1   
 28  13  17  1   
 29  13  37  1   
 30  14  18  1   
 31  14  38  1   
 32  14  39  1   
 33  15  19  1   
 34  15  20  2   
 35  16  40  1   
 36  17  21  1   
 37  17  22  1   
 38  17  41  1   
 39  18  21  1   
 40  19  23  2   
 41  19  42  1   
 42  20  24  1   
 43  20  43  1   
 44  21  44  1   
 45  21  45  1   
 46  22  25  1   
 47  22  46  1   
 48  22  47  1   
 49  23  24  1   
 50  24  48  1   
 51  25  26  1   
 52  25  49  1   
 53  25  50  1   
 54  26  51  1   
 55  26  52  1   
 56  26  53  1   
@<TRIPOS>SUBSTRUCTURE
  1 ****   1 GROUP 4 **** **** 0

# MOE 2024.06 (io_trps.svl 2023.06)
