@<TRIPOS>MOLECULE
NONAME
48 52 1 0 0 
SMALL
USER_CHARGES


@<TRIPOS>ATOM
  1 O       -0.9270     4.7190     2.4180 O.2   1 <1>  -0.5700 
  2 C       -0.5790     4.0700     1.4460 C.2   1 <1>   0.5440 
  3 N       -1.5750     3.4820     0.6800 N.am  1 <1>  -0.6600 
  4 C        0.8520     3.9430     1.1650 C.ar  1 <1>   0.3960 
  5 C       -3.0190     3.8490     0.8910 C.3   1 <1>   0.1400 
  6 C       -1.2900     2.4870    -0.3990 C.3   1 <1>   0.1400 
  7 N        1.3280     3.8770    -0.0630 N.ar  1 <1>  -0.6200 
  8 C        1.7240     3.9020     2.2870 C.ar  1 <1>   0.1600 
  9 C       -3.8110     3.8360    -0.4300 C.3   1 <1>   0.1440 
 10 C       -2.5140     1.6100    -0.6840 C.3   1 <1>  -0.1600 
 11 C        2.6750     3.7670    -0.1580 C.ar  1 <1>   0.3100 
 12 N        3.0160     3.7880     2.2390 N.ar  1 <1>  -0.6200 
 13 C       -5.2280     4.3020    -0.1380 C.ar  1 <1>   0.1670 
 14 C       -3.7650     2.4220    -1.0720 C.3   1 <1>  -0.1600 
 15 C       -3.2980     4.9450    -1.3960 C.3   1 <1>  -0.1600 
 16 C        3.5170     3.7190     0.9810 C.ar  1 <1>   0.3100 
 17 C        3.2650     3.6940    -1.4300 C.ar  1 <1>  -0.1500 
 18 N       -6.1560     3.5960     0.4720 N.ar  1 <1>  -0.6200 
 19 C       -5.4380     5.5790    -0.5640 C.ar  1 <1>  -0.1440 
 20 C       -4.2070     6.1700    -1.2020 C.3   1 <1>  -0.0170 
 21 C        4.9020     3.5970     0.7970 C.ar  1 <1>  -0.1500 
 22 C        4.6220     3.5760    -1.5830 C.ar  1 <1>  -0.1500 
 23 C       -7.3140     4.2230     0.6210 C.ar  1 <1>   0.4770 
 24 C       -6.6760     6.1320    -0.3560 C.ar  1 <1>   0.1600 
 25 C        5.4500     3.5260    -0.4580 C.ar  1 <1>  -0.1500 
 26 N       -7.6330     5.4530     0.2420 N.ar  1 <1>  -0.6200 
 27 C       -8.4000     3.4380     1.3160 C.3   1 <1>  -0.0970 
 28 H       -3.0900     4.8270     1.3340 H     1 <1>   0.0800 
 29 H       -3.4600     3.1470     1.5770 H     1 <1>   0.0800 
 30 H       -0.4670     1.8580    -0.1040 H     1 <1>   0.0800 
 31 H       -1.0060     3.0130    -1.2950 H     1 <1>   0.0800 
 32 H        1.2640     3.9700     3.2580 H     1 <1>   0.1500 
 33 H       -2.7240     1.0370     0.2030 H     1 <1>   0.0800 
 34 H       -2.2810     0.9100    -1.4670 H     1 <1>   0.0800 
 35 H       -3.8320     2.4970    -2.1420 H     1 <1>   0.0800 
 36 H       -4.6240     1.8560    -0.7550 H     1 <1>   0.0800 
 37 H       -3.4000     4.6230    -2.4170 H     1 <1>   0.0800 
 38 H       -2.2660     5.2000    -1.2290 H     1 <1>   0.0800 
 39 H        2.6160     3.7350    -2.2860 H     1 <1>   0.1500 
 40 H       -4.4320     6.6510    -2.1380 H     1 <1>   0.0800 
 41 H       -3.7540     6.8750    -0.5260 H     1 <1>   0.0800 
 42 H        5.5210     3.5620     1.6740 H     1 <1>   0.1500 
 43 H        5.0640     3.5210    -2.5640 H     1 <1>   0.1500 
 44 H       -6.8870     7.1380    -0.6760 H     1 <1>   0.1500 
 45 H        6.5150     3.4330    -0.5900 H     1 <1>   0.1500 
 46 H       -8.3470     2.4050     1.0280 H     1 <1>   0.0800 
 47 H       -9.3660     3.8250     1.0510 H     1 <1>   0.0800 
 48 H       -8.2680     3.5170     2.3780 H     1 <1>   0.0800 
@<TRIPOS>BOND
  1   1   2  2   
  2   2   3  am  
  3   2   4  1   
  4   3   5  1   
  5   3   6  1   
  6   4   7  ar  
  7   4   8  ar  
  8   5   9  1   
  9   5  28  1   
 10   5  29  1   
 11   6  10  1   
 12   6  30  1   
 13   6  31  1   
 14   7  11  ar  
 15   8  12  ar  
 16   8  32  1   
 17   9  13  1   
 18   9  14  1   
 19   9  15  1   
 20  10  14  1   
 21  10  33  1   
 22  10  34  1   
 23  11  16  ar  
 24  11  17  ar  
 25  12  16  ar  
 26  13  18  ar  
 27  13  19  ar  
 28  14  35  1   
 29  14  36  1   
 30  15  20  1   
 31  15  37  1   
 32  15  38  1   
 33  16  21  ar  
 34  17  22  ar  
 35  17  39  1   
 36  18  23  ar  
 37  19  20  1   
 38  19  24  ar  
 39  20  40  1   
 40  20  41  1   
 41  21  25  ar  
 42  21  42  1   
 43  22  25  ar  
 44  22  43  1   
 45  23  26  ar  
 46  23  27  1   
 47  24  26  ar  
 48  24  44  1   
 49  25  45  1   
 50  27  46  1   
 51  27  47  1   
 52  27  48  1   
@<TRIPOS>SUBSTRUCTURE
  1 ****   3 GROUP 4 **** **** 0

# MOE 2024.06 (io_trps.svl 2023.06)
