@<TRIPOS>MOLECULE
NONAME
24 24 1 0 0 
SMALL
USER_CHARGES


@<TRIPOS>ATOM
  1 BR      -0.4600     0.2460    -1.9840 Br    1 <1>  -0.1110 
  2 C       -0.3300     2.0380    -1.3090 C.ar  1 <1>   0.4210 
  3 N       -1.4340     2.5370    -0.7890 N.ar  1 <1>  -0.6200 
  4 C        0.8910     2.6740    -1.4130 C.ar  1 <1>  -0.1500 
  5 C       -1.3040     3.7730    -0.3320 C.ar  1 <1>   0.1600 
  6 C        0.9950     3.9600    -0.9320 C.ar  1 <1>  -0.1500 
  7 C       -0.1360     4.5370    -0.3700 C.ar  1 <1>  -0.1440 
  8 C       -0.0600     5.9820     0.1740 C.3   1 <1>   0.1440 
  9 C        0.3600     6.9450    -0.9630 C.3   1 <1>   0.1200 
 10 C        0.9900     6.0390     1.2970 C.3   1 <1>  -0.2400 
 11 C       -1.3910     6.4770     0.7770 C.3   1 <1>  -0.2400 
 12 O       -0.5140     6.8510    -2.0400 O.3   1 <1>  -0.6800 
 13 H        1.7270     2.1680    -1.8580 H     1 <1>   0.1500 
 14 H       -2.1980     4.1890     0.0950 H     1 <1>   0.1500 
 15 H        1.9330     4.4840    -0.9990 H     1 <1>   0.1500 
 16 H        1.3470     6.7110    -1.3210 H     1 <1>   0.0800 
 17 H        0.3530     7.9660    -0.6220 H     1 <1>   0.0800 
 18 H        1.9680     5.7850     0.9320 H     1 <1>   0.0800 
 19 H        0.7330     5.3460     2.0790 H     1 <1>   0.0800 
 20 H        1.0390     7.0260     1.7210 H     1 <1>   0.0800 
 21 H       -2.1710     6.4760     0.0360 H     1 <1>   0.0800 
 22 H       -1.2870     7.4850     1.1380 H     1 <1>   0.0800 
 23 H       -1.6920     5.8570     1.6030 H     1 <1>   0.0800 
 24 H       -0.6110     5.9140    -2.3090 H     1 <1>   0.4000 
@<TRIPOS>BOND
  1   1   2  1   
  2   2   3  ar  
  3   2   4  ar  
  4   3   5  ar  
  5   4   6  ar  
  6   4  13  1   
  7   5   7  ar  
  8   5  14  1   
  9   6   7  ar  
 10   6  15  1   
 11   7   8  1   
 12   8   9  1   
 13   8  10  1   
 14   8  11  1   
 15   9  12  1   
 16   9  16  1   
 17   9  17  1   
 18  10  18  1   
 19  10  19  1   
 20  10  20  1   
 21  11  21  1   
 22  11  22  1   
 23  11  23  1   
 24  12  24  1   
@<TRIPOS>SUBSTRUCTURE
  1 ****   7 GROUP 4 **** **** 0

# MOE 2024.06 (io_trps.svl 2023.06)
