@<TRIPOS>MOLECULE
NONAME
32 33 1 0 0 
SMALL
USER_CHARGES


@<TRIPOS>ATOM
  1 S        1.0890     0.6620     1.3880 S.3   1 <1>  -0.0800 
  2 C        1.3620    -0.6820     0.3010 C.2   1 <1>   0.1980 
  3 C        2.2900     1.5680     0.5180 C.2   1 <1>  -0.1100 
  4 N        2.2390    -0.4660    -0.5940 N.2   1 <1>  -0.5650 
  5 C        0.5490    -1.9340     0.5290 C.3   1 <1>  -0.0600 
  6 C        2.7750     0.8120    -0.4810 C.2   1 <1>   0.0460 
  7 C        3.8460     1.2130    -1.4900 C.3   1 <1>   0.3900 
  8 N        4.0850     2.6760    -1.4700 N.pl3 1 <1>  -0.8690 
  9 C        5.0820     3.3040    -0.8320 C.ar  1 <1>   0.7200 
 10 N        4.8920     4.6020    -0.6540 N.ar  1 <1>  -0.6200 
 11 N        6.1310     2.5980    -0.4340 N.ar  1 <1>  -0.6200 
 12 C        5.8440     5.2590    -0.0410 C.ar  1 <1>   0.1670 
 13 C        7.0740     3.2770     0.1690 C.ar  1 <1>   0.1600 
 14 C        7.0220     4.6460     0.3840 C.ar  1 <1>   0.0860 
 15 C        5.5520     6.7320     0.1960 C.3   1 <1>  -0.0970 
 16 C        8.1440     5.2940     1.0030 C.2   1 <1>   0.4230 
 17 O        8.7220     4.8220     1.9460 O.2   1 <1>  -0.5700 
 18 C        8.7030     6.5870     0.4430 C.3   1 <1>  -0.1790 
 19 H        2.5110     2.5680     0.8450 H     1 <1>   0.1500 
 20 H        0.7470    -2.3230     1.5100 H     1 <1>   0.0800 
 21 H        0.8140    -2.6750    -0.2030 H     1 <1>   0.0800 
 22 H       -0.4970    -1.7090     0.4380 H     1 <1>   0.0800 
 23 H        3.5180     0.9310    -2.4750 H     1 <1>   0.0800 
 24 H        4.7510     0.6720    -1.2770 H     1 <1>   0.0800 
 25 H        3.2770     3.2590    -1.6770 H     1 <1>   0.4000 
 26 H        7.9410     2.7360     0.5100 H     1 <1>   0.1500 
 27 H        4.4890     6.8950     0.2280 H     1 <1>   0.0800 
 28 H        5.9590     7.3210    -0.6050 H     1 <1>   0.0800 
 29 H        5.9600     7.0600     1.1340 H     1 <1>   0.0800 
 30 H        8.3840     6.7370    -0.5720 H     1 <1>   0.0800 
 31 H        9.7770     6.5450     0.4580 H     1 <1>   0.0800 
 32 H        8.3890     7.4150     1.0500 H     1 <1>   0.0800 
@<TRIPOS>BOND
  1   1   2  1   
  2   1   3  1   
  3   2   4  2   
  4   2   5  1   
  5   3   6  2   
  6   3  19  1   
  7   4   6  1   
  8   5  20  1   
  9   5  21  1   
 10   5  22  1   
 11   6   7  1   
 12   7   8  1   
 13   7  23  1   
 14   7  24  1   
 15   8   9  1   
 16   8  25  1   
 17   9  10  ar  
 18   9  11  ar  
 19  10  12  ar  
 20  11  13  ar  
 21  12  14  ar  
 22  12  15  1   
 23  13  14  ar  
 24  13  26  1   
 25  14  16  1   
 26  15  27  1   
 27  15  28  1   
 28  15  29  1   
 29  16  17  2   
 30  16  18  1   
 31  18  30  1   
 32  18  31  1   
 33  18  32  1   
@<TRIPOS>SUBSTRUCTURE
  1 ****   9 GROUP 4 **** **** 0

# MOE 2024.06 (io_trps.svl 2023.06)
