@<TRIPOS>MOLECULE
NONAME
47 49 1 0 0 
SMALL
USER_CHARGES


@<TRIPOS>ATOM
  1 CL      -0.5920     0.4800    -1.3070 Cl    1 <1>  -0.1230 
  2 C       -1.5870     1.7600    -0.6320 C.2   1 <1>   0.1230 
  3 C       -2.3620     2.6660    -1.3440 C.2   1 <1>   0.1080 
  4 C       -1.7520     2.0540     0.6690 C.2   1 <1>  -0.3020 
  5 N       -2.9800     3.4810    -0.5420 N.2   1 <1>  -0.7070 
  6 C       -2.5060     2.7370    -2.8490 C.3   1 <1>  -0.0590 
  7 N       -2.6010     3.1040     0.7050 N.pl3 1 <1>   0.3140 
  8 C       -3.1040     3.7890     1.9070 C.3   1 <1>   0.1570 
  9 C       -4.5560     3.4310     2.1420 C.2   1 <1>   0.5690 
 10 O       -4.9170     3.1650     3.2630 O.2   1 <1>  -0.5700 
 11 N       -5.4230     3.4060     1.0990 N.am  1 <1>  -0.7300 
 12 C       -6.8740     3.1030     1.1400 C.3   1 <1>   0.2200 
 13 C       -7.1360     1.5960     1.3660 C.3   1 <1>   0.2000 
 14 C       -7.4870     3.5900    -0.1770 C.3   1 <1>  -0.1600 
 15 O       -6.7550     1.2360     2.6520 O.3   1 <1>  -0.6800 
 16 C       -8.6180     1.2350     1.1970 C.3   1 <1>   0.1400 
 17 C       -8.9750     3.2470    -0.2550 C.3   1 <1>   0.1400 
 18 N       -9.1490     1.7780    -0.0920 N.am  1 <1>  -0.6600 
 19 C       -9.5800     0.9810    -1.1350 C.2   1 <1>   0.5440 
 20 O       -9.5950     1.4460    -2.2590 O.2   1 <1>  -0.5700 
 21 C       -9.9990    -0.3950    -0.9330 C.ar  1 <1>   0.0860 
 22 C      -10.9280    -0.7420     0.0490 C.ar  1 <1>  -0.1500 
 23 C       -9.4880    -1.4210    -1.7270 C.ar  1 <1>  -0.1500 
 24 C      -11.3150    -2.0550     0.2420 C.ar  1 <1>  -0.1500 
 25 C       -9.8710    -2.7360    -1.5410 C.ar  1 <1>  -0.1500 
 26 C      -10.7850    -3.0560    -0.5530 C.ar  1 <1>  -0.1500 
 27 H       -1.3270     1.5870     1.5370 H     1 <1>   0.1500 
 28 H       -1.7820     2.1060    -3.3300 H     1 <1>   0.0800 
 29 H       -2.3580     3.7500    -3.1760 H     1 <1>   0.0800 
 30 H       -3.4930     2.4200    -3.1310 H     1 <1>   0.0800 
 31 H       -2.5160     3.4960     2.7550 H     1 <1>   0.0800 
 32 H       -3.0160     4.8480     1.7620 H     1 <1>   0.0800 
 33 H       -5.0140     3.5080     0.1560 H     1 <1>   0.3700 
 34 H       -7.3250     3.6510     1.9500 H     1 <1>   0.0800 
 35 H       -6.5500     1.0180     0.6730 H     1 <1>   0.0800 
 36 H       -7.3710     4.6560    -0.2560 H     1 <1>   0.0800 
 37 H       -6.9890     3.1300    -1.0130 H     1 <1>   0.0800 
 38 H       -6.0310     1.8420     2.9610 H     1 <1>   0.4000 
 39 H       -9.1840     1.6550     2.0090 H     1 <1>   0.0800 
 40 H       -8.7110     0.1640     1.2300 H     1 <1>   0.0800 
 41 H       -9.3760     3.5760    -1.1990 H     1 <1>   0.0800 
 42 H       -9.5150     3.7540     0.5260 H     1 <1>   0.0800 
 43 H      -11.3490     0.0340     0.6640 H     1 <1>   0.1500 
 44 H       -8.7820    -1.1720    -2.5010 H     1 <1>   0.1500 
 45 H      -12.0310    -2.3000     1.0080 H     1 <1>   0.1500 
 46 H       -9.4610    -3.5110    -2.1650 H     1 <1>   0.1500 
 47 H      -11.0850    -4.0800    -0.4050 H     1 <1>   0.1500 
@<TRIPOS>BOND
  1   1   2  1   
  2   2   3  1   
  3   2   4  2   
  4   3   5  2   
  5   3   6  1   
  6   4   7  1   
  7   4  27  1   
  8   5   7  1   
  9   6  28  1   
 10   6  29  1   
 11   6  30  1   
 12   7   8  1   
 13   8   9  1   
 14   8  31  1   
 15   8  32  1   
 16   9  10  2   
 17   9  11  am  
 18  11  12  1   
 19  11  33  1   
 20  12  13  1   
 21  12  14  1   
 22  12  34  1   
 23  13  15  1   
 24  13  16  1   
 25  13  35  1   
 26  14  17  1   
 27  14  36  1   
 28  14  37  1   
 29  15  38  1   
 30  16  18  1   
 31  16  39  1   
 32  16  40  1   
 33  17  18  1   
 34  17  41  1   
 35  17  42  1   
 36  18  19  am  
 37  19  20  2   
 38  19  21  1   
 39  21  22  ar  
 40  21  23  ar  
 41  22  24  ar  
 42  22  43  1   
 43  23  25  ar  
 44  23  44  1   
 45  24  26  ar  
 46  24  45  1   
 47  25  26  ar  
 48  25  46  1   
 49  26  47  1   
@<TRIPOS>SUBSTRUCTURE
  1 ****  13 GROUP 4 **** **** 0

# MOE 2024.06 (io_trps.svl 2023.06)
