@<TRIPOS>MOLECULE
NONAME
54 55 1 0 0 
SMALL
USER_CHARGES


@<TRIPOS>ATOM
  1 O        1.0080     0.5610     1.2770 O.3   1 <1>  -0.3630 
  2 C        1.8620     0.9990     0.3290 C.ar  1 <1>   0.0830 
  3 C       -0.3220     0.3370     0.8700 C.3   1 <1>   0.0400 
  4 C        2.0010     2.3500     0.0430 C.ar  1 <1>  -0.1440 
  5 C        2.6330     0.0930    -0.3760 C.ar  1 <1>  -0.1440 
  6 C        2.8810     2.7190    -0.9730 C.ar  1 <1>   0.1660 
  7 C        1.2090     3.3930     0.8330 C.3   1 <1>  -0.0960 
  8 C        3.4750     0.5830    -1.3570 C.ar  1 <1>   0.1600 
  9 C        2.5690    -1.4000    -0.0860 C.3   1 <1>  -0.0970 
 10 N        3.6090     1.8580    -1.6760 N.ar  1 <1>  -0.6200 
 11 C        3.0720     4.1860    -1.3760 C.3   1 <1>   0.2530 
 12 N        3.9210     4.9830    -0.4410 N.3   1 <1>  -0.8100 
 13 C        4.0950     6.3540    -0.9350 C.3   1 <1>   0.1100 
 14 C        5.2150     4.3020    -0.2260 C.3   1 <1>   0.0300 
 15 C        4.5230     7.2790     0.2180 C.3   1 <1>   0.3430 
 16 N        4.7980     8.6920    -0.2240 N.4   1 <1>  -0.9590 
 17 C        5.4530     9.5100     0.8420 C.3   1 <1>   0.4230 
 18 C        3.5390     9.3410    -0.7100 C.3   1 <1>   0.3430 
 19 C        5.7730    10.9090     0.2940 C.3   1 <1>  -0.1600 
 20 C        6.7490     8.8480     1.3160 C.3   1 <1>  -0.2400 
 21 C        3.8380    10.7220    -1.2900 C.3   1 <1>  -0.1600 
 22 C        4.5330    11.6170    -0.2620 C.3   1 <1>  -0.1600 
 23 H       -0.8790    -0.0160     1.7200 H     1 <1>   0.0800 
 24 H       -0.3280    -0.4030     0.0900 H     1 <1>   0.0800 
 25 H       -0.7390     1.2600     0.5110 H     1 <1>   0.0800 
 26 H        0.8470     2.9890     1.7600 H     1 <1>   0.0800 
 27 H        0.3690     3.7320     0.2550 H     1 <1>   0.0800 
 28 H        1.8310     4.2340     1.0790 H     1 <1>   0.0800 
 29 H        4.0750    -0.1130    -1.9160 H     1 <1>   0.1500 
 30 H        2.6130    -1.5700     0.9750 H     1 <1>   0.0800 
 31 H        3.3910    -1.9180    -0.5460 H     1 <1>   0.0800 
 32 H        1.6490    -1.8070    -0.4640 H     1 <1>   0.0800 
 33 H        2.1010     4.6430    -1.4500 H     1 <1>   0.0800 
 34 H        3.5100     4.2080    -2.3600 H     1 <1>   0.0800 
 35 H        3.1550     6.6990    -1.3290 H     1 <1>   0.0800 
 36 H        4.8300     6.3630    -1.7220 H     1 <1>   0.0800 
 37 H        5.0560     3.3500     0.2530 H     1 <1>   0.0800 
 38 H        5.8580     4.8800     0.4120 H     1 <1>   0.0800 
 39 H        5.7120     4.1280    -1.1670 H     1 <1>   0.0800 
 40 H        5.4120     6.8590     0.6510 H     1 <1>   0.0800 
 41 H        3.7520     7.2750     0.9710 H     1 <1>   0.0800 
 42 H        5.4600     8.6650    -1.0080 H     1 <1>   0.4500 
 43 H        4.7820     9.6120     1.6800 H     1 <1>   0.0800 
 44 H        2.8440     9.4400     0.1090 H     1 <1>   0.0800 
 45 H        3.0760     8.7360    -1.4720 H     1 <1>   0.0800 
 46 H        6.5210    10.8350    -0.4770 H     1 <1>   0.0800 
 47 H        6.1880    11.5120     1.0830 H     1 <1>   0.0800 
 48 H        7.3940     8.6170     0.4870 H     1 <1>   0.0800 
 49 H        6.5530     7.9590     1.8850 H     1 <1>   0.0800 
 50 H        7.2780     9.5200     1.9690 H     1 <1>   0.0800 
 51 H        2.9150    11.1830    -1.5960 H     1 <1>   0.0800 
 52 H        4.4520    10.6190    -2.1680 H     1 <1>   0.0800 
 53 H        4.8170    12.5500    -0.7200 H     1 <1>   0.0800 
 54 H        3.8530    11.8400     0.5440 H     1 <1>   0.0800 
@<TRIPOS>BOND
  1   1   2  1   
  2   1   3  1   
  3   2   4  ar  
  4   2   5  ar  
  5   3  23  1   
  6   3  24  1   
  7   3  25  1   
  8   4   6  ar  
  9   4   7  1   
 10   5   8  ar  
 11   5   9  1   
 12   6  10  ar  
 13   6  11  1   
 14   7  26  1   
 15   7  27  1   
 16   7  28  1   
 17   8  10  ar  
 18   8  29  1   
 19   9  30  1   
 20   9  31  1   
 21   9  32  1   
 22  11  12  1   
 23  11  33  1   
 24  11  34  1   
 25  12  13  1   
 26  12  14  1   
 27  13  15  1   
 28  13  35  1   
 29  13  36  1   
 30  14  37  1   
 31  14  38  1   
 32  14  39  1   
 33  15  16  1   
 34  15  40  1   
 35  15  41  1   
 36  16  17  1   
 37  16  18  1   
 38  16  42  1   
 39  17  19  1   
 40  17  20  1   
 41  17  43  1   
 42  18  21  1   
 43  18  44  1   
 44  18  45  1   
 45  19  22  1   
 46  19  46  1   
 47  19  47  1   
 48  20  48  1   
 49  20  49  1   
 50  20  50  1   
 51  21  22  1   
 52  21  51  1   
 53  21  52  1   
 54  22  53  1   
 55  22  54  1   
@<TRIPOS>SUBSTRUCTURE
  1 ****  12 GROUP 4 **** **** 0

# MOE 2024.06 (io_trps.svl 2023.06)
