@<TRIPOS>MOLECULE
NONAME
49 51 1 0 0 
SMALL
USER_CHARGES


@<TRIPOS>ATOM
  1 O        0.8540     0.8910    -0.9290 O.3   1 <1>  -0.6800 
  2 C        0.2850     2.0500    -0.4430 C.3   1 <1>   0.2000 
  3 C       -0.1770     2.9040    -1.6230 C.3   1 <1>  -0.1600 
  4 C        1.3320     2.7830     0.3920 C.3   1 <1>  -0.1600 
  5 C       -0.7170     4.2470    -1.1280 C.3   1 <1>   0.2090 
  6 C        0.7830     4.1250     0.8770 C.3   1 <1>   0.2090 
  7 N        0.3060     4.9210    -0.2830 N.pl3 1 <1>  -0.8380 
  8 C        0.2620     6.2960    -0.1510 C.ar  1 <1>   0.4100 
  9 N       -0.9180     6.8840    -0.2250 N.ar  1 <1>  -0.6200 
 10 C        1.4060     7.0290     0.0600 C.ar  1 <1>  -0.1500 
 11 C       -0.9040     8.1930    -0.0760 C.ar  1 <1>   0.4700 
 12 C        1.3010     8.3920     0.2130 C.ar  1 <1>   0.4100 
 13 N        0.1240     8.9890     0.1390 N.ar  1 <1>  -0.6200 
 14 N        2.4100     9.1860     0.4500 N.pl3 1 <1>  -0.8380 
 15 C        2.3320    10.6740     0.2440 C.3   1 <1>   0.3530 
 16 C        3.4720     8.7530     1.4020 C.3   1 <1>   0.1290 
 17 C        3.6830    11.2800    -0.1370 C.ar  1 <1>   0.1670 
 18 N        4.2050    12.1820     0.6870 N.ar  1 <1>  -0.6200 
 19 C        4.2930    10.8660    -1.3120 C.ar  1 <1>  -0.1500 
 20 C        5.3700    12.6890     0.3260 C.ar  1 <1>   0.1670 
 21 C        5.5090    11.3980    -1.6830 C.ar  1 <1>  -0.1430 
 22 C        6.0500    12.3360    -0.8300 C.ar  1 <1>  -0.1500 
 23 C        5.9580    13.7180     1.2680 C.3   1 <1>  -0.0970 
 24 C        6.2160    10.9790    -2.9590 C.3   1 <1>  -0.0970 
 25 H        0.2280     0.4240    -1.5120 H     1 <1>   0.4000 
 26 H       -0.5560     1.7770     0.1740 H     1 <1>   0.0800 
 27 H       -0.9520     2.3970    -2.1680 H     1 <1>   0.0800 
 28 H        0.6490     3.0930    -2.2850 H     1 <1>   0.0800 
 29 H        2.2120     2.9630    -0.2000 H     1 <1>   0.0800 
 30 H        1.6040     2.1820     1.2400 H     1 <1>   0.0800 
 31 H       -1.6130     4.1000    -0.5480 H     1 <1>   0.0800 
 32 H       -0.9590     4.8720    -1.9710 H     1 <1>   0.0800 
 33 H        1.5510     4.6610     1.4060 H     1 <1>   0.0800 
 34 H       -0.0400     3.9630     1.5530 H     1 <1>   0.0800 
 35 H        2.3570     6.5430     0.0900 H     1 <1>   0.1500 
 36 H       -1.8630     8.6780    -0.1370 H     1 <1>   0.1500 
 37 H        1.9750    11.1340     1.1490 H     1 <1>   0.0800 
 38 H        1.6320    10.8990    -0.5400 H     1 <1>   0.0800 
 39 H        3.1930     7.8390     1.8950 H     1 <1>   0.0800 
 40 H        3.6270     9.5100     2.1520 H     1 <1>   0.0800 
 41 H        4.3940     8.6010     0.8680 H     1 <1>   0.0800 
 42 H        3.8070    10.1250    -1.9230 H     1 <1>   0.1500 
 43 H        6.9940    12.7910    -1.0610 H     1 <1>   0.1500 
 44 H        5.2780    14.5450     1.3630 H     1 <1>   0.0800 
 45 H        6.9020    14.0820     0.9070 H     1 <1>   0.0800 
 46 H        6.1010    13.2750     2.2360 H     1 <1>   0.0800 
 47 H        5.8450    10.0300    -3.3020 H     1 <1>   0.0800 
 48 H        7.2730    10.8900    -2.7860 H     1 <1>   0.0800 
 49 H        6.0490    11.7140    -3.7250 H     1 <1>   0.0800 
@<TRIPOS>BOND
  1   1   2  1   
  2   1  25  1   
  3   2   3  1   
  4   2   4  1   
  5   2  26  1   
  6   3   5  1   
  7   3  27  1   
  8   3  28  1   
  9   4   6  1   
 10   4  29  1   
 11   4  30  1   
 12   5   7  1   
 13   5  31  1   
 14   5  32  1   
 15   6   7  1   
 16   6  33  1   
 17   6  34  1   
 18   7   8  1   
 19   8   9  ar  
 20   8  10  ar  
 21   9  11  ar  
 22  10  12  ar  
 23  10  35  1   
 24  11  13  ar  
 25  11  36  1   
 26  12  13  ar  
 27  12  14  1   
 28  14  15  1   
 29  14  16  1   
 30  15  17  1   
 31  15  37  1   
 32  15  38  1   
 33  16  39  1   
 34  16  40  1   
 35  16  41  1   
 36  17  18  ar  
 37  17  19  ar  
 38  18  20  ar  
 39  19  21  ar  
 40  19  42  1   
 41  20  22  ar  
 42  20  23  1   
 43  21  22  ar  
 44  21  24  1   
 45  22  43  1   
 46  23  44  1   
 47  23  45  1   
 48  23  46  1   
 49  24  47  1   
 50  24  48  1   
 51  24  49  1   
@<TRIPOS>SUBSTRUCTURE
  1 ****  12 GROUP 4 **** **** 0

# MOE 2024.06 (io_trps.svl 2023.06)
