@<TRIPOS>MOLECULE
NONAME
49 51 1 0 0 
SMALL
USER_CHARGES


@<TRIPOS>ATOM
  1 CL      -3.5720     0.2010     3.1180 Cl    1 <1>  -0.1230 
  2 C       -3.2070     0.4970     1.4240 C.2   1 <1>   0.1230 
  3 C       -2.9610    -0.4710     0.4420 C.2   1 <1>   0.2030 
  4 C       -3.1350     1.7060     0.8400 C.2   1 <1>  -0.3320 
  5 N       -2.7580     0.1450    -0.7190 N.2   1 <1>  -0.7070 
  6 C       -2.9380    -1.9060     0.7030 C.2   1 <1>   0.7160 
  7 N       -2.8580     1.4600    -0.4560 N.pl3 1 <1>   0.3000 
  8 C       -3.3150     3.0970     1.4280 C.3   1 <1>  -0.0600 
  9 O       -2.4990    -2.3180     1.7630 O.2   1 <1>  -0.5700 
 10 N       -3.3970    -2.8410    -0.2090 N.am  1 <1>  -0.6600 
 11 C       -3.3790    -4.3130     0.1000 C.3   1 <1>   0.3640 
 12 C       -4.0410    -2.4490    -1.5030 C.3   1 <1>   0.1400 
 13 C       -2.1900    -5.0300    -0.5660 C.ar  1 <1>  -0.1430 
 14 C       -4.7350    -4.9930    -0.2800 C.3   1 <1>   0.2000 
 15 C       -4.6730    -3.6420    -2.2320 C.3   1 <1>   0.1200 
 16 C       -1.9620    -6.3610    -0.2320 C.ar  1 <1>  -0.1500 
 17 C       -1.3230    -4.4220    -1.4690 C.ar  1 <1>  -0.1500 
 18 O       -5.4440    -4.3750    -1.3330 O.3   1 <1>  -0.5600 
 19 C       -5.6890    -5.0350     0.9200 C.3   1 <1>   0.1200 
 20 C       -0.9260    -7.0820    -0.7990 C.ar  1 <1>   0.0830 
 21 C       -0.2710    -5.1270    -2.0290 C.ar  1 <1>  -0.1500 
 22 O       -5.2430    -5.9660     1.8540 O.3   1 <1>  -0.6800 
 23 O       -0.8140    -8.3880    -0.4500 O.3   1 <1>  -0.3630 
 24 C       -0.0550    -6.4510    -1.6920 C.ar  1 <1>   0.0830 
 25 C       -0.9500    -9.3380    -1.4850 C.3   1 <1>   0.0400 
 26 O        1.0150    -7.0730    -2.2440 O.3   1 <1>  -0.3630 
 27 C        2.0630    -7.3960    -1.3570 C.3   1 <1>   0.0400 
 28 H       -2.7320     2.1770    -1.1840 H     1 <1>   0.2700 
 29 H       -3.5290     3.0320     2.4800 H     1 <1>   0.0800 
 30 H       -4.1320     3.6040     0.9450 H     1 <1>   0.0800 
 31 H       -2.4170     3.6750     1.2990 H     1 <1>   0.0800 
 32 H       -3.2420    -4.4520     1.1590 H     1 <1>   0.0800 
 33 H       -4.8070    -1.7180    -1.3090 H     1 <1>   0.0800 
 34 H       -3.3080    -1.9940    -2.1460 H     1 <1>   0.0800 
 35 H       -4.5550    -6.0040    -0.5970 H     1 <1>   0.0800 
 36 H       -3.9240    -4.2860    -2.6590 H     1 <1>   0.0800 
 37 H       -5.3190    -3.2970    -3.0200 H     1 <1>   0.0800 
 38 H       -2.5950    -6.8610     0.4810 H     1 <1>   0.1500 
 39 H       -1.4420    -3.3900    -1.7430 H     1 <1>   0.1500 
 40 H       -6.6780    -5.3220     0.6100 H     1 <1>   0.0800 
 41 H       -5.7250    -4.0720     1.4000 H     1 <1>   0.0800 
 42 H        0.3960    -4.6470    -2.7230 H     1 <1>   0.1500 
 43 H       -5.4670    -6.8750     1.5740 H     1 <1>   0.4000 
 44 H       -1.0160   -10.3130    -1.0390 H     1 <1>   0.0800 
 45 H       -0.0930    -9.2900    -2.1300 H     1 <1>   0.0800 
 46 H       -1.8470    -9.1230    -2.0390 H     1 <1>   0.0800 
 47 H        2.8710    -7.8140    -1.9290 H     1 <1>   0.0800 
 48 H        1.7120    -8.1140    -0.6370 H     1 <1>   0.0800 
 49 H        2.3860    -6.4980    -0.8610 H     1 <1>   0.0800 
@<TRIPOS>BOND
  1   1   2  1   
  2   2   3  1   
  3   2   4  2   
  4   3   5  2   
  5   3   6  1   
  6   4   7  1   
  7   4   8  1   
  8   5   7  1   
  9   6   9  2   
 10   6  10  am  
 11   7  28  1   
 12   8  29  1   
 13   8  30  1   
 14   8  31  1   
 15  10  11  1   
 16  10  12  1   
 17  11  13  1   
 18  11  14  1   
 19  11  32  1   
 20  12  15  1   
 21  12  33  1   
 22  12  34  1   
 23  13  16  ar  
 24  13  17  ar  
 25  14  18  1   
 26  14  19  1   
 27  14  35  1   
 28  15  18  1   
 29  15  36  1   
 30  15  37  1   
 31  16  20  ar  
 32  16  38  1   
 33  17  21  ar  
 34  17  39  1   
 35  19  22  1   
 36  19  40  1   
 37  19  41  1   
 38  20  23  1   
 39  20  24  ar  
 40  21  24  ar  
 41  21  42  1   
 42  22  43  1   
 43  23  25  1   
 44  24  26  1   
 45  25  44  1   
 46  25  45  1   
 47  25  46  1   
 48  26  27  1   
 49  27  47  1   
 50  27  48  1   
 51  27  49  1   
@<TRIPOS>SUBSTRUCTURE
  1 ****  11 GROUP 4 **** **** 0

# MOE 2024.06 (io_trps.svl 2023.06)
