@<TRIPOS>MOLECULE
NONAME
46 48 1 0 0 
SMALL
USER_CHARGES


@<TRIPOS>ATOM
  1 O        1.5000     0.1530     2.2060 O.co2 1 <1>  -0.9000 
  2 C        1.4770    -0.1210     1.0000 C.2   1 <1>   0.9060 
  3 O        0.9180    -1.1430     0.5750 O.co2 1 <1>  -0.9000 
  4 C        2.2490     0.7360    -0.0050 C.3   1 <1>  -0.1060 
  5 C        3.4160    -0.1970    -0.4130 C.3   1 <1>   0.2000 
  6 C        2.8200     2.0480     0.6210 C.3   1 <1>  -0.1600 
  7 C        1.3320     1.1140    -1.2080 C.3   1 <1>  -0.0160 
  8 O        2.9910    -1.1170    -1.3590 O.3   1 <1>  -0.6800 
  9 C        4.6590     0.5550    -0.9070 C.3   1 <1>   0.2090 
 10 C        4.2030     1.8390     1.2370 C.3   1 <1>   0.2090 
 11 C        0.3110     2.2130    -0.9110 C.ar  1 <1>  -0.1440 
 12 N        5.1820     1.5190     0.1370 N.pl3 1 <1>  -0.8380 
 13 C       -0.7590     1.9660    -0.0650 C.ar  1 <1>  -0.1500 
 14 C        0.4370     3.4670    -1.4910 C.ar  1 <1>  -0.1500 
 15 C        6.4020     2.1070     0.0330 C.ar  1 <1>   0.1000 
 16 C       -1.6850     2.9580     0.2040 C.ar  1 <1>  -0.1500 
 17 C       -0.4900     4.4610    -1.2250 C.ar  1 <1>  -0.1500 
 18 C        6.5940     3.4660     0.3170 C.ar  1 <1>  -0.1500 
 19 C        7.5310     1.3830    -0.3680 C.ar  1 <1>  -0.1500 
 20 C       -1.5520     4.2070    -0.3760 C.ar  1 <1>  -0.1500 
 21 C        7.8310     4.0490     0.2110 C.ar  1 <1>   0.2180 
 22 C        8.7550     1.9870    -0.4690 C.ar  1 <1>   0.2110 
 23 N        8.8950     3.3050    -0.1800 N.ar  1 <1>  -0.1790 
 24 C        8.0510     5.5220     0.5140 C.3   1 <1>  -0.0970 
 25 H        3.7230    -0.7760     0.4440 H     1 <1>   0.0800 
 26 H        2.1420     2.4180     1.3700 H     1 <1>   0.0800 
 27 H        2.9130     2.8160    -0.1250 H     1 <1>   0.0800 
 28 H        1.9510     1.4290    -2.0280 H     1 <1>   0.0800 
 29 H        0.7930     0.2470    -1.5470 H     1 <1>   0.0800 
 30 H        2.1650    -1.5200    -0.9780 H     1 <1>   0.4000 
 31 H        4.4010     1.1090    -1.7910 H     1 <1>   0.0800 
 32 H        5.4110    -0.1690    -1.1570 H     1 <1>   0.0800 
 33 H        4.1620     1.0240     1.9420 H     1 <1>   0.0800 
 34 H        4.4980     2.7190     1.7780 H     1 <1>   0.0800 
 35 H       -0.8710     0.9960     0.3930 H     1 <1>   0.1500 
 36 H        1.2590     3.6730    -2.1520 H     1 <1>   0.1500 
 37 H       -2.5050     2.7500     0.8680 H     1 <1>   0.1500 
 38 H       -0.3830     5.4300    -1.6790 H     1 <1>   0.1500 
 39 H        5.7400     4.0480     0.6080 H     1 <1>   0.1500 
 40 H        7.4260     0.3350    -0.5820 H     1 <1>   0.1500 
 41 H       -2.2720     4.9770    -0.1650 H     1 <1>   0.1500 
 42 H        9.6250     1.4260    -0.7740 H     1 <1>   0.1500 
 43 H        9.8150     3.7470    -0.2580 H     1 <1>   0.4570 
 44 H        7.1280     5.9880     0.8100 H     1 <1>   0.0800 
 45 H        8.4200     6.0340    -0.3570 H     1 <1>   0.0800 
 46 H        8.7570     5.6390     1.3180 H     1 <1>   0.0800 
@<TRIPOS>BOND
  1   1   2  ar  
  2   2   3  ar  
  3   2   4  1   
  4   4   5  1   
  5   4   6  1   
  6   4   7  1   
  7   5   8  1   
  8   5   9  1   
  9   5  25  1   
 10   6  10  1   
 11   6  26  1   
 12   6  27  1   
 13   7  11  1   
 14   7  28  1   
 15   7  29  1   
 16   8  30  1   
 17   9  12  1   
 18   9  31  1   
 19   9  32  1   
 20  10  12  1   
 21  10  33  1   
 22  10  34  1   
 23  11  13  ar  
 24  11  14  ar  
 25  12  15  1   
 26  13  16  ar  
 27  13  35  1   
 28  14  17  ar  
 29  14  36  1   
 30  15  18  ar  
 31  15  19  ar  
 32  16  20  ar  
 33  16  37  1   
 34  17  20  ar  
 35  17  38  1   
 36  18  21  ar  
 37  18  39  1   
 38  19  22  ar  
 39  19  40  1   
 40  20  41  1   
 41  21  23  ar  
 42  21  24  1   
 43  22  23  ar  
 44  22  42  1   
 45  23  43  1   
 46  24  44  1   
 47  24  45  1   
 48  24  46  1   
@<TRIPOS>SUBSTRUCTURE
  1 ****   6 GROUP 4 **** **** 0

# MOE 2024.06 (io_trps.svl 2023.06)
