@<TRIPOS>MOLECULE
NONAME
36 37 1 0 0 
SMALL
USER_CHARGES


@<TRIPOS>ATOM
  1 S       -0.1460    -0.0400    -2.0880 S.o2  1 <1>   1.4470 
  2 O       -0.7110     1.0910    -2.7960 O.2   1 <1>  -0.6500 
  3 O        0.4940    -1.0970    -2.8430 O.2   1 <1>  -0.6500 
  4 N       -1.4070    -0.7360    -1.1910 N.am  1 <1>  -0.8490 
  5 C        1.0160     0.5820    -0.8350 C.ar  1 <1>  -0.0090 
  6 C       -0.9960    -1.8810    -0.3660 C.3   1 <1>   0.1960 
  7 C       -2.2010     0.2430    -0.4340 C.3   1 <1>   0.1960 
  8 C        1.0140     1.9200    -0.4560 C.ar  1 <1>  -0.1500 
  9 C        1.9220    -0.2660    -0.2080 C.ar  1 <1>  -0.1500 
 10 C       -2.2030    -2.6860     0.1400 C.3   1 <1>  -0.1860 
 11 C       -3.2630    -0.4190     0.4570 C.3   1 <1>  -0.1600 
 12 C        1.8760     2.4040     0.5150 C.ar  1 <1>  -0.1440 
 13 C        2.7880     0.2020     0.7640 C.ar  1 <1>  -0.1500 
 14 C       -1.8300    -3.1990     1.5180 C.2   1 <1>   0.9060 
 15 C       -3.5050    -1.8680     0.0460 C.3   1 <1>   0.2000 
 16 C        2.7660     1.5360     1.1240 C.ar  1 <1>  -0.1500 
 17 C        1.8490     3.8710     0.9030 C.3   1 <1>  -0.0970 
 18 O       -0.7480    -3.7800     1.6390 O.co2 1 <1>  -0.9000 
 19 O       -2.5780    -3.0060     2.4870 O.co2 1 <1>  -0.9000 
 20 O       -4.4760    -2.3990     0.8640 O.3   1 <1>  -0.6800 
 21 H       -0.3590    -2.5430    -0.9280 H     1 <1>   0.0800 
 22 H       -0.4280    -1.5170     0.4760 H     1 <1>   0.0800 
 23 H       -1.5570     0.8450     0.1850 H     1 <1>   0.0800 
 24 H       -2.6940     0.8940    -1.1370 H     1 <1>   0.0800 
 25 H        0.3250     2.5950    -0.9350 H     1 <1>   0.1500 
 26 H        1.9500    -1.3080    -0.4810 H     1 <1>   0.1500 
 27 H       -2.3130    -3.5490    -0.4860 H     1 <1>   0.0800 
 28 H       -4.1800     0.1380     0.3950 H     1 <1>   0.0800 
 29 H       -2.9240    -0.3960     1.4780 H     1 <1>   0.0800 
 30 H        3.4760    -0.4750     1.2400 H     1 <1>   0.1500 
 31 H       -3.8810    -1.8930    -0.9620 H     1 <1>   0.0800 
 32 H        3.4430     1.8940     1.8810 H     1 <1>   0.1500 
 33 H        2.1330     3.9930     1.9330 H     1 <1>   0.0800 
 34 H        0.8620     4.2770     0.7740 H     1 <1>   0.0800 
 35 H        2.5350     4.4230     0.2860 H     1 <1>   0.0800 
 36 H       -3.9920    -2.6760     1.7020 H     1 <1>   0.4000 
@<TRIPOS>BOND
  1   1   2  2   
  2   1   3  2   
  3   1   4  am  
  4   1   5  1   
  5   4   6  1   
  6   4   7  1   
  7   5   8  ar  
  8   5   9  ar  
  9   6  10  1   
 10   6  21  1   
 11   6  22  1   
 12   7  11  1   
 13   7  23  1   
 14   7  24  1   
 15   8  12  ar  
 16   8  25  1   
 17   9  13  ar  
 18   9  26  1   
 19  10  14  1   
 20  10  15  1   
 21  10  27  1   
 22  11  15  1   
 23  11  28  1   
 24  11  29  1   
 25  12  16  ar  
 26  12  17  1   
 27  13  16  ar  
 28  13  30  1   
 29  14  18  ar  
 30  14  19  ar  
 31  15  20  1   
 32  15  31  1   
 33  16  32  1   
 34  17  33  1   
 35  17  34  1   
 36  17  35  1   
 37  20  36  1   
@<TRIPOS>SUBSTRUCTURE
  1 ****   4 GROUP 4 **** **** 0

# MOE 2024.06 (io_trps.svl 2023.06)
