@<TRIPOS>MOLECULE
NONAME
42 43 1 0 0 
SMALL
USER_CHARGES


@<TRIPOS>ATOM
  1 O       -0.1530     0.9660     1.3240 O.2   1 <1>  -0.5700 
  2 C       -0.0580     2.0190     0.7450 C.2   1 <1>   0.5690 
  3 N       -1.1320     2.5540     0.1150 N.am  1 <1>  -0.7300 
  4 C        1.2930     2.7500     0.6970 C.3   1 <1>   0.1710 
  5 C       -1.1210     3.9010    -0.5110 C.3   1 <1>   0.1400 
  6 N        1.2220     4.1940     0.3100 N.3   1 <1>  -0.8100 
  7 C        0.3120     4.3630    -0.8440 C.3   1 <1>   0.1100 
  8 C        2.5670     4.7310     0.0700 C.3   1 <1>   0.1100 
  9 C        2.5630     6.2610     0.1110 C.3   1 <1>  -0.1600 
 10 C        3.9890     6.7970     0.0380 C.3   1 <1>   0.2090 
 11 N        3.9540     8.2710    -0.0120 N.pl3 1 <1>  -0.8690 
 12 C        5.0680     9.0580    -0.1900 C.ar  1 <1>   0.4100 
 13 N        6.1560     8.4210    -0.6230 N.ar  1 <1>  -0.6200 
 14 C        5.0220    10.4420     0.0730 C.ar  1 <1>   0.0860 
 15 C        7.2380     9.1500    -0.7990 C.ar  1 <1>   0.1600 
 16 C        3.8120    11.0930     0.5220 C.2   1 <1>   0.5440 
 17 C        6.1900    11.1730    -0.1190 C.ar  1 <1>  -0.1500 
 18 C        7.3110    10.5110    -0.5640 C.ar  1 <1>  -0.1500 
 19 O        3.0700    10.5730     1.3370 O.2   1 <1>  -0.5700 
 20 N        3.4760    12.3300     0.0350 N.am  1 <1>  -0.7300 
 21 C        2.2710    13.1110     0.4160 C.3   1 <1>   0.0600 
 22 H       -2.0250     2.0710     0.2230 H     1 <1>   0.3700 
 23 H        1.9150     2.2220    -0.0040 H     1 <1>   0.0800 
 24 H        1.7470     2.6710     1.6680 H     1 <1>   0.0800 
 25 H       -1.5660     4.6060     0.1700 H     1 <1>   0.0800 
 26 H       -1.7090     3.8840    -1.4110 H     1 <1>   0.0800 
 27 H        0.2700     5.3980    -1.1320 H     1 <1>   0.0800 
 28 H        0.6810     3.8000    -1.6850 H     1 <1>   0.0800 
 29 H        2.9440     4.3800    -0.8770 H     1 <1>   0.0800 
 30 H        3.2250     4.3760     0.8460 H     1 <1>   0.0800 
 31 H        2.1090     6.5890     1.0290 H     1 <1>   0.0800 
 32 H        2.0120     6.6520    -0.7230 H     1 <1>   0.0800 
 33 H        4.4770     6.4250    -0.8480 H     1 <1>   0.0800 
 34 H        4.5550     6.4840     0.8990 H     1 <1>   0.0800 
 35 H        3.2250     8.7040     0.5780 H     1 <1>   0.4000 
 36 H        8.1190     8.6370    -1.1480 H     1 <1>   0.1500 
 37 H        6.2190    12.2290     0.0820 H     1 <1>   0.1500 
 38 H        8.2350    11.0370    -0.7260 H     1 <1>   0.1500 
 39 H        4.0210    12.7110    -0.7410 H     1 <1>   0.3700 
 40 H        1.7720    12.6510     1.2520 H     1 <1>   0.0800 
 41 H        1.5880    13.1530    -0.4140 H     1 <1>   0.0800 
 42 H        2.5570    14.1100     0.6930 H     1 <1>   0.0800 
@<TRIPOS>BOND
  1   1   2  2   
  2   2   3  am  
  3   2   4  1   
  4   3   5  1   
  5   3  22  1   
  6   4   6  1   
  7   4  23  1   
  8   4  24  1   
  9   5   7  1   
 10   5  25  1   
 11   5  26  1   
 12   6   7  1   
 13   6   8  1   
 14   7  27  1   
 15   7  28  1   
 16   8   9  1   
 17   8  29  1   
 18   8  30  1   
 19   9  10  1   
 20   9  31  1   
 21   9  32  1   
 22  10  11  1   
 23  10  33  1   
 24  10  34  1   
 25  11  12  1   
 26  11  35  1   
 27  12  13  ar  
 28  12  14  ar  
 29  13  15  ar  
 30  14  16  1   
 31  14  17  ar  
 32  15  18  ar  
 33  15  36  1   
 34  16  19  2   
 35  16  20  am  
 36  17  18  ar  
 37  17  37  1   
 38  18  38  1   
 39  20  21  1   
 40  20  39  1   
 41  21  40  1   
 42  21  41  1   
 43  21  42  1   
@<TRIPOS>SUBSTRUCTURE
  1 ****  10 GROUP 4 **** **** 0

# MOE 2024.06 (io_trps.svl 2023.06)
