@<TRIPOS>MOLECULE
NONAME
48 51 1 0 0 
SMALL
USER_CHARGES


@<TRIPOS>ATOM
  1 S       -0.3700     0.7430    -0.6150 S.3   1 <1>  -0.0800 
  2 C       -0.7350     2.0400     0.5290 C.2   1 <1>   0.0410 
  3 C       -1.7910    -0.1710    -0.1420 C.2   1 <1>  -0.1100 
  4 C        0.1410     3.1800     0.6220 C.2   1 <1>   0.2880 
  5 C       -1.8760     1.7260     1.1890 C.2   1 <1>  -0.1500 
  6 C       -2.4720     0.4840     0.8150 C.2   1 <1>  -0.1500 
  7 N       -0.0650     4.1820     1.4440 N.2   1 <1>  -0.7070 
  8 C        1.3070     3.3890    -0.1250 C.2   1 <1>  -0.1500 
  9 N        0.9570     5.0290     1.2290 N.pl3 1 <1>   0.3000 
 10 C        1.8020     4.5720     0.2890 C.2   1 <1>  -0.3320 
 11 C        3.0300     5.3510    -0.1210 C.3   1 <1>   0.2900 
 12 N        2.6870     6.7760    -0.2010 N.3   1 <1>  -0.8100 
 13 C        3.9120     7.6020    -0.2780 C.3   1 <1>   0.2900 
 14 C        1.8080     7.0430    -1.3570 C.3   1 <1>   0.0300 
 15 C        3.6470     9.0630     0.0530 C.2   1 <1>  -0.0400 
 16 O        4.6090     9.9340    -0.1810 O.3   1 <1>  -0.2800 
 17 C        2.5710     9.6860     0.5800 C.2   1 <1>  -0.1500 
 18 C        4.1820    11.1280     0.1910 C.2   1 <1>  -0.0400 
 19 C        2.9200    11.0390     0.6690 C.2   1 <1>  -0.1500 
 20 C        5.1170    12.3210     0.0200 C.3   1 <1>   0.3800 
 21 O        6.1040    12.2720     1.0120 O.3   1 <1>  -0.5600 
 22 C        4.3910    13.6730     0.1200 C.3   1 <1>  -0.1600 
 23 C        7.1200    13.2170     0.8770 C.3   1 <1>   0.1200 
 24 C        5.3820    14.8400     0.0140 C.3   1 <1>  -0.1600 
 25 C        6.5290    14.6270     1.0080 C.3   1 <1>  -0.1600 
 26 H       -1.9660    -1.1110    -0.6350 H     1 <1>   0.1500 
 27 H       -2.3160     2.3540     1.9440 H     1 <1>   0.1500 
 28 H       -3.3810     0.1440     1.2810 H     1 <1>   0.1500 
 29 H        1.6990     2.7200    -0.8690 H     1 <1>   0.1500 
 30 H        1.0590     5.9370     1.7010 H     1 <1>   0.2700 
 31 H        3.4090     4.9950    -1.0650 H     1 <1>   0.0800 
 32 H        3.7890     5.2030     0.6300 H     1 <1>   0.0800 
 33 H        4.3410     7.5320    -1.2630 H     1 <1>   0.0800 
 34 H        4.6410     7.2440     0.4290 H     1 <1>   0.0800 
 35 H        0.8890     6.4880    -1.2660 H     1 <1>   0.0800 
 36 H        2.2930     6.7600    -2.2760 H     1 <1>   0.0800 
 37 H        1.5580     8.0890    -1.4060 H     1 <1>   0.0800 
 38 H        1.6350     9.2540     0.8830 H     1 <1>   0.1500 
 39 H        2.2830    11.8160     1.0520 H     1 <1>   0.1500 
 40 H        5.6020    12.2370    -0.9370 H     1 <1>   0.0800 
 41 H        3.8770    13.7220     1.0630 H     1 <1>   0.0800 
 42 H        3.6580    13.7430    -0.6640 H     1 <1>   0.0800 
 43 H        7.5950    13.0780    -0.0790 H     1 <1>   0.0800 
 44 H        7.8400    13.0360     1.6550 H     1 <1>   0.0800 
 45 H        4.8830    15.7720     0.2160 H     1 <1>   0.0800 
 46 H        5.7800    14.8800    -0.9860 H     1 <1>   0.0800 
 47 H        7.3000    15.3580     0.8420 H     1 <1>   0.0800 
 48 H        6.1680    14.7540     2.0140 H     1 <1>   0.0800 
@<TRIPOS>BOND
  1   1   2  1   
  2   1   3  1   
  3   2   4  1   
  4   2   5  2   
  5   3   6  2   
  6   3  26  1   
  7   4   7  2   
  8   4   8  1   
  9   5   6  1   
 10   5  27  1   
 11   6  28  1   
 12   7   9  1   
 13   8  10  2   
 14   8  29  1   
 15   9  10  1   
 16   9  30  1   
 17  10  11  1   
 18  11  12  1   
 19  11  31  1   
 20  11  32  1   
 21  12  13  1   
 22  12  14  1   
 23  13  15  1   
 24  13  33  1   
 25  13  34  1   
 26  14  35  1   
 27  14  36  1   
 28  14  37  1   
 29  15  16  1   
 30  15  17  2   
 31  16  18  1   
 32  17  19  1   
 33  17  38  1   
 34  18  19  2   
 35  18  20  1   
 36  19  39  1   
 37  20  21  1   
 38  20  22  1   
 39  20  40  1   
 40  21  23  1   
 41  22  24  1   
 42  22  41  1   
 43  22  42  1   
 44  23  25  1   
 45  23  43  1   
 46  23  44  1   
 47  24  25  1   
 48  24  45  1   
 49  24  46  1   
 50  25  47  1   
 51  25  48  1   
@<TRIPOS>SUBSTRUCTURE
  1 ****  12 GROUP 4 **** **** 0

# MOE 2024.06 (io_trps.svl 2023.06)
