@<TRIPOS>MOLECULE
NONAME
43 46 1 0 0 
SMALL
USER_CHARGES


@<TRIPOS>ATOM
  1 O       -0.6950     0.0910    -0.5500 O.2   1 <1>  -0.5700 
  2 C       -1.5740     0.7280    -0.0040 C.2   1 <1>   0.5440 
  3 N       -2.6920     0.0600     0.4430 N.am  1 <1>  -0.6600 
  4 C       -1.4360     2.1660     0.1360 C.ar  1 <1>   0.0860 
  5 C       -2.7080    -1.4310     0.5890 C.3   1 <1>   0.1400 
  6 C       -4.0680     0.6400     0.3700 C.3   1 <1>   0.1400 
  7 C       -0.8660     2.9510    -0.8550 C.ar  1 <1>  -0.1500 
  8 C       -1.8510     2.8600     1.2640 C.ar  1 <1>  -0.1500 
  9 C       -3.6340    -2.0770    -0.4570 C.3   1 <1>   0.3440 
 10 C       -4.9310    -0.1170    -0.6670 C.3   1 <1>   0.2950 
 11 C       -0.7650     4.3190    -0.6920 C.ar  1 <1>   0.1600 
 12 C       -1.7060     4.2330     1.3320 C.ar  1 <1>   0.1600 
 13 O       -4.9090    -1.4890    -0.3980 O.3   1 <1>  -0.5600 
 14 C       -3.7480    -3.5790    -0.2150 C.ar  1 <1>  -0.1440 
 15 C       -6.4100     0.3060    -0.7030 C.3   1 <1>  -0.1950 
 16 N       -1.1790     4.9790     0.3770 N.ar  1 <1>  -0.6200 
 17 C       -2.8380    -4.4380    -0.8160 C.ar  1 <1>  -0.1500 
 18 C       -4.7340    -4.1120     0.6050 C.ar  1 <1>  -0.1500 
 19 C       -6.8860     1.6960    -0.4020 C.3   1 <1>  -0.2000 
 20 C       -7.2360     0.5610     0.5200 C.3   1 <1>  -0.2000 
 21 C       -2.9110    -5.8030    -0.6010 C.ar  1 <1>  -0.1500 
 22 C       -4.8080    -5.4770     0.8210 C.ar  1 <1>  -0.1500 
 23 C       -3.8960    -6.3240     0.2180 C.ar  1 <1>  -0.1500 
 24 H       -1.7170    -1.8350     0.4830 H     1 <1>   0.0800 
 25 H       -3.0590    -1.6880     1.5730 H     1 <1>   0.0800 
 26 H       -4.5260     0.5740     1.3400 H     1 <1>   0.0800 
 27 H       -4.0230     1.6760     0.0900 H     1 <1>   0.0800 
 28 H       -0.5000     2.4870    -1.7530 H     1 <1>   0.1500 
 29 H       -2.2830     2.3260     2.0900 H     1 <1>   0.1500 
 30 H       -3.2360    -1.9080    -1.4420 H     1 <1>   0.0800 
 31 H       -4.5110     0.0360    -1.6460 H     1 <1>   0.0800 
 32 H       -0.3190     4.9040    -1.4800 H     1 <1>   0.1500 
 33 H       -2.0380     4.7470     2.2190 H     1 <1>   0.1500 
 34 H       -6.9120    -0.1930    -1.5140 H     1 <1>   0.1000 
 35 H       -2.0650    -4.0480    -1.4550 H     1 <1>   0.1500 
 36 H       -5.4520    -3.4630     1.0770 H     1 <1>   0.1500 
 37 H       -6.2100     2.4500    -0.0370 H     1 <1>   0.1000 
 38 H       -7.6640     2.1160    -1.0170 H     1 <1>   0.1000 
 39 H       -8.2480     0.1920     0.5320 H     1 <1>   0.1000 
 40 H       -6.7780     0.5130     1.4920 H     1 <1>   0.1000 
 41 H       -2.2000    -6.4610    -1.0720 H     1 <1>   0.1500 
 42 H       -5.5780    -5.8790     1.4570 H     1 <1>   0.1500 
 43 H       -3.9530    -7.3860     0.3860 H     1 <1>   0.1500 
@<TRIPOS>BOND
  1   1   2  2   
  2   2   3  am  
  3   2   4  1   
  4   3   5  1   
  5   3   6  1   
  6   4   7  ar  
  7   4   8  ar  
  8   5   9  1   
  9   5  24  1   
 10   5  25  1   
 11   6  10  1   
 12   6  26  1   
 13   6  27  1   
 14   7  11  ar  
 15   7  28  1   
 16   8  12  ar  
 17   8  29  1   
 18   9  13  1   
 19   9  14  1   
 20   9  30  1   
 21  10  13  1   
 22  10  15  1   
 23  10  31  1   
 24  11  16  ar  
 25  11  32  1   
 26  12  16  ar  
 27  12  33  1   
 28  14  17  ar  
 29  14  18  ar  
 30  15  19  1   
 31  15  20  1   
 32  15  34  1   
 33  17  21  ar  
 34  17  35  1   
 35  18  22  ar  
 36  18  36  1   
 37  19  20  1   
 38  19  37  1   
 39  19  38  1   
 40  20  39  1   
 41  20  40  1   
 42  21  23  ar  
 43  21  41  1   
 44  22  23  ar  
 45  22  42  1   
 46  23  43  1   
@<TRIPOS>SUBSTRUCTURE
  1 ****   3 GROUP 4 **** **** 0

# MOE 2024.06 (io_trps.svl 2023.06)
