@<TRIPOS>MOLECULE
NONAME
49 51 1 0 0 
SMALL
USER_CHARGES


@<TRIPOS>ATOM
  1 CL      -1.1510    -0.0830    -1.3670 Cl    1 <1>  -0.1770 
  2 C       -2.7900     0.3810    -1.0030 C.ar  1 <1>   0.1770 
  3 C       -3.4370     1.2910    -1.8170 C.ar  1 <1>  -0.1500 
  4 C       -3.4240    -0.1660     0.0960 C.ar  1 <1>  -0.1500 
  5 C       -4.7410     1.6520    -1.5260 C.ar  1 <1>  -0.1500 
  6 C       -4.7270     0.2030     0.3780 C.ar  1 <1>  -0.1500 
  7 C       -5.4170     1.1110    -0.4290 C.ar  1 <1>   0.0530 
  8 C       -6.7810     1.4790    -0.1510 C.2   1 <1>   0.0870 
  9 O       -7.2130     2.6850    -0.4220 O.3   1 <1>  -0.0190 
 10 C       -7.8280     0.7960     0.3830 C.2   1 <1>  -0.0860 
 11 N       -8.4660     2.8630    -0.0950 N.2   1 <1>  -0.4100 
 12 C       -8.8540     1.7410     0.4000 C.2   1 <1>   0.3720 
 13 C       -7.9690    -0.5550     0.8260 C.2   1 <1>   0.7160 
 14 N      -10.1330     1.4840     0.8810 N.pl3 1 <1>  -0.8520 
 15 O       -8.5690    -0.7880     1.8620 O.2   1 <1>  -0.5700 
 16 N       -7.4680    -1.6160     0.1000 N.am  1 <1>  -0.6600 
 17 C      -10.9120     2.6420     1.3940 C.3   1 <1>   0.2090 
 18 C       -7.4500    -3.0010     0.6690 C.3   1 <1>   0.1400 
 19 C       -7.2420    -1.5380    -1.3780 C.3   1 <1>   0.1400 
 20 C      -12.3370     2.2010     1.7290 C.3   1 <1>   0.1200 
 21 C       -8.5850    -3.8490     0.0670 C.3   1 <1>   0.2000 
 22 C       -7.7820    -2.7830    -2.1010 C.3   1 <1>  -0.1600 
 23 O      -13.0230     3.2780     2.2870 O.3   1 <1>  -0.5600 
 24 O       -8.1500    -5.1660     0.0020 O.3   1 <1>  -0.6800 
 25 C       -8.9830    -3.3760    -1.3570 C.3   1 <1>   0.2000 
 26 C      -14.3470     2.9960     2.6080 C.3   1 <1>   0.0400 
 27 O       -9.4710    -4.4380    -2.1170 O.3   1 <1>  -0.6800 
 28 H       -2.9230     1.7090    -2.6640 H     1 <1>   0.1500 
 29 H       -2.9000    -0.8680     0.7190 H     1 <1>   0.1500 
 30 H       -5.2460     2.3620    -2.1590 H     1 <1>   0.1500 
 31 H       -5.2140    -0.2190     1.2400 H     1 <1>   0.1500 
 32 H      -10.0950     0.7220     1.5740 H     1 <1>   0.4000 
 33 H      -10.4350     3.0310     2.2770 H     1 <1>   0.0800 
 34 H      -10.9490     3.4140     0.6440 H     1 <1>   0.0800 
 35 H       -6.5010    -3.4500     0.4320 H     1 <1>   0.0800 
 36 H       -7.5470    -2.9790     1.7410 H     1 <1>   0.0800 
 37 H       -7.7470    -0.6720    -1.7720 H     1 <1>   0.0800 
 38 H       -6.1890    -1.4320    -1.5780 H     1 <1>   0.0800 
 39 H      -12.3190     1.4000     2.4470 H     1 <1>   0.0800 
 40 H      -12.8450     1.8930     0.8320 H     1 <1>   0.0800 
 41 H       -9.4430    -3.8160     0.7150 H     1 <1>   0.0800 
 42 H       -7.0000    -3.5190    -2.1620 H     1 <1>   0.0800 
 43 H       -8.0630    -2.5130    -3.1030 H     1 <1>   0.0800 
 44 H       -8.3760    -5.4930    -0.8980 H     1 <1>   0.4000 
 45 H       -9.7550    -2.6290    -1.2880 H     1 <1>   0.0800 
 46 H      -14.7840     3.8840     3.0290 H     1 <1>   0.0800 
 47 H      -14.3760     2.2000     3.3310 H     1 <1>   0.0800 
 48 H      -14.8780     2.7190     1.7140 H     1 <1>   0.0800 
 49 H      -10.3420    -4.7270    -1.7760 H     1 <1>   0.4000 
@<TRIPOS>BOND
  1   1   2  1   
  2   2   3  ar  
  3   2   4  ar  
  4   3   5  ar  
  5   3  28  1   
  6   4   6  ar  
  7   4  29  1   
  8   5   7  ar  
  9   5  30  1   
 10   6   7  ar  
 11   6  31  1   
 12   7   8  1   
 13   8   9  1   
 14   8  10  2   
 15   9  11  1   
 16  10  12  1   
 17  10  13  1   
 18  11  12  2   
 19  12  14  1   
 20  13  15  2   
 21  13  16  am  
 22  14  17  1   
 23  14  32  1   
 24  16  18  1   
 25  16  19  1   
 26  17  20  1   
 27  17  33  1   
 28  17  34  1   
 29  18  21  1   
 30  18  35  1   
 31  18  36  1   
 32  19  22  1   
 33  19  37  1   
 34  19  38  1   
 35  20  23  1   
 36  20  39  1   
 37  20  40  1   
 38  21  24  1   
 39  21  25  1   
 40  21  41  1   
 41  22  25  1   
 42  22  42  1   
 43  22  43  1   
 44  23  26  1   
 45  24  44  1   
 46  25  27  1   
 47  25  45  1   
 48  26  46  1   
 49  26  47  1   
 50  26  48  1   
 51  27  49  1   
@<TRIPOS>SUBSTRUCTURE
  1 ****  10 GROUP 4 **** **** 0

# MOE 2024.06 (io_trps.svl 2023.06)
