@<TRIPOS>MOLECULE
NONAME
51 53 1 0 0 
SMALL
USER_CHARGES


@<TRIPOS>ATOM
  1 O       -0.3140     0.6490     0.2460 O.2   1 <1>  -0.5700 
  2 C       -0.3230     1.7640    -0.2220 C.2   1 <1>   0.5690 
  3 N       -0.7940     2.8470     0.4730 N.am  1 <1>  -0.6600 
  4 C        0.1990     1.9500    -1.6490 C.3   1 <1>   0.1810 
  5 C       -0.8160     4.2130    -0.1450 C.3   1 <1>   0.3640 
  6 C       -1.2030     2.7650     1.9050 C.3   1 <1>   0.0600 
  7 O        0.6160     3.2690    -1.9090 O.3   1 <1>  -0.5600 
  8 C       -2.1710     4.9100     0.0460 C.ar  1 <1>  -0.1430 
  9 C       -0.3770     4.2400    -1.6300 C.3   1 <1>   0.2610 
 10 C       -3.4120     4.3430    -0.2640 C.ar  1 <1>  -0.1430 
 11 C       -2.1330     6.2010     0.5590 C.ar  1 <1>  -0.1500 
 12 C        0.0690     5.6570    -2.0200 C.2   1 <1>   0.5690 
 13 C       -4.5690     5.0770    -0.0440 C.ar  1 <1>  -0.1500 
 14 C       -3.5830     2.9370    -0.8310 C.3   1 <1>  -0.0960 
 15 C       -3.2920     6.9230     0.7710 C.ar  1 <1>  -0.1500 
 16 O       -0.6340     6.2390    -2.8150 O.2   1 <1>  -0.5700 
 17 N        1.1890     6.2700    -1.4900 N.am  1 <1>  -0.6600 
 18 C       -4.5140     6.3590     0.4700 C.ar  1 <1>  -0.1500 
 19 C        1.4820     7.7020    -1.7840 C.3   1 <1>   0.1400 
 20 C        2.2530     5.5960    -0.6890 C.3   1 <1>   0.1400 
 21 C        1.6690     8.4700    -0.4740 C.3   1 <1>  -0.1600 
 22 C        2.4530     6.3410     0.6320 C.3   1 <1>  -0.1600 
 23 C        2.7540     7.8200     0.3920 C.3   1 <1>   0.2000 
 24 O        2.7800     8.4340     1.6400 O.3   1 <1>  -0.5600 
 25 C        3.5230     9.6100     1.7160 C.3   1 <1>   0.0400 
 26 H       -0.5690     1.6890    -2.3530 H     1 <1>   0.0800 
 27 H        1.0450     1.3050    -1.8040 H     1 <1>   0.0800 
 28 H       -0.0910     4.7850     0.4020 H     1 <1>   0.0800 
 29 H       -0.6200     3.4520     2.4920 H     1 <1>   0.0800 
 30 H       -1.0520     1.7700     2.2880 H     1 <1>   0.0800 
 31 H       -2.2450     3.0150     2.0060 H     1 <1>   0.0800 
 32 H       -1.2240     4.0070    -2.2480 H     1 <1>   0.0800 
 33 H       -1.1920     6.6690     0.7970 H     1 <1>   0.1500 
 34 H       -5.5310     4.6540    -0.2720 H     1 <1>   0.1500 
 35 H       -4.5740     2.8010    -1.2240 H     1 <1>   0.0800 
 36 H       -3.4290     2.2070    -0.0580 H     1 <1>   0.0800 
 37 H       -2.8920     2.7510    -1.6290 H     1 <1>   0.0800 
 38 H       -3.2410     7.9220     1.1670 H     1 <1>   0.1500 
 39 H       -5.4200     6.9150     0.6320 H     1 <1>   0.1500 
 40 H        2.3770     7.7610    -2.3800 H     1 <1>   0.0800 
 41 H        0.6810     8.1510    -2.3460 H     1 <1>   0.0800 
 42 H        2.0100     4.5710    -0.4830 H     1 <1>   0.0800 
 43 H        3.1690     5.6050    -1.2550 H     1 <1>   0.0800 
 44 H        0.7350     8.4790     0.0580 H     1 <1>   0.0800 
 45 H        1.9390     9.4830    -0.7080 H     1 <1>   0.0800 
 46 H        3.2700     5.8950     1.1690 H     1 <1>   0.0800 
 47 H        1.5640     6.2470     1.2300 H     1 <1>   0.0800 
 48 H        3.7220     7.9160    -0.0720 H     1 <1>   0.0800 
 49 H        3.4840     9.9620     2.7310 H     1 <1>   0.0800 
 50 H        3.0960    10.3500     1.0630 H     1 <1>   0.0800 
 51 H        4.5440     9.4050     1.4440 H     1 <1>   0.0800 
@<TRIPOS>BOND
  1   1   2  2   
  2   2   3  am  
  3   2   4  1   
  4   3   5  1   
  5   3   6  1   
  6   4   7  1   
  7   4  26  1   
  8   4  27  1   
  9   5   8  1   
 10   5   9  1   
 11   5  28  1   
 12   6  29  1   
 13   6  30  1   
 14   6  31  1   
 15   7   9  1   
 16   8  10  ar  
 17   8  11  ar  
 18   9  12  1   
 19   9  32  1   
 20  10  13  ar  
 21  10  14  1   
 22  11  15  ar  
 23  11  33  1   
 24  12  16  2   
 25  12  17  am  
 26  13  18  ar  
 27  13  34  1   
 28  14  35  1   
 29  14  36  1   
 30  14  37  1   
 31  15  18  ar  
 32  15  38  1   
 33  17  19  1   
 34  17  20  1   
 35  18  39  1   
 36  19  21  1   
 37  19  40  1   
 38  19  41  1   
 39  20  22  1   
 40  20  42  1   
 41  20  43  1   
 42  21  23  1   
 43  21  44  1   
 44  21  45  1   
 45  22  23  1   
 46  22  46  1   
 47  22  47  1   
 48  23  24  1   
 49  23  48  1   
 50  24  25  1   
 51  25  49  1   
 52  25  50  1   
 53  25  51  1   
@<TRIPOS>SUBSTRUCTURE
  1 ****   5 GROUP 4 **** **** 0

# MOE 2024.06 (io_trps.svl 2023.06)
