@<TRIPOS>MOLECULE
NONAME
37 39 1 0 0 
SMALL
USER_CHARGES


@<TRIPOS>ATOM
  1 S       -1.1510    -0.6220    -1.6110 S.3   1 <1>  -0.0800 
  2 C       -1.8580    -0.9420    -0.0300 C.2   1 <1>  -0.1400 
  3 C       -1.3670     1.1070    -1.4090 C.2   1 <1>  -0.1100 
  4 C       -2.2110     0.2140     0.5650 C.2   1 <1>  -0.1500 
  5 C       -1.9730    -2.3860     0.4330 C.3   1 <1>   0.3800 
  6 C       -1.9330     1.3790    -0.2200 C.2   1 <1>  -0.1500 
  7 O       -0.6930    -2.9010     0.4600 O.3   1 <1>  -0.6800 
  8 C       -2.8600    -3.2580    -0.4820 C.3   1 <1>  -0.0800 
  9 C       -4.2830    -2.6730    -0.6020 C.3   1 <1>  -0.1600 
 10 C       -2.9520    -4.7110     0.0300 C.3   1 <1>  -0.1600 
 11 C       -5.1940    -3.5460    -1.4690 C.3   1 <1>   0.2090 
 12 C       -3.8630    -5.5770    -0.8430 C.3   1 <1>   0.2090 
 13 N       -5.2000    -4.9420    -0.9590 N.pl3 1 <1>  -0.8380 
 14 C       -6.2610    -5.4130    -0.1860 C.ar  1 <1>   0.4100 
 15 N       -6.8420    -4.5220     0.6190 N.ar  1 <1>  -0.6200 
 16 C       -6.7040    -6.7480    -0.2360 C.ar  1 <1>   0.1900 
 17 C       -7.8450    -4.9620     1.3650 C.ar  1 <1>   0.1600 
 18 F       -6.1350    -7.6120    -1.0460 F     1 <1>  -0.1900 
 19 C       -7.7440    -7.1990     0.5390 C.ar  1 <1>  -0.1500 
 20 C       -8.3280    -6.2600     1.3680 C.ar  1 <1>  -0.1500 
 21 H       -1.0420     1.7440    -2.2130 H     1 <1>   0.1500 
 22 H       -2.6630     0.3030     1.5370 H     1 <1>   0.1500 
 23 H       -2.3540    -2.4180     1.4390 H     1 <1>   0.0800 
 24 H       -2.1710     2.3610     0.1490 H     1 <1>   0.1500 
 25 H       -0.2020    -2.5150    -0.2900 H     1 <1>   0.4000 
 26 H       -2.4260    -3.2700    -1.4670 H     1 <1>   0.0800 
 27 H       -4.2480    -1.6900    -1.0350 H     1 <1>   0.0800 
 28 H       -4.7280    -2.5860     0.3740 H     1 <1>   0.0800 
 29 H       -3.3360    -4.7200     1.0350 H     1 <1>   0.0800 
 30 H       -1.9740    -5.1570     0.0500 H     1 <1>   0.0800 
 31 H       -4.8400    -3.5480    -2.4850 H     1 <1>   0.0800 
 32 H       -6.1950    -3.1480    -1.4670 H     1 <1>   0.0800 
 33 H       -3.9490    -6.5560    -0.4050 H     1 <1>   0.0800 
 34 H       -3.4400    -5.6850    -1.8270 H     1 <1>   0.0800 
 35 H       -8.3110    -4.2400     2.0140 H     1 <1>   0.1500 
 36 H       -8.0780    -8.2190     0.4960 H     1 <1>   0.1500 
 37 H       -9.1490    -6.5320     2.0070 H     1 <1>   0.1500 
@<TRIPOS>BOND
  1   1   2  1   
  2   1   3  1   
  3   2   4  2   
  4   2   5  1   
  5   3   6  2   
  6   3  21  1   
  7   4   6  1   
  8   4  22  1   
  9   5   7  1   
 10   5   8  1   
 11   5  23  1   
 12   6  24  1   
 13   7  25  1   
 14   8   9  1   
 15   8  10  1   
 16   8  26  1   
 17   9  11  1   
 18   9  27  1   
 19   9  28  1   
 20  10  12  1   
 21  10  29  1   
 22  10  30  1   
 23  11  13  1   
 24  11  31  1   
 25  11  32  1   
 26  12  13  1   
 27  12  33  1   
 28  12  34  1   
 29  13  14  1   
 30  14  15  ar  
 31  14  16  ar  
 32  15  17  ar  
 33  16  18  1   
 34  16  19  ar  
 35  17  20  ar  
 36  17  35  1   
 37  19  20  ar  
 38  19  36  1   
 39  20  37  1   
@<TRIPOS>SUBSTRUCTURE
  1 ****   9 GROUP 4 **** **** 0

# MOE 2024.06 (io_trps.svl 2023.06)
