@<TRIPOS>MOLECULE
NONAME
54 57 1 0 0 
SMALL
USER_CHARGES


@<TRIPOS>ATOM
  1 O        1.3690    -0.3980    -0.2230 O.2   1 <1>  -0.5700 
  2 C        0.3000    -0.0360    -0.6550 C.2   1 <1>   0.5690 
  3 N       -0.8120    -0.8460    -0.6040 N.am  1 <1>  -0.6600 
  4 C        0.2480     1.3640    -1.2550 C.3   1 <1>   0.0440 
  5 C       -2.1650    -0.4770    -1.0990 C.3   1 <1>   0.1400 
  6 C       -0.7590    -2.1770     0.0600 C.3   1 <1>   0.1400 
  7 C       -0.6490     2.3280    -0.4820 C.ar  1 <1>  -0.1440 
  8 C       -3.1390    -0.4200     0.0770 C.3   1 <1>  -0.1600 
  9 C       -1.7490    -2.2210     1.2280 C.3   1 <1>  -0.1600 
 10 C       -0.6870     2.3140     0.9070 C.ar  1 <1>   0.1600 
 11 C       -1.4440     3.2330    -1.1570 C.ar  1 <1>  -0.1500 
 12 C       -3.1700    -1.7050     0.9270 C.3   1 <1>   0.4240 
 13 N       -1.4440     3.1050     1.6510 N.ar  1 <1>  -0.6200 
 14 C       -2.2360     4.0650    -0.3960 C.ar  1 <1>  -0.1500 
 15 O       -3.6470    -1.3320     2.1960 O.3   1 <1>  -0.5600 
 16 C       -4.0870    -2.7970     0.3070 C.ar  1 <1>  -0.1430 
 17 C       -2.1990     3.9610     0.9840 C.ar  1 <1>   0.1600 
 18 C       -5.0150    -1.1210     2.3400 C.3   1 <1>   0.1200 
 19 C       -5.2910    -3.1440     0.9130 C.ar  1 <1>  -0.1430 
 20 C       -3.7530    -3.4560    -0.8710 C.ar  1 <1>  -0.1500 
 21 C       -5.7200    -2.4630     2.1980 C.3   1 <1>  -0.0170 
 22 C       -6.1170    -4.1100     0.3600 C.ar  1 <1>  -0.1500 
 23 C       -4.5600    -4.4270    -1.4360 C.ar  1 <1>   0.0820 
 24 C       -5.7750    -4.7610    -0.8210 C.ar  1 <1>   0.0820 
 25 O       -4.0680    -4.9730    -2.5850 O.3   1 <1>  -0.3620 
 26 O       -6.6010    -5.6890    -1.3880 O.3   1 <1>  -0.3620 
 27 C       -4.3570    -6.3040    -2.9500 C.3   1 <1>   0.0400 
 28 C       -7.8960    -5.9470    -0.8920 C.3   1 <1>   0.0400 
 29 H       -0.0760     1.2820    -2.2750 H     1 <1>   0.0800 
 30 H        1.2450     1.7670    -1.2690 H     1 <1>   0.0800 
 31 H       -2.4900    -1.1990    -1.8250 H     1 <1>   0.0800 
 32 H       -2.1550     0.4770    -1.5920 H     1 <1>   0.0800 
 33 H        0.2290    -2.3700     0.4430 H     1 <1>   0.0800 
 34 H       -0.9660    -2.9460    -0.6580 H     1 <1>   0.0800 
 35 H       -4.1210    -0.2190    -0.3050 H     1 <1>   0.0800 
 36 H       -2.8490     0.4060     0.7020 H     1 <1>   0.0800 
 37 H       -1.3240    -1.6130     2.0070 H     1 <1>   0.0800 
 38 H       -1.8110    -3.2260     1.6000 H     1 <1>   0.0800 
 39 H       -0.0640     1.6130     1.4390 H     1 <1>   0.1500 
 40 H       -1.4510     3.2950    -2.2320 H     1 <1>   0.1500 
 41 H       -2.8760     4.7910    -0.8630 H     1 <1>   0.1500 
 42 H       -2.8210     4.6160     1.5690 H     1 <1>   0.1500 
 43 H       -5.3510    -0.4190     1.5980 H     1 <1>   0.0800 
 44 H       -5.1830    -0.7080     3.3190 H     1 <1>   0.0800 
 45 H       -2.8490    -3.2370    -1.3940 H     1 <1>   0.1500 
 46 H       -6.7830    -2.3030     2.2020 H     1 <1>   0.0800 
 47 H       -5.4680    -3.0860     3.0370 H     1 <1>   0.0800 
 48 H       -7.0310    -4.3440     0.8700 H     1 <1>   0.1500 
 49 H       -3.6190    -6.6240    -3.6630 H     1 <1>   0.0800 
 50 H       -5.3330    -6.3370    -3.3990 H     1 <1>   0.0800 
 51 H       -4.3180    -6.9260    -2.0730 H     1 <1>   0.0800 
 52 H       -8.3650    -6.6630    -1.5420 H     1 <1>   0.0800 
 53 H       -8.4590    -5.0300    -0.8920 H     1 <1>   0.0800 
 54 H       -7.8150    -6.3540     0.1000 H     1 <1>   0.0800 
@<TRIPOS>BOND
  1   1   2  2   
  2   2   3  am  
  3   2   4  1   
  4   3   5  1   
  5   3   6  1   
  6   4   7  1   
  7   4  29  1   
  8   4  30  1   
  9   5   8  1   
 10   5  31  1   
 11   5  32  1   
 12   6   9  1   
 13   6  33  1   
 14   6  34  1   
 15   7  10  ar  
 16   7  11  ar  
 17   8  12  1   
 18   8  35  1   
 19   8  36  1   
 20   9  12  1   
 21   9  37  1   
 22   9  38  1   
 23  10  13  ar  
 24  10  39  1   
 25  11  14  ar  
 26  11  40  1   
 27  12  15  1   
 28  12  16  1   
 29  13  17  ar  
 30  14  17  ar  
 31  14  41  1   
 32  15  18  1   
 33  16  19  ar  
 34  16  20  ar  
 35  17  42  1   
 36  18  21  1   
 37  18  43  1   
 38  18  44  1   
 39  19  21  1   
 40  19  22  ar  
 41  20  23  ar  
 42  20  45  1   
 43  21  46  1   
 44  21  47  1   
 45  22  24  ar  
 46  22  48  1   
 47  23  24  ar  
 48  23  25  1   
 49  24  26  1   
 50  25  27  1   
 51  26  28  1   
 52  27  49  1   
 53  27  50  1   
 54  27  51  1   
 55  28  52  1   
 56  28  53  1   
 57  28  54  1   
@<TRIPOS>SUBSTRUCTURE
  1 ****   8 GROUP 4 **** **** 0

# MOE 2024.06 (io_trps.svl 2023.06)
