@<TRIPOS>MOLECULE
NONAME
43 45 1 0 0 
SMALL
USER_CHARGES


@<TRIPOS>ATOM
  1 O       -0.8400    -1.1130    -0.6150 O.3   1 <1>  -0.6800 
  2 C        0.3840    -1.6080    -1.0350 C.3   1 <1>   0.1200 
  3 C        1.3420    -1.7840     0.1840 C.3   1 <1>   0.0000 
  4 C        2.7050    -2.4230    -0.1970 C.3   1 <1>   0.4230 
  5 C        1.6650    -0.3870     0.7750 C.3   1 <1>  -0.1600 
  6 C        0.7170    -2.6710     1.2850 C.3   1 <1>  -0.1600 
  7 N        2.6790    -3.9390    -0.3960 N.4   1 <1>  -0.9590 
  8 C        3.4220    -1.5640    -1.2640 C.3   1 <1>   0.2090 
  9 C        2.4550     0.5160    -0.1880 C.3   1 <1>   0.2090 
 10 C        0.5070    -4.1300     0.8360 C.3   1 <1>  -0.1600 
 11 C        1.3250    -4.5660    -0.3870 C.3   1 <1>   0.3430 
 12 C        3.4950    -4.4410    -1.5440 C.3   1 <1>   0.2630 
 13 N        3.6590    -0.1990    -0.7080 N.pl3 1 <1>  -0.8380 
 14 C        4.8460     0.0160    -0.0290 C.ar  1 <1>   0.4100 
 15 N        5.3300    -1.0050     0.6750 N.ar  1 <1>  -0.6200 
 16 C        5.4650     1.2610    -0.0980 C.ar  1 <1>  -0.1500 
 17 C        6.4570    -0.7650     1.3300 C.ar  1 <1>   0.1600 
 18 C        6.6340     1.4920     0.5870 C.ar  1 <1>  -0.1500 
 19 C        7.1380     0.4390     1.3220 C.ar  1 <1>  -0.1500 
 20 H       -1.4320    -0.9160    -1.3700 H     1 <1>   0.4000 
 21 H        0.1910    -2.5310    -1.5450 H     1 <1>   0.0800 
 22 H        0.7790    -0.9110    -1.7530 H     1 <1>   0.0800 
 23 H        3.3160    -2.2830     0.6790 H     1 <1>   0.0800 
 24 H        2.2490    -0.4940     1.6730 H     1 <1>   0.0800 
 25 H        0.7560     0.1170     1.0550 H     1 <1>   0.0800 
 26 H        1.3730    -2.6730     2.1390 H     1 <1>   0.0800 
 27 H       -0.2200    -2.2560     1.6200 H     1 <1>   0.0800 
 28 H        3.1350    -4.2890     0.4580 H     1 <1>   0.4500 
 29 H        2.8450    -1.4880    -2.1670 H     1 <1>   0.0800 
 30 H        4.3780    -1.9910    -1.5100 H     1 <1>   0.0800 
 31 H        2.7570     1.4090     0.3360 H     1 <1>   0.0800 
 32 H        1.8390     0.8250    -1.0140 H     1 <1>   0.0800 
 33 H       -0.5340    -4.2710     0.5960 H     1 <1>   0.0800 
 34 H        0.7220    -4.7870     1.6600 H     1 <1>   0.0800 
 35 H        0.8000    -4.2930    -1.2850 H     1 <1>   0.0800 
 36 H        1.4160    -5.6410    -0.3840 H     1 <1>   0.0800 
 37 H        3.0900    -4.0860    -2.4780 H     1 <1>   0.0800 
 38 H        3.4980    -5.5190    -1.5580 H     1 <1>   0.0800 
 39 H        4.5150    -4.1010    -1.4550 H     1 <1>   0.0800 
 40 H        5.0180     2.0320    -0.6960 H     1 <1>   0.1500 
 41 H        6.8660    -1.5760     1.9090 H     1 <1>   0.1500 
 42 H        7.1340     2.4450     0.5510 H     1 <1>   0.1500 
 43 H        8.0490     0.5510     1.8810 H     1 <1>   0.1500 
@<TRIPOS>BOND
  1   1   2  1   
  2   1  20  1   
  3   2   3  1   
  4   2  21  1   
  5   2  22  1   
  6   3   4  1   
  7   3   5  1   
  8   3   6  1   
  9   4   7  1   
 10   4   8  1   
 11   4  23  1   
 12   5   9  1   
 13   5  24  1   
 14   5  25  1   
 15   6  10  1   
 16   6  26  1   
 17   6  27  1   
 18   7  11  1   
 19   7  12  1   
 20   7  28  1   
 21   8  13  1   
 22   8  29  1   
 23   8  30  1   
 24   9  13  1   
 25   9  31  1   
 26   9  32  1   
 27  10  11  1   
 28  10  33  1   
 29  10  34  1   
 30  11  35  1   
 31  11  36  1   
 32  12  37  1   
 33  12  38  1   
 34  12  39  1   
 35  13  14  1   
 36  14  15  ar  
 37  14  16  ar  
 38  15  17  ar  
 39  16  18  ar  
 40  16  40  1   
 41  17  19  ar  
 42  17  41  1   
 43  18  19  ar  
 44  18  42  1   
 45  19  43  1   
@<TRIPOS>SUBSTRUCTURE
  1 ****   4 GROUP 4 **** **** 0

# MOE 2024.06 (io_trps.svl 2023.06)
