@<TRIPOS>MOLECULE
NONAME
47 49 1 0 0 
SMALL
USER_CHARGES


@<TRIPOS>ATOM
  1 O        1.4540     0.7460    -1.9300 O.2   1 <1>  -0.5700 
  2 C        1.6920    -0.2600    -1.3020 C.2   1 <1>   0.5690 
  3 N        2.5670    -0.2110    -0.2390 N.am  1 <1>  -0.6600 
  4 C        1.0410    -1.5580    -1.7780 C.3   1 <1>   0.1810 
  5 C        2.7970     1.0800     0.4890 C.3   1 <1>   0.1400 
  6 C        3.3100    -1.3880     0.3010 C.3   1 <1>   0.1400 
  7 O        0.5840    -2.3370    -0.6850 O.3   1 <1>  -0.3620 
  8 C        4.2520     1.6230     0.4440 C.3   1 <1>   0.4230 
  9 C        4.8330    -1.2250     0.1040 C.3   1 <1>  -0.0800 
 10 C        0.1940    -3.6270    -0.8500 C.ar  1 <1>   0.0820 
 11 N        5.0720     1.2110    -0.7650 N.4   1 <1>  -0.9590 
 12 C        5.0070     1.3450     1.7620 C.3   1 <1>   0.1200 
 13 C        5.5920    -0.9300     1.4060 C.3   1 <1>   0.1200 
 14 C        5.1850    -0.2660    -1.0470 C.3   1 <1>   0.3430 
 15 C        0.0520    -4.4080     0.2940 C.ar  1 <1>  -0.1440 
 16 C       -0.0590    -4.1820    -2.1030 C.ar  1 <1>  -0.1500 
 17 C        4.5420     1.8980    -1.9870 C.3   1 <1>   0.2630 
 18 O        4.9220     0.0160     2.1700 O.3   1 <1>  -0.5600 
 19 C       -0.3250    -5.7360     0.1710 C.ar  1 <1>  -0.1500 
 20 C        0.3020    -3.8210     1.6750 C.3   1 <1>  -0.0970 
 21 C       -0.4350    -5.5090    -2.2120 C.ar  1 <1>  -0.1500 
 22 C       -0.5650    -6.2860    -1.0760 C.ar  1 <1>  -0.1500 
 23 H        1.7560    -2.1340    -2.3340 H     1 <1>   0.0800 
 24 H        0.1930    -1.3290    -2.3980 H     1 <1>   0.0800 
 25 H        2.1490     1.8390     0.0860 H     1 <1>   0.0800 
 26 H        2.4960     0.9520     1.5150 H     1 <1>   0.0800 
 27 H        3.0670    -1.5200     1.3430 H     1 <1>   0.0800 
 28 H        2.9980    -2.2830    -0.2080 H     1 <1>   0.0800 
 29 H        4.1610     2.6960     0.4070 H     1 <1>   0.0800 
 30 H        5.1880    -2.1900    -0.2110 H     1 <1>   0.0800 
 31 H        6.0240     1.5570    -0.6000 H     1 <1>   0.4500 
 32 H        4.5580     1.9290     2.5470 H     1 <1>   0.0800 
 33 H        6.0430     1.6290     1.6940 H     1 <1>   0.0800 
 34 H        6.6030    -0.6010     1.2290 H     1 <1>   0.0800 
 35 H        5.6340    -1.8250     2.0040 H     1 <1>   0.0800 
 36 H        4.5350    -0.5110    -1.8720 H     1 <1>   0.0800 
 37 H        6.1910    -0.4760    -1.3700 H     1 <1>   0.0800 
 38 H        0.0220    -3.6020    -3.0020 H     1 <1>   0.1500 
 39 H        3.5410     1.5610    -2.2010 H     1 <1>   0.0800 
 40 H        5.1640     1.6830    -2.8400 H     1 <1>   0.0800 
 41 H        4.5170     2.9650    -1.8400 H     1 <1>   0.0800 
 42 H       -0.4350    -6.3520     1.0470 H     1 <1>   0.1500 
 43 H        0.0550    -4.5270     2.4480 H     1 <1>   0.0800 
 44 H       -0.3030    -2.9420     1.8130 H     1 <1>   0.0800 
 45 H        1.3360    -3.5490     1.7750 H     1 <1>   0.0800 
 46 H       -0.6290    -5.9380    -3.1800 H     1 <1>   0.1500 
 47 H       -0.8570    -7.3190    -1.1600 H     1 <1>   0.1500 
@<TRIPOS>BOND
  1   1   2  2   
  2   2   3  am  
  3   2   4  1   
  4   3   5  1   
  5   3   6  1   
  6   4   7  1   
  7   4  23  1   
  8   4  24  1   
  9   5   8  1   
 10   5  25  1   
 11   5  26  1   
 12   6   9  1   
 13   6  27  1   
 14   6  28  1   
 15   7  10  1   
 16   8  11  1   
 17   8  12  1   
 18   8  29  1   
 19   9  13  1   
 20   9  14  1   
 21   9  30  1   
 22  10  15  ar  
 23  10  16  ar  
 24  11  14  1   
 25  11  17  1   
 26  11  31  1   
 27  12  18  1   
 28  12  32  1   
 29  12  33  1   
 30  13  18  1   
 31  13  34  1   
 32  13  35  1   
 33  14  36  1   
 34  14  37  1   
 35  15  19  ar  
 36  15  20  1   
 37  16  21  ar  
 38  16  38  1   
 39  17  39  1   
 40  17  40  1   
 41  17  41  1   
 42  19  22  ar  
 43  19  42  1   
 44  20  43  1   
 45  20  44  1   
 46  20  45  1   
 47  21  22  ar  
 48  21  46  1   
 49  22  47  1   
@<TRIPOS>SUBSTRUCTURE
  1 ****   6 GROUP 4 **** **** 0

# MOE 2024.06 (io_trps.svl 2023.06)
