@<TRIPOS>MOLECULE
NONAME
43 45 1 0 0 
SMALL
USER_CHARGES


@<TRIPOS>ATOM
  1 CL       1.3920     1.1490     2.8640 Cl    1 <1>  -0.1230 
  2 C        2.4720     1.1170     1.4810 C.2   1 <1>   0.1230 
  3 C        2.1260     0.7600     0.1880 C.2   1 <1>   0.1390 
  4 C        3.7800     1.4280     1.4540 C.2   1 <1>  -0.3020 
  5 N        3.1510     0.8390    -0.6110 N.2   1 <1>  -0.7070 
  6 N        4.1730     1.2520     0.1740 N.pl3 1 <1>   0.3140 
  7 C        5.5270     1.4710    -0.3680 C.3   1 <1>   0.0960 
  8 C        5.7600     2.9580    -0.6580 C.3   1 <1>  -0.1600 
  9 C        7.1360     3.1800    -1.2800 C.3   1 <1>   0.2090 
 10 N        7.3680     4.6320    -1.4280 N.pl3 1 <1>  -0.8690 
 11 C        7.8860     5.4270    -0.4300 C.ar  1 <1>   0.4100 
 12 N        8.3370     4.8300     0.6650 N.ar  1 <1>  -0.6200 
 13 C        7.9100     6.8020    -0.6110 C.ar  1 <1>  -0.1500 
 14 C        8.8140     5.6290     1.6030 C.ar  1 <1>   0.1600 
 15 C        8.4210     7.6410     0.3600 C.ar  1 <1>   0.0860 
 16 C        8.8770     7.0030     1.5060 C.ar  1 <1>  -0.1500 
 17 C        8.4630     9.0790     0.1850 C.2   1 <1>   0.5440 
 18 O        7.4690     9.6630    -0.2030 O.2   1 <1>  -0.5700 
 19 N        9.6050     9.8050     0.4370 N.am  1 <1>  -0.6600 
 20 C       10.9710     9.2390     0.5060 C.3   1 <1>   0.1400 
 21 C        9.6510    11.2750     0.2690 C.3   1 <1>   0.1400 
 22 C       11.8840    10.3790     0.0700 C.3   1 <1>  -0.1600 
 23 C       11.1200    11.6460     0.4430 C.3   1 <1>  -0.1600 
 24 H        1.1410     0.4570    -0.1190 H     1 <1>   0.1500 
 25 H        4.4290     1.7540     2.2450 H     1 <1>   0.1500 
 26 H        5.6200     0.8970    -1.2720 H     1 <1>   0.0800 
 27 H        6.2450     1.1120     0.3460 H     1 <1>   0.0800 
 28 H        5.7000     3.5100     0.2640 H     1 <1>   0.0800 
 29 H        5.0030     3.3130    -1.3360 H     1 <1>   0.0800 
 30 H        7.1900     2.7120    -2.2490 H     1 <1>   0.0800 
 31 H        7.9040     2.7480    -0.6590 H     1 <1>   0.0800 
 32 H        6.7500     5.0970    -2.0960 H     1 <1>   0.4000 
 33 H        7.5260     7.2220    -1.5200 H     1 <1>   0.1500 
 34 H        9.1750     5.1560     2.5010 H     1 <1>   0.1500 
 35 H        9.2710     7.5860     2.3180 H     1 <1>   0.1500 
 36 H       11.0750     8.3830    -0.1390 H     1 <1>   0.0800 
 37 H       11.1860     8.9610     1.5230 H     1 <1>   0.0800 
 38 H        9.0250    11.7610     0.9970 H     1 <1>   0.0800 
 39 H        9.3120    11.5260    -0.7220 H     1 <1>   0.0800 
 40 H       12.0140    10.3320    -0.9970 H     1 <1>   0.0800 
 41 H       12.8480    10.3240     0.5440 H     1 <1>   0.0800 
 42 H       11.2970    11.8910     1.4760 H     1 <1>   0.0800 
 43 H       11.3940    12.4870    -0.1690 H     1 <1>   0.0800 
@<TRIPOS>BOND
  1   1   2  1   
  2   2   3  1   
  3   2   4  2   
  4   3   5  2   
  5   3  24  1   
  6   4   6  1   
  7   4  25  1   
  8   5   6  1   
  9   6   7  1   
 10   7   8  1   
 11   7  26  1   
 12   7  27  1   
 13   8   9  1   
 14   8  28  1   
 15   8  29  1   
 16   9  10  1   
 17   9  30  1   
 18   9  31  1   
 19  10  11  1   
 20  10  32  1   
 21  11  12  ar  
 22  11  13  ar  
 23  12  14  ar  
 24  13  15  ar  
 25  13  33  1   
 26  14  16  ar  
 27  14  34  1   
 28  15  16  ar  
 29  15  17  1   
 30  16  35  1   
 31  17  18  2   
 32  17  19  am  
 33  19  20  1   
 34  19  21  1   
 35  20  22  1   
 36  20  36  1   
 37  20  37  1   
 38  21  23  1   
 39  21  38  1   
 40  21  39  1   
 41  22  23  1   
 42  22  40  1   
 43  22  41  1   
 44  23  42  1   
 45  23  43  1   
@<TRIPOS>SUBSTRUCTURE
  1 ****  11 GROUP 4 **** **** 0

# MOE 2024.06 (io_trps.svl 2023.06)
