@<TRIPOS>MOLECULE
NONAME
37 38 1 0 0 
SMALL
USER_CHARGES


@<TRIPOS>ATOM
  1 O        0.2860     0.3430     0.3570 O.3   1 <1>  -0.2800 
  2 C        1.4210     0.9590     0.0890 C.2   1 <1>  -0.0400 
  3 C        0.4820    -0.9490     0.1940 C.2   1 <1>  -0.0100 
  4 C        2.3720     0.0620    -0.2530 C.2   1 <1>  -0.1500 
  5 C        1.4460     2.4730     0.2080 C.3   1 <1>   0.0200 
  6 C        1.7540    -1.1930    -0.1840 C.2   1 <1>  -0.1500 
  7 C        2.7990     3.0590    -0.1930 C.3   1 <1>   0.2090 
  8 N        2.7680     4.5400    -0.0880 N.pl3 1 <1>  -0.8690 
  9 C        3.8920     5.3240     0.0290 C.ar  1 <1>   0.4100 
 10 N        5.0480     4.7020     0.1200 N.ar  1 <1>  -0.6200 
 11 C        3.8090     6.7120     0.0410 C.ar  1 <1>  -0.1430 
 12 C        6.1120     5.4690     0.2220 C.ar  1 <1>   0.4770 
 13 C        4.9980     7.3930     0.1480 C.ar  1 <1>   0.1600 
 14 C        2.4450     7.4040    -0.0590 C.3   1 <1>  -0.0170 
 15 N        6.1640     6.7860     0.2390 N.ar  1 <1>  -0.6200 
 16 C        7.4350     4.7500     0.3250 C.3   1 <1>  -0.0970 
 17 C        2.4730     8.9360     0.0550 C.3   1 <1>  -0.1600 
 18 C        1.0620     9.5280    -0.0300 C.3   1 <1>  -0.2400 
 19 H       -0.3370    -1.6240     0.3690 H     1 <1>   0.1500 
 20 H        3.3990     0.2270    -0.5270 H     1 <1>   0.1500 
 21 H        1.2320     2.7410     1.2260 H     1 <1>   0.0800 
 22 H        0.6790     2.8760    -0.4270 H     1 <1>   0.0800 
 23 H        2.2260    -2.1370    -0.3950 H     1 <1>   0.1500 
 24 H        3.0350     2.7830    -1.2070 H     1 <1>   0.0800 
 25 H        3.5630     2.6640     0.4550 H     1 <1>   0.0800 
 26 H        1.9260     4.9880    -0.4470 H     1 <1>   0.4000 
 27 H        5.0220     8.4670     0.1640 H     1 <1>   0.1500 
 28 H        1.8150     7.0170     0.7230 H     1 <1>   0.0800 
 29 H        1.9990     7.1390    -1.0020 H     1 <1>   0.0800 
 30 H        7.3260     3.8700     0.9310 H     1 <1>   0.0800 
 31 H        8.1740     5.3900     0.7710 H     1 <1>   0.0800 
 32 H        7.7610     4.4660    -0.6570 H     1 <1>   0.0800 
 33 H        3.0700     9.3480    -0.7410 H     1 <1>   0.0800 
 34 H        2.9150     9.2200     0.9960 H     1 <1>   0.0800 
 35 H        0.6030     9.2790    -0.9700 H     1 <1>   0.0800 
 36 H        1.1080    10.6000     0.0530 H     1 <1>   0.0800 
 37 H        0.4460     9.1520     0.7690 H     1 <1>   0.0800 
@<TRIPOS>BOND
  1   1   2  1   
  2   1   3  1   
  3   2   4  2   
  4   2   5  1   
  5   3   6  2   
  6   3  19  1   
  7   4   6  1   
  8   4  20  1   
  9   5   7  1   
 10   5  21  1   
 11   5  22  1   
 12   6  23  1   
 13   7   8  1   
 14   7  24  1   
 15   7  25  1   
 16   8   9  1   
 17   8  26  1   
 18   9  10  ar  
 19   9  11  ar  
 20  10  12  ar  
 21  11  13  ar  
 22  11  14  1   
 23  12  15  ar  
 24  12  16  1   
 25  13  15  ar  
 26  13  27  1   
 27  14  17  1   
 28  14  28  1   
 29  14  29  1   
 30  16  30  1   
 31  16  31  1   
 32  16  32  1   
 33  17  18  1   
 34  17  33  1   
 35  17  34  1   
 36  18  35  1   
 37  18  36  1   
 38  18  37  1   
@<TRIPOS>SUBSTRUCTURE
  1 ****   8 GROUP 4 **** **** 0

# MOE 2024.06 (io_trps.svl 2023.06)
