@<TRIPOS>MOLECULE
NONAME
56 58 1 0 0 
SMALL
USER_CHARGES


@<TRIPOS>ATOM
  1 O        0.4390     0.9710    -0.3980 O.2   1 <1>  -0.5700 
  2 C        0.3410     2.1680    -0.4810 C.2   1 <1>   0.5690 
  3 N       -0.5040     2.8460     0.3280 N.am  1 <1>  -0.7300 
  4 C        1.1560     2.9410    -1.5200 C.3   1 <1>   0.1810 
  5 C       -0.6680     4.3210     0.2990 C.3   1 <1>   0.3640 
  6 O        1.3120     4.2990    -1.1750 O.3   1 <1>  -0.5600 
  7 C       -2.1520     4.6610     0.2510 C.ar  1 <1>  -0.1440 
  8 C        0.1000     4.9780    -0.8770 C.3   1 <1>   0.2610 
  9 C       -3.0380     3.9350    -0.5360 C.ar  1 <1>   0.1600 
 10 C       -2.6440     5.7210     0.9900 C.ar  1 <1>  -0.1500 
 11 C        0.3170     6.4680    -0.5670 C.2   1 <1>   0.5690 
 12 N       -4.3350     4.1720    -0.6360 N.ar  1 <1>  -0.6200 
 13 C       -3.9940     5.9820     0.8940 C.ar  1 <1>  -0.1500 
 14 O       -0.4650     7.2350    -1.0810 O.2   1 <1>  -0.5700 
 15 N        1.3040     6.9370     0.2790 N.am  1 <1>  -0.6600 
 16 C       -4.7830     5.1900     0.0800 C.ar  1 <1>   0.1600 
 17 C        1.4230     8.4050     0.5390 C.3   1 <1>   0.1400 
 18 C        2.2850     6.0850     1.0160 C.3   1 <1>   0.1400 
 19 C        2.0580     9.1360    -0.6510 C.3   1 <1>  -0.0220 
 20 C        3.6510     6.1080     0.3260 C.3   1 <1>  -0.1600 
 21 C        2.2880    10.6070    -0.3290 C.2   1 <1>  -0.2760 
 22 C        4.6090     5.0920     0.9570 C.3   1 <1>  -0.2400 
 23 C        3.4960    11.1030    -0.0440 C.2   1 <1>  -0.2880 
 24 C        1.0320    11.4740    -0.3750 C.3   1 <1>  -0.0220 
 25 C        3.7760    12.5680     0.2480 C.3   1 <1>  -0.0220 
 26 C        1.2600    12.8440     0.2820 C.3   1 <1>  -0.1600 
 27 C        2.5940    13.4570    -0.1630 C.3   1 <1>  -0.1600 
 28 H       -1.0470     2.3190     1.0150 H     1 <1>   0.3700 
 29 H        0.6700     2.8850    -2.4770 H     1 <1>   0.0800 
 30 H        2.1360     2.5080    -1.6000 H     1 <1>   0.0800 
 31 H       -0.2680     4.7060     1.2210 H     1 <1>   0.0800 
 32 H       -0.5110     4.9240    -1.7610 H     1 <1>   0.0800 
 33 H       -2.6650     3.1100    -1.1190 H     1 <1>   0.1500 
 34 H       -2.0100     6.3310     1.6110 H     1 <1>   0.1500 
 35 H       -4.4340     6.7960     1.4420 H     1 <1>   0.1500 
 36 H       -5.8360     5.4050     0.0120 H     1 <1>   0.1500 
 37 H        0.4430     8.8080     0.7250 H     1 <1>   0.0800 
 38 H        2.0200     8.5780     1.4170 H     1 <1>   0.0800 
 39 H        2.3830     6.4410     2.0270 H     1 <1>   0.0800 
 40 H        1.9360     5.0700     1.0700 H     1 <1>   0.0800 
 41 H        3.0010     8.6780    -0.8840 H     1 <1>   0.0800 
 42 H        1.4270     9.0530    -1.5180 H     1 <1>   0.0800 
 43 H        3.5280     5.8720    -0.7170 H     1 <1>   0.0800 
 44 H        4.0820     7.0890     0.4090 H     1 <1>   0.0800 
 45 H        4.2140     4.0950     0.8630 H     1 <1>   0.0800 
 46 H        4.7600     5.3110     2.0000 H     1 <1>   0.0800 
 47 H        5.5620     5.1290     0.4590 H     1 <1>   0.0800 
 48 H        4.3840    10.4940     0.0010 H     1 <1>   0.1500 
 49 H        0.7500    11.6120    -1.4050 H     1 <1>   0.0800 
 50 H        0.2150    10.9880     0.1260 H     1 <1>   0.0800 
 51 H        3.9680    12.6800     1.3010 H     1 <1>   0.0800 
 52 H        4.6540    12.8820    -0.2880 H     1 <1>   0.0800 
 53 H        0.4490    13.5030     0.0290 H     1 <1>   0.0800 
 54 H        1.2710    12.7220     1.3510 H     1 <1>   0.0800 
 55 H        2.7130    14.4360     0.2670 H     1 <1>   0.0800 
 56 H        2.5900    13.5610    -1.2340 H     1 <1>   0.0800 
@<TRIPOS>BOND
  1   1   2  2   
  2   2   3  am  
  3   2   4  1   
  4   3   5  1   
  5   3  28  1   
  6   4   6  1   
  7   4  29  1   
  8   4  30  1   
  9   5   7  1   
 10   5   8  1   
 11   5  31  1   
 12   6   8  1   
 13   7   9  ar  
 14   7  10  ar  
 15   8  11  1   
 16   8  32  1   
 17   9  12  ar  
 18   9  33  1   
 19  10  13  ar  
 20  10  34  1   
 21  11  14  2   
 22  11  15  am  
 23  12  16  ar  
 24  13  16  ar  
 25  13  35  1   
 26  15  17  1   
 27  15  18  1   
 28  16  36  1   
 29  17  19  1   
 30  17  37  1   
 31  17  38  1   
 32  18  20  1   
 33  18  39  1   
 34  18  40  1   
 35  19  21  1   
 36  19  41  1   
 37  19  42  1   
 38  20  22  1   
 39  20  43  1   
 40  20  44  1   
 41  21  23  2   
 42  21  24  1   
 43  22  45  1   
 44  22  46  1   
 45  22  47  1   
 46  23  25  1   
 47  23  48  1   
 48  24  26  1   
 49  24  49  1   
 50  24  50  1   
 51  25  27  1   
 52  25  51  1   
 53  25  52  1   
 54  26  27  1   
 55  26  53  1   
 56  26  54  1   
 57  27  55  1   
 58  27  56  1   
@<TRIPOS>SUBSTRUCTURE
  1 ****  11 GROUP 4 **** **** 0

# MOE 2024.06 (io_trps.svl 2023.06)
