@<TRIPOS>MOLECULE
NONAME
44 47 1 0 0 
SMALL
USER_CHARGES


@<TRIPOS>ATOM
  1 CL       1.5020     1.6400    -1.3710 Cl    1 <1>  -0.1770 
  2 C        2.8520     0.6450    -0.8940 C.ar  1 <1>   0.1770 
  3 C        3.6870     0.1200    -1.8620 C.ar  1 <1>  -0.1500 
  4 C        3.0690     0.3910     0.4470 C.ar  1 <1>  -0.1500 
  5 C        4.7620    -0.6610    -1.4750 C.ar  1 <1>  -0.1500 
  6 C        4.1470    -0.3910     0.8230 C.ar  1 <1>  -0.1500 
  7 C        5.0230    -0.9140    -0.1290 C.ar  1 <1>   0.0540 
  8 C        6.1820    -1.6880     0.2550 C.2   1 <1>   0.2350 
  9 N        6.4200    -2.8980    -0.1710 N.2   1 <1>  -0.7070 
 10 C        7.2160    -1.2490     1.0890 C.2   1 <1>  -0.1810 
 11 N        7.5740    -3.2680     0.4040 N.pl3 1 <1>   0.3000 
 12 C        8.0820    -2.2820     1.1670 C.2   1 <1>  -0.3020 
 13 C        7.3120     0.1210     1.7200 C.3   1 <1>   0.5240 
 14 N        8.2330     0.9410     0.8950 N.4   1 <1>  -0.9590 
 15 C        8.7730     2.1350     1.6410 C.3   1 <1>   0.3430 
 16 C        7.6960     1.1980    -0.4860 C.3   1 <1>   0.3430 
 17 C        9.9440     2.8830     0.9410 C.3   1 <1>   0.2200 
 18 C        8.7450     1.6950    -1.4900 C.3   1 <1>  -0.0190 
 19 N        9.4380     3.6800    -0.2000 N.am  1 <1>  -0.7300 
 20 C       11.0920     1.9490     0.4820 C.3   1 <1>   0.1200 
 21 C        8.8970     3.1830    -1.3250 C.2   1 <1>   0.5690 
 22 C       10.1130     0.9780    -1.4790 C.3   1 <1>   0.1200 
 23 O       10.6330     0.8020    -0.1870 O.3   1 <1>  -0.5600 
 24 O        8.5040     3.9190    -2.1870 O.2   1 <1>  -0.5700 
 25 H        3.4880     0.3170    -2.9010 H     1 <1>   0.1500 
 26 H        2.3910     0.7960     1.1790 H     1 <1>   0.1500 
 27 H        5.4060    -1.0930    -2.2230 H     1 <1>   0.1500 
 28 H        4.3000    -0.6130     1.8650 H     1 <1>   0.1500 
 29 H        7.9890    -4.1990     0.2500 H     1 <1>   0.2700 
 30 H        9.0130    -2.3860     1.6990 H     1 <1>   0.1500 
 31 H        7.7040     0.0180     2.7190 H     1 <1>   0.0800 
 32 H        6.3410     0.5850     1.7760 H     1 <1>   0.0800 
 33 H        9.0680     0.3470     0.7150 H     1 <1>   0.4500 
 34 H        7.9790     2.8400     1.8250 H     1 <1>   0.0800 
 35 H        9.1350     1.8000     2.5990 H     1 <1>   0.0800 
 36 H        7.3010     0.2760    -0.8790 H     1 <1>   0.0800 
 37 H        6.8820     1.9040    -0.4400 H     1 <1>   0.0800 
 38 H       10.3570     3.5820     1.6490 H     1 <1>   0.0800 
 39 H        8.3280     1.5520    -2.4710 H     1 <1>   0.0800 
 40 H        9.5640     4.6980    -0.1750 H     1 <1>   0.3700 
 41 H       11.6330     1.6040     1.3460 H     1 <1>   0.0800 
 42 H       11.7870     2.4740    -0.1520 H     1 <1>   0.0800 
 43 H       10.8340     1.5150    -2.0740 H     1 <1>   0.0800 
 44 H       10.0020    -0.0050    -1.9040 H     1 <1>   0.0800 
@<TRIPOS>BOND
  1   1   2  1   
  2   2   3  ar  
  3   2   4  ar  
  4   3   5  ar  
  5   3  25  1   
  6   4   6  ar  
  7   4  26  1   
  8   5   7  ar  
  9   5  27  1   
 10   6   7  ar  
 11   6  28  1   
 12   7   8  1   
 13   8   9  2   
 14   8  10  1   
 15   9  11  1   
 16  10  12  2   
 17  10  13  1   
 18  11  12  1   
 19  11  29  1   
 20  12  30  1   
 21  13  14  1   
 22  13  31  1   
 23  13  32  1   
 24  14  15  1   
 25  14  16  1   
 26  14  33  1   
 27  15  17  1   
 28  15  34  1   
 29  15  35  1   
 30  16  18  1   
 31  16  36  1   
 32  16  37  1   
 33  17  19  1   
 34  17  20  1   
 35  17  38  1   
 36  18  21  1   
 37  18  22  1   
 38  18  39  1   
 39  19  21  am  
 40  19  40  1   
 41  20  23  1   
 42  20  41  1   
 43  20  42  1   
 44  21  24  2   
 45  22  23  1   
 46  22  43  1   
 47  22  44  1   
@<TRIPOS>SUBSTRUCTURE
  1 ****  16 GROUP 4 **** **** 0

# MOE 2024.06 (io_trps.svl 2023.06)
