@<TRIPOS>MOLECULE
NONAME
45 48 1 0 0 
SMALL
USER_CHARGES


@<TRIPOS>ATOM
  1 O       -0.9780     0.2670    -1.0260 O.2   1 <1>  -0.5700 
  2 C       -1.7180     0.9350    -0.3280 C.2   1 <1>   0.5440 
  3 N       -2.7100     0.2880     0.3760 N.am  1 <1>  -0.6600 
  4 C       -1.5560     2.3690    -0.2820 C.ar  1 <1>   0.0860 
  5 C       -2.6700    -1.1940     0.5950 C.3   1 <1>   0.1400 
  6 C       -4.0920     0.8440     0.5080 C.3   1 <1>   0.1400 
  7 C       -1.1490     3.0720    -1.4160 C.ar  1 <1>   0.1600 
  8 C       -1.7850     3.1190     0.8700 C.ar  1 <1>  -0.1500 
  9 C       -3.7400    -1.9040    -0.2540 C.3   1 <1>   0.3440 
 10 C       -5.0980     0.0180    -0.3210 C.3   1 <1>   0.2950 
 11 N       -0.9880     4.3820    -1.5040 N.ar  1 <1>  -0.6200 
 12 C       -1.6170     4.4800     0.7990 C.ar  1 <1>  -0.1500 
 13 O       -5.0020    -1.3400    -0.0030 O.3   1 <1>  -0.5600 
 14 C       -3.7690    -3.3970     0.0600 C.ar  1 <1>  -0.1440 
 15 C       -6.5400     0.4550    -0.0490 C.3   1 <1>  -0.1950 
 16 C       -1.2260     5.0640    -0.4000 C.ar  1 <1>   0.4100 
 17 C       -4.5920    -3.9180     1.0490 C.ar  1 <1>  -0.1500 
 18 C       -2.9420    -4.2570    -0.6490 C.ar  1 <1>  -0.1500 
 19 C       -7.6310     0.1820    -1.0350 C.3   1 <1>  -0.2000 
 20 C       -7.1600     1.5900    -0.8030 C.3   1 <1>  -0.2000 
 21 N       -1.0480     6.3980    -0.5170 N.pl3 1 <1>  -0.9000 
 22 C       -4.5880    -5.2740     1.3250 C.ar  1 <1>  -0.1500 
 23 C       -2.9370    -5.6140    -0.3740 C.ar  1 <1>  -0.1500 
 24 C       -3.7600    -6.1240     0.6140 C.ar  1 <1>  -0.1500 
 25 H       -1.7010    -1.5880     0.3460 H     1 <1>   0.0800 
 26 H       -2.8500    -1.4060     1.6330 H     1 <1>   0.0800 
 27 H       -4.3850     0.8240     1.5430 H     1 <1>   0.0800 
 28 H       -4.1260     1.8650     0.1720 H     1 <1>   0.0800 
 29 H       -0.9470     2.5010    -2.3070 H     1 <1>   0.1500 
 30 H       -2.0800     2.6360     1.7850 H     1 <1>   0.1500 
 31 H       -3.5170    -1.7680    -1.2990 H     1 <1>   0.0800 
 32 H       -4.8820     0.1310    -1.3710 H     1 <1>   0.0800 
 33 H       -1.7860     5.1060     1.6550 H     1 <1>   0.1500 
 34 H       -6.7950     0.3640     0.9930 H     1 <1>   0.1000 
 35 H       -5.2430    -3.2670     1.6070 H     1 <1>   0.1500 
 36 H       -2.2950    -3.8750    -1.4200 H     1 <1>   0.1500 
 37 H       -7.3790    -0.3120    -1.9580 H     1 <1>   0.1000 
 38 H       -8.5940    -0.1190    -0.6600 H     1 <1>   0.1000 
 39 H       -7.8130     2.2680    -0.2790 H     1 <1>   0.1000 
 40 H       -6.6090     2.0760    -1.5900 H     1 <1>   0.1000 
 41 H       -0.6420     6.6870    -1.4090 H     1 <1>   0.4000 
 42 H       -0.7220     6.9360     0.2850 H     1 <1>   0.4000 
 43 H       -5.2320    -5.6670     2.0930 H     1 <1>   0.1500 
 44 H       -2.2920    -6.2730    -0.9290 H     1 <1>   0.1500 
 45 H       -3.7570    -7.1780     0.8280 H     1 <1>   0.1500 
@<TRIPOS>BOND
  1   1   2  2   
  2   2   3  am  
  3   2   4  1   
  4   3   5  1   
  5   3   6  1   
  6   4   7  ar  
  7   4   8  ar  
  8   5   9  1   
  9   5  25  1   
 10   5  26  1   
 11   6  10  1   
 12   6  27  1   
 13   6  28  1   
 14   7  11  ar  
 15   7  29  1   
 16   8  12  ar  
 17   8  30  1   
 18   9  13  1   
 19   9  14  1   
 20   9  31  1   
 21  10  13  1   
 22  10  15  1   
 23  10  32  1   
 24  11  16  ar  
 25  12  16  ar  
 26  12  33  1   
 27  14  17  ar  
 28  14  18  ar  
 29  15  19  1   
 30  15  20  1   
 31  15  34  1   
 32  16  21  1   
 33  17  22  ar  
 34  17  35  1   
 35  18  23  ar  
 36  18  36  1   
 37  19  20  1   
 38  19  37  1   
 39  19  38  1   
 40  20  39  1   
 41  20  40  1   
 42  21  41  1   
 43  21  42  1   
 44  22  24  ar  
 45  22  43  1   
 46  23  24  ar  
 47  23  44  1   
 48  24  45  1   
@<TRIPOS>SUBSTRUCTURE
  1 ****   3 GROUP 4 **** **** 0

# MOE 2024.06 (io_trps.svl 2023.06)
