@<TRIPOS>MOLECULE
NONAME
55 58 1 0 0 
SMALL
USER_CHARGES


@<TRIPOS>ATOM
  1 S        1.2310     0.6930     1.4390 S.3   1 <1>  -0.0800 
  2 C        1.8220    -0.7230     0.5570 C.2   1 <1>  -0.0450 
  3 C        2.1850     1.7930     0.4700 C.2   1 <1>  -0.1100 
  4 C        2.6980    -0.2990    -0.3920 C.2   1 <1>  -0.1810 
  5 C        1.3620    -2.0360     0.9470 C.2   1 <1>   0.7150 
  6 C        2.8950     1.1100    -0.4450 C.2   1 <1>  -0.1810 
  7 C        3.4920    -1.1540    -1.3660 C.3   1 <1>   0.0210 
  8 O        2.1810    -2.9250     1.1080 O.2   1 <1>  -0.5700 
  9 N        0.0220    -2.3430     1.1200 N.am  1 <1>  -0.6600 
 10 C        3.8590     1.6600    -1.4790 C.3   1 <1>   0.0210 
 11 C        4.9600    -0.6960    -1.3770 C.3   1 <1>  -0.1600 
 12 C       -1.0530    -1.5410     0.4640 C.3   1 <1>   0.2200 
 13 C       -0.3480    -3.6260     1.7940 C.3   1 <1>   0.0600 
 14 C        5.1600     0.8370    -1.4850 C.3   1 <1>  -0.1600 
 15 C       -2.0200    -0.9050     1.4620 C.3   1 <1>  -0.1600 
 16 C       -1.9490    -2.3520    -0.4720 C.3   1 <1>  -0.1600 
 17 C       -3.2760    -0.6010     0.6340 C.3   1 <1>  -0.0800 
 18 C       -3.2230    -1.5060    -0.6020 C.3   1 <1>  -0.0800 
 19 C       -4.6110    -0.9140     1.3250 C.3   1 <1>  -0.1600 
 20 C       -4.5420    -2.2950    -0.6020 C.3   1 <1>  -0.1600 
 21 C       -5.5250    -1.4530     0.2190 C.3   1 <1>   0.4230 
 22 N       -6.0870    -0.3330    -0.6040 N.4   1 <1>  -0.9590 
 23 C       -6.9450     0.6010     0.1950 C.3   1 <1>   0.2630 
 24 C       -6.8850    -0.8190    -1.7760 C.3   1 <1>   0.2630 
 25 H        2.1170     2.8430     0.6910 H     1 <1>   0.1500 
 26 H        3.4350    -2.1940    -1.0970 H     1 <1>   0.0800 
 27 H        3.0730    -1.0400    -2.3500 H     1 <1>   0.0800 
 28 H        3.3930     1.5960    -2.4460 H     1 <1>   0.0800 
 29 H        4.0730     2.6950    -1.2790 H     1 <1>   0.0800 
 30 H        5.4090    -1.0280    -0.4560 H     1 <1>   0.0800 
 31 H        5.4790    -1.1900    -2.1790 H     1 <1>   0.0800 
 32 H       -0.6150    -0.7530    -0.1250 H     1 <1>   0.0800 
 33 H       -1.3230    -3.5650     2.2400 H     1 <1>   0.0800 
 34 H        0.3650    -3.8510     2.5700 H     1 <1>   0.0800 
 35 H       -0.3340    -4.4270     1.0760 H     1 <1>   0.0800 
 36 H        5.7130     1.0670    -2.3790 H     1 <1>   0.0800 
 37 H        5.7580     1.1540    -0.6490 H     1 <1>   0.0800 
 38 H       -2.2430    -1.5930     2.2540 H     1 <1>   0.0800 
 39 H       -1.6070    -0.0080     1.8860 H     1 <1>   0.0800 
 40 H       -1.4740    -2.5020    -1.4260 H     1 <1>   0.0800 
 41 H       -2.1810    -3.3070    -0.0390 H     1 <1>   0.0800 
 42 H       -3.2530     0.4280     0.3140 H     1 <1>   0.0800 
 43 H       -3.1550    -0.8880    -1.4830 H     1 <1>   0.0800 
 44 H       -4.9990    -0.0730     1.8680 H     1 <1>   0.0800 
 45 H       -4.4680    -1.7110     2.0340 H     1 <1>   0.0800 
 46 H       -4.4050    -3.2230    -0.0750 H     1 <1>   0.0800 
 47 H       -4.8710    -2.5400    -1.5940 H     1 <1>   0.0800 
 48 H       -6.3210    -2.0590     0.6240 H     1 <1>   0.0800 
 49 H       -5.2750     0.1930    -0.9580 H     1 <1>   0.4500 
 50 H       -7.7550     0.0610     0.6590 H     1 <1>   0.0800 
 51 H       -7.3610     1.3630    -0.4430 H     1 <1>   0.0800 
 52 H       -6.3690     1.0880     0.9640 H     1 <1>   0.0800 
 53 H       -7.6920    -1.4520    -1.4430 H     1 <1>   0.0800 
 54 H       -6.2650    -1.3780    -2.4570 H     1 <1>   0.0800 
 55 H       -7.3030     0.0160    -2.3150 H     1 <1>   0.0800 
@<TRIPOS>BOND
  1   1   2  1   
  2   1   3  1   
  3   2   4  2   
  4   2   5  1   
  5   3   6  2   
  6   3  25  1   
  7   4   6  1   
  8   4   7  1   
  9   5   8  2   
 10   5   9  am  
 11   6  10  1   
 12   7  11  1   
 13   7  26  1   
 14   7  27  1   
 15   9  12  1   
 16   9  13  1   
 17  10  14  1   
 18  10  28  1   
 19  10  29  1   
 20  11  14  1   
 21  11  30  1   
 22  11  31  1   
 23  12  15  1   
 24  12  16  1   
 25  12  32  1   
 26  13  33  1   
 27  13  34  1   
 28  13  35  1   
 29  14  36  1   
 30  14  37  1   
 31  15  17  1   
 32  15  38  1   
 33  15  39  1   
 34  16  18  1   
 35  16  40  1   
 36  16  41  1   
 37  17  18  1   
 38  17  19  1   
 39  17  42  1   
 40  18  20  1   
 41  18  43  1   
 42  19  21  1   
 43  19  44  1   
 44  19  45  1   
 45  20  21  1   
 46  20  46  1   
 47  20  47  1   
 48  21  22  1   
 49  21  48  1   
 50  22  23  1   
 51  22  24  1   
 52  22  49  1   
 53  23  50  1   
 54  23  51  1   
 55  23  52  1   
 56  24  53  1   
 57  24  54  1   
 58  24  55  1   
@<TRIPOS>SUBSTRUCTURE
  1 ****  12 GROUP 4 **** **** 0

# MOE 2024.06 (io_trps.svl 2023.06)
