@<TRIPOS>MOLECULE
NONAME
35 35 1 0 0 
SMALL
USER_CHARGES


@<TRIPOS>ATOM
  1 O       -0.4870     0.0620    -1.0100 O.3   1 <1>  -0.5320 
  2 C       -1.5990    -0.6050    -0.6570 C.ar  1 <1>   0.0830 
  3 C       -2.7400     0.0260    -0.1190 C.ar  1 <1>  -0.1430 
  4 C       -1.5410    -1.9660    -0.9070 C.ar  1 <1>  -0.1500 
  5 C       -3.8740    -0.8030     0.0330 C.ar  1 <1>  -0.1440 
  6 C       -2.6700     1.5650     0.2310 C.3   1 <1>   0.1440 
  7 C       -2.6350    -2.7640    -0.6770 C.ar  1 <1>  -0.1430 
  8 C       -3.7900    -2.1680    -0.2240 C.ar  1 <1>  -0.1500 
  9 C       -5.2830    -0.3670     0.4290 C.3   1 <1>  -0.0970 
 10 C       -2.7500     2.3430    -1.1110 C.3   1 <1>  -0.1600 
 11 C       -3.7820     2.0860     1.1710 C.3   1 <1>  -0.2400 
 12 C       -1.3740     1.8880     1.0240 C.3   1 <1>  -0.2400 
 13 C       -2.5880    -4.2590    -0.9340 C.3   1 <1>  -0.0970 
 14 C       -2.8080     3.8780    -1.0710 C.3   1 <1>   0.1200 
 15 O       -1.5930     4.3820    -0.6540 O.3   1 <1>  -0.6800 
 16 H        0.1890    -0.5160    -1.4020 H     1 <1>   0.4500 
 17 H       -0.6400    -2.4070    -1.2890 H     1 <1>   0.1500 
 18 H       -4.6490    -2.7990    -0.0780 H     1 <1>   0.1500 
 19 H       -5.6110     0.4350    -0.2040 H     1 <1>   0.0800 
 20 H       -5.3250    -0.0850     1.4630 H     1 <1>   0.0800 
 21 H       -5.9960    -1.1610     0.2950 H     1 <1>   0.0800 
 22 H       -3.6420     2.0110    -1.6110 H     1 <1>   0.0800 
 23 H       -1.9330     2.0590    -1.7490 H     1 <1>   0.0800 
 24 H       -4.7280     2.1520     0.6740 H     1 <1>   0.0800 
 25 H       -3.5730     3.0800     1.5230 H     1 <1>   0.0800 
 26 H       -3.8550     1.4560     2.0390 H     1 <1>   0.0800 
 27 H       -0.5210     1.9910     0.3820 H     1 <1>   0.0800 
 28 H       -1.1770     1.0970     1.7250 H     1 <1>   0.0800 
 29 H       -1.4410     2.8040     1.5820 H     1 <1>   0.0800 
 30 H       -1.5720    -4.6070    -0.9830 H     1 <1>   0.0800 
 31 H       -3.0760    -4.4830    -1.8660 H     1 <1>   0.0800 
 32 H       -3.0890    -4.7870    -0.1430 H     1 <1>   0.0800 
 33 H       -3.5740     4.2370    -0.4070 H     1 <1>   0.0800 
 34 H       -2.9970     4.2710    -2.0550 H     1 <1>   0.0800 
 35 H       -1.2210     3.7940     0.0330 H     1 <1>   0.4000 
@<TRIPOS>BOND
  1   1   2  1   
  2   1  16  1   
  3   2   3  ar  
  4   2   4  ar  
  5   3   5  ar  
  6   3   6  1   
  7   4   7  ar  
  8   4  17  1   
  9   5   8  ar  
 10   5   9  1   
 11   6  10  1   
 12   6  11  1   
 13   6  12  1   
 14   7   8  ar  
 15   7  13  1   
 16   8  18  1   
 17   9  19  1   
 18   9  20  1   
 19   9  21  1   
 20  10  14  1   
 21  10  22  1   
 22  10  23  1   
 23  11  24  1   
 24  11  25  1   
 25  11  26  1   
 26  12  27  1   
 27  12  28  1   
 28  12  29  1   
 29  13  30  1   
 30  13  31  1   
 31  13  32  1   
 32  14  15  1   
 33  14  33  1   
 34  14  34  1   
 35  15  35  1   
@<TRIPOS>SUBSTRUCTURE
  1 ****   3 GROUP 4 **** **** 0

# MOE 2024.06 (io_trps.svl 2023.06)
