@<TRIPOS>MOLECULE
NONAME
55 59 1 0 0 
SMALL
USER_CHARGES


@<TRIPOS>ATOM
  1 O       -0.6900     0.0380    -0.1130 O.2   1 <1>  -0.5700 
  2 C       -1.5300     0.7390     0.4170 C.2   1 <1>   0.7150 
  3 N       -2.6760     0.1560     0.9030 N.am  1 <1>  -0.6600 
  4 C       -1.3420     2.1630     0.5240 C.2   1 <1>  -0.2370 
  5 C       -2.7830    -1.3310     1.0480 C.3   1 <1>   0.1400 
  6 C       -4.0110     0.8030     0.7150 C.3   1 <1>   0.1400 
  7 N       -1.6530     2.8330     1.6820 N.pl3 1 <1>   0.0330 
  8 C       -0.8670     3.0820    -0.3700 C.2   1 <1>  -0.1810 
  9 C       -3.6390    -1.9340    -0.0810 C.3   1 <1>   0.3440 
 10 C       -4.8110     0.0870    -0.3930 C.3   1 <1>   0.2950 
 11 C       -1.3960     4.1660     1.5180 C.ar  1 <1>  -0.1520 
 12 C       -0.8980     4.3540     0.2350 C.ar  1 <1>   0.0000 
 13 C       -0.3750     2.8380    -1.7850 C.3   1 <1>  -0.0590 
 14 O       -4.8850    -1.2850    -0.1350 O.3   1 <1>  -0.5600 
 15 C       -3.8440    -3.4290     0.1450 C.ar  1 <1>  -0.1440 
 16 C       -6.2440     0.6180    -0.4800 C.3   1 <1>  -0.1950 
 17 C       -1.5570     5.2420     2.3940 C.ar  1 <1>  -0.1500 
 18 C       -0.5490     5.6420    -0.1910 C.ar  1 <1>  -0.1500 
 19 C       -2.9200    -4.3280    -0.3680 C.ar  1 <1>  -0.1500 
 20 C       -4.9260    -3.9150     0.8670 C.ar  1 <1>  -0.1500 
 21 C       -7.0440     0.4840    -1.7360 C.3   1 <1>  -0.2000 
 22 C       -6.5690     1.8370    -1.2860 C.3   1 <1>  -0.2000 
 23 C       -1.2130     6.5020     1.9640 C.ar  1 <1>  -0.1500 
 24 C       -0.7080     6.7100     0.6720 C.ar  1 <1>   0.0820 
 25 C       -3.0740    -5.6880    -0.1640 C.ar  1 <1>  -0.1500 
 26 C       -5.0810    -5.2750     1.0720 C.ar  1 <1>  -0.1500 
 27 O       -0.4020     7.9990     0.3570 O.3   1 <1>  -0.3630 
 28 C       -4.1540    -6.1630     0.5570 C.ar  1 <1>  -0.1500 
 29 C        0.1490     8.3140    -0.9030 C.3   1 <1>   0.0400 
 30 H       -1.8070    -1.7840     1.0340 H     1 <1>   0.0800 
 31 H       -3.2360    -1.5660     1.9950 H     1 <1>   0.0800 
 32 H       -4.5620     0.7570     1.6380 H     1 <1>   0.0800 
 33 H       -3.9020     1.8380     0.4440 H     1 <1>   0.0800 
 34 H       -1.9940     2.3950     2.5430 H     1 <1>   0.2700 
 35 H       -3.1460    -1.7840    -1.0260 H     1 <1>   0.0800 
 36 H       -4.3200     0.2240    -1.3410 H     1 <1>   0.0800 
 37 H       -0.9420     3.4320    -2.4770 H     1 <1>   0.0800 
 38 H       -0.4780     1.8030    -2.0530 H     1 <1>   0.0800 
 39 H        0.6630     3.1080    -1.8590 H     1 <1>   0.0800 
 40 H       -6.7750     0.4920     0.4490 H     1 <1>   0.1000 
 41 H       -1.9420     5.0820     3.3850 H     1 <1>   0.1500 
 42 H       -0.1670     5.7540    -1.1850 H     1 <1>   0.1500 
 43 H       -2.0730    -3.9740    -0.9310 H     1 <1>   0.1500 
 44 H       -5.6560    -3.2330     1.2690 H     1 <1>   0.1500 
 45 H       -6.5840     0.0230    -2.5940 H     1 <1>   0.1000 
 46 H       -8.0890     0.2400    -1.6520 H     1 <1>   0.1000 
 47 H       -7.2950     2.5350    -0.9050 H     1 <1>   0.1000 
 48 H       -5.7960     2.3200    -1.8590 H     1 <1>   0.1000 
 49 H       -1.3230     7.3540     2.6090 H     1 <1>   0.1500 
 50 H       -2.3520    -6.3780    -0.5670 H     1 <1>   0.1500 
 51 H       -5.9250    -5.6400     1.6310 H     1 <1>   0.1500 
 52 H       -4.2750    -7.2200     0.7160 H     1 <1>   0.1500 
 53 H        0.3250     9.3740    -0.9330 H     1 <1>   0.0800 
 54 H       -0.5530     8.0380    -1.6690 H     1 <1>   0.0800 
 55 H        1.0780     7.7850    -1.0190 H     1 <1>   0.0800 
@<TRIPOS>BOND
  1   1   2  2   
  2   2   3  am  
  3   2   4  1   
  4   3   5  1   
  5   3   6  1   
  6   4   7  1   
  7   4   8  2   
  8   5   9  1   
  9   5  30  1   
 10   5  31  1   
 11   6  10  1   
 12   6  32  1   
 13   6  33  1   
 14   7  11  1   
 15   7  34  1   
 16   8  12  1   
 17   8  13  1   
 18   9  14  1   
 19   9  15  1   
 20   9  35  1   
 21  10  14  1   
 22  10  16  1   
 23  10  36  1   
 24  11  12  ar  
 25  11  17  ar  
 26  12  18  ar  
 27  13  37  1   
 28  13  38  1   
 29  13  39  1   
 30  15  19  ar  
 31  15  20  ar  
 32  16  21  1   
 33  16  22  1   
 34  16  40  1   
 35  17  23  ar  
 36  17  41  1   
 37  18  24  ar  
 38  18  42  1   
 39  19  25  ar  
 40  19  43  1   
 41  20  26  ar  
 42  20  44  1   
 43  21  22  1   
 44  21  45  1   
 45  21  46  1   
 46  22  47  1   
 47  22  48  1   
 48  23  24  ar  
 49  23  49  1   
 50  24  27  1   
 51  25  28  ar  
 52  25  50  1   
 53  26  28  ar  
 54  26  51  1   
 55  27  29  1   
 56  28  52  1   
 57  29  53  1   
 58  29  54  1   
 59  29  55  1   
@<TRIPOS>SUBSTRUCTURE
  1 ****   3 GROUP 4 **** **** 0

# MOE 2024.06 (io_trps.svl 2023.06)
