@<TRIPOS>MOLECULE
NONAME
46 47 1 0 0 
SMALL
USER_CHARGES


@<TRIPOS>ATOM
  1 S        0.4040     0.2890     0.3880 S.o2  1 <1>   1.3330 
  2 O        0.3750    -0.9720     1.0940 O.2   1 <1>  -0.6500 
  3 O       -0.0830     1.4840     1.0390 O.2   1 <1>  -0.6500 
  4 N       -0.4330     0.0900    -1.0750 N.am  1 <1>  -0.8490 
  5 C        2.0830     0.6070    -0.1480 C.3   1 <1>  -0.0550 
  6 C       -0.3510    -1.2700    -1.6170 C.3   1 <1>   0.1160 
  7 C       -1.8360     0.5050    -0.9760 C.3   1 <1>   0.1160 
  8 C        3.0270     0.9330     1.0200 C.3   1 <1>  -0.0800 
  9 C        4.4270     1.3100     0.5500 C.3   1 <1>   0.2200 
 10 C        3.2750    -0.2210     1.9870 C.3   1 <1>   0.1200 
 11 N        4.6150     2.7650     0.7240 N.am  1 <1>  -0.7300 
 12 C        5.3540     0.4990     1.4560 C.3   1 <1>   0.1200 
 13 O        4.5530     0.0090     2.4820 O.3   1 <1>  -0.5600 
 14 C        4.3910     3.6940    -0.2440 C.2   1 <1>   0.7160 
 15 O        4.1690     3.3140    -1.3770 O.2   1 <1>  -0.5700 
 16 C        4.4160     5.0910     0.0940 C.2   1 <1>  -0.0860 
 17 C        5.0190     6.1170    -0.6180 C.2   1 <1>   0.1080 
 18 C        3.8980     5.7680     1.1420 C.2   1 <1>  -0.0400 
 19 N        4.8630     7.2330    -0.0120 N.2   1 <1>  -0.4100 
 20 C        5.7710     5.9780    -1.9320 C.3   1 <1>   0.0210 
 21 O        4.1720     7.0480     1.0890 O.3   1 <1>  -0.0190 
 22 C        3.0600     5.2790     2.3090 C.3   1 <1>  -0.0600 
 23 C        7.1280     5.2920    -1.7370 C.3   1 <1>  -0.2400 
 24 H        2.4560    -0.2410    -0.6880 H     1 <1>   0.0800 
 25 H        2.0720     1.4440    -0.8200 H     1 <1>   0.0800 
 26 H       -0.8200    -1.3120    -2.5850 H     1 <1>   0.0800 
 27 H       -0.8430    -1.9680    -0.9580 H     1 <1>   0.0800 
 28 H        0.6780    -1.5660    -1.7260 H     1 <1>   0.0800 
 29 H       -2.3300     0.3820    -1.9240 H     1 <1>   0.0800 
 30 H       -1.8940     1.5450    -0.7000 H     1 <1>   0.0800 
 31 H       -2.3480    -0.0800    -0.2290 H     1 <1>   0.0800 
 32 H        2.6000     1.7390     1.5930 H     1 <1>   0.0800 
 33 H        4.6000     1.0350    -0.4770 H     1 <1>   0.0800 
 34 H        3.2760    -1.1750     1.4860 H     1 <1>   0.0800 
 35 H        2.5740    -0.2370     2.8050 H     1 <1>   0.0800 
 36 H        4.7850     3.0790     1.6800 H     1 <1>   0.3700 
 37 H        6.1520     1.0850     1.8760 H     1 <1>   0.0800 
 38 H        5.7570    -0.3470     0.9260 H     1 <1>   0.0800 
 39 H        5.1730     5.4180    -2.6300 H     1 <1>   0.0800 
 40 H        5.9260     6.9580    -2.3490 H     1 <1>   0.0800 
 41 H        2.7990     4.2440     2.1960 H     1 <1>   0.0800 
 42 H        2.1510     5.8520     2.3610 H     1 <1>   0.0800 
 43 H        3.6010     5.4090     3.2280 H     1 <1>   0.0800 
 44 H        6.9940     4.2890    -1.3710 H     1 <1>   0.0800 
 45 H        7.7220     5.8450    -1.0310 H     1 <1>   0.0800 
 46 H        7.6550     5.2480    -2.6730 H     1 <1>   0.0800 
@<TRIPOS>BOND
  1   1   2  2   
  2   1   3  2   
  3   1   4  am  
  4   1   5  1   
  5   4   6  1   
  6   4   7  1   
  7   5   8  1   
  8   5  24  1   
  9   5  25  1   
 10   6  26  1   
 11   6  27  1   
 12   6  28  1   
 13   7  29  1   
 14   7  30  1   
 15   7  31  1   
 16   8   9  1   
 17   8  10  1   
 18   8  32  1   
 19   9  11  1   
 20   9  12  1   
 21   9  33  1   
 22  10  13  1   
 23  10  34  1   
 24  10  35  1   
 25  11  14  am  
 26  11  36  1   
 27  12  13  1   
 28  12  37  1   
 29  12  38  1   
 30  14  15  2   
 31  14  16  1   
 32  16  17  1   
 33  16  18  2   
 34  17  19  2   
 35  17  20  1   
 36  18  21  1   
 37  18  22  1   
 38  19  21  1   
 39  20  23  1   
 40  20  39  1   
 41  20  40  1   
 42  22  41  1   
 43  22  42  1   
 44  22  43  1   
 45  23  44  1   
 46  23  45  1   
 47  23  46  1   
@<TRIPOS>SUBSTRUCTURE
  1 ****  11 GROUP 4 **** **** 0

# MOE 2024.06 (io_trps.svl 2023.06)
