@<TRIPOS>MOLECULE
F1913-1002
19 20 1 0 0 
SMALL
USER_CHARGES


@<TRIPOS>ATOM
  1 O       -1.6110    -1.2690    -0.4210 O.3   1 <1>  -0.6800 
  2 C       -0.3070    -1.1770     0.0640 C.3   1 <1>   0.3010 
  3 C        0.3260    -2.5520     0.2210 C.2   1 <1>   0.0460 
  4 N        1.5850    -2.6790     0.6770 N.2   1 <1>  -0.2270 
  5 C       -0.1680    -3.7770    -0.0280 C.2   1 <1>  -0.3320 
  6 N        1.8730    -3.9380     0.7180 N.2   1 <1>  -0.4180 
  7 N        0.8030    -4.6000     0.2860 N.pl3 1 <1>   0.3140 
  8 C       -1.3900    -4.5100    -0.5130 C.3   1 <1>   0.0200 
  9 C        0.4800    -6.0120     0.1200 C.3   1 <1>   0.0960 
 10 C       -1.0290    -5.9830    -0.2160 C.3   1 <1>  -0.1600 
 11 H       -1.9970    -0.3790    -0.5150 H     1 <1>   0.4000 
 12 H       -0.3350    -0.6820     1.0180 H     1 <1>   0.0800 
 13 H        0.2710    -0.5910    -0.6280 H     1 <1>   0.0800 
 14 H       -1.5170    -4.3460    -1.5690 H     1 <1>   0.0800 
 15 H       -2.2730    -4.1920     0.0150 H     1 <1>   0.0800 
 16 H        0.6870    -6.5420     1.0310 H     1 <1>   0.0800 
 17 H        1.0620    -6.4050    -0.6930 H     1 <1>   0.0800 
 18 H       -1.2560    -6.6230    -1.0500 H     1 <1>   0.0800 
 19 H       -1.5860    -6.3230     0.6400 H     1 <1>   0.0800 
@<TRIPOS>BOND
  1   1   2  1   
  2   1  11  1   
  3   2   3  1   
  4   2  12  1   
  5   2  13  1   
  6   3   4  1   
  7   3   5  2   
  8   4   6  2   
  9   5   7  1   
 10   5   8  1   
 11   6   7  1   
 12   7   9  1   
 13   8  10  1   
 14   8  14  1   
 15   8  15  1   
 16   9  10  1   
 17   9  16  1   
 18   9  17  1   
 19  10  18  1   
 20  10  19  1   
@<TRIPOS>SUBSTRUCTURE
  1 ****   5 GROUP 4 **** **** 0

# MOE 2024.06 (io_trps.svl 2023.06)
