@<TRIPOS>MOLECULE
NONAME
55 59 1 0 0 
SMALL
USER_CHARGES


@<TRIPOS>ATOM
  1 O       -1.6050    -1.3950     1.0050 O.2   1 <1>  -0.5700 
  2 C       -0.7130    -1.9800     0.4030 C.2   1 <1>   0.5440 
  3 N       -0.9890    -2.6420    -0.7830 N.am  1 <1>  -0.2980 
  4 C        0.6470    -1.9730     0.8620 C.ar  1 <1>   0.0860 
  5 N       -0.0280    -3.1690    -1.6100 N.2   1 <1>  -0.5120 
  6 C       -2.4090    -2.8420    -1.1900 C.3   1 <1>   0.2010 
  7 C        1.6230    -2.5550     0.0370 C.ar  1 <1>   0.0860 
  8 C        1.0260    -1.4090     2.0850 C.ar  1 <1>  -0.1500 
  9 C        1.1940    -3.1240    -1.2150 C.2   1 <1>   0.3030 
 10 C       -3.1760    -3.8400    -0.3080 C.2   1 <1>   0.5690 
 11 C        2.9550    -2.5460     0.4820 C.ar  1 <1>  -0.1500 
 12 C        2.3390    -1.4120     2.4970 C.ar  1 <1>  -0.1500 
 13 C        2.2280    -3.7210    -2.1540 C.3   1 <1>  -0.1790 
 14 O       -2.5580    -4.7370     0.2210 O.2   1 <1>  -0.5700 
 15 N       -4.5440    -3.7430    -0.1470 N.am  1 <1>  -0.6600 
 16 C        3.3090    -1.9850     1.6890 C.ar  1 <1>  -0.1500 
 17 C       -5.4300    -2.6990    -0.7550 C.3   1 <1>   0.1400 
 18 C       -5.2880    -4.7000     0.7240 C.3   1 <1>   0.1400 
 19 C       -6.1420    -1.8790     0.3390 C.3   1 <1>   0.1440 
 20 C       -6.0340    -3.9390     1.8290 C.3   1 <1>  -0.1600 
 21 C       -7.0130    -0.8390    -0.3410 C.ar  1 <1>   0.1670 
 22 C       -6.9370    -2.8300     1.2570 C.3   1 <1>  -0.1600 
 23 C       -5.1490    -0.9980     1.1430 C.3   1 <1>  -0.1600 
 24 N       -8.1500    -1.0760    -0.9570 N.ar  1 <1>  -0.6200 
 25 C       -6.4600     0.4050    -0.2610 C.ar  1 <1>  -0.1430 
 26 C       -5.1480     0.3910     0.4850 C.3   1 <1>  -0.0170 
 27 C       -8.7220    -0.0020    -1.4840 C.ar  1 <1>   0.4770 
 28 C       -7.1360     1.4460    -0.8450 C.ar  1 <1>   0.1600 
 29 N       -8.2810     1.2500    -1.4660 N.ar  1 <1>  -0.6200 
 30 C      -10.0380    -0.2270    -2.1880 C.3   1 <1>  -0.0970 
 31 H       -2.4330    -3.2000    -2.2010 H     1 <1>   0.0800 
 32 H       -2.8840    -1.8830    -1.1590 H     1 <1>   0.0800 
 33 H        0.2690    -0.9670     2.7100 H     1 <1>   0.1500 
 34 H        3.7270    -2.9850    -0.1220 H     1 <1>   0.1500 
 35 H        2.6160    -0.9740     3.4410 H     1 <1>   0.1500 
 36 H        2.9510    -2.9760    -2.4310 H     1 <1>   0.0800 
 37 H        1.7550    -4.0820    -3.0500 H     1 <1>   0.0800 
 38 H        2.7220    -4.5480    -1.6790 H     1 <1>   0.0800 
 39 H        4.3370    -1.9880     2.0130 H     1 <1>   0.1500 
 40 H       -6.1760    -3.1910    -1.3560 H     1 <1>   0.0800 
 41 H       -4.8890    -2.0390    -1.4050 H     1 <1>   0.0800 
 42 H       -4.6180    -5.4130     1.1730 H     1 <1>   0.0800 
 43 H       -5.9920    -5.2460     0.1190 H     1 <1>   0.0800 
 44 H       -5.3090    -3.5150     2.5020 H     1 <1>   0.0800 
 45 H       -6.6300    -4.6330     2.3930 H     1 <1>   0.0800 
 46 H       -7.7270    -3.2870     0.6850 H     1 <1>   0.0800 
 47 H       -7.3980    -2.2760     2.0560 H     1 <1>   0.0800 
 48 H       -4.1620    -1.4190     1.1930 H     1 <1>   0.0800 
 49 H       -5.5080    -0.8840     2.1510 H     1 <1>   0.0800 
 50 H       -4.3290     0.4810    -0.2070 H     1 <1>   0.0800 
 51 H       -5.0940     1.1750     1.2200 H     1 <1>   0.0800 
 52 H       -6.7390     2.4460    -0.8070 H     1 <1>   0.1500 
 53 H      -10.0960    -1.2360    -2.5520 H     1 <1>   0.0800 
 54 H      -10.1320     0.4480    -3.0170 H     1 <1>   0.0800 
 55 H      -10.8410    -0.0530    -1.4980 H     1 <1>   0.0800 
@<TRIPOS>BOND
  1   1   2  2   
  2   2   3  am  
  3   2   4  1   
  4   3   5  1   
  5   3   6  1   
  6   4   7  ar  
  7   4   8  ar  
  8   5   9  2   
  9   6  10  1   
 10   6  31  1   
 11   6  32  1   
 12   7   9  1   
 13   7  11  ar  
 14   8  12  ar  
 15   8  33  1   
 16   9  13  1   
 17  10  14  2   
 18  10  15  am  
 19  11  16  ar  
 20  11  34  1   
 21  12  16  ar  
 22  12  35  1   
 23  13  36  1   
 24  13  37  1   
 25  13  38  1   
 26  15  17  1   
 27  15  18  1   
 28  16  39  1   
 29  17  19  1   
 30  17  40  1   
 31  17  41  1   
 32  18  20  1   
 33  18  42  1   
 34  18  43  1   
 35  19  21  1   
 36  19  22  1   
 37  19  23  1   
 38  20  22  1   
 39  20  44  1   
 40  20  45  1   
 41  21  24  ar  
 42  21  25  ar  
 43  22  46  1   
 44  22  47  1   
 45  23  26  1   
 46  23  48  1   
 47  23  49  1   
 48  24  27  ar  
 49  25  26  1   
 50  25  28  ar  
 51  26  50  1   
 52  26  51  1   
 53  27  29  ar  
 54  27  30  1   
 55  28  29  ar  
 56  28  52  1   
 57  30  53  1   
 58  30  54  1   
 59  30  55  1   
@<TRIPOS>SUBSTRUCTURE
  1 ****   6 GROUP 4 **** **** 0

# MOE 2024.06 (io_trps.svl 2023.06)
