@<TRIPOS>MOLECULE
NONAME
50 52 1 0 0 
SMALL
USER_CHARGES


@<TRIPOS>ATOM
  1 S        0.2770    -1.6440     0.7360 S.o2  1 <1>   1.0900 
  2 O        0.5870    -1.9990     2.1030 O.2   1 <1>  -0.6500 
  3 O        1.3470    -1.3600    -0.1910 O.2   1 <1>  -0.6500 
  4 C       -0.8340    -0.2500     0.7770 C.3   1 <1>  -0.0550 
  5 C       -0.7370    -2.9450     0.0590 C.3   1 <1>  -0.0550 
  6 C       -2.1320    -0.6280     1.4790 C.3   1 <1>   0.1400 
  7 C       -2.0410    -3.0500     0.8380 C.3   1 <1>   0.1400 
  8 N       -2.7730    -1.7510     0.7330 N.am  1 <1>  -0.6600 
  9 C       -3.8610    -1.5180    -0.0890 C.2   1 <1>   0.5690 
 10 O       -4.3750    -0.4250    -0.1300 O.2   1 <1>  -0.5700 
 11 C       -4.4880    -2.6100    -0.9660 C.3   1 <1>   0.2610 
 12 O       -3.5020    -3.2660    -1.7480 O.3   1 <1>  -0.5600 
 13 C       -5.3260    -3.5530    -0.0590 C.3   1 <1>   0.3640 
 14 C       -3.9750    -4.4000    -2.4250 C.3   1 <1>   0.1810 
 15 N       -5.1460    -5.0210    -0.3180 N.am  1 <1>  -0.6600 
 16 C       -6.8030    -3.1700    -0.1550 C.ar  1 <1>  -0.1440 
 17 C       -4.4810    -5.4490    -1.4400 C.2   1 <1>   0.5690 
 18 C       -5.6630    -5.9120     0.7580 C.3   1 <1>   0.2200 
 19 C       -7.3250    -2.2510     0.7450 C.ar  1 <1>  -0.1500 
 20 C       -7.6360    -3.7020    -1.1310 C.ar  1 <1>  -0.1500 
 21 O       -4.2600    -6.6090    -1.6910 O.2   1 <1>  -0.5700 
 22 C       -4.4970    -6.5780     1.4870 C.3   1 <1>  -0.2400 
 23 C       -6.6560    -6.9380     0.2120 C.3   1 <1>  -0.2400 
 24 C       -8.6560    -1.8770     0.6770 C.ar  1 <1>  -0.1500 
 25 C       -8.9670    -3.3300    -1.2000 C.ar  1 <1>  -0.1500 
 26 C       -9.4780    -2.4170    -0.2960 C.ar  1 <1>  -0.1500 
 27 H       -0.3710     0.5650     1.3000 H     1 <1>   0.0800 
 28 H       -1.0590     0.0800    -0.2190 H     1 <1>   0.0800 
 29 H       -0.9570    -2.7510    -0.9740 H     1 <1>   0.0800 
 30 H       -0.2120    -3.8790     0.1150 H     1 <1>   0.0800 
 31 H       -2.7840     0.2290     1.5170 H     1 <1>   0.0800 
 32 H       -1.9320    -0.9340     2.4920 H     1 <1>   0.0800 
 33 H       -1.8310    -3.2600     1.8740 H     1 <1>   0.0800 
 34 H       -2.6260    -3.8670     0.4570 H     1 <1>   0.0800 
 35 H       -5.1500    -2.1220    -1.6600 H     1 <1>   0.0800 
 36 H       -5.0190    -3.3810     0.9580 H     1 <1>   0.0800 
 37 H       -4.7640    -4.1060    -3.0940 H     1 <1>   0.0800 
 38 H       -3.1610    -4.8070    -2.9970 H     1 <1>   0.0800 
 39 H       -6.1970    -5.3110     1.4760 H     1 <1>   0.0800 
 40 H       -6.7020    -1.8110     1.5050 H     1 <1>   0.1500 
 41 H       -7.2590    -4.4150    -1.8440 H     1 <1>   0.1500 
 42 H       -3.9600    -7.2360     0.8270 H     1 <1>   0.0800 
 43 H       -4.8680    -7.1600     2.3110 H     1 <1>   0.0800 
 44 H       -3.8240    -5.8350     1.8740 H     1 <1>   0.0800 
 45 H       -6.1750    -7.6410    -0.4440 H     1 <1>   0.0800 
 46 H       -7.4500    -6.4450    -0.3160 H     1 <1>   0.0800 
 47 H       -7.0880    -7.4900     1.0260 H     1 <1>   0.0800 
 48 H       -9.0510    -1.1630     1.3780 H     1 <1>   0.1500 
 49 H       -9.6050    -3.7500    -1.9580 H     1 <1>   0.1500 
 50 H      -10.5130    -2.1260    -0.3490 H     1 <1>   0.1500 
@<TRIPOS>BOND
  1   1   2  2   
  2   1   3  2   
  3   1   4  1   
  4   1   5  1   
  5   4   6  1   
  6   4  27  1   
  7   4  28  1   
  8   5   7  1   
  9   5  29  1   
 10   5  30  1   
 11   6   8  1   
 12   6  31  1   
 13   6  32  1   
 14   7   8  1   
 15   7  33  1   
 16   7  34  1   
 17   8   9  am  
 18   9  10  2   
 19   9  11  1   
 20  11  12  1   
 21  11  13  1   
 22  11  35  1   
 23  12  14  1   
 24  13  15  1   
 25  13  16  1   
 26  13  36  1   
 27  14  17  1   
 28  14  37  1   
 29  14  38  1   
 30  15  17  am  
 31  15  18  1   
 32  16  19  ar  
 33  16  20  ar  
 34  17  21  2   
 35  18  22  1   
 36  18  23  1   
 37  18  39  1   
 38  19  24  ar  
 39  19  40  1   
 40  20  25  ar  
 41  20  41  1   
 42  22  42  1   
 43  22  43  1   
 44  22  44  1   
 45  23  45  1   
 46  23  46  1   
 47  23  47  1   
 48  24  26  ar  
 49  24  48  1   
 50  25  26  ar  
 51  25  49  1   
 52  26  50  1   
@<TRIPOS>SUBSTRUCTURE
  1 ****  11 GROUP 4 **** **** 0

# MOE 2024.06 (io_trps.svl 2023.06)
