@<TRIPOS>MOLECULE
NONAME
45 46 1 0 0 
SMALL
USER_CHARGES


@<TRIPOS>ATOM
  1 CL       2.3550     1.2440     2.3790 Cl    1 <1>  -0.1770 
  2 C        2.5040    -0.0320     1.1990 C.ar  1 <1>   0.1770 
  3 C        2.5240    -1.3460     1.6270 C.ar  1 <1>  -0.1500 
  4 C        2.5990     0.2900    -0.1410 C.ar  1 <1>  -0.1500 
  5 C        2.6370    -2.3810     0.7080 C.ar  1 <1>  -0.1440 
  6 C        2.7110    -0.7320    -1.0650 C.ar  1 <1>  -0.1500 
  7 C        2.7340    -2.0550    -0.6500 C.ar  1 <1>   0.0830 
  8 C        2.6650    -3.8050     1.2610 C.3   1 <1>   0.4870 
  9 O        2.7960    -2.9860    -1.6240 O.3   1 <1>  -0.3630 
 10 N        1.6750    -4.7220     0.6290 N.4   1 <1>  -0.9590 
 11 C        4.0300    -3.6690    -1.8610 C.3   1 <1>   0.0140 
 12 C        0.3410    -4.1350     0.3740 C.3   1 <1>   0.3430 
 13 C        1.6940    -6.0460     1.2970 C.3   1 <1>   0.3430 
 14 C        4.0060    -5.0450    -1.2280 C.2   1 <1>   0.9060 
 15 C       -0.4970    -5.1260    -0.4230 C.3   1 <1>  -0.1600 
 16 C        0.7970    -7.0350     0.5560 C.3   1 <1>  -0.1600 
 17 O        4.7730    -5.3000    -0.2970 O.co2 1 <1>  -0.9000 
 18 O        3.0520    -5.7940    -1.4730 O.co2 1 <1>  -0.9000 
 19 C       -0.5980    -6.4520     0.3220 C.3   1 <1>   0.2760 
 20 N       -1.4020    -7.3480    -0.4770 N.am  1 <1>  -0.9140 
 21 S       -1.9300    -8.7210     0.3240 S.o2  1 <1>   1.3330 
 22 O       -0.9660    -9.7360    -0.0160 O.2   1 <1>  -0.6500 
 23 O       -2.1760    -8.3630     1.7010 O.2   1 <1>  -0.6500 
 24 C       -3.4790    -9.0710    -0.4780 C.3   1 <1>  -0.1350 
 25 H        2.4530    -1.5380     2.6840 H     1 <1>   0.1500 
 26 H        2.5820     1.3200    -0.4500 H     1 <1>   0.1500 
 27 H        2.7790    -0.5100    -2.1160 H     1 <1>   0.1500 
 28 H        2.4600    -3.7570     2.3160 H     1 <1>   0.0800 
 29 H        3.6570    -4.2050     1.1560 H     1 <1>   0.0800 
 30 H        2.0880    -4.9460    -0.3130 H     1 <1>   0.4500 
 31 H        4.8430    -3.0930    -1.4610 H     1 <1>   0.0800 
 32 H        4.1490    -3.7800    -2.9210 H     1 <1>   0.0800 
 33 H        0.4450    -3.2240    -0.1940 H     1 <1>   0.0800 
 34 H       -0.1440    -3.9070     1.3080 H     1 <1>   0.0800 
 35 H        1.3580    -5.9460     2.3150 H     1 <1>   0.0800 
 36 H        2.7040    -6.4280     1.3000 H     1 <1>   0.0800 
 37 H       -0.0430    -5.2690    -1.3890 H     1 <1>   0.0800 
 38 H       -1.4810    -4.7150    -0.5650 H     1 <1>   0.0800 
 39 H        0.7370    -7.9320     1.1440 H     1 <1>   0.0800 
 40 H        1.2620    -7.2830    -0.3820 H     1 <1>   0.0800 
 41 H       -1.0830    -6.2680     1.2690 H     1 <1>   0.0800 
 42 H       -0.7910    -7.7070    -1.2130 H     1 <1>   0.4200 
 43 H       -3.3280    -9.2260    -1.5270 H     1 <1>   0.0800 
 44 H       -4.1580    -8.2520    -0.3420 H     1 <1>   0.0800 
 45 H       -3.9170    -9.9540    -0.0580 H     1 <1>   0.0800 
@<TRIPOS>BOND
  1   1   2  1   
  2   2   3  ar  
  3   2   4  ar  
  4   3   5  ar  
  5   3  25  1   
  6   4   6  ar  
  7   4  26  1   
  8   5   7  ar  
  9   5   8  1   
 10   6   7  ar  
 11   6  27  1   
 12   7   9  1   
 13   8  10  1   
 14   8  28  1   
 15   8  29  1   
 16   9  11  1   
 17  10  12  1   
 18  10  13  1   
 19  10  30  1   
 20  11  14  1   
 21  11  31  1   
 22  11  32  1   
 23  12  15  1   
 24  12  33  1   
 25  12  34  1   
 26  13  16  1   
 27  13  35  1   
 28  13  36  1   
 29  14  17  ar  
 30  14  18  ar  
 31  15  19  1   
 32  15  37  1   
 33  15  38  1   
 34  16  19  1   
 35  16  39  1   
 36  16  40  1   
 37  19  20  1   
 38  19  41  1   
 39  20  21  am  
 40  20  42  1   
 41  21  22  2   
 42  21  23  2   
 43  21  24  1   
 44  24  43  1   
 45  24  44  1   
 46  24  45  1   
@<TRIPOS>SUBSTRUCTURE
  1 ****  10 GROUP 4 **** **** 0

# MOE 2024.06 (io_trps.svl 2023.06)
