@<TRIPOS>MOLECULE
NONAME
53 55 1 0 0 
SMALL
USER_CHARGES


@<TRIPOS>ATOM
  1 O       -1.3860     1.0620     1.6670 O.2   1 <1>  -0.5700 
  2 C       -1.8040     1.1180     0.5330 C.2   1 <1>   0.5690 
  3 N       -2.8720     0.3460     0.1430 N.am  1 <1>  -0.6600 
  4 C       -1.1250     2.0990    -0.4230 C.3   1 <1>  -0.0190 
  5 C       -3.5380    -0.5660     1.1270 C.3   1 <1>   0.1400 
  6 C       -3.5930     0.4400    -1.1580 C.3   1 <1>   0.1400 
  7 C        0.3920     2.0760    -0.3210 C.3   1 <1>   0.1200 
  8 C       -1.4430     3.5650    -0.1410 C.3   1 <1>  -0.1600 
  9 C       -4.7460     0.1060     1.8000 C.3   1 <1>   0.1400 
 10 C       -4.5800     1.6160    -1.1800 C.3   1 <1>  -0.1600 
 11 O        0.7840     3.3170    -0.8040 O.3   1 <1>  -0.5600 
 12 C       -0.1190     4.2890    -0.3870 C.3   1 <1>   0.1200 
 13 N       -5.7320     0.6300     0.7990 N.am  1 <1>  -0.6600 
 14 C       -5.2990     1.8970     0.1470 C.3   1 <1>   0.1400 
 15 C       -6.9480     0.0670     0.4830 C.2   1 <1>   0.5690 
 16 O       -7.7080     0.6310    -0.2700 O.2   1 <1>  -0.5700 
 17 C       -7.3710    -1.2730     1.0830 C.3   1 <1>   0.0440 
 18 C       -8.2980    -2.1180     0.2040 C.ar  1 <1>  -0.1440 
 19 C       -7.8520    -2.7390    -0.9600 C.ar  1 <1>  -0.1440 
 20 C       -9.6210    -2.2750     0.5950 C.ar  1 <1>  -0.1500 
 21 C       -8.7350    -3.5100    -1.7000 C.ar  1 <1>  -0.1500 
 22 C       -6.4230    -2.5860    -1.4590 C.3   1 <1>  -0.0970 
 23 C      -10.5000    -3.0460    -0.1460 C.ar  1 <1>  -0.1440 
 24 C      -10.0490    -3.6650    -1.2970 C.ar  1 <1>  -0.1500 
 25 C      -11.9420    -3.2000     0.3010 C.3   1 <1>  -0.0970 
 26 H       -1.3640     1.8750    -1.4430 H     1 <1>   0.0800 
 27 H       -2.8350    -0.8580     1.8880 H     1 <1>   0.0800 
 28 H       -3.8560    -1.4660     0.6310 H     1 <1>   0.0800 
 29 H       -4.1470    -0.4700    -1.3120 H     1 <1>   0.0800 
 30 H       -2.8990     0.5170    -1.9760 H     1 <1>   0.0800 
 31 H        0.8390     1.3010    -0.9190 H     1 <1>   0.0800 
 32 H        0.7260     1.9980     0.7000 H     1 <1>   0.0800 
 33 H       -1.7390     3.7100     0.8840 H     1 <1>   0.0800 
 34 H       -2.2160     3.9390    -0.7860 H     1 <1>   0.0800 
 35 H       -4.3890     0.9210     2.4060 H     1 <1>   0.0800 
 36 H       -5.2160    -0.5900     2.4700 H     1 <1>   0.0800 
 37 H       -5.3230     1.4200    -1.9330 H     1 <1>   0.0800 
 38 H       -4.0640     2.5070    -1.4840 H     1 <1>   0.0800 
 39 H        0.2590     4.7310     0.5200 H     1 <1>   0.0800 
 40 H       -0.1980     5.0350    -1.1580 H     1 <1>   0.0800 
 41 H       -6.1530     2.5290    -0.0320 H     1 <1>   0.0800 
 42 H       -4.6370     2.4310     0.8070 H     1 <1>   0.0800 
 43 H       -7.8520    -1.0660     2.0200 H     1 <1>   0.0800 
 44 H       -6.5070    -1.8690     1.2940 H     1 <1>   0.0800 
 45 H       -9.9780    -1.7890     1.4850 H     1 <1>   0.1500 
 46 H       -8.4080    -3.9940    -2.6030 H     1 <1>   0.1500 
 47 H       -5.7250    -2.8850    -0.6990 H     1 <1>   0.0800 
 48 H       -6.2440    -1.5610    -1.7290 H     1 <1>   0.0800 
 49 H       -6.2530    -3.1960    -2.3280 H     1 <1>   0.0800 
 50 H      -10.7170    -4.2650    -1.8880 H     1 <1>   0.1500 
 51 H      -11.9900    -3.3070     1.3700 H     1 <1>   0.0800 
 52 H      -12.3890    -4.0680    -0.1490 H     1 <1>   0.0800 
 53 H      -12.5040    -2.3300     0.0120 H     1 <1>   0.0800 
@<TRIPOS>BOND
  1   1   2  2   
  2   2   3  am  
  3   2   4  1   
  4   3   5  1   
  5   3   6  1   
  6   4   7  1   
  7   4   8  1   
  8   4  26  1   
  9   5   9  1   
 10   5  27  1   
 11   5  28  1   
 12   6  10  1   
 13   6  29  1   
 14   6  30  1   
 15   7  11  1   
 16   7  31  1   
 17   7  32  1   
 18   8  12  1   
 19   8  33  1   
 20   8  34  1   
 21   9  13  1   
 22   9  35  1   
 23   9  36  1   
 24  10  14  1   
 25  10  37  1   
 26  10  38  1   
 27  11  12  1   
 28  12  39  1   
 29  12  40  1   
 30  13  14  1   
 31  13  15  am  
 32  14  41  1   
 33  14  42  1   
 34  15  16  2   
 35  15  17  1   
 36  17  18  1   
 37  17  43  1   
 38  17  44  1   
 39  18  19  ar  
 40  18  20  ar  
 41  19  21  ar  
 42  19  22  1   
 43  20  23  ar  
 44  20  45  1   
 45  21  24  ar  
 46  21  46  1   
 47  22  47  1   
 48  22  48  1   
 49  22  49  1   
 50  23  24  ar  
 51  23  25  1   
 52  24  50  1   
 53  25  51  1   
 54  25  52  1   
 55  25  53  1   
@<TRIPOS>SUBSTRUCTURE
  1 ****  13 GROUP 4 **** **** 0

# MOE 2024.06 (io_trps.svl 2023.06)
