@<TRIPOS>MOLECULE
NONAME
54 56 1 0 0 
SMALL
USER_CHARGES


@<TRIPOS>ATOM
  1 O        4.4320    -1.9200    -1.6220 O.2   1 <1>  -0.5700 
  2 C        3.3450    -2.0730    -1.0950 C.2   1 <1>   0.5440 
  3 N        2.7920    -0.9540    -0.5280 N.am  1 <1>  -0.6600 
  4 C        2.7150    -3.3800    -0.9900 C.ar  1 <1>   0.0860 
  5 C        2.9630    -0.7900     0.9580 C.3   1 <1>   0.2200 
  6 C        2.6180     0.2620    -1.3820 C.3   1 <1>   0.1400 
  7 C        1.3990    -3.5240    -0.5510 C.ar  1 <1>  -0.1500 
  8 C        3.4080    -4.5460    -1.3200 C.ar  1 <1>  -0.1500 
  9 C        1.9370     0.1730     1.5780 C.3   1 <1>   0.1200 
 10 C        4.4110    -0.3540     1.3050 C.3   1 <1>   0.3430 
 11 C        3.1610     1.5690    -0.7740 C.3   1 <1>  -0.0800 
 12 C        0.8020    -4.7650    -0.4250 C.ar  1 <1>   0.0820 
 13 C        2.8220    -5.7930    -1.2020 C.ar  1 <1>  -0.1500 
 14 O        2.4010     1.4880     1.5210 O.3   1 <1>  -0.5600 
 15 N        5.1500     0.2150     0.1230 N.4   1 <1>  -0.9590 
 16 C        2.2280     2.1380     0.3070 C.3   1 <1>   0.1200 
 17 C        4.6390     1.5470    -0.3280 C.3   1 <1>   0.3430 
 18 O       -0.4770    -4.7770     0.0220 O.3   1 <1>  -0.3630 
 19 C        1.5200    -5.9090    -0.7530 C.ar  1 <1>  -0.1500 
 20 C        6.6220     0.2280     0.3430 C.3   1 <1>   0.2630 
 21 C       -1.1950    -5.9890     0.1460 C.3   1 <1>   0.1200 
 22 C       -2.6030    -5.6720     0.6380 C.3   1 <1>   0.1200 
 23 O       -3.2960    -6.8720     0.7670 O.3   1 <1>  -0.5600 
 24 C       -4.6030    -6.7240     1.2070 C.3   1 <1>   0.1200 
 25 C       -5.2190    -8.1150     1.2940 C.3   1 <1>  -0.2400 
 26 H        2.7910    -1.7490     1.4150 H     1 <1>   0.0800 
 27 H        3.1050     0.0970    -2.3300 H     1 <1>   0.0800 
 28 H        1.5680     0.3780    -1.5920 H     1 <1>   0.0800 
 29 H        0.8130    -2.6580    -0.3040 H     1 <1>   0.1500 
 30 H        4.4220    -4.4740    -1.6750 H     1 <1>   0.1500 
 31 H        1.8200    -0.0620     2.6220 H     1 <1>   0.0800 
 32 H        0.9730     0.0940     1.1050 H     1 <1>   0.0800 
 33 H        4.9380    -1.2240     1.6580 H     1 <1>   0.0800 
 34 H        4.3920     0.3610     2.1110 H     1 <1>   0.0800 
 35 H        3.1110     2.2920    -1.5690 H     1 <1>   0.0800 
 36 H        3.3810    -6.6770    -1.4630 H     1 <1>   0.1500 
 37 H        4.9420    -0.4580    -0.6520 H     1 <1>   0.4500 
 38 H        1.1920     2.0730     0.0170 H     1 <1>   0.0800 
 39 H        2.4580     3.1770     0.4770 H     1 <1>   0.0800 
 40 H        4.7750     2.2700     0.4600 H     1 <1>   0.0800 
 41 H        5.2370     1.8660    -1.1660 H     1 <1>   0.0800 
 42 H        1.0880    -6.8890    -0.6680 H     1 <1>   0.1500 
 43 H        6.8740     0.8940     1.1520 H     1 <1>   0.0800 
 44 H        7.1280     0.5560    -0.5500 H     1 <1>   0.0800 
 45 H        6.9700    -0.7630     0.5860 H     1 <1>   0.0800 
 46 H       -1.2380    -6.4600    -0.8190 H     1 <1>   0.0800 
 47 H       -0.6860    -6.6150     0.8570 H     1 <1>   0.0800 
 48 H       -3.1160    -5.0510    -0.0760 H     1 <1>   0.0800 
 49 H       -2.5630    -5.1930     1.6010 H     1 <1>   0.0800 
 50 H       -4.5940    -6.2520     2.1750 H     1 <1>   0.0800 
 51 H       -5.1420    -6.1130     0.5020 H     1 <1>   0.0800 
 52 H       -4.6650    -8.7190     1.9890 H     1 <1>   0.0800 
 53 H       -5.2100    -8.5820     0.3250 H     1 <1>   0.0800 
 54 H       -6.2360    -8.0430     1.6330 H     1 <1>   0.0800 
@<TRIPOS>BOND
  1   1   2  2   
  2   2   3  am  
  3   2   4  1   
  4   3   5  1   
  5   3   6  1   
  6   4   7  ar  
  7   4   8  ar  
  8   5   9  1   
  9   5  10  1   
 10   5  26  1   
 11   6  11  1   
 12   6  27  1   
 13   6  28  1   
 14   7  12  ar  
 15   7  29  1   
 16   8  13  ar  
 17   8  30  1   
 18   9  14  1   
 19   9  31  1   
 20   9  32  1   
 21  10  15  1   
 22  10  33  1   
 23  10  34  1   
 24  11  16  1   
 25  11  17  1   
 26  11  35  1   
 27  12  18  1   
 28  12  19  ar  
 29  13  19  ar  
 30  13  36  1   
 31  14  16  1   
 32  15  17  1   
 33  15  20  1   
 34  15  37  1   
 35  16  38  1   
 36  16  39  1   
 37  17  40  1   
 38  17  41  1   
 39  18  21  1   
 40  19  42  1   
 41  20  43  1   
 42  20  44  1   
 43  20  45  1   
 44  21  22  1   
 45  21  46  1   
 46  21  47  1   
 47  22  23  1   
 48  22  48  1   
 49  22  49  1   
 50  23  24  1   
 51  24  25  1   
 52  24  50  1   
 53  24  51  1   
 54  25  52  1   
 55  25  53  1   
 56  25  54  1   
@<TRIPOS>SUBSTRUCTURE
  1 ****   7 GROUP 4 **** **** 0

# MOE 2024.06 (io_trps.svl 2023.06)
