@<TRIPOS>MOLECULE
NONAME
49 52 1 0 0 
SMALL
USER_CHARGES


@<TRIPOS>ATOM
  1 F       -0.8190     5.2230     1.5890 F     1 <1>  -0.1900 
  2 C       -0.9480     4.8000     0.3600 C.ar  1 <1>   0.1900 
  3 C       -0.3090     3.6330    -0.0440 C.ar  1 <1>  -0.0320 
  4 C       -1.7160     5.5690    -0.4940 C.ar  1 <1>  -0.1500 
  5 C       -0.4770     3.2440    -1.3670 C.ar  1 <1>  -0.1500 
  6 C        0.5590     2.8140     0.9190 C.3   1 <1>   0.0320 
  7 C       -1.8600     5.1640    -1.8090 C.ar  1 <1>  -0.1500 
  8 C       -1.2420     4.0020    -2.2410 C.ar  1 <1>  -0.1500 
  9 C        1.7570     3.6020     1.4750 C.2   1 <1>   0.6300 
 10 C       -0.1790     1.8820     1.8410 C.3   1 <1>  -0.2000 
 11 C        0.6890     1.3200     0.7640 C.3   1 <1>  -0.2000 
 12 O        1.6740     4.0580     2.5920 O.2   1 <1>  -0.5700 
 13 N        2.8680     3.8810     0.7160 N.am  1 <1>  -0.6600 
 14 C        4.0110     4.6700     1.3150 C.3   1 <1>   0.1400 
 15 C        2.8990     3.8000    -0.7720 C.3   1 <1>   0.1400 
 16 C        3.8880     6.1920     1.0310 C.3   1 <1>   0.4230 
 17 C        2.7250     5.1790    -1.4650 C.3   1 <1>  -0.0800 
 18 N        2.4370     6.5020     0.7390 N.4   1 <1>  -0.9590 
 19 C        4.9080     6.6420    -0.0500 C.3   1 <1>   0.1200 
 20 C        4.0470     5.7120    -2.0380 C.3   1 <1>   0.1200 
 21 C        2.0070     6.3010    -0.6840 C.3   1 <1>   0.3430 
 22 C        2.0630     7.9020     1.2070 C.3   1 <1>   0.2370 
 23 O        5.0470     5.7000    -1.0780 O.3   1 <1>  -0.5600 
 24 C        2.8260     9.0390     0.5250 C.2   1 <1>   0.9060 
 25 O        3.8620     9.4370     1.0630 O.co2 1 <1>  -0.9000 
 26 O        2.4630     9.3860    -0.6030 O.co2 1 <1>  -0.9000 
 27 H       -2.1930     6.4640    -0.1350 H     1 <1>   0.1500 
 28 H       -0.0160     2.3440    -1.7340 H     1 <1>   0.1500 
 29 H       -2.4560     5.7470    -2.4920 H     1 <1>   0.1500 
 30 H       -1.3640     3.6830    -3.2630 H     1 <1>   0.1500 
 31 H        0.1450     1.8140     2.8660 H     1 <1>   0.1000 
 32 H       -1.2470     1.8020     1.7440 H     1 <1>   0.1000 
 33 H        0.1960     0.7960    -0.0350 H     1 <1>   0.1000 
 34 H        1.6120     0.8480     1.0530 H     1 <1>   0.1000 
 35 H        4.0280     4.5280     2.3820 H     1 <1>   0.0800 
 36 H        4.9480     4.2880     0.9480 H     1 <1>   0.0800 
 37 H        3.8360     3.3610    -1.0720 H     1 <1>   0.0800 
 38 H        2.1350     3.1290    -1.1150 H     1 <1>   0.0800 
 39 H        4.1590     6.7150     1.9330 H     1 <1>   0.0800 
 40 H        2.1130     5.0040    -2.3300 H     1 <1>   0.0800 
 41 H        1.9210     5.8190     1.3170 H     1 <1>   0.4500 
 42 H        5.8740     6.7250     0.4150 H     1 <1>   0.0800 
 43 H        4.6750     7.6030    -0.4730 H     1 <1>   0.0800 
 44 H        3.9440     6.7140    -2.4250 H     1 <1>   0.0800 
 45 H        4.3800     5.0760    -2.8410 H     1 <1>   0.0800 
 46 H        0.9490     6.1050    -0.6940 H     1 <1>   0.0800 
 47 H        2.1540     7.2220    -1.2270 H     1 <1>   0.0800 
 48 H        1.0160     8.0730     1.0350 H     1 <1>   0.0800 
 49 H        2.2470     7.9910     2.2620 H     1 <1>   0.0800 
@<TRIPOS>BOND
  1   1   2  1   
  2   2   3  ar  
  3   2   4  ar  
  4   3   5  ar  
  5   3   6  1   
  6   4   7  ar  
  7   4  27  1   
  8   5   8  ar  
  9   5  28  1   
 10   6   9  1   
 11   6  10  1   
 12   6  11  1   
 13   7   8  ar  
 14   7  29  1   
 15   8  30  1   
 16   9  12  2   
 17   9  13  am  
 18  10  11  1   
 19  10  31  1   
 20  10  32  1   
 21  11  33  1   
 22  11  34  1   
 23  13  14  1   
 24  13  15  1   
 25  14  16  1   
 26  14  35  1   
 27  14  36  1   
 28  15  17  1   
 29  15  37  1   
 30  15  38  1   
 31  16  18  1   
 32  16  19  1   
 33  16  39  1   
 34  17  20  1   
 35  17  21  1   
 36  17  40  1   
 37  18  21  1   
 38  18  22  1   
 39  18  41  1   
 40  19  23  1   
 41  19  42  1   
 42  19  43  1   
 43  20  23  1   
 44  20  44  1   
 45  20  45  1   
 46  21  46  1   
 47  21  47  1   
 48  22  24  1   
 49  22  48  1   
 50  22  49  1   
 51  24  25  ar  
 52  24  26  ar  
@<TRIPOS>SUBSTRUCTURE
  1 ****  21 GROUP 4 **** **** 0

# MOE 2024.06 (io_trps.svl 2023.06)
