@<TRIPOS>MOLECULE
NONAME
42 43 1 0 0 
SMALL
USER_CHARGES


@<TRIPOS>ATOM
  1 O        1.0130     0.4780    -0.6490 O.2   1 <1>  -0.5700 
  2 C        1.6970    -0.5150    -0.4800 C.2   1 <1>   0.7670 
  3 N        2.8890    -0.4070     0.1770 N.2   1 <1>  -0.6610 
  4 C        1.2480    -1.7790    -0.9410 C.2   1 <1>  -0.1360 
  5 C        3.5820    -1.4670     0.3530 C.2   1 <1>   0.4390 
  6 C        1.9890    -2.8900    -0.7230 C.2   1 <1>  -0.0380 
  7 N        3.1880    -2.7090    -0.0640 N.pl3 1 <1>  -0.5500 
  8 C        4.9140    -1.3780     1.0550 C.3   1 <1>  -0.1790 
  9 C        1.5410    -4.2810    -1.1640 C.3   1 <1>   0.4810 
 10 N        1.1240    -5.0840     0.0290 N.4   1 <1>  -0.9590 
 11 C        0.8490    -6.5030    -0.3770 C.3   1 <1>   0.3430 
 12 C       -0.0530    -4.4550     0.7190 C.3   1 <1>   0.2630 
 13 C        0.6800    -7.4440     0.8170 C.3   1 <1>   0.0210 
 14 C        0.4630    -8.8390     0.2740 C.2   1 <1>  -0.1810 
 15 C        1.4470    -9.7840    -0.0170 C.2   1 <1>   0.1080 
 16 C       -0.7020    -9.4410    -0.0530 C.2   1 <1>  -0.3320 
 17 N        0.9460   -10.8740    -0.4960 N.2   1 <1>  -0.7070 
 18 C        2.9390    -9.6290     0.1820 C.3   1 <1>  -0.0590 
 19 N       -0.3810   -10.6710    -0.5100 N.pl3 1 <1>   0.3000 
 20 C       -2.1420    -8.9610     0.0310 C.3   1 <1>  -0.0600 
 21 H        0.3040    -1.7740    -1.4510 H     1 <1>   0.1500 
 22 H        3.8690    -3.4600     0.0830 H     1 <1>   0.4000 
 23 H        4.9060    -1.9770     1.9460 H     1 <1>   0.0800 
 24 H        5.1140    -0.3580     1.3330 H     1 <1>   0.0800 
 25 H        5.7000    -1.7100     0.4020 H     1 <1>   0.0800 
 26 H        2.3520    -4.7680    -1.6800 H     1 <1>   0.0800 
 27 H        0.7140    -4.1910    -1.8490 H     1 <1>   0.0800 
 28 H        1.9130    -5.0740     0.6880 H     1 <1>   0.4500 
 29 H        1.6650    -6.8740    -0.9770 H     1 <1>   0.0800 
 30 H       -0.0430    -6.5480    -0.9810 H     1 <1>   0.0800 
 31 H       -0.9090    -4.4340     0.0620 H     1 <1>   0.0800 
 32 H        0.1790    -3.4440     1.0140 H     1 <1>   0.0800 
 33 H       -0.3140    -5.0100     1.6050 H     1 <1>   0.0800 
 34 H       -0.1720    -7.1680     1.4100 H     1 <1>   0.0800 
 35 H        1.5560    -7.4340     1.4400 H     1 <1>   0.0800 
 36 H        3.3170    -8.8390    -0.4370 H     1 <1>   0.0800 
 37 H        3.4350   -10.5450    -0.0890 H     1 <1>   0.0800 
 38 H        3.1530    -9.4220     1.2140 H     1 <1>   0.0800 
 39 H       -1.0360   -11.3940    -0.8340 H     1 <1>   0.2700 
 40 H       -2.1970    -7.9610     0.4200 H     1 <1>   0.0800 
 41 H       -2.7070    -9.6070     0.6800 H     1 <1>   0.0800 
 42 H       -2.5950    -8.9740    -0.9450 H     1 <1>   0.0800 
@<TRIPOS>BOND
  1   1   2  2   
  2   2   3  1   
  3   2   4  1   
  4   3   5  2   
  5   4   6  2   
  6   4  21  1   
  7   5   7  1   
  8   5   8  1   
  9   6   7  1   
 10   6   9  1   
 11   7  22  1   
 12   8  23  1   
 13   8  24  1   
 14   8  25  1   
 15   9  10  1   
 16   9  26  1   
 17   9  27  1   
 18  10  11  1   
 19  10  12  1   
 20  10  28  1   
 21  11  13  1   
 22  11  29  1   
 23  11  30  1   
 24  12  31  1   
 25  12  32  1   
 26  12  33  1   
 27  13  14  1   
 28  13  34  1   
 29  13  35  1   
 30  14  15  1   
 31  14  16  2   
 32  15  17  2   
 33  15  18  1   
 34  16  19  1   
 35  16  20  1   
 36  17  19  1   
 37  18  36  1   
 38  18  37  1   
 39  18  38  1   
 40  19  39  1   
 41  20  40  1   
 42  20  41  1   
 43  20  42  1   
@<TRIPOS>SUBSTRUCTURE
  1 ****  10 GROUP 4 **** **** 0

# MOE 2024.06 (io_trps.svl 2023.06)
