@<TRIPOS>MOLECULE
NONAME
46 48 1 0 0 
SMALL
USER_CHARGES


@<TRIPOS>ATOM
  1 S       -0.1930     0.7220     1.5920 S.o2  1 <1>   1.5010 
  2 O        0.5210    -0.2470     2.3990 O.2   1 <1>  -0.6500 
  3 O       -0.8470     1.8290     2.2590 O.2   1 <1>  -0.6500 
  4 N       -1.3980    -0.1200     0.7510 N.am  1 <1>  -0.8490 
  5 C        0.8800     1.3680     0.2820 C.2   1 <1>  -0.0630 
  6 C       -0.8430    -1.1950    -0.1130 C.3   1 <1>   0.1960 
  7 C       -2.4740    -0.5560     1.6300 C.3   1 <1>   0.1960 
  8 C        0.5180     2.1800    -0.7360 C.2   1 <1>  -0.1400 
  9 C        2.2770     1.0300     0.2310 C.2   1 <1>  -0.1500 
 10 C       -1.7840    -2.4000    -0.3800 C.3   1 <1>  -0.1060 
 11 C       -3.6540    -1.0840     0.8060 C.3   1 <1>  -0.1600 
 12 S        1.8810     2.5580    -1.7730 S.3   1 <1>  -0.0800 
 13 C       -0.8150     2.7880    -1.1270 C.3   1 <1>  -0.0600 
 14 C        2.9510     1.5760    -0.7960 C.2   1 <1>  -0.1400 
 15 C       -1.4230    -2.9950    -1.7460 C.2   1 <1>   0.9060 
 16 C       -3.2150    -1.8300    -0.4630 C.3   1 <1>   0.2000 
 17 C       -1.6920    -3.5420     0.6860 C.3   1 <1>  -0.0650 
 18 C        4.3980     1.4830    -1.2290 C.3   1 <1>  -0.0600 
 19 O       -0.3310    -2.7430    -2.2660 O.co2 1 <1>  -0.9000 
 20 O       -2.2520    -3.7230    -2.3140 O.co2 1 <1>  -0.9000 
 21 O       -4.1210    -2.8440    -0.7050 O.3   1 <1>  -0.6800 
 22 C       -0.2760    -3.8790     1.1790 C.3   1 <1>  -0.1950 
 23 C        0.6690    -4.6640     0.3290 C.3   1 <1>  -0.2000 
 24 C        0.0730    -5.2820     1.5620 C.3   1 <1>  -0.2000 
 25 H       -0.6200    -0.7240    -1.0570 H     1 <1>   0.0800 
 26 H        0.1010    -1.5470     0.2600 H     1 <1>   0.0800 
 27 H       -2.1010    -1.3110     2.3000 H     1 <1>   0.0800 
 28 H       -2.8180     0.2700     2.2300 H     1 <1>   0.0800 
 29 H        2.7030     0.3800     0.9770 H     1 <1>   0.1500 
 30 H       -4.2720    -0.2550     0.5140 H     1 <1>   0.0800 
 31 H       -4.2420    -1.7280     1.4350 H     1 <1>   0.0800 
 32 H       -1.5810     2.5110    -0.4250 H     1 <1>   0.0800 
 33 H       -1.1010     2.4380    -2.1020 H     1 <1>   0.0800 
 34 H       -0.7370     3.8600    -1.1470 H     1 <1>   0.0800 
 35 H       -3.2620    -1.1560    -1.3030 H     1 <1>   0.0800 
 36 H       -2.2900    -3.3170     1.5470 H     1 <1>   0.0800 
 37 H       -2.1250    -4.4300     0.2570 H     1 <1>   0.0800 
 38 H        4.9470     0.8520    -0.5550 H     1 <1>   0.0800 
 39 H        4.8440     2.4610    -1.2340 H     1 <1>   0.0800 
 40 H        4.4550     1.0660    -2.2190 H     1 <1>   0.0800 
 41 H       -3.6980    -3.4010    -1.4240 H     1 <1>   0.4000 
 42 H        0.1390    -3.1070     1.8050 H     1 <1>   0.1000 
 43 H        0.3310    -4.9850    -0.6430 H     1 <1>   0.1000 
 44 H        1.7020    -4.3650     0.3200 H     1 <1>   0.1000 
 45 H        0.7080    -5.4430     2.4150 H     1 <1>   0.1000 
 46 H       -0.6570    -6.0620     1.4340 H     1 <1>   0.1000 
@<TRIPOS>BOND
  1   1   2  2   
  2   1   3  2   
  3   1   4  am  
  4   1   5  1   
  5   4   6  1   
  6   4   7  1   
  7   5   8  2   
  8   5   9  1   
  9   6  10  1   
 10   6  25  1   
 11   6  26  1   
 12   7  11  1   
 13   7  27  1   
 14   7  28  1   
 15   8  12  1   
 16   8  13  1   
 17   9  14  2   
 18   9  29  1   
 19  10  15  1   
 20  10  16  1   
 21  10  17  1   
 22  11  16  1   
 23  11  30  1   
 24  11  31  1   
 25  12  14  1   
 26  13  32  1   
 27  13  33  1   
 28  13  34  1   
 29  14  18  1   
 30  15  19  ar  
 31  15  20  ar  
 32  16  21  1   
 33  16  35  1   
 34  17  22  1   
 35  17  36  1   
 36  17  37  1   
 37  18  38  1   
 38  18  39  1   
 39  18  40  1   
 40  21  41  1   
 41  22  23  1   
 42  22  24  1   
 43  22  42  1   
 44  23  24  1   
 45  23  43  1   
 46  23  44  1   
 47  24  45  1   
 48  24  46  1   
@<TRIPOS>SUBSTRUCTURE
  1 ****   6 GROUP 4 **** **** 0

# MOE 2024.06 (io_trps.svl 2023.06)
