@<TRIPOS>MOLECULE
NONAME
44 46 1 0 0 
SMALL
USER_CHARGES


@<TRIPOS>ATOM
  1 O       -0.6760    -0.7030    -0.4220 O.co2 1 <1>  -0.9000 
  2 C       -0.5450    -1.9180    -0.6090 C.2   1 <1>   1.0330 
  3 O       -1.5730    -2.6300    -0.5910 O.co2 1 <1>  -0.9000 
  4 C        0.7380    -2.5250    -0.8220 C.2   1 <1>  -0.2330 
  5 C        0.9000    -3.8260    -1.2940 C.2   1 <1>   0.3720 
  6 C        2.0210    -2.1040    -0.6430 C.2   1 <1>   0.0870 
  7 N        2.1330    -4.1660    -1.3700 N.2   1 <1>  -0.4100 
  8 N       -0.1520    -4.6690    -1.6080 N.pl3 1 <1>  -0.8520 
  9 O        2.7980    -3.1100    -0.9840 O.3   1 <1>  -0.0190 
 10 C        2.6390    -0.8850    -0.1730 C.ar  1 <1>   0.0530 
 11 C       -0.3090    -5.7600    -0.6310 C.3   1 <1>   0.2090 
 12 C        3.8860    -0.4900    -0.6630 C.ar  1 <1>  -0.1500 
 13 C        2.0500    -0.0680     0.7920 C.ar  1 <1>  -0.1500 
 14 C       -1.7100    -6.3960    -0.7480 C.3   1 <1>   0.4230 
 15 C        4.5130     0.6590    -0.2160 C.ar  1 <1>  -0.1500 
 16 C        2.6680     1.0830     1.2430 C.ar  1 <1>  -0.1500 
 17 N       -1.9150    -7.5740     0.1430 N.4   1 <1>  -0.9590 
 18 C       -2.8500    -5.4630    -0.3560 C.3   1 <1>  -0.1600 
 19 C        3.9040     1.4500     0.7410 C.ar  1 <1>  -0.1500 
 20 C       -3.3870    -7.7700     0.2100 C.3   1 <1>   0.3430 
 21 C       -1.1640    -8.7760    -0.3010 C.3   1 <1>   0.3430 
 22 C       -3.9850    -6.3720     0.1140 C.3   1 <1>  -0.1600 
 23 C       -1.2170    -9.8390     0.7890 C.3   1 <1>  -0.2400 
 24 H       -0.9850    -4.0420    -1.5180 H     1 <1>   0.4000 
 25 H        0.4530    -6.4920    -0.8300 H     1 <1>   0.0800 
 26 H       -0.1670    -5.3660     0.3620 H     1 <1>   0.0800 
 27 H        4.3670    -1.0950    -1.4100 H     1 <1>   0.1500 
 28 H        1.0890    -0.3370     1.1930 H     1 <1>   0.1500 
 29 H       -1.8550    -6.7060    -1.7700 H     1 <1>   0.0800 
 30 H        5.4720     0.9380    -0.6130 H     1 <1>   0.1500 
 31 H        2.1800     1.6930     1.9820 H     1 <1>   0.1500 
 32 H       -1.5960    -7.2910     1.0780 H     1 <1>   0.4500 
 33 H       -2.5410    -4.8160     0.4480 H     1 <1>   0.0800 
 34 H       -3.1410    -4.8390    -1.1840 H     1 <1>   0.0800 
 35 H        4.3840     2.3470     1.0910 H     1 <1>   0.1500 
 36 H       -3.7160    -8.3570    -0.6330 H     1 <1>   0.0800 
 37 H       -3.6790    -8.2630     1.1240 H     1 <1>   0.0800 
 38 H       -1.5840    -9.1600    -1.2170 H     1 <1>   0.0800 
 39 H       -0.1330    -8.5160    -0.4860 H     1 <1>   0.0800 
 40 H       -4.8030    -6.3690    -0.5860 H     1 <1>   0.0800 
 41 H       -4.3560    -6.0510     1.0730 H     1 <1>   0.0800 
 42 H       -2.2220   -10.1870     0.9500 H     1 <1>   0.0800 
 43 H       -0.8090    -9.4640     1.7110 H     1 <1>   0.0800 
 44 H       -0.6240   -10.6840     0.4850 H     1 <1>   0.0800 
@<TRIPOS>BOND
  1   1   2  ar  
  2   2   3  ar  
  3   2   4  1   
  4   4   5  1   
  5   4   6  2   
  6   5   7  2   
  7   5   8  1   
  8   6   9  1   
  9   6  10  1   
 10   7   9  1   
 11   8  11  1   
 12   8  24  1   
 13  10  12  ar  
 14  10  13  ar  
 15  11  14  1   
 16  11  25  1   
 17  11  26  1   
 18  12  15  ar  
 19  12  27  1   
 20  13  16  ar  
 21  13  28  1   
 22  14  17  1   
 23  14  18  1   
 24  14  29  1   
 25  15  19  ar  
 26  15  30  1   
 27  16  19  ar  
 28  16  31  1   
 29  17  20  1   
 30  17  21  1   
 31  17  32  1   
 32  18  22  1   
 33  18  33  1   
 34  18  34  1   
 35  19  35  1   
 36  20  22  1   
 37  20  36  1   
 38  20  37  1   
 39  21  23  1   
 40  21  38  1   
 41  21  39  1   
 42  22  40  1   
 43  22  41  1   
 44  23  42  1   
 45  23  43  1   
 46  23  44  1   
@<TRIPOS>SUBSTRUCTURE
  1 ****   5 GROUP 4 **** **** 0

# MOE 2024.06 (io_trps.svl 2023.06)
