@<TRIPOS>MOLECULE
NONAME
49 52 1 0 0 
SMALL
USER_CHARGES


@<TRIPOS>ATOM
  1 O        1.2870     0.2190    -2.3550 O.2   1 <1>  -0.5700 
  2 C        1.6670     0.6110    -1.2640 C.2   1 <1>   0.5440 
  3 N        1.1490     1.7900    -0.7770 N.am  1 <1>  -0.6600 
  4 C        2.6320    -0.1530    -0.5100 C.ar  1 <1>   0.0860 
  5 C        1.1610     2.1870     0.6490 C.3   1 <1>   0.1400 
  6 C        0.1690     2.5950    -1.5400 C.3   1 <1>   0.1400 
  7 C        2.4230    -1.5190    -0.2410 C.ar  1 <1>   0.4100 
  8 C        3.7910     0.4350    -0.0220 C.ar  1 <1>  -0.1500 
  9 C       -0.0590     3.0860     0.8120 C.3   1 <1>  -0.1600 
 10 C       -0.2830     3.6840    -0.5730 C.3   1 <1>  -0.1600 
 11 N        3.2540    -2.2650     0.4860 N.ar  1 <1>  -0.6200 
 12 N        1.3070    -2.1580    -0.7300 N.pl3 1 <1>  -0.8690 
 13 C        4.6550    -0.3420     0.7150 C.ar  1 <1>  -0.1500 
 14 C        4.3390    -1.6690     0.9390 C.ar  1 <1>   0.1600 
 15 C        1.1560    -3.6390    -0.8080 C.3   1 <1>   0.2090 
 16 C        0.6180    -4.2030     0.5090 C.3   1 <1>   0.2090 
 17 N        0.3660    -5.6710     0.3750 N.pl3 1 <1>  -0.8380 
 18 C       -0.9410    -6.1350     0.3820 C.ar  1 <1>   0.1000 
 19 C        1.1790    -6.5620     1.2530 C.3   1 <1>   0.2090 
 20 C       -1.0790    -7.3080     1.0900 C.ar  1 <1>  -0.1430 
 21 C       -2.0510    -5.5630    -0.2240 C.ar  1 <1>  -0.1500 
 22 C        0.2570    -7.7290     1.6430 C.3   1 <1>  -0.0170 
 23 C       -2.3050    -7.9310     1.2190 C.ar  1 <1>  -0.1500 
 24 C       -3.2870    -6.1760    -0.1020 C.ar  1 <1>  -0.1500 
 25 C       -3.4150    -7.3570     0.6180 C.ar  1 <1>  -0.1500 
 26 H        2.0610     2.7420     0.8530 H     1 <1>   0.0800 
 27 H        1.1050     1.3280     1.2960 H     1 <1>   0.0800 
 28 H       -0.6610     1.9680    -1.8200 H     1 <1>   0.0800 
 29 H        0.6230     3.0070    -2.4250 H     1 <1>   0.0800 
 30 H        4.0020     1.4710    -0.2220 H     1 <1>   0.1500 
 31 H        0.0950     3.8390     1.5650 H     1 <1>   0.0800 
 32 H       -0.9040     2.4800     1.0890 H     1 <1>   0.0800 
 33 H       -1.3080     3.9650    -0.7400 H     1 <1>   0.0800 
 34 H        0.3430     4.5490    -0.7060 H     1 <1>   0.0800 
 35 H        0.8530    -1.6540    -1.5080 H     1 <1>   0.4000 
 36 H        5.5650     0.0710     1.1140 H     1 <1>   0.1500 
 37 H        5.0170    -2.2710     1.5210 H     1 <1>   0.1500 
 38 H        2.1080    -4.0910    -1.0260 H     1 <1>   0.0800 
 39 H        0.4710    -3.8830    -1.6000 H     1 <1>   0.0800 
 40 H       -0.2980    -3.6990     0.7630 H     1 <1>   0.0800 
 41 H        1.3340    -4.0160     1.2880 H     1 <1>   0.0800 
 42 H        1.4950    -6.0320     2.1350 H     1 <1>   0.0800 
 43 H        2.0420    -6.9160     0.7150 H     1 <1>   0.0800 
 44 H       -1.9410    -4.6540    -0.7840 H     1 <1>   0.1500 
 45 H        0.2200    -7.8520     2.7090 H     1 <1>   0.0800 
 46 H        0.5860    -8.6400     1.1780 H     1 <1>   0.0800 
 47 H       -2.3970    -8.8460     1.7760 H     1 <1>   0.1500 
 48 H       -4.1510    -5.7370    -0.5690 H     1 <1>   0.1500 
 49 H       -4.3780    -7.8290     0.7080 H     1 <1>   0.1500 
@<TRIPOS>BOND
  1   1   2  2   
  2   2   3  am  
  3   2   4  1   
  4   3   5  1   
  5   3   6  1   
  6   4   7  ar  
  7   4   8  ar  
  8   5   9  1   
  9   5  26  1   
 10   5  27  1   
 11   6  10  1   
 12   6  28  1   
 13   6  29  1   
 14   7  11  ar  
 15   7  12  1   
 16   8  13  ar  
 17   8  30  1   
 18   9  10  1   
 19   9  31  1   
 20   9  32  1   
 21  10  33  1   
 22  10  34  1   
 23  11  14  ar  
 24  12  15  1   
 25  12  35  1   
 26  13  14  ar  
 27  13  36  1   
 28  14  37  1   
 29  15  16  1   
 30  15  38  1   
 31  15  39  1   
 32  16  17  1   
 33  16  40  1   
 34  16  41  1   
 35  17  18  1   
 36  17  19  1   
 37  18  20  ar  
 38  18  21  ar  
 39  19  22  1   
 40  19  42  1   
 41  19  43  1   
 42  20  22  1   
 43  20  23  ar  
 44  21  24  ar  
 45  21  44  1   
 46  22  45  1   
 47  22  46  1   
 48  23  25  ar  
 49  23  47  1   
 50  24  25  ar  
 51  24  48  1   
 52  25  49  1   
@<TRIPOS>SUBSTRUCTURE
  1 ****  12 GROUP 4 **** **** 0

# MOE 2024.06 (io_trps.svl 2023.06)
