@<TRIPOS>MOLECULE
NONAME
52 55 1 0 0 
SMALL
USER_CHARGES


@<TRIPOS>ATOM
  1 O        3.2960     0.2690     2.7850 O.2   1 <1>  -0.5700 
  2 C        3.1890    -0.7640     2.1600 C.2   1 <1>   0.9370 
  3 N        3.3520    -0.7410     0.7690 N.pl3 1 <1>  -0.5760 
  4 C        2.9010    -1.9860     2.8200 C.2   1 <1>  -0.1360 
  5 C        3.2520    -1.9080     0.0800 C.cat 1 <1>   0.7390 
  6 C        3.5780     0.4260     0.0790 C.2   1 <1>   0.1910 
  7 C        2.8320    -3.1300     2.1170 C.2   1 <1>   0.2030 
  8 N        3.0680    -3.0420     0.7710 N.pl3 1 <1>  -0.6450 
  9 C        3.3550    -1.9060    -1.3160 C.2   1 <1>  -0.1800 
 10 C        3.6930     0.4410    -1.2830 C.2   1 <1>  -0.1500 
 11 C        2.4890    -4.5020     2.7200 C.3   1 <1>   0.2480 
 12 C        3.5750    -0.7480    -2.0130 C.2   1 <1>  -0.1380 
 13 N        1.1570    -5.0450     2.3440 N.3   1 <1>  -0.8100 
 14 C        3.6810    -0.7310    -3.5270 C.3   1 <1>  -0.1020 
 15 C        1.1810    -6.2800     1.5030 C.3   1 <1>   0.1100 
 16 C        0.1040    -4.0550     2.0330 C.3   1 <1>   0.1100 
 17 C        0.5390    -6.1000     0.1090 C.3   1 <1>  -0.1060 
 18 C       -1.1640    -4.7650     1.5800 C.3   1 <1>  -0.1600 
 19 C        1.4320    -5.1070    -0.6530 C.2   1 <1>   0.9060 
 20 C       -0.9310    -5.6220     0.3270 C.3   1 <1>   0.2000 
 21 C        0.4750    -7.4500    -0.6620 C.3   1 <1>  -0.0650 
 22 O        0.9920    -4.0460    -1.1180 O.co2 1 <1>  -0.9000 
 23 O        2.6610    -5.2660    -0.6820 O.co2 1 <1>  -0.9000 
 24 O       -1.3800    -4.9260    -0.7750 O.3   1 <1>  -0.6800 
 25 C        1.7770    -8.2660    -0.7100 C.3   1 <1>  -0.1950 
 26 C        1.7290    -9.7290    -1.0160 C.3   1 <1>  -0.2000 
 27 C        2.1170    -9.2600     0.3560 C.3   1 <1>  -0.2000 
 28 H        2.7370    -1.9360     3.8780 H     1 <1>   0.1500 
 29 H        3.6630     1.3470     0.6380 H     1 <1>   0.1500 
 30 H        2.9310    -3.8950     0.1760 H     1 <1>   0.4500 
 31 H        3.2390    -2.8510    -1.8220 H     1 <1>   0.1500 
 32 H        3.8680     1.3640    -1.8080 H     1 <1>   0.1500 
 33 H        2.5070    -4.4140     3.7910 H     1 <1>   0.0800 
 34 H        3.2630    -5.1990     2.4510 H     1 <1>   0.0800 
 35 H        2.9230    -0.0910    -3.9430 H     1 <1>   0.0800 
 36 H        3.5450    -1.7200    -3.9290 H     1 <1>   0.0800 
 37 H        4.6480    -0.3700    -3.8280 H     1 <1>   0.0800 
 38 H        2.1910    -6.6360     1.3900 H     1 <1>   0.0800 
 39 H        0.6380    -7.0460     2.0290 H     1 <1>   0.0800 
 40 H       -0.1040    -3.4660     2.9090 H     1 <1>   0.0800 
 41 H        0.4170    -3.3940     1.2430 H     1 <1>   0.0800 
 42 H       -1.9490    -4.0510     1.4030 H     1 <1>   0.0800 
 43 H       -1.4850    -5.4040     2.3830 H     1 <1>   0.0800 
 44 H       -1.5830    -6.4730     0.4180 H     1 <1>   0.0800 
 45 H       -0.2840    -8.0750    -0.2270 H     1 <1>   0.0800 
 46 H        0.1690    -7.2440    -1.6740 H     1 <1>   0.0800 
 47 H       -0.6030    -4.3730    -1.0920 H     1 <1>   0.4000 
 48 H        2.5900    -7.7220    -1.1600 H     1 <1>   0.1000 
 49 H        0.7730   -10.2050    -1.1500 H     1 <1>   0.1000 
 50 H        2.4870   -10.1410    -1.6590 H     1 <1>   0.1000 
 51 H        3.1450    -9.3410     0.6640 H     1 <1>   0.1000 
 52 H        1.4280    -9.4210     1.1670 H     1 <1>   0.1000 
@<TRIPOS>BOND
  1   1   2  2   
  2   2   3  1   
  3   2   4  1   
  4   3   5  ar  
  5   3   6  1   
  6   4   7  2   
  7   4  28  1   
  8   5   8  ar  
  9   5   9  1   
 10   6  10  2   
 11   6  29  1   
 12   7   8  1   
 13   7  11  1   
 14   8  30  1   
 15   9  12  2   
 16   9  31  1   
 17  10  12  1   
 18  10  32  1   
 19  11  13  1   
 20  11  33  1   
 21  11  34  1   
 22  12  14  1   
 23  13  15  1   
 24  13  16  1   
 25  14  35  1   
 26  14  36  1   
 27  14  37  1   
 28  15  17  1   
 29  15  38  1   
 30  15  39  1   
 31  16  18  1   
 32  16  40  1   
 33  16  41  1   
 34  17  19  1   
 35  17  20  1   
 36  17  21  1   
 37  18  20  1   
 38  18  42  1   
 39  18  43  1   
 40  19  22  ar  
 41  19  23  ar  
 42  20  24  1   
 43  20  44  1   
 44  21  25  1   
 45  21  45  1   
 46  21  46  1   
 47  24  47  1   
 48  25  26  1   
 49  25  27  1   
 50  25  48  1   
 51  26  27  1   
 52  26  49  1   
 53  26  50  1   
 54  27  51  1   
 55  27  52  1   
@<TRIPOS>SUBSTRUCTURE
  1 ****   8 GROUP 4 **** **** 0

# MOE 2024.06 (io_trps.svl 2023.06)
