@<TRIPOS>MOLECULE
NONAME
39 40 1 0 0 
SMALL
USER_CHARGES


@<TRIPOS>ATOM
  1 O        0.5240     1.1700    -1.1960 O.2   1 <1>  -0.5700 
  2 C        1.4480     1.5130    -0.5100 C.2   1 <1>   0.4950 
  3 C        1.4110     2.1930     0.7360 C.2   1 <1>  -0.1360 
  4 C        2.8960     1.2670    -0.8770 C.3   1 <1>  -0.0990 
  5 C        2.6360     2.4150     1.2190 C.2   1 <1>  -0.2880 
  6 C        3.7170     1.8780     0.2980 C.3   1 <1>   0.1380 
  7 C        4.6250     3.0300    -0.1640 C.3   1 <1>  -0.1600 
  8 C        4.5480     0.8150     1.0380 C.3   1 <1>  -0.1600 
  9 C        5.8160     2.5340    -0.9910 C.3   1 <1>   0.1400 
 10 C        5.7390     0.3290     0.2060 C.3   1 <1>   0.1400 
 11 N        6.5530     1.4960    -0.2230 N.am  1 <1>  -0.6600 
 12 C        7.8890     1.5900     0.0830 C.2   1 <1>   0.7800 
 13 O        8.4680     0.7250     0.7110 O.2   1 <1>  -0.5700 
 14 O        8.5380     2.6790    -0.3400 O.3   1 <1>  -0.4300 
 15 C        9.8990     2.9970    -0.1450 C.3   1 <1>   0.2800 
 16 C       10.7920     1.9520    -0.8240 C.3   1 <1>  -0.2400 
 17 C       10.2020     3.1440     1.3510 C.3   1 <1>  -0.2400 
 18 C       10.0940     4.3490    -0.8320 C.3   1 <1>  -0.2400 
 19 H        0.4660     2.4610     1.1720 H     1 <1>   0.1500 
 20 H        3.1040     1.7490    -1.8140 H     1 <1>   0.0800 
 21 H        3.0540     0.2100    -0.9800 H     1 <1>   0.0800 
 22 H        2.9210     2.9040     2.1350 H     1 <1>   0.1500 
 23 H        5.0090     3.5510     0.6950 H     1 <1>   0.0800 
 24 H        4.0580     3.7390    -0.7410 H     1 <1>   0.0800 
 25 H        3.9280    -0.0230     1.3020 H     1 <1>   0.0800 
 26 H        4.9290     1.2320     1.9540 H     1 <1>   0.0800 
 27 H        6.4550     3.3670    -1.2290 H     1 <1>   0.0800 
 28 H        5.4770     2.1050    -1.9180 H     1 <1>   0.0800 
 29 H        5.3980    -0.2000    -0.6670 H     1 <1>   0.0800 
 30 H        6.3300    -0.3530     0.7940 H     1 <1>   0.0800 
 31 H       10.7340     1.0050    -0.3200 H     1 <1>   0.0800 
 32 H       11.8180     2.2720    -0.7950 H     1 <1>   0.0800 
 33 H       10.5040     1.8250    -1.8510 H     1 <1>   0.0800 
 34 H       10.1430     2.1970     1.8540 H     1 <1>   0.0800 
 35 H        9.5110     3.8300     1.8070 H     1 <1>   0.0800 
 36 H       11.1980     3.5220     1.4880 H     1 <1>   0.0800 
 37 H        9.8620     4.2720    -1.8790 H     1 <1>   0.0800 
 38 H       11.1130     4.6750    -0.7340 H     1 <1>   0.0800 
 39 H        9.4560     5.0900    -0.3850 H     1 <1>   0.0800 
@<TRIPOS>BOND
  1   1   2  2   
  2   2   3  1   
  3   2   4  1   
  4   3   5  2   
  5   3  19  1   
  6   4   6  1   
  7   4  20  1   
  8   4  21  1   
  9   5   6  1   
 10   5  22  1   
 11   6   7  1   
 12   6   8  1   
 13   7   9  1   
 14   7  23  1   
 15   7  24  1   
 16   8  10  1   
 17   8  25  1   
 18   8  26  1   
 19   9  11  1   
 20   9  27  1   
 21   9  28  1   
 22  10  11  1   
 23  10  29  1   
 24  10  30  1   
 25  11  12  am  
 26  12  13  2   
 27  12  14  1   
 28  14  15  1   
 29  15  16  1   
 30  15  17  1   
 31  15  18  1   
 32  16  31  1   
 33  16  32  1   
 34  16  33  1   
 35  17  34  1   
 36  17  35  1   
 37  17  36  1   
 38  18  37  1   
 39  18  38  1   
 40  18  39  1   
@<TRIPOS>SUBSTRUCTURE
  1 ****  11 GROUP 4 **** **** 0

# MOE 2024.06 (io_trps.svl 2023.06)
