@<TRIPOS>MOLECULE
NONAME
60 64 1 0 0 
SMALL
USER_CHARGES


@<TRIPOS>ATOM
  1 O        1.6080    -1.4110     2.6180 O.2   1 <1>  -0.5700 
  2 C        1.8470    -1.6410     1.4630 C.2   1 <1>   0.5690 
  3 N        3.1280    -1.7520     1.0550 N.am  1 <1>  -0.7300 
  4 C        0.7130    -1.8190     0.4820 C.3   1 <1>  -0.0990 
  5 C        3.5800    -2.1210    -0.3070 C.3   1 <1>   0.1400 
  6 C        0.6860    -3.2240    -0.1170 C.3   1 <1>   0.1200 
  7 C        3.0320    -3.4950    -0.7900 C.3   1 <1>   0.2800 
  8 O        1.6710    -3.3960    -1.1030 O.3   1 <1>  -0.5600 
  9 C        3.6850    -3.8760    -2.1270 C.3   1 <1>  -0.1600 
 10 C        3.2560    -4.6480     0.2100 C.3   1 <1>  -0.1600 
 11 C        5.1560    -4.2530    -1.9780 C.3   1 <1>   0.3430 
 12 C        4.7340    -4.9830     0.3550 C.3   1 <1>   0.3430 
 13 N        5.3030    -5.3460    -0.9740 N.4   1 <1>  -0.9590 
 14 C        6.7190    -5.8150    -0.8540 C.3   1 <1>   0.4380 
 15 C        7.6470    -4.7020    -0.3520 C.3   1 <1>  -0.1950 
 16 C        8.9170    -5.0760     0.3550 C.3   1 <1>   0.0640 
 17 C        7.8060    -4.3840     1.1000 C.3   1 <1>  -0.2000 
 18 C       10.1830    -4.2720     0.0990 C.ar  1 <1>  -0.0320 
 19 C        9.1860    -6.5600     0.5780 C.ar  1 <1>  -0.0320 
 20 C       10.9310    -3.8080     1.1700 C.ar  1 <1>  -0.1500 
 21 C       10.6050    -3.9940    -1.1930 C.ar  1 <1>  -0.1500 
 22 C        9.0490    -7.1340     1.8340 C.ar  1 <1>  -0.1500 
 23 C        9.5650    -7.3580    -0.4910 C.ar  1 <1>  -0.1500 
 24 C       12.0810    -3.0680     0.9540 C.ar  1 <1>  -0.1500 
 25 C       11.7540    -3.2540    -1.4110 C.ar  1 <1>  -0.1500 
 26 C        9.2610    -8.4900     2.0120 C.ar  1 <1>  -0.1500 
 27 C        9.7770    -8.7140    -0.3160 C.ar  1 <1>  -0.1500 
 28 C       12.4910    -2.7890    -0.3370 C.ar  1 <1>  -0.1500 
 29 C        9.6200    -9.2810     0.9360 C.ar  1 <1>  -0.1500 
 30 H        3.8290    -1.4730     1.7460 H     1 <1>   0.3700 
 31 H        0.7740    -1.0810    -0.2960 H     1 <1>   0.0800 
 32 H       -0.2080    -1.6570     1.0120 H     1 <1>   0.0800 
 33 H        4.6540    -2.1370    -0.2990 H     1 <1>   0.0800 
 34 H        3.2740    -1.3540    -1.0000 H     1 <1>   0.0800 
 35 H       -0.2610    -3.3690    -0.6080 H     1 <1>   0.0800 
 36 H        0.7770    -3.9800     0.6430 H     1 <1>   0.0800 
 37 H        3.6030    -3.0510    -2.8130 H     1 <1>   0.0800 
 38 H        3.1580    -4.7080    -2.5610 H     1 <1>   0.0800 
 39 H        2.7250    -5.5250    -0.1170 H     1 <1>   0.0800 
 40 H        2.8860    -4.3830     1.1840 H     1 <1>   0.0800 
 41 H        5.7190    -3.3900    -1.6630 H     1 <1>   0.0800 
 42 H        5.5410    -4.5750    -2.9330 H     1 <1>   0.0800 
 43 H        4.8500    -5.8050     1.0440 H     1 <1>   0.0800 
 44 H        5.2560    -4.1300     0.7580 H     1 <1>   0.0800 
 45 H        4.7550    -6.1460    -1.3190 H     1 <1>   0.4500 
 46 H        7.0720    -6.1620    -1.8120 H     1 <1>   0.0800 
 47 H        6.7650    -6.6470    -0.1690 H     1 <1>   0.0800 
 48 H        7.7500    -3.8980    -1.0590 H     1 <1>   0.1000 
 49 H        7.2720    -4.9430     1.8460 H     1 <1>   0.1000 
 50 H        7.9660    -3.3610     1.3970 H     1 <1>   0.1000 
 51 H       10.6230    -4.0270     2.1770 H     1 <1>   0.1500 
 52 H       10.0460    -4.3540    -2.0370 H     1 <1>   0.1500 
 53 H        8.7860    -6.5300     2.6840 H     1 <1>   0.1500 
 54 H        9.7070    -6.9250    -1.4650 H     1 <1>   0.1500 
 55 H       12.6570    -2.7110     1.7900 H     1 <1>   0.1500 
 56 H       12.0780    -3.0400    -2.4150 H     1 <1>   0.1500 
 57 H        9.1540    -8.9300     2.9890 H     1 <1>   0.1500 
 58 H       10.0730    -9.3290    -1.1490 H     1 <1>   0.1500 
 59 H       13.3840    -2.2130    -0.5050 H     1 <1>   0.1500 
 60 H        9.7880   -10.3360     1.0750 H     1 <1>   0.1500 
@<TRIPOS>BOND
  1   1   2  2   
  2   2   3  am  
  3   2   4  1   
  4   3   5  1   
  5   3  30  1   
  6   4   6  1   
  7   4  31  1   
  8   4  32  1   
  9   5   7  1   
 10   5  33  1   
 11   5  34  1   
 12   6   8  1   
 13   6  35  1   
 14   6  36  1   
 15   7   8  1   
 16   7   9  1   
 17   7  10  1   
 18   9  11  1   
 19   9  37  1   
 20   9  38  1   
 21  10  12  1   
 22  10  39  1   
 23  10  40  1   
 24  11  13  1   
 25  11  41  1   
 26  11  42  1   
 27  12  13  1   
 28  12  43  1   
 29  12  44  1   
 30  13  14  1   
 31  13  45  1   
 32  14  15  1   
 33  14  46  1   
 34  14  47  1   
 35  15  16  1   
 36  15  17  1   
 37  15  48  1   
 38  16  17  1   
 39  16  18  1   
 40  16  19  1   
 41  17  49  1   
 42  17  50  1   
 43  18  20  ar  
 44  18  21  ar  
 45  19  22  ar  
 46  19  23  ar  
 47  20  24  ar  
 48  20  51  1   
 49  21  25  ar  
 50  21  52  1   
 51  22  26  ar  
 52  22  53  1   
 53  23  27  ar  
 54  23  54  1   
 55  24  28  ar  
 56  24  55  1   
 57  25  28  ar  
 58  25  56  1   
 59  26  29  ar  
 60  26  57  1   
 61  27  29  ar  
 62  27  58  1   
 63  28  59  1   
 64  29  60  1   
@<TRIPOS>SUBSTRUCTURE
  1 ****  15 GROUP 4 **** **** 0

# MOE 2024.06 (io_trps.svl 2023.06)
