@<TRIPOS>MOLECULE
NONAME
33 34 1 0 0 
SMALL
USER_CHARGES


@<TRIPOS>ATOM
  1 S       -0.2670    -0.6210     2.3350 S.3   1 <1>  -0.0800 
  2 C        0.8670    -1.2160     1.1530 C.2   1 <1>  -0.1400 
  3 C        0.1180     1.0100     1.8390 C.2   1 <1>   0.2280 
  4 C        1.4200    -0.1650     0.5220 C.2   1 <1>   0.0460 
  5 C        1.0300    -2.7200     1.0440 C.3   1 <1>   0.2900 
  6 N        0.9890     1.0900     0.9150 N.2   1 <1>  -0.5650 
  7 C        2.4600    -0.1920    -0.5770 C.3   1 <1>  -0.0590 
  8 N       -0.1720    -3.3510     0.4670 N.3   1 <1>  -0.8100 
  9 C       -0.0780    -4.8240     0.5540 C.3   1 <1>   0.2900 
 10 C       -0.4450    -2.8970    -0.9210 C.3   1 <1>   0.1100 
 11 C       -1.4450    -5.4640     0.3890 C.2   1 <1>   0.0060 
 12 C       -1.5480    -1.8230    -0.9940 C.3   1 <1>   0.1200 
 13 N       -1.6740    -6.5960    -0.1990 N.2   1 <1>  -0.5650 
 14 N       -2.5560    -4.8680     0.8650 N.pl3 1 <1>   0.0330 
 15 O       -2.7670    -2.3260    -0.5510 O.3   1 <1>  -0.6800 
 16 C       -3.0090    -6.7450    -0.0960 C.2   1 <1>   0.0770 
 17 C       -3.5670    -5.6960     0.5480 C.2   1 <1>  -0.3020 
 18 H       -0.3980     1.8090     2.3410 H     1 <1>   0.1500 
 19 H        1.2020    -3.1090     2.0330 H     1 <1>   0.0800 
 20 H        1.8890    -2.9550     0.4390 H     1 <1>   0.0800 
 21 H        2.7360    -1.1990    -0.8260 H     1 <1>   0.0800 
 22 H        3.3360     0.3400    -0.2530 H     1 <1>   0.0800 
 23 H        2.0680     0.2900    -1.4530 H     1 <1>   0.0800 
 24 H        0.2970    -5.1100     1.5210 H     1 <1>   0.0800 
 25 H        0.5960    -5.2040    -0.1960 H     1 <1>   0.0800 
 26 H       -0.7520    -3.7260    -1.5360 H     1 <1>   0.0800 
 27 H        0.4530    -2.5000    -1.3610 H     1 <1>   0.0800 
 28 H       -1.6780    -1.5020    -2.0130 H     1 <1>   0.0800 
 29 H       -1.2990    -0.9650    -0.3960 H     1 <1>   0.0800 
 30 H       -2.5760    -3.9330     1.2940 H     1 <1>   0.2700 
 31 H       -2.9420    -3.1910    -0.9730 H     1 <1>   0.4000 
 32 H       -3.5070    -7.6120    -0.4990 H     1 <1>   0.1500 
 33 H       -4.5940    -5.4960     0.7900 H     1 <1>   0.1500 
@<TRIPOS>BOND
  1   1   2  1   
  2   1   3  1   
  3   2   4  2   
  4   2   5  1   
  5   3   6  2   
  6   3  18  1   
  7   4   6  1   
  8   4   7  1   
  9   5   8  1   
 10   5  19  1   
 11   5  20  1   
 12   7  21  1   
 13   7  22  1   
 14   7  23  1   
 15   8   9  1   
 16   8  10  1   
 17   9  11  1   
 18   9  24  1   
 19   9  25  1   
 20  10  12  1   
 21  10  26  1   
 22  10  27  1   
 23  11  13  2   
 24  11  14  1   
 25  12  15  1   
 26  12  28  1   
 27  12  29  1   
 28  13  16  1   
 29  14  17  1   
 30  14  30  1   
 31  15  31  1   
 32  16  17  2   
 33  16  32  1   
 34  17  33  1   
@<TRIPOS>SUBSTRUCTURE
  1 ****   8 GROUP 4 **** **** 0

# MOE 2024.06 (io_trps.svl 2023.06)
