@<TRIPOS>MOLECULE
NONAME
53 56 1 0 0 
SMALL
USER_CHARGES


@<TRIPOS>ATOM
  1 O        1.5090    -0.6500     1.9850 O.3   1 <1>  -0.0190 
  2 N        2.0250     0.5380     1.8500 N.2   1 <1>  -0.4100 
  3 C        1.5470    -1.3260     0.8670 C.2   1 <1>  -0.0400 
  4 C        2.4030     0.6310     0.6230 C.2   1 <1>   0.1080 
  5 C        2.1200    -0.5480    -0.0650 C.2   1 <1>  -0.1500 
  6 C        0.9980    -2.7410     0.8070 C.3   1 <1>   0.2900 
  7 C        3.0660     1.8550     0.0000 C.3   1 <1>   0.1010 
  8 N       -0.4500    -2.7790     1.0760 N.3   1 <1>  -0.8100 
  9 C        4.3930     2.1850     0.7070 C.3   1 <1>  -0.1600 
 10 C        2.1200     3.0670     0.0290 C.3   1 <1>  -0.1600 
 11 C       -1.0440    -4.1350     0.9990 C.3   1 <1>   0.1100 
 12 C       -1.2520    -1.8860     0.2340 C.3   1 <1>   0.1100 
 13 C        5.0590     3.4320     0.1060 C.3   1 <1>  -0.1600 
 14 C        2.7810     4.3160    -0.5720 C.3   1 <1>  -0.1600 
 15 C       -2.1520    -4.1090    -0.0670 C.3   1 <1>   0.4240 
 16 C       -2.5540    -2.6360    -0.0170 C.3   1 <1>  -0.1600 
 17 C        4.1060     4.6340     0.1330 C.3   1 <1>  -0.1600 
 18 O       -1.5620    -4.2990    -1.3060 O.3   1 <1>  -0.6800 
 19 C       -3.2800    -5.1530     0.1200 C.ar  1 <1>  -0.1440 
 20 C       -3.0310    -6.5230     0.2780 C.ar  1 <1>  -0.1430 
 21 C       -4.6100    -4.7310     0.1290 C.ar  1 <1>  -0.1500 
 22 C       -4.0870    -7.4030     0.4730 C.ar  1 <1>  -0.1500 
 23 C       -1.6390    -7.1430     0.2390 C.3   1 <1>  -0.0970 
 24 C       -5.6540    -5.6170     0.3180 C.ar  1 <1>  -0.1500 
 25 C       -5.3930    -6.9580     0.4960 C.ar  1 <1>  -0.1500 
 26 H        2.3280    -0.7490    -1.0980 H     1 <1>   0.1500 
 27 H        1.5070    -3.3400     1.5430 H     1 <1>   0.0800 
 28 H        1.1970    -3.1580    -0.1650 H     1 <1>   0.0800 
 29 H        3.2850     1.6270    -1.0280 H     1 <1>   0.0800 
 30 H        5.0600     1.3440     0.6290 H     1 <1>   0.0800 
 31 H        4.2020     2.3550     1.7530 H     1 <1>   0.0800 
 32 H        1.8400     3.2700     1.0490 H     1 <1>   0.0800 
 33 H        1.2220     2.8340    -0.5150 H     1 <1>   0.0800 
 34 H       -1.4910    -4.3580     1.9520 H     1 <1>   0.0800 
 35 H       -0.3040    -4.8820     0.7820 H     1 <1>   0.0800 
 36 H       -0.7520    -1.6980    -0.7020 H     1 <1>   0.0800 
 37 H       -1.4210    -0.9470     0.7370 H     1 <1>   0.0800 
 38 H        5.3480     3.2290    -0.9110 H     1 <1>   0.0800 
 39 H        5.9500     3.6660     0.6620 H     1 <1>   0.0800 
 40 H        2.1130     5.1550    -0.4790 H     1 <1>   0.0800 
 41 H        2.9650     4.1550    -1.6210 H     1 <1>   0.0800 
 42 H       -3.0560    -2.3110    -0.9110 H     1 <1>   0.0800 
 43 H       -3.1940    -2.4620     0.8290 H     1 <1>   0.0800 
 44 H        4.5750     5.4780    -0.3430 H     1 <1>   0.0800 
 45 H        3.9060     4.9040     1.1570 H     1 <1>   0.0800 
 46 H       -0.8610    -3.6320    -1.3970 H     1 <1>   0.4000 
 47 H       -4.8710    -3.7000    -0.0170 H     1 <1>   0.1500 
 48 H       -3.9000    -8.4540     0.6040 H     1 <1>   0.1500 
 49 H       -1.0490    -6.7110    -0.5480 H     1 <1>   0.0800 
 50 H       -1.6980    -8.1990     0.0450 H     1 <1>   0.0800 
 51 H       -1.1450    -7.0040     1.1820 H     1 <1>   0.0800 
 52 H       -6.6700    -5.2610     0.3240 H     1 <1>   0.1500 
 53 H       -6.2000    -7.6530     0.6470 H     1 <1>   0.1500 
@<TRIPOS>BOND
  1   1   2  1   
  2   1   3  1   
  3   2   4  2   
  4   3   5  2   
  5   3   6  1   
  6   4   5  1   
  7   4   7  1   
  8   5  26  1   
  9   6   8  1   
 10   6  27  1   
 11   6  28  1   
 12   7   9  1   
 13   7  10  1   
 14   7  29  1   
 15   8  11  1   
 16   8  12  1   
 17   9  13  1   
 18   9  30  1   
 19   9  31  1   
 20  10  14  1   
 21  10  32  1   
 22  10  33  1   
 23  11  15  1   
 24  11  34  1   
 25  11  35  1   
 26  12  16  1   
 27  12  36  1   
 28  12  37  1   
 29  13  17  1   
 30  13  38  1   
 31  13  39  1   
 32  14  17  1   
 33  14  40  1   
 34  14  41  1   
 35  15  16  1   
 36  15  18  1   
 37  15  19  1   
 38  16  42  1   
 39  16  43  1   
 40  17  44  1   
 41  17  45  1   
 42  18  46  1   
 43  19  20  ar  
 44  19  21  ar  
 45  20  22  ar  
 46  20  23  1   
 47  21  24  ar  
 48  21  47  1   
 49  22  25  ar  
 50  22  48  1   
 51  23  49  1   
 52  23  50  1   
 53  23  51  1   
 54  24  25  ar  
 55  24  52  1   
 56  25  53  1   
@<TRIPOS>SUBSTRUCTURE
  1 ****  12 GROUP 4 **** **** 0

# MOE 2024.06 (io_trps.svl 2023.06)
