@<TRIPOS>MOLECULE
NONAME
54 57 1 0 0 
SMALL
USER_CHARGES


@<TRIPOS>ATOM
  1 S       -0.0940     0.2460     2.0940 S.o2  1 <1>   1.4470 
  2 O       -0.3850    -0.6980     3.1500 O.2   1 <1>  -0.6500 
  3 O        0.3360     1.5870     2.4320 O.2   1 <1>  -0.6500 
  4 N       -1.4920     0.3930     1.1450 N.am  1 <1>  -0.8490 
  5 C        1.0900    -0.5100     0.9450 C.ar  1 <1>  -0.0090 
  6 C       -1.3610     1.4450     0.1340 C.3   1 <1>   0.1960 
  7 C       -2.6740     0.6380     1.9750 C.3   1 <1>   0.1960 
  8 C        2.3200     0.0700     0.6870 C.ar  1 <1>  -0.1500 
  9 C        0.7770    -1.6990     0.2900 C.ar  1 <1>  -0.1500 
 10 C       -2.5700     1.4110    -0.8030 C.3   1 <1>  -0.1600 
 11 C       -3.9360     0.5930     1.1100 C.3   1 <1>  -0.1600 
 12 C        3.2450    -0.4870    -0.2030 C.ar  1 <1>   0.0280 
 13 C        1.6610    -2.2780    -0.5930 C.ar  1 <1>  -0.1500 
 14 C       -3.8830     1.6210    -0.0310 C.3   1 <1>   0.2800 
 15 C        2.8930    -1.6860    -0.8500 C.ar  1 <1>   0.1170 
 16 C        4.5330     0.0940    -0.4960 C.2   1 <1>  -0.1670 
 17 O       -3.8570     2.8830     0.5900 O.3   1 <1>  -0.5600 
 18 C       -5.1240     1.4930    -0.9520 C.3   1 <1>  -0.1600 
 19 N        3.7830    -2.2680    -1.7440 N.am  1 <1>  -0.5470 
 20 C        5.3610    -0.5210    -1.3780 C.2   1 <1>  -0.1360 
 21 C        4.9580     1.3900     0.1840 C.3   1 <1>  -0.1020 
 22 C       -4.1450     4.0030    -0.1980 C.3   1 <1>   0.1200 
 23 C       -6.1970     2.5430    -0.6570 C.3   1 <1>   0.2800 
 24 C        4.9990    -1.7340    -2.0320 C.2   1 <1>   0.6160 
 25 C       -5.5820     3.9430    -0.7400 C.3   1 <1>  -0.1600 
 26 O       -6.6170     2.3660     0.6350 O.3   1 <1>  -0.6800 
 27 C       -7.4290     2.3920    -1.5450 C.3   1 <1>  -0.2400 
 28 O        5.7200    -2.3080    -2.8260 O.2   1 <1>  -0.5700 
 29 H       -0.4670     1.2880    -0.4450 H     1 <1>   0.0800 
 30 H       -1.2900     2.4110     0.6090 H     1 <1>   0.0800 
 31 H       -2.5900     1.5950     2.4660 H     1 <1>   0.0800 
 32 H       -2.7530    -0.1220     2.7350 H     1 <1>   0.0800 
 33 H        2.5650     0.9850     1.1960 H     1 <1>   0.1500 
 34 H       -0.1760    -2.1640     0.4840 H     1 <1>   0.1500 
 35 H       -2.5920     0.4540    -1.2920 H     1 <1>   0.0800 
 36 H       -2.4560     2.1560    -1.5680 H     1 <1>   0.0800 
 37 H       -4.7970     0.7680     1.7270 H     1 <1>   0.0800 
 38 H       -4.0270    -0.3980     0.7040 H     1 <1>   0.0800 
 39 H        1.4010    -3.1960    -1.0890 H     1 <1>   0.1500 
 40 H       -5.5470     0.5070    -0.8850 H     1 <1>   0.0800 
 41 H       -4.8160     1.6160    -1.9740 H     1 <1>   0.0800 
 42 H        3.5670    -3.1380    -2.2260 H     1 <1>   0.3700 
 43 H        6.3290    -0.1370    -1.6340 H     1 <1>   0.1500 
 44 H        4.2700     2.1800    -0.0590 H     1 <1>   0.0800 
 45 H        5.9400     1.6880    -0.1380 H     1 <1>   0.0800 
 46 H        4.9810     1.2580     1.2510 H     1 <1>   0.0800 
 47 H       -3.4330     4.0500    -1.0030 H     1 <1>   0.0800 
 48 H       -4.0160     4.8770     0.4180 H     1 <1>   0.0800 
 49 H       -5.5540     4.2590    -1.7670 H     1 <1>   0.0800 
 50 H       -6.2050     4.6480    -0.2190 H     1 <1>   0.0800 
 51 H       -5.8400     2.5480     1.2050 H     1 <1>   0.4000 
 52 H       -7.1620     2.5160    -2.5790 H     1 <1>   0.0800 
 53 H       -8.1620     3.1370    -1.2900 H     1 <1>   0.0800 
 54 H       -7.8620     1.4160    -1.4180 H     1 <1>   0.0800 
@<TRIPOS>BOND
  1   1   2  2   
  2   1   3  2   
  3   1   4  am  
  4   1   5  1   
  5   4   6  1   
  6   4   7  1   
  7   5   8  ar  
  8   5   9  ar  
  9   6  10  1   
 10   6  29  1   
 11   6  30  1   
 12   7  11  1   
 13   7  31  1   
 14   7  32  1   
 15   8  12  ar  
 16   8  33  1   
 17   9  13  ar  
 18   9  34  1   
 19  10  14  1   
 20  10  35  1   
 21  10  36  1   
 22  11  14  1   
 23  11  37  1   
 24  11  38  1   
 25  12  15  ar  
 26  12  16  1   
 27  13  15  ar  
 28  13  39  1   
 29  14  17  1   
 30  14  18  1   
 31  15  19  1   
 32  16  20  2   
 33  16  21  1   
 34  17  22  1   
 35  18  23  1   
 36  18  40  1   
 37  18  41  1   
 38  19  24  am  
 39  19  42  1   
 40  20  24  1   
 41  20  43  1   
 42  21  44  1   
 43  21  45  1   
 44  21  46  1   
 45  22  25  1   
 46  22  47  1   
 47  22  48  1   
 48  23  25  1   
 49  23  26  1   
 50  23  27  1   
 51  24  28  2   
 52  25  49  1   
 53  25  50  1   
 54  26  51  1   
 55  27  52  1   
 56  27  53  1   
 57  27  54  1   
@<TRIPOS>SUBSTRUCTURE
  1 ****   6 GROUP 4 **** **** 0

# MOE 2024.06 (io_trps.svl 2023.06)
