@<TRIPOS>MOLECULE
NONAME
52 54 1 0 0 
SMALL
USER_CHARGES


@<TRIPOS>ATOM
  1 F        1.8400    -0.7980    -1.2710 F     1 <1>  -0.3400 
  2 C        2.5560    -0.8610    -0.1560 C.3   1 <1>   1.3000 
  3 F        3.8360    -0.8090    -0.4950 F     1 <1>  -0.3400 
  4 F        2.2890     0.2160     0.5740 F     1 <1>  -0.3400 
  5 O        2.2950    -2.0490     0.5630 O.3   1 <1>  -0.3630 
  6 C        1.0280    -2.2630     0.9740 C.ar  1 <1>   0.0830 
  7 C        0.1580    -2.9830     0.1740 C.ar  1 <1>  -0.1500 
  8 C        0.6120    -1.7790     2.2030 C.ar  1 <1>  -0.1500 
  9 C       -1.1540    -3.2310     0.5740 C.ar  1 <1>   0.0860 
 10 C       -0.6880    -2.0040     2.6180 C.ar  1 <1>  -0.1500 
 11 C       -2.0600    -3.9900    -0.2730 C.2   1 <1>   0.5440 
 12 C       -1.5560    -2.7170     1.8100 C.ar  1 <1>  -0.1500 
 13 O       -1.9820    -3.8720    -1.4810 O.2   1 <1>  -0.5700 
 14 N       -2.9970    -4.8600     0.2580 N.am  1 <1>  -0.6600 
 15 C       -4.1570    -5.3190    -0.5700 C.3   1 <1>   0.2200 
 16 C       -2.5980    -5.7460     1.3950 C.3   1 <1>   0.0600 
 17 C       -4.9310    -4.1520    -1.1830 C.3   1 <1>  -0.1600 
 18 C       -5.2390    -6.0340     0.2420 C.3   1 <1>  -0.1600 
 19 C       -6.3170    -4.7130    -1.5210 C.3   1 <1>  -0.0800 
 20 C       -6.5220    -5.9190    -0.5940 C.3   1 <1>  -0.0800 
 21 C       -7.4580    -3.7330    -1.2320 C.3   1 <1>  -0.1600 
 22 C       -7.7760    -5.6190     0.2390 C.3   1 <1>  -0.1600 
 23 C       -7.9170    -4.1010     0.1780 C.3   1 <1>   0.4230 
 24 N       -9.2880    -3.6230     0.5350 N.4   1 <1>  -0.9590 
 25 C      -10.3830    -4.0670    -0.3910 C.3   1 <1>   0.2630 
 26 C       -9.3040    -2.1330     0.6690 C.3   1 <1>   0.2630 
 27 H        0.4940    -3.3600    -0.7770 H     1 <1>   0.1500 
 28 H        1.2950    -1.2310     2.8280 H     1 <1>   0.1500 
 29 H       -1.0220    -1.6240     3.5680 H     1 <1>   0.1500 
 30 H       -2.5680    -2.8800     2.1370 H     1 <1>   0.1500 
 31 H       -3.8030    -5.9660    -1.3560 H     1 <1>   0.0800 
 32 H       -3.2390    -5.5710     2.2410 H     1 <1>   0.0800 
 33 H       -1.5800    -5.5590     1.6900 H     1 <1>   0.0800 
 34 H       -2.6700    -6.7780     1.0990 H     1 <1>   0.0800 
 35 H       -5.0010    -3.3610    -0.4580 H     1 <1>   0.0800 
 36 H       -4.4460    -3.7800    -2.0690 H     1 <1>   0.0800 
 37 H       -4.9840    -7.0650     0.4150 H     1 <1>   0.0800 
 38 H       -5.3660    -5.5270     1.1820 H     1 <1>   0.0800 
 39 H       -6.3310    -5.0290    -2.5520 H     1 <1>   0.0800 
 40 H       -6.6540    -6.8170    -1.1770 H     1 <1>   0.0800 
 41 H       -8.2340    -3.9090    -1.9530 H     1 <1>   0.0800 
 42 H       -7.1310    -2.7100    -1.3010 H     1 <1>   0.0800 
 43 H       -7.6830    -5.9750     1.2500 H     1 <1>   0.0800 
 44 H       -8.6090    -6.1050    -0.2330 H     1 <1>   0.0800 
 45 H       -7.2030    -3.6840     0.8720 H     1 <1>   0.0800 
 46 H       -9.4930    -4.0200     1.4640 H     1 <1>   0.4500 
 47 H      -10.2320    -3.6600    -1.3770 H     1 <1>   0.0800 
 48 H      -11.3390    -3.7290    -0.0250 H     1 <1>   0.0800 
 49 H      -10.4090    -5.1420    -0.4610 H     1 <1>   0.0800 
 50 H       -9.0970    -1.6700    -0.2830 H     1 <1>   0.0800 
 51 H       -8.5570    -1.8120     1.3770 H     1 <1>   0.0800 
 52 H      -10.2690    -1.7970     1.0120 H     1 <1>   0.0800 
@<TRIPOS>BOND
  1   1   2  1   
  2   2   3  1   
  3   2   4  1   
  4   2   5  1   
  5   5   6  1   
  6   6   7  ar  
  7   6   8  ar  
  8   7   9  ar  
  9   7  27  1   
 10   8  10  ar  
 11   8  28  1   
 12   9  11  1   
 13   9  12  ar  
 14  10  12  ar  
 15  10  29  1   
 16  11  13  2   
 17  11  14  am  
 18  12  30  1   
 19  14  15  1   
 20  14  16  1   
 21  15  17  1   
 22  15  18  1   
 23  15  31  1   
 24  16  32  1   
 25  16  33  1   
 26  16  34  1   
 27  17  19  1   
 28  17  35  1   
 29  17  36  1   
 30  18  20  1   
 31  18  37  1   
 32  18  38  1   
 33  19  20  1   
 34  19  21  1   
 35  19  39  1   
 36  20  22  1   
 37  20  40  1   
 38  21  23  1   
 39  21  41  1   
 40  21  42  1   
 41  22  23  1   
 42  22  43  1   
 43  22  44  1   
 44  23  24  1   
 45  23  45  1   
 46  24  25  1   
 47  24  26  1   
 48  24  46  1   
 49  25  47  1   
 50  25  48  1   
 51  25  49  1   
 52  26  50  1   
 53  26  51  1   
 54  26  52  1   
@<TRIPOS>SUBSTRUCTURE
  1 ****  11 GROUP 4 **** **** 0

# MOE 2024.06 (io_trps.svl 2023.06)
