@<TRIPOS>MOLECULE
NONAME
37 39 1 0 0 
SMALL
USER_CHARGES


@<TRIPOS>ATOM
  1 S       -0.2190    -0.8100    -0.0710 S.3   1 <1>  -0.2820 
  2 C       -1.0100     0.7340     0.1850 C.2   1 <1>   0.7320 
  3 C       -1.7910    -1.5710    -0.0500 C.2   1 <1>   0.6510 
  4 S        0.0720     2.1530     0.2830 S.3   1 <1>  -0.3710 
  5 N       -2.2730     0.7140     0.2760 N.2   1 <1>  -0.5120 
  6 N       -1.9590    -2.8410    -0.2060 N.2   1 <1>  -0.6210 
  7 N       -2.7480    -0.6050     0.1440 N.am  1 <1>  -0.0580 
  8 C       -1.0880     3.5680     0.5510 C.3   1 <1>  -0.0100 
  9 C       -3.2540    -3.2770    -0.1560 C.2   1 <1>   0.0330 
 10 C       -4.0670    -1.0280     0.1760 C.2   1 <1>   0.6160 
 11 C       -4.2920    -2.4170     0.0180 C.2   1 <1>  -0.1360 
 12 C       -3.4780    -4.7800    -0.3150 C.3   1 <1>   0.2480 
 13 O       -4.9950    -0.2440     0.3300 O.2   1 <1>  -0.5700 
 14 N       -3.3070    -5.5020     0.9630 N.3   1 <1>  -0.8100 
 15 C       -3.1460    -6.9620     0.7580 C.3   1 <1>   0.2900 
 16 C       -4.3840    -5.2150     1.9220 C.3   1 <1>   0.0300 
 17 C       -4.3350    -7.6430     0.0790 C.2   1 <1>   0.1980 
 18 S       -4.2580    -7.8440    -1.6610 S.3   1 <1>  -0.0800 
 19 N       -5.3980    -8.1100     0.6070 N.2   1 <1>  -0.5650 
 20 C       -5.8120    -8.6220    -1.6150 C.2   1 <1>  -0.1100 
 21 C       -6.2370    -8.6620    -0.3440 C.2   1 <1>   0.0460 
 22 C       -7.5380    -9.2520     0.1530 C.3   1 <1>  -0.0590 
 23 H       -0.5020     4.4660     0.6270 H     1 <1>   0.0800 
 24 H       -1.6320     3.3840     1.4600 H     1 <1>   0.0800 
 25 H       -1.7560     3.6140    -0.2910 H     1 <1>   0.0800 
 26 H       -5.3140    -2.7440     0.0530 H     1 <1>   0.1500 
 27 H       -2.7670    -5.1480    -1.0350 H     1 <1>   0.0800 
 28 H       -4.4660    -4.9620    -0.7020 H     1 <1>   0.0800 
 29 H       -2.9930    -7.4300     1.7140 H     1 <1>   0.0800 
 30 H       -2.2600    -7.1390     0.1740 H     1 <1>   0.0800 
 31 H       -4.3810    -4.1720     2.1840 H     1 <1>   0.0800 
 32 H       -4.2340    -5.7840     2.8240 H     1 <1>   0.0800 
 33 H       -5.3440    -5.4730     1.5070 H     1 <1>   0.0800 
 34 H       -6.2370    -8.9640    -2.5410 H     1 <1>   0.1500 
 35 H       -8.1150    -8.4900     0.6440 H     1 <1>   0.0800 
 36 H       -7.3320   -10.0380     0.8550 H     1 <1>   0.0800 
 37 H       -8.1080    -9.6520    -0.6650 H     1 <1>   0.0800 
@<TRIPOS>BOND
  1   1   2  1   
  2   1   3  1   
  3   2   4  1   
  4   2   5  2   
  5   3   6  2   
  6   3   7  1   
  7   4   8  1   
  8   5   7  1   
  9   6   9  1   
 10   7  10  am  
 11   8  23  1   
 12   8  24  1   
 13   8  25  1   
 14   9  11  2   
 15   9  12  1   
 16  10  11  1   
 17  10  13  2   
 18  11  26  1   
 19  12  14  1   
 20  12  27  1   
 21  12  28  1   
 22  14  15  1   
 23  14  16  1   
 24  15  17  1   
 25  15  29  1   
 26  15  30  1   
 27  16  31  1   
 28  16  32  1   
 29  16  33  1   
 30  17  18  1   
 31  17  19  2   
 32  18  20  1   
 33  19  21  1   
 34  20  21  2   
 35  20  34  1   
 36  21  22  1   
 37  22  35  1   
 38  22  36  1   
 39  22  37  1   
@<TRIPOS>SUBSTRUCTURE
  1 ****   9 GROUP 4 **** **** 0

# MOE 2024.06 (io_trps.svl 2023.06)
