@<TRIPOS>MOLECULE
NONAME
49 52 1 0 0 
SMALL
USER_CHARGES


@<TRIPOS>ATOM
  1 CL       1.3880     1.3160     0.6490 Cl    1 <1>  -0.1770 
  2 C       -0.2980     1.5040     1.0750 C.ar  1 <1>   0.1770 
  3 C       -1.0520     2.5640     0.5670 C.ar  1 <1>   0.0540 
  4 C       -0.8340     0.5720     1.9450 C.ar  1 <1>  -0.1500 
  5 C       -0.5170     3.5380    -0.3580 C.2   1 <1>   0.4620 
  6 C       -2.3780     2.6550     0.9960 C.ar  1 <1>  -0.1500 
  7 C       -2.1540     0.6830     2.3430 C.ar  1 <1>  -0.1500 
  8 N        0.1400     3.2880    -1.4340 N.2   1 <1>  -0.4100 
  9 N       -0.6970     4.8480    -0.1770 N.2   1 <1>  -0.5650 
 10 C       -2.9240     1.7300     1.8680 C.ar  1 <1>  -0.1500 
 11 O        0.4390     4.4210    -1.9860 O.3   1 <1>  -0.0190 
 12 C       -0.0790     5.3160    -1.1850 C.2   1 <1>   0.2980 
 13 C        0.0770     6.7920    -1.5500 C.3   1 <1>   0.2900 
 14 N        1.3620     7.4090    -1.1290 N.3   1 <1>  -0.8100 
 15 C        1.3380     8.8580    -1.3690 C.3   1 <1>   0.1100 
 16 C        2.5360     6.7620    -1.7370 C.3   1 <1>   0.1100 
 17 C        2.5890     9.5080    -0.7770 C.3   1 <1>  -0.1600 
 18 C        3.8210     7.3610    -1.1640 C.3   1 <1>  -0.1600 
 19 C        3.8680     8.8840    -1.3590 C.3   1 <1>   0.1000 
 20 C        5.1420     9.4760    -0.7600 C.2   1 <1>   0.2980 
 21 O        6.2890     9.0970    -1.2690 O.3   1 <1>  -0.0190 
 22 N        5.2240    10.3200     0.1910 N.2   1 <1>  -0.5650 
 23 N        7.1730     9.7530    -0.5820 N.2   1 <1>  -0.4100 
 24 C        6.5400    10.4620     0.2680 C.2   1 <1>   0.3350 
 25 C        7.1650    11.4080     1.2960 C.3   1 <1>   0.1010 
 26 C        7.1710    12.8490     0.7690 C.3   1 <1>  -0.2400 
 27 C        8.5890    10.9870     1.6950 C.3   1 <1>  -0.2400 
 28 H       -0.2180    -0.2310     2.3080 H     1 <1>   0.1500 
 29 H       -2.9860     3.4680     0.6350 H     1 <1>   0.1500 
 30 H       -2.5790    -0.0390     3.0210 H     1 <1>   0.1500 
 31 H       -3.9510     1.8250     2.1790 H     1 <1>   0.1500 
 32 H       -0.7280     7.3210    -1.0710 H     1 <1>   0.0800 
 33 H       -0.0460     6.9000    -2.6140 H     1 <1>   0.0800 
 34 H        0.4700     9.2880    -0.8970 H     1 <1>   0.0800 
 35 H        1.2850     9.0560    -2.4270 H     1 <1>   0.0800 
 36 H        2.5130     6.8850    -2.8080 H     1 <1>   0.0800 
 37 H        2.5350     5.7090    -1.5130 H     1 <1>   0.0800 
 38 H        2.5740     9.3800     0.2920 H     1 <1>   0.0800 
 39 H        2.5770    10.5640    -0.9820 H     1 <1>   0.0800 
 40 H        4.6680     6.9040    -1.6440 H     1 <1>   0.0800 
 41 H        3.8740     7.1290    -0.1140 H     1 <1>   0.0800 
 42 H        3.8890     9.0890    -2.4140 H     1 <1>   0.0800 
 43 H        6.5500    11.3720     2.1780 H     1 <1>   0.0800 
 44 H        7.7680    12.9160    -0.1230 H     1 <1>   0.0800 
 45 H        7.5700    13.5200     1.5090 H     1 <1>   0.0800 
 46 H        6.1670    13.1560     0.5320 H     1 <1>   0.0800 
 47 H        9.2460    11.0300     0.8440 H     1 <1>   0.0800 
 48 H        8.5800     9.9790     2.0700 H     1 <1>   0.0800 
 49 H        8.9710    11.6360     2.4620 H     1 <1>   0.0800 
@<TRIPOS>BOND
  1   1   2  1   
  2   2   3  ar  
  3   2   4  ar  
  4   3   5  1   
  5   3   6  ar  
  6   4   7  ar  
  7   4  28  1   
  8   5   8  2   
  9   5   9  1   
 10   6  10  ar  
 11   6  29  1   
 12   7  10  ar  
 13   7  30  1   
 14   8  11  1   
 15   9  12  2   
 16  10  31  1   
 17  11  12  1   
 18  12  13  1   
 19  13  14  1   
 20  13  32  1   
 21  13  33  1   
 22  14  15  1   
 23  14  16  1   
 24  15  17  1   
 25  15  34  1   
 26  15  35  1   
 27  16  18  1   
 28  16  36  1   
 29  16  37  1   
 30  17  19  1   
 31  17  38  1   
 32  17  39  1   
 33  18  19  1   
 34  18  40  1   
 35  18  41  1   
 36  19  20  1   
 37  19  42  1   
 38  20  21  1   
 39  20  22  2   
 40  21  23  1   
 41  22  24  1   
 42  23  24  2   
 43  24  25  1   
 44  25  26  1   
 45  25  27  1   
 46  25  43  1   
 47  26  44  1   
 48  26  45  1   
 49  26  46  1   
 50  27  47  1   
 51  27  48  1   
 52  27  49  1   
@<TRIPOS>SUBSTRUCTURE
  1 ****  14 GROUP 4 **** **** 0

# MOE 2024.06 (io_trps.svl 2023.06)
