@<TRIPOS>MOLECULE
NONAME
51 54 1 0 0 
SMALL
USER_CHARGES


@<TRIPOS>ATOM
  1 O        0.7980     0.0840     1.1920 O.3   1 <1>  -0.5600 
  2 C        0.6390    -1.2600     0.8300 C.3   1 <1>   0.1200 
  3 C        1.6310     0.7900     0.3280 C.3   1 <1>   0.1200 
  4 C        1.9980    -2.0040     0.8010 C.3   1 <1>   0.2850 
  5 C        3.0350     0.1610     0.3390 C.3   1 <1>   0.1900 
  6 N        2.9760    -1.2720    -0.0540 N.3   1 <1>  -0.8100 
  7 C        1.8570    -3.4630     0.3090 C.3   1 <1>  -0.1950 
  8 C        3.9680     0.9490    -0.6020 C.3   1 <1>   0.3430 
  9 C        4.3280    -1.8750    -0.0550 C.3   1 <1>   0.1100 
 10 C        1.2600    -3.8050    -1.0220 C.3   1 <1>  -0.2000 
 11 C        0.5570    -4.2130     0.2390 C.3   1 <1>  -0.2000 
 12 N        5.3490     0.3480    -0.6620 N.4   1 <1>  -0.9590 
 13 C        5.2860    -1.1130    -0.9940 C.3   1 <1>   0.3430 
 14 C        6.2370     1.1020    -1.5860 C.3   1 <1>   0.4860 
 15 C        6.3710     2.5150    -1.0530 C.ar  1 <1>  -0.1440 
 16 C        7.1270     2.8260     0.0790 C.ar  1 <1>  -0.1440 
 17 C        5.6850     3.5160    -1.7270 C.ar  1 <1>  -0.1500 
 18 C        7.1490     4.1410     0.5400 C.ar  1 <1>  -0.1440 
 19 C        7.9390     1.7680     0.8300 C.3   1 <1>  -0.0970 
 20 C        5.7220     4.8170    -1.2710 C.ar  1 <1>  -0.1500 
 21 C        6.4480     5.1240    -0.1380 C.ar  1 <1>  -0.1500 
 22 C        7.9340     4.5560     1.7800 C.3   1 <1>  -0.0970 
 23 H       -0.0120    -1.7120     1.5560 H     1 <1>   0.0800 
 24 H        0.1610    -1.2990    -0.1330 H     1 <1>   0.0800 
 25 H        1.2010     0.7710    -0.6590 H     1 <1>   0.0800 
 26 H        1.6660     1.8080     0.6760 H     1 <1>   0.0800 
 27 H        2.3590    -2.0310     1.8160 H     1 <1>   0.0800 
 28 H        3.4160     0.2440     1.3430 H     1 <1>   0.0800 
 29 H        2.6810    -4.0620     0.6520 H     1 <1>   0.1000 
 30 H        4.0290     1.9700    -0.2590 H     1 <1>   0.0800 
 31 H        3.5310     0.9540    -1.5860 H     1 <1>   0.0800 
 32 H        4.7270    -1.8910     0.9450 H     1 <1>   0.0800 
 33 H        4.2730    -2.8900    -0.4070 H     1 <1>   0.0800 
 34 H        0.8350    -3.0200    -1.6230 H     1 <1>   0.1000 
 35 H        1.7310    -4.5660    -1.6210 H     1 <1>   0.1000 
 36 H        0.5520    -5.2570     0.5030 H     1 <1>   0.1000 
 37 H       -0.3870    -3.7440     0.4540 H     1 <1>   0.1000 
 38 H        5.7530     0.4630     0.2750 H     1 <1>   0.4500 
 39 H        4.9340    -1.2410    -2.0050 H     1 <1>   0.0800 
 40 H        6.2690    -1.5510    -0.9270 H     1 <1>   0.0800 
 41 H        7.2100     0.6410    -1.6370 H     1 <1>   0.0800 
 42 H        5.8160     1.1190    -2.5780 H     1 <1>   0.0800 
 43 H        5.1130     3.3010    -2.6130 H     1 <1>   0.1500 
 44 H        8.9310     2.1380     1.0220 H     1 <1>   0.0800 
 45 H        8.0560     0.8550     0.2800 H     1 <1>   0.0800 
 46 H        7.4730     1.5490     1.7750 H     1 <1>   0.0800 
 47 H        5.1910     5.5950    -1.7930 H     1 <1>   0.1500 
 48 H        6.4660     6.1430     0.2090 H     1 <1>   0.1500 
 49 H        7.7090     5.5700     2.0580 H     1 <1>   0.0800 
 50 H        8.9900     4.4900     1.5880 H     1 <1>   0.0800 
 51 H        7.6860     3.9250     2.6140 H     1 <1>   0.0800 
@<TRIPOS>BOND
  1   1   2  1   
  2   1   3  1   
  3   2   4  1   
  4   2  23  1   
  5   2  24  1   
  6   3   5  1   
  7   3  25  1   
  8   3  26  1   
  9   4   6  1   
 10   4   7  1   
 11   4  27  1   
 12   5   6  1   
 13   5   8  1   
 14   5  28  1   
 15   6   9  1   
 16   7  10  1   
 17   7  11  1   
 18   7  29  1   
 19   8  12  1   
 20   8  30  1   
 21   8  31  1   
 22   9  13  1   
 23   9  32  1   
 24   9  33  1   
 25  10  11  1   
 26  10  34  1   
 27  10  35  1   
 28  11  36  1   
 29  11  37  1   
 30  12  13  1   
 31  12  14  1   
 32  12  38  1   
 33  13  39  1   
 34  13  40  1   
 35  14  15  1   
 36  14  41  1   
 37  14  42  1   
 38  15  16  ar  
 39  15  17  ar  
 40  16  18  ar  
 41  16  19  1   
 42  17  20  ar  
 43  17  43  1   
 44  18  21  ar  
 45  18  22  1   
 46  19  44  1   
 47  19  45  1   
 48  19  46  1   
 49  20  21  ar  
 50  20  47  1   
 51  21  48  1   
 52  22  49  1   
 53  22  50  1   
 54  22  51  1   
@<TRIPOS>SUBSTRUCTURE
  1 ****   8 GROUP 4 **** **** 0

# MOE 2024.06 (io_trps.svl 2023.06)
