@<TRIPOS>MOLECULE
NONAME
54 56 1 0 0 
SMALL
USER_CHARGES


@<TRIPOS>ATOM
  1 O       -3.2100    -1.1440    -0.1680 O.co2 1 <1>  -0.9000 
  2 C       -3.5660    -0.2000     0.5490 C.2   1 <1>   0.9790 
  3 O       -4.2800    -0.4550     1.5330 O.co2 1 <1>  -0.9000 
  4 C       -3.5820     1.1530     0.0360 C.ar  1 <1>  -0.1790 
  5 C       -4.5050     1.4850    -0.9620 C.ar  1 <1>  -0.1440 
  6 C       -2.7460     2.1530     0.5270 C.ar  1 <1>  -0.1500 
  7 C       -4.5820     2.7810    -1.4470 C.ar  1 <1>  -0.1500 
  8 C       -5.4010     0.3800    -1.5090 C.3   1 <1>   0.4870 
  9 C       -2.8240     3.4450     0.0400 C.ar  1 <1>  -0.1500 
 10 C       -3.7430     3.7600    -0.9450 C.ar  1 <1>  -0.1500 
 11 N       -6.2460    -0.1560    -0.4130 N.4   1 <1>  -0.9590 
 12 C       -6.4820    -1.6210    -0.5810 C.3   1 <1>   0.3430 
 13 C       -7.4490     0.6450    -0.1130 C.3   1 <1>   0.3430 
 14 C       -6.9030    -2.3270     0.7230 C.3   1 <1>   0.1400 
 15 C       -7.5910     0.8440     1.3950 C.3   1 <1>  -0.1600 
 16 N       -8.0200    -1.6170     1.4300 N.am  1 <1>  -0.6600 
 17 C       -7.5580    -0.4460     2.2250 C.3   1 <1>   0.1400 
 18 C       -9.3620    -1.8730     1.2710 C.2   1 <1>   0.5770 
 19 O      -10.1700    -0.9960     1.4810 O.2   1 <1>  -0.5700 
 20 C       -9.9120    -3.2270     0.8100 C.3   1 <1>   0.0530 
 21 C      -11.1790    -3.6420     1.6250 C.3   1 <1>   0.0000 
 22 C       -9.2340    -4.5040     1.3990 C.3   1 <1>   0.0000 
 23 C      -10.1840    -3.2670    -0.7050 C.3   1 <1>   0.1200 
 24 C      -10.6470    -5.0970     1.6240 C.3   1 <1>   0.0000 
 25 O       -8.9860    -3.2070    -1.4200 O.3   1 <1>  -0.5600 
 26 C       -9.1510    -3.3870    -2.7910 C.3   1 <1>   0.0400 
 27 H       -2.0370     1.9080     1.2990 H     1 <1>   0.1500 
 28 H       -5.2860     3.0400    -2.2170 H     1 <1>   0.1500 
 29 H       -4.7620    -0.4030    -1.8860 H     1 <1>   0.0800 
 30 H       -6.0120     0.7450    -2.3160 H     1 <1>   0.0800 
 31 H       -2.1700     4.2040     0.4310 H     1 <1>   0.1500 
 32 H       -3.7990     4.7670    -1.3210 H     1 <1>   0.1500 
 33 H       -5.6350    -0.1220     0.4390 H     1 <1>   0.4500 
 34 H       -5.5680    -2.0850    -0.9160 H     1 <1>   0.0800 
 35 H       -7.2330    -1.7830    -1.3330 H     1 <1>   0.0800 
 36 H       -8.3240     0.1420    -0.4920 H     1 <1>   0.0800 
 37 H       -7.3760     1.6110    -0.5840 H     1 <1>   0.0800 
 38 H       -6.0460    -2.3900     1.3730 H     1 <1>   0.0800 
 39 H       -7.1800    -3.3320     0.4770 H     1 <1>   0.0800 
 40 H       -8.5310     1.3320     1.5750 H     1 <1>   0.0800 
 41 H       -6.8200     1.5060     1.7460 H     1 <1>   0.0800 
 42 H       -8.1850    -0.3310     3.0930 H     1 <1>   0.0800 
 43 H       -6.5550    -0.6240     2.5780 H     1 <1>   0.0800 
 44 H      -12.1090    -3.5210     1.0980 H     1 <1>   0.0000 
 45 H      -11.2000    -3.2290     2.6190 H     1 <1>   0.0000 
 46 H       -8.7230    -4.3190     2.3280 H     1 <1>   0.0000 
 47 H       -8.6480    -5.0680     0.6950 H     1 <1>   0.0000 
 48 H      -10.7940    -2.4250    -0.9890 H     1 <1>   0.0800 
 49 H      -10.6950    -4.1770    -0.9730 H     1 <1>   0.0800 
 50 H      -10.9990    -5.6720     0.7850 H     1 <1>   0.0000 
 51 H      -10.7610    -5.6000     2.5670 H     1 <1>   0.0000 
 52 H       -8.1860    -3.3150    -3.2610 H     1 <1>   0.0800 
 53 H       -9.8020    -2.6210    -3.1770 H     1 <1>   0.0800 
 54 H       -9.5670    -4.3630    -2.9740 H     1 <1>   0.0800 
@<TRIPOS>BOND
  1   1   2  ar  
  2   2   3  ar  
  3   2   4  1   
  4   4   5  ar  
  5   4   6  ar  
  6   5   7  ar  
  7   5   8  1   
  8   6   9  ar  
  9   6  27  1   
 10   7  10  ar  
 11   7  28  1   
 12   8  11  1   
 13   8  29  1   
 14   8  30  1   
 15   9  10  ar  
 16   9  31  1   
 17  10  32  1   
 18  11  12  1   
 19  11  13  1   
 20  11  33  1   
 21  12  14  1   
 22  12  34  1   
 23  12  35  1   
 24  13  15  1   
 25  13  36  1   
 26  13  37  1   
 27  14  16  1   
 28  14  38  1   
 29  14  39  1   
 30  15  17  1   
 31  15  40  1   
 32  15  41  1   
 33  16  17  1   
 34  16  18  am  
 35  17  42  1   
 36  17  43  1   
 37  18  19  2   
 38  18  20  1   
 39  20  21  1   
 40  20  22  1   
 41  20  23  1   
 42  21  24  1   
 43  21  44  1   
 44  21  45  1   
 45  22  24  1   
 46  22  46  1   
 47  22  47  1   
 48  23  25  1   
 49  23  48  1   
 50  23  49  1   
 51  24  50  1   
 52  24  51  1   
 53  25  26  1   
 54  26  52  1   
 55  26  53  1   
 56  26  54  1   
@<TRIPOS>SUBSTRUCTURE
  1 ****  11 GROUP 4 **** **** 0

# MOE 2024.06 (io_trps.svl 2023.06)
