@<TRIPOS>MOLECULE
NONAME
54 57 1 0 0 
SMALL
USER_CHARGES


@<TRIPOS>ATOM
  1 F       -0.0270    -1.5580    -2.6270 F     1 <1>  -0.1900 
  2 C        0.8700    -2.1180    -1.8610 C.ar  1 <1>   0.1900 
  3 C        2.2050    -1.9860    -2.1930 C.ar  1 <1>  -0.1500 
  4 C        0.4530    -2.8210    -0.7480 C.ar  1 <1>  -0.1500 
  5 C        3.1540    -2.5830    -1.3790 C.ar  1 <1>  -0.1500 
  6 C        1.4100    -3.4130     0.0580 C.ar  1 <1>  -0.1500 
  7 C        2.7600    -3.3010    -0.2540 C.ar  1 <1>  -0.1430 
  8 C        3.7950    -3.9640     0.6460 C.3   1 <1>   0.2840 
  9 N        3.6060    -5.4470     0.6350 N.am  1 <1>  -0.6600 
 10 C        3.2520    -6.1000     1.7900 C.2   1 <1>   0.5690 
 11 C        3.7220    -6.0850    -0.7100 C.3   1 <1>   0.1400 
 12 O        3.2430    -5.5210     2.8480 O.2   1 <1>  -0.5700 
 13 C        2.8280    -7.5590     1.8500 C.3   1 <1>  -0.0990 
 14 C        4.6900    -7.3020    -0.7430 C.3   1 <1>   0.2800 
 15 C        3.0470    -8.4370     0.6190 C.3   1 <1>   0.1200 
 16 O        4.3670    -8.3110     0.1860 O.3   1 <1>  -0.5600 
 17 C        4.7130    -7.9690    -2.1290 C.3   1 <1>  -0.1600 
 18 C        6.1240    -6.8550    -0.3940 C.3   1 <1>  -0.1600 
 19 C        5.6830    -9.1590    -2.2200 C.3   1 <1>   0.3430 
 20 C        7.2190    -7.8620    -0.7700 C.3   1 <1>   0.3430 
 21 N        6.6120    -9.1880    -1.0580 N.4   1 <1>  -0.9590 
 22 C        7.6130   -10.3100    -1.1130 C.3   1 <1>   0.5240 
 23 C        8.3490   -10.5070     0.2130 C.2   1 <1>   0.3350 
 24 N        8.0230   -11.3640     1.0930 N.2   1 <1>  -0.4100 
 25 N        9.3960    -9.7650     0.5540 N.2   1 <1>  -0.5650 
 26 O        8.8610   -11.2380     2.0770 O.3   1 <1>  -0.0190 
 27 C        9.6560   -10.2690     1.6950 C.2   1 <1>   0.2980 
 28 C       10.7790    -9.8440     2.6140 C.3   1 <1>  -0.0600 
 29 H        2.4880    -1.4260    -3.0660 H     1 <1>   0.1500 
 30 H       -0.5950    -2.8980    -0.5200 H     1 <1>   0.1500 
 31 H        4.1960    -2.4800    -1.6250 H     1 <1>   0.1500 
 32 H        1.1070    -3.9620     0.9340 H     1 <1>   0.1500 
 33 H        3.6930    -3.5650     1.6410 H     1 <1>   0.0800 
 34 H        4.7900    -3.7330     0.3090 H     1 <1>   0.0800 
 35 H        4.0880    -5.3560    -1.4110 H     1 <1>   0.0800 
 36 H        2.7410    -6.3580    -1.0570 H     1 <1>   0.0800 
 37 H        1.7840    -7.5810     2.1010 H     1 <1>   0.0800 
 38 H        3.3510    -8.0090     2.6730 H     1 <1>   0.0800 
 39 H        2.3610    -8.2110    -0.1780 H     1 <1>   0.0800 
 40 H        2.8980    -9.4660     0.8960 H     1 <1>   0.0800 
 41 H        5.0050    -7.2390    -2.8640 H     1 <1>   0.0800 
 42 H        3.7240    -8.2950    -2.3980 H     1 <1>   0.0800 
 43 H        6.1800    -6.6480     0.6610 H     1 <1>   0.0800 
 44 H        6.3490    -5.9320    -0.8960 H     1 <1>   0.0800 
 45 H        6.2390    -9.0980    -3.1420 H     1 <1>   0.0800 
 46 H        5.1100   -10.0730    -2.2330 H     1 <1>   0.0800 
 47 H        7.9190    -7.9340     0.0470 H     1 <1>   0.0800 
 48 H        7.7530    -7.5130    -1.6390 H     1 <1>   0.0800 
 49 H        5.9990    -9.3570    -0.2340 H     1 <1>   0.4500 
 50 H        8.3390   -10.1200    -1.8840 H     1 <1>   0.0800 
 51 H        7.1060   -11.2310    -1.3460 H     1 <1>   0.0800 
 52 H       11.3430    -9.0460     2.1660 H     1 <1>   0.0800 
 53 H       11.4340   -10.6760     2.7950 H     1 <1>   0.0800 
 54 H       10.3740    -9.5040     3.5500 H     1 <1>   0.0800 
@<TRIPOS>BOND
  1   1   2  1   
  2   2   3  ar  
  3   2   4  ar  
  4   3   5  ar  
  5   3  29  1   
  6   4   6  ar  
  7   4  30  1   
  8   5   7  ar  
  9   5  31  1   
 10   6   7  ar  
 11   6  32  1   
 12   7   8  1   
 13   8   9  1   
 14   8  33  1   
 15   8  34  1   
 16   9  10  am  
 17   9  11  1   
 18  10  12  2   
 19  10  13  1   
 20  11  14  1   
 21  11  35  1   
 22  11  36  1   
 23  13  15  1   
 24  13  37  1   
 25  13  38  1   
 26  14  16  1   
 27  14  17  1   
 28  14  18  1   
 29  15  16  1   
 30  15  39  1   
 31  15  40  1   
 32  17  19  1   
 33  17  41  1   
 34  17  42  1   
 35  18  20  1   
 36  18  43  1   
 37  18  44  1   
 38  19  21  1   
 39  19  45  1   
 40  19  46  1   
 41  20  21  1   
 42  20  47  1   
 43  20  48  1   
 44  21  22  1   
 45  21  49  1   
 46  22  23  1   
 47  22  50  1   
 48  22  51  1   
 49  23  24  2   
 50  23  25  1   
 51  24  26  1   
 52  25  27  2   
 53  26  27  1   
 54  27  28  1   
 55  28  52  1   
 56  28  53  1   
 57  28  54  1   
@<TRIPOS>SUBSTRUCTURE
  1 ****  14 GROUP 4 **** **** 0

# MOE 2024.06 (io_trps.svl 2023.06)
