@<TRIPOS>MOLECULE
NONAME
36 36 1 0 0 
SMALL
USER_CHARGES


@<TRIPOS>ATOM
  1 O        1.7260     3.7830    -0.2560 O.co2 1 <1>  -0.9000 
  2 C        1.0350     2.8310     0.1200 C.2   1 <1>   0.9060 
  3 O        1.4840     1.9080     0.7960 O.co2 1 <1>  -0.9000 
  4 C       -0.4360     2.8470    -0.2120 C.3   1 <1>  -0.2660 
  5 C       -1.2780     3.6210     0.8300 C.3   1 <1>  -0.0990 
  6 C       -1.2120     5.1440     0.7620 C.2   1 <1>   0.5690 
  7 O       -2.2240     5.7610     1.0050 O.2   1 <1>  -0.5700 
  8 N       -0.0300     5.7450     0.4450 N.am  1 <1>  -0.4940 
  9 C        0.3180     7.1120     0.3390 C.2   1 <1>  -0.0880 
 10 N        1.5620     7.5530     0.0150 N.pl3 1 <1>   0.3140 
 11 C       -0.4440     8.2140     0.5200 C.2   1 <1>  -0.1500 
 12 N        1.6060     8.9140    -0.0190 N.2   1 <1>  -0.7070 
 13 C        2.7240     6.6710    -0.2720 C.3   1 <1>   0.0960 
 14 C        0.4050     9.2880     0.2850 C.2   1 <1>   0.1080 
 15 C        4.0450     7.4350    -0.4710 C.3   1 <1>  -0.1600 
 16 C        0.0080    10.7420     0.3640 C.3   1 <1>  -0.0590 
 17 C        5.2030     6.4650    -0.7390 C.3   1 <1>  -0.1600 
 18 C        6.5200     7.2190    -0.9380 C.3   1 <1>  -0.2400 
 19 H       -0.7620     1.8250    -0.2430 H     1 <1>   0.0800 
 20 H       -0.5670     3.2700    -1.1900 H     1 <1>   0.0800 
 21 H       -0.9810     3.3160     1.8180 H     1 <1>   0.0800 
 22 H       -2.3070     3.3380     0.7060 H     1 <1>   0.0800 
 23 H        0.7290     5.0740     0.2140 H     1 <1>   0.3700 
 24 H       -1.4840     8.2540     0.7860 H     1 <1>   0.1500 
 25 H        2.4970     6.1010    -1.1540 H     1 <1>   0.0800 
 26 H        2.8270     5.9830     0.5480 H     1 <1>   0.0800 
 27 H        4.2540     8.0100     0.4150 H     1 <1>   0.0800 
 28 H        3.9390     8.1100    -1.3020 H     1 <1>   0.0800 
 29 H       -1.0280    10.8330     0.6320 H     1 <1>   0.0800 
 30 H        0.1710    11.2090    -0.5890 H     1 <1>   0.0800 
 31 H        0.6100    11.2360     1.1040 H     1 <1>   0.0800 
 32 H        4.9870     5.8820    -1.6190 H     1 <1>   0.0800 
 33 H        5.3020     5.7840     0.0900 H     1 <1>   0.0800 
 34 H        6.4460     7.8880    -1.7780 H     1 <1>   0.0800 
 35 H        7.3180     6.5220    -1.1250 H     1 <1>   0.0800 
 36 H        6.7620     7.7900    -0.0590 H     1 <1>   0.0800 
@<TRIPOS>BOND
  1   1   2  ar  
  2   2   3  ar  
  3   2   4  1   
  4   4   5  1   
  5   4  19  1   
  6   4  20  1   
  7   5   6  1   
  8   5  21  1   
  9   5  22  1   
 10   6   7  2   
 11   6   8  am  
 12   8   9  1   
 13   8  23  1   
 14   9  10  1   
 15   9  11  2   
 16  10  12  1   
 17  10  13  1   
 18  11  14  1   
 19  11  24  1   
 20  12  14  2   
 21  13  15  1   
 22  13  25  1   
 23  13  26  1   
 24  14  16  1   
 25  15  17  1   
 26  15  27  1   
 27  15  28  1   
 28  16  29  1   
 29  16  30  1   
 30  16  31  1   
 31  17  18  1   
 32  17  32  1   
 33  17  33  1   
 34  18  34  1   
 35  18  35  1   
 36  18  36  1   
@<TRIPOS>SUBSTRUCTURE
  1 ****   9 GROUP 4 **** **** 0

# MOE 2024.06 (io_trps.svl 2023.06)
