@<TRIPOS>MOLECULE
NONAME
51 54 1 0 0 
SMALL
USER_CHARGES


@<TRIPOS>ATOM
  1 F       -0.7620    -1.0480    -1.2440 F     1 <1>  -0.1900 
  2 C       -1.2150     0.0690    -0.7300 C.ar  1 <1>   0.1900 
  3 C       -2.4600     0.0460    -0.0960 C.ar  1 <1>   0.1000 
  4 C       -0.4500     1.2060    -0.8420 C.ar  1 <1>  -0.1500 
  5 N       -3.2150    -1.1260     0.0060 N.pl3 1 <1>  -0.6000 
  6 C       -2.9470     1.2420     0.4530 C.ar  1 <1>   0.0860 
  7 C       -0.9370     2.3880    -0.2980 C.ar  1 <1>  -0.1500 
  8 C       -4.4480    -1.1530     0.6270 C.2   1 <1>  -0.0380 
  9 C       -4.2280     1.2200     1.1090 C.2   1 <1>   0.4690 
 10 C       -2.1640     2.4000     0.3360 C.ar  1 <1>  -0.1500 
 11 C       -4.9370    -0.0080     1.1680 C.2   1 <1>  -0.1360 
 12 C       -5.2240    -2.4650     0.6630 C.3   1 <1>   0.4810 
 13 O       -4.7230     2.2230     1.6000 O.2   1 <1>  -0.5700 
 14 N       -5.4650    -2.8760    -0.7520 N.4   1 <1>  -0.9590 
 15 C       -6.8840    -2.8290    -1.2160 C.3   1 <1>   0.4230 
 16 C       -4.8430    -4.2030    -1.0490 C.3   1 <1>   0.2630 
 17 C       -7.8320    -3.7460    -0.4440 C.3   1 <1>  -0.1600 
 18 C       -7.5230    -1.4490    -1.1030 C.3   1 <1>  -0.1600 
 19 C       -9.2300    -3.2060    -0.7810 C.3   1 <1>  -0.0800 
 20 C       -9.0300    -1.7250    -1.1810 C.3   1 <1>  -0.0800 
 21 C      -10.2660    -3.4510     0.3370 C.3   1 <1>   0.1400 
 22 C       -9.8790    -0.7400    -0.3550 C.3   1 <1>  -0.0990 
 23 N      -11.4470    -2.5800     0.1290 N.am  1 <1>  -0.6600 
 24 C      -11.2940    -1.2610    -0.2010 C.2   1 <1>   0.5690 
 25 C      -12.7840    -3.1960     0.3490 C.3   1 <1>   0.0600 
 26 O      -12.2170    -0.5040    -0.3710 O.2   1 <1>  -0.5700 
 27 H        0.5040     1.1800    -1.3390 H     1 <1>   0.1500 
 28 H       -2.7280    -1.9740    -0.3210 H     1 <1>   0.4000 
 29 H       -0.3550     3.2920    -0.3740 H     1 <1>   0.1500 
 30 H       -2.5380     3.3190     0.7580 H     1 <1>   0.1500 
 31 H       -5.8860     0.0400     1.6710 H     1 <1>   0.1500 
 32 H       -6.1560    -2.3240     1.1860 H     1 <1>   0.0800 
 33 H       -4.6470    -3.2100     1.1850 H     1 <1>   0.0800 
 34 H       -4.9630    -2.1580    -1.2990 H     1 <1>   0.4500 
 35 H       -6.9240    -3.1180    -2.2550 H     1 <1>   0.0800 
 36 H       -5.3260    -4.9810    -0.4780 H     1 <1>   0.0800 
 37 H       -3.7950    -4.1940    -0.7990 H     1 <1>   0.0800 
 38 H       -4.9420    -4.4360    -2.0970 H     1 <1>   0.0800 
 39 H       -7.7370    -4.7720    -0.7510 H     1 <1>   0.0800 
 40 H       -7.6660    -3.6670     0.6150 H     1 <1>   0.0800 
 41 H       -7.3000    -0.9910    -0.1590 H     1 <1>   0.0800 
 42 H       -7.2080    -0.7980    -1.9000 H     1 <1>   0.0800 
 43 H       -9.5870    -3.7280    -1.6550 H     1 <1>   0.0800 
 44 H       -9.3440    -1.6290    -2.2090 H     1 <1>   0.0800 
 45 H       -9.8460    -3.2200     1.3010 H     1 <1>   0.0800 
 46 H      -10.5650    -4.4850     0.3370 H     1 <1>   0.0800 
 47 H       -9.9040     0.2220    -0.8350 H     1 <1>   0.0800 
 48 H       -9.4730    -0.6120     0.6320 H     1 <1>   0.0800 
 49 H      -12.9320    -4.0040    -0.3460 H     1 <1>   0.0800 
 50 H      -13.5650    -2.4700     0.2000 H     1 <1>   0.0800 
 51 H      -12.8530    -3.5720     1.3540 H     1 <1>   0.0800 
@<TRIPOS>BOND
  1   1   2  1   
  2   2   3  ar  
  3   2   4  ar  
  4   3   5  1   
  5   3   6  ar  
  6   4   7  ar  
  7   4  27  1   
  8   5   8  1   
  9   5  28  1   
 10   6   9  1   
 11   6  10  ar  
 12   7  10  ar  
 13   7  29  1   
 14   8  11  2   
 15   8  12  1   
 16   9  11  1   
 17   9  13  2   
 18  10  30  1   
 19  11  31  1   
 20  12  14  1   
 21  12  32  1   
 22  12  33  1   
 23  14  15  1   
 24  14  16  1   
 25  14  34  1   
 26  15  17  1   
 27  15  18  1   
 28  15  35  1   
 29  16  36  1   
 30  16  37  1   
 31  16  38  1   
 32  17  19  1   
 33  17  39  1   
 34  17  40  1   
 35  18  20  1   
 36  18  41  1   
 37  18  42  1   
 38  19  20  1   
 39  19  21  1   
 40  19  43  1   
 41  20  22  1   
 42  20  44  1   
 43  21  23  1   
 44  21  45  1   
 45  21  46  1   
 46  22  24  1   
 47  22  47  1   
 48  22  48  1   
 49  23  24  am  
 50  23  25  1   
 51  24  26  2   
 52  25  49  1   
 53  25  50  1   
 54  25  51  1   
@<TRIPOS>SUBSTRUCTURE
  1 ****   8 GROUP 4 **** **** 0

# MOE 2024.06 (io_trps.svl 2023.06)
