@<TRIPOS>MOLECULE
NONAME
53 56 1 0 0 
SMALL
USER_CHARGES


@<TRIPOS>ATOM
  1 S        0.8750    -0.4280     2.2690 S.o2  1 <1>   1.4470 
  2 O        0.4590     0.5240     3.2750 O.2   1 <1>  -0.6500 
  3 O        1.8470    -1.4440     2.6050 O.2   1 <1>  -0.6500 
  4 N        1.6250     0.5230     1.0770 N.am  1 <1>  -0.8490 
  5 C       -0.6020    -1.0500     1.3990 C.ar  1 <1>  -0.0090 
  6 C        2.7380     1.2990     1.6750 C.3   1 <1>   0.1960 
  7 C        2.1010    -0.2830    -0.0590 C.3   1 <1>   0.1960 
  8 C       -0.8100    -2.3780     1.0120 C.ar  1 <1>  -0.1440 
  9 C       -1.5740    -0.1180     1.0580 C.ar  1 <1>  -0.1500 
 10 C        3.3310     2.4300     0.7840 C.3   1 <1>   0.4230 
 11 C        2.4590     0.5900    -1.2800 C.3   1 <1>  -0.0800 
 12 C       -1.9480    -2.7180     0.2960 C.ar  1 <1>  -0.1500 
 13 C        0.1690    -3.4960     1.3500 C.3   1 <1>  -0.0960 
 14 C       -2.7190    -0.4370     0.3370 C.ar  1 <1>   0.0530 
 15 N        2.3900     2.9770    -0.2770 N.4   1 <1>  -0.9590 
 16 C        4.7020     2.0400     0.1900 C.3   1 <1>   0.1200 
 17 C        3.9650     0.6420    -1.5810 C.3   1 <1>   0.1200 
 18 C        1.7940     1.9740    -1.2330 C.3   1 <1>   0.3430 
 19 C       -2.8850    -1.7620    -0.0410 C.ar  1 <1>  -0.1500 
 20 C       -3.6830     0.5800    -0.0100 C.2   1 <1>   0.0870 
 21 C        1.2730     3.7230     0.3820 C.3   1 <1>   0.2630 
 22 O        4.6960     0.7840    -0.4100 O.3   1 <1>  -0.5600 
 23 O       -4.4700     0.4460    -1.0500 O.3   1 <1>  -0.2800 
 24 C       -3.9920     1.7760     0.5340 C.2   1 <1>   0.0770 
 25 C       -5.2000     1.5310    -1.1050 C.2   1 <1>   0.2980 
 26 N       -4.9570     2.3840    -0.1790 N.2   1 <1>  -0.5650 
 27 C       -6.2180     1.6750    -2.2100 C.3   1 <1>  -0.0600 
 28 H        2.3850     1.7800     2.5710 H     1 <1>   0.0800 
 29 H        3.5230     0.6290     1.9860 H     1 <1>   0.0800 
 30 H        2.9370    -0.8980     0.2390 H     1 <1>   0.0800 
 31 H        1.3160    -0.9550    -0.3640 H     1 <1>   0.0800 
 32 H       -1.4310     0.9030     1.3630 H     1 <1>   0.1500 
 33 H        3.5510     3.2440     1.4540 H     1 <1>   0.0800 
 34 H        2.0230     0.0960    -2.1300 H     1 <1>   0.0800 
 35 H       -2.1170    -3.7380    -0.0070 H     1 <1>   0.1500 
 36 H       -0.1900    -4.4490     1.0040 H     1 <1>   0.0800 
 37 H        0.3020    -3.5660     2.4160 H     1 <1>   0.0800 
 38 H        1.1240    -3.3170     0.8900 H     1 <1>   0.0800 
 39 H        2.9320     3.6450    -0.8390 H     1 <1>   0.4500 
 40 H        5.4220     1.9860     0.9890 H     1 <1>   0.0800 
 41 H        5.0520     2.7700    -0.5190 H     1 <1>   0.0800 
 42 H        4.2220     1.4320    -2.2660 H     1 <1>   0.0800 
 43 H        4.2730    -0.2940    -2.0170 H     1 <1>   0.0800 
 44 H        0.7600     1.8160    -0.9710 H     1 <1>   0.0800 
 45 H        1.8050     2.3950    -2.2250 H     1 <1>   0.0800 
 46 H       -3.7600    -2.0460    -0.6000 H     1 <1>   0.1500 
 47 H        0.6820     3.0490     0.9830 H     1 <1>   0.0800 
 48 H        0.6320     4.1730    -0.3590 H     1 <1>   0.0800 
 49 H        1.6610     4.5010     1.0180 H     1 <1>   0.0800 
 50 H       -3.5720     2.2370     1.4100 H     1 <1>   0.1500 
 51 H       -6.7310     2.6130    -2.1130 H     1 <1>   0.0800 
 52 H       -6.9320     0.8750    -2.1490 H     1 <1>   0.0800 
 53 H       -5.7240     1.6400    -3.1630 H     1 <1>   0.0800 
@<TRIPOS>BOND
  1   1   2  2   
  2   1   3  2   
  3   1   4  am  
  4   1   5  1   
  5   4   6  1   
  6   4   7  1   
  7   5   8  ar  
  8   5   9  ar  
  9   6  10  1   
 10   6  28  1   
 11   6  29  1   
 12   7  11  1   
 13   7  30  1   
 14   7  31  1   
 15   8  12  ar  
 16   8  13  1   
 17   9  14  ar  
 18   9  32  1   
 19  10  15  1   
 20  10  16  1   
 21  10  33  1   
 22  11  17  1   
 23  11  18  1   
 24  11  34  1   
 25  12  19  ar  
 26  12  35  1   
 27  13  36  1   
 28  13  37  1   
 29  13  38  1   
 30  14  19  ar  
 31  14  20  1   
 32  15  18  1   
 33  15  21  1   
 34  15  39  1   
 35  16  22  1   
 36  16  40  1   
 37  16  41  1   
 38  17  22  1   
 39  17  42  1   
 40  17  43  1   
 41  18  44  1   
 42  18  45  1   
 43  19  46  1   
 44  20  23  1   
 45  20  24  2   
 46  21  47  1   
 47  21  48  1   
 48  21  49  1   
 49  23  25  1   
 50  24  26  1   
 51  24  50  1   
 52  25  26  2   
 53  25  27  1   
 54  27  51  1   
 55  27  52  1   
 56  27  53  1   
@<TRIPOS>SUBSTRUCTURE
  1 ****   9 GROUP 4 **** **** 0

# MOE 2024.06 (io_trps.svl 2023.06)
