@<TRIPOS>MOLECULE
NONAME
41 43 1 0 0 
SMALL
USER_CHARGES


@<TRIPOS>ATOM
  1 N       -1.8310    -0.7120    -0.6300 N.ar  1 <1>  -0.6200 
  2 C       -1.6010    -0.6600     0.6770 C.ar  1 <1>   0.1660 
  3 C       -1.7200     0.4800    -1.2000 C.ar  1 <1>   0.1600 
  4 C       -1.2910     0.5110     1.3590 C.ar  1 <1>   0.1600 
  5 C       -1.7030    -1.9760     1.4410 C.3   1 <1>   0.4870 
  6 C       -1.4110     1.6520    -0.5140 C.ar  1 <1>   0.1670 
  7 N       -1.1920     1.6950     0.7880 N.ar  1 <1>  -0.6200 
  8 N       -2.8020    -2.8090     0.8590 N.4   1 <1>  -0.9590 
  9 C       -1.3070     2.9750    -1.2470 C.3   1 <1>  -0.0970 
 10 C       -4.1520    -2.2820     1.1970 C.3   1 <1>   0.3430 
 11 C       -2.6430    -4.2620     1.1300 C.3   1 <1>   0.3430 
 12 C       -5.2050    -3.0350     0.3890 C.3   1 <1>  -0.1600 
 13 C       -3.6770    -5.0430     0.3230 C.3   1 <1>  -0.1600 
 14 C       -5.1120    -4.5570     0.5850 C.3   1 <1>   0.1000 
 15 C       -6.0760    -5.2580    -0.3610 C.2   1 <1>   0.0060 
 16 N       -7.1050    -6.0180     0.0210 N.pl3 1 <1>   0.0330 
 17 N       -6.0000    -5.1910    -1.6450 N.2   1 <1>  -0.3380 
 18 C       -7.6450    -6.4050    -1.1330 C.2   1 <1>   0.0060 
 19 N       -7.0000    -5.9230    -2.1360 N.2   1 <1>  -0.3380 
 20 C       -8.8630    -7.2990    -1.2410 C.3   1 <1>  -0.0600 
 21 H       -1.8830     0.5320    -2.2630 H     1 <1>   0.1500 
 22 H       -1.1150     0.4810     2.4210 H     1 <1>   0.1500 
 23 H       -1.8800    -1.7930     2.4870 H     1 <1>   0.0800 
 24 H       -0.7640    -2.4940     1.3350 H     1 <1>   0.0800 
 25 H       -2.6900    -2.6490    -0.1620 H     1 <1>   0.4500 
 26 H       -1.5000     2.8580    -2.2970 H     1 <1>   0.0800 
 27 H       -0.3200     3.3800    -1.1190 H     1 <1>   0.0800 
 28 H       -2.0180     3.6710    -0.8390 H     1 <1>   0.0800 
 29 H       -4.2080    -1.2310     0.9570 H     1 <1>   0.0800 
 30 H       -4.3440    -2.4050     2.2500 H     1 <1>   0.0800 
 31 H       -2.7810    -4.4570     2.1810 H     1 <1>   0.0800 
 32 H       -1.6540    -4.5860     0.8480 H     1 <1>   0.0800 
 33 H       -5.0820    -2.7920    -0.6530 H     1 <1>   0.0800 
 34 H       -6.1850    -2.6960     0.6780 H     1 <1>   0.0800 
 35 H       -3.6040    -6.0880     0.5670 H     1 <1>   0.0800 
 36 H       -3.4430    -4.9470    -0.7240 H     1 <1>   0.0800 
 37 H       -5.3800    -4.7940     1.6000 H     1 <1>   0.0800 
 38 H       -7.4200    -6.2570     0.9620 H     1 <1>   0.2700 
 39 H       -8.6680    -8.2490    -0.7770 H     1 <1>   0.0800 
 40 H       -9.1000    -7.4650    -2.2770 H     1 <1>   0.0800 
 41 H       -9.7080    -6.8350    -0.7660 H     1 <1>   0.0800 
@<TRIPOS>BOND
  1   1   2  ar  
  2   1   3  ar  
  3   2   4  ar  
  4   2   5  1   
  5   3   6  ar  
  6   3  21  1   
  7   4   7  ar  
  8   4  22  1   
  9   5   8  1   
 10   5  23  1   
 11   5  24  1   
 12   6   7  ar  
 13   6   9  1   
 14   8  10  1   
 15   8  11  1   
 16   8  25  1   
 17   9  26  1   
 18   9  27  1   
 19   9  28  1   
 20  10  12  1   
 21  10  29  1   
 22  10  30  1   
 23  11  13  1   
 24  11  31  1   
 25  11  32  1   
 26  12  14  1   
 27  12  33  1   
 28  12  34  1   
 29  13  14  1   
 30  13  35  1   
 31  13  36  1   
 32  14  15  1   
 33  14  37  1   
 34  15  16  1   
 35  15  17  2   
 36  16  18  1   
 37  16  38  1   
 38  17  19  1   
 39  18  19  2   
 40  18  20  1   
 41  20  39  1   
 42  20  40  1   
 43  20  41  1   
@<TRIPOS>SUBSTRUCTURE
  1 ****  10 GROUP 4 **** **** 0

# MOE 2024.06 (io_trps.svl 2023.06)
