@<TRIPOS>MOLECULE
NONAME
56 59 1 0 0 
SMALL
USER_CHARGES


@<TRIPOS>ATOM
  1 S       -1.4480     0.7060     0.6750 S.o2  1 <1>   1.2040 
  2 O       -0.8050     1.1690     1.8840 O.2   1 <1>  -0.6500 
  3 O       -2.8510     0.9850     0.4590 O.2   1 <1>  -0.6500 
  4 C       -0.4900     1.2480    -0.7610 C.ar  1 <1>  -0.0090 
  5 C       -1.2510    -1.0740     0.6270 C.3   1 <1>  -0.0550 
  6 C       -1.1120     1.5570    -1.9660 C.ar  1 <1>  -0.1500 
  7 C        0.8960     1.3360    -0.7030 C.ar  1 <1>  -0.1500 
  8 C       -1.7610    -1.7170    -0.6720 C.3   1 <1>  -0.0990 
  9 C       -0.3780     1.9340    -3.0770 C.ar  1 <1>  -0.1500 
 10 C        1.6380     1.7120    -1.8100 C.ar  1 <1>  -0.1500 
 11 C       -1.6990    -3.2260    -0.5740 C.2   1 <1>   0.5690 
 12 C        1.0000     2.0100    -2.9990 C.ar  1 <1>  -0.1500 
 13 O       -0.7560    -3.7730    -1.0900 O.2   1 <1>  -0.5700 
 14 N       -2.6640    -3.9270     0.0970 N.am  1 <1>  -0.6600 
 15 C       -3.9080    -3.4010     0.7050 C.3   1 <1>   0.1400 
 16 C       -2.7160    -5.4010     0.0990 C.3   1 <1>   0.1400 
 17 C       -4.9550    -4.5010     0.4840 C.3   1 <1>  -0.0800 
 18 C       -4.1990    -5.7320    -0.0770 C.3   1 <1>  -0.0800 
 19 C       -6.1790    -4.0350    -0.3410 C.3   1 <1>   0.4240 
 20 C       -4.5230    -6.0390    -1.5520 C.3   1 <1>  -0.1600 
 21 O       -5.7410    -3.3250    -1.4460 O.3   1 <1>  -0.6800 
 22 C       -7.0890    -3.1300     0.5170 C.ar  1 <1>  -0.1440 
 23 C       -6.9100    -5.2650    -0.9080 C.3   1 <1>  -0.1600 
 24 C       -6.0360    -6.1500    -1.8250 C.3   1 <1>  -0.1600 
 25 C       -7.8910    -3.6810     1.5130 C.ar  1 <1>  -0.1500 
 26 C       -7.1220    -1.7480     0.3480 C.ar  1 <1>  -0.1500 
 27 C       -8.7010    -2.8850     2.3040 C.ar  1 <1>  -0.1500 
 28 C       -7.9280    -0.9480     1.1390 C.ar  1 <1>  -0.1500 
 29 C       -8.7210    -1.5160     2.1180 C.ar  1 <1>  -0.1500 
 30 H       -0.2150    -1.3260     0.7520 H     1 <1>   0.0800 
 31 H       -1.7850    -1.4980     1.4550 H     1 <1>   0.0800 
 32 H       -2.1870     1.5040    -2.0370 H     1 <1>   0.1500 
 33 H        1.4040     1.1120     0.2200 H     1 <1>   0.1500 
 34 H       -2.7650    -1.4030    -0.8890 H     1 <1>   0.0800 
 35 H       -1.1440    -1.4070    -1.4960 H     1 <1>   0.0800 
 36 H       -0.8790     2.1700    -4.0010 H     1 <1>   0.1500 
 37 H        2.7110     1.7740    -1.7450 H     1 <1>   0.1500 
 38 H        1.5740     2.3020    -3.8620 H     1 <1>   0.1500 
 39 H       -3.7510    -3.2520     1.7590 H     1 <1>   0.0800 
 40 H       -4.2090    -2.4650     0.2690 H     1 <1>   0.0800 
 41 H       -2.1090    -5.8220    -0.6860 H     1 <1>   0.0800 
 42 H       -2.3610    -5.7600     1.0500 H     1 <1>   0.0800 
 43 H       -5.3200    -4.7790     1.4560 H     1 <1>   0.0800 
 44 H       -4.4390    -6.6060     0.5040 H     1 <1>   0.0800 
 45 H       -4.1020    -5.2650    -2.1720 H     1 <1>   0.0800 
 46 H       -4.0430    -6.9580    -1.8440 H     1 <1>   0.0800 
 47 H       -5.2030    -3.9320    -1.9860 H     1 <1>   0.4000 
 48 H       -7.2370    -5.8750    -0.0870 H     1 <1>   0.0800 
 49 H       -7.7950    -4.9460    -1.4320 H     1 <1>   0.0800 
 50 H       -6.3450    -7.1740    -1.7020 H     1 <1>   0.0800 
 51 H       -6.2190    -5.8880    -2.8540 H     1 <1>   0.0800 
 52 H       -7.8970    -4.7410     1.6930 H     1 <1>   0.1500 
 53 H       -6.5170    -1.2710    -0.4040 H     1 <1>   0.1500 
 54 H       -9.3160    -3.3300     3.0660 H     1 <1>   0.1500 
 55 H       -7.9360     0.1170     0.9890 H     1 <1>   0.1500 
 56 H       -9.3500    -0.8950     2.7320 H     1 <1>   0.1500 
@<TRIPOS>BOND
  1   1   2  2   
  2   1   3  2   
  3   1   4  1   
  4   1   5  1   
  5   4   6  ar  
  6   4   7  ar  
  7   5   8  1   
  8   5  30  1   
  9   5  31  1   
 10   6   9  ar  
 11   6  32  1   
 12   7  10  ar  
 13   7  33  1   
 14   8  11  1   
 15   8  34  1   
 16   8  35  1   
 17   9  12  ar  
 18   9  36  1   
 19  10  12  ar  
 20  10  37  1   
 21  11  13  2   
 22  11  14  am  
 23  12  38  1   
 24  14  15  1   
 25  14  16  1   
 26  15  17  1   
 27  15  39  1   
 28  15  40  1   
 29  16  18  1   
 30  16  41  1   
 31  16  42  1   
 32  17  18  1   
 33  17  19  1   
 34  17  43  1   
 35  18  20  1   
 36  18  44  1   
 37  19  21  1   
 38  19  22  1   
 39  19  23  1   
 40  20  24  1   
 41  20  45  1   
 42  20  46  1   
 43  21  47  1   
 44  22  25  ar  
 45  22  26  ar  
 46  23  24  1   
 47  23  48  1   
 48  23  49  1   
 49  24  50  1   
 50  24  51  1   
 51  25  27  ar  
 52  25  52  1   
 53  26  28  ar  
 54  26  53  1   
 55  27  29  ar  
 56  27  54  1   
 57  28  29  ar  
 58  28  55  1   
 59  29  56  1   
@<TRIPOS>SUBSTRUCTURE
  1 ****  15 GROUP 4 **** **** 0

# MOE 2024.06 (io_trps.svl 2023.06)
