@<TRIPOS>MOLECULE
NONAME
50 53 1 0 0 
SMALL
USER_CHARGES


@<TRIPOS>ATOM
  1 S       -0.5780     0.8360    -2.5330 S.o2  1 <1>   1.4470 
  2 O       -0.1660    -0.0010    -3.6390 O.2   1 <1>  -0.6500 
  3 O       -1.3220     2.0460    -2.8120 O.2   1 <1>  -0.6500 
  4 N       -1.5180    -0.0980    -1.4800 N.am  1 <1>  -0.8490 
  5 C        0.8700     1.2610    -1.5270 C.ar  1 <1>  -0.0090 
  6 C       -0.8690    -1.3660    -1.0770 C.3   1 <1>   0.1960 
  7 C       -2.8450    -0.3960    -2.0120 C.3   1 <1>   0.1960 
  8 C        0.7070     1.9560    -0.2990 C.ar  1 <1>   0.0000 
  9 C        2.1460     0.9040    -1.9380 C.ar  1 <1>  -0.1500 
 10 C       -1.7590    -2.2620    -0.1600 C.3   1 <1>  -0.1060 
 11 C       -3.7590    -0.8380    -0.8610 C.3   1 <1>  -0.1600 
 12 C        1.8750     2.2250     0.4160 C.ar  1 <1>   0.0000 
 13 C       -0.4770     2.4190     0.3220 C.ar  1 <1>  -0.1500 
 14 C        3.2970     1.1960    -1.1910 C.ar  1 <1>  -0.1500 
 15 C       -2.3010    -3.4790    -0.9310 C.2   1 <1>   0.9060 
 16 C       -2.9590    -1.4070     0.3200 C.3   1 <1>   0.2000 
 17 C       -0.9260    -2.7320     1.0700 C.3   1 <1>  -0.1600 
 18 C        3.1500     1.8620    -0.0030 C.ar  1 <1>   0.1170 
 19 C        1.9330     2.8900     1.6410 C.ar  1 <1>   0.0860 
 20 C       -0.4520     3.0790     1.5320 C.ar  1 <1>  -0.1500 
 21 O       -3.2050    -4.1570    -0.4170 O.co2 1 <1>  -0.9000 
 22 O       -1.8500    -3.7730    -2.0430 O.co2 1 <1>  -0.9000 
 23 O       -3.8170    -2.1470     1.1080 O.3   1 <1>  -0.6800 
 24 C        0.2810    -3.6190     0.7120 C.3   1 <1>  -0.1600 
 25 N        4.0320     2.3030     0.9730 N.am  1 <1>  -0.5470 
 26 C        3.3330     2.9240     1.9720 C.2   1 <1>   0.5440 
 27 C        0.7550     3.3220     2.2050 C.ar  1 <1>  -0.1500 
 28 C        1.0610    -4.0120     1.9690 C.3   1 <1>  -0.2400 
 29 O        3.8670     3.4020     2.9520 O.2   1 <1>  -0.5700 
 30 H       -0.5460    -1.9020    -1.9540 H     1 <1>   0.0800 
 31 H        0.0230    -1.1080    -0.5370 H     1 <1>   0.0800 
 32 H       -3.2710     0.4720    -2.4870 H     1 <1>   0.0800 
 33 H       -2.7690    -1.1800    -2.7500 H     1 <1>   0.0800 
 34 H        2.2710     0.3750    -2.8690 H     1 <1>   0.1500 
 35 H       -4.4430    -1.5780    -1.2390 H     1 <1>   0.0800 
 36 H       -4.3300     0.0040    -0.5170 H     1 <1>   0.0800 
 37 H       -1.4240     2.2510    -0.1650 H     1 <1>   0.1500 
 38 H        4.2680     0.9000    -1.5460 H     1 <1>   0.1500 
 39 H       -2.5970    -0.5910     0.9220 H     1 <1>   0.0800 
 40 H       -0.5900    -1.8710     1.6200 H     1 <1>   0.0800 
 41 H       -1.5690    -3.2980     1.7240 H     1 <1>   0.0800 
 42 H       -1.3710     3.4180     1.9780 H     1 <1>   0.1500 
 43 H       -3.8400    -3.0600     0.6870 H     1 <1>   0.4000 
 44 H       -0.0640    -4.5130     0.2200 H     1 <1>   0.0800 
 45 H        0.9430    -3.1080     0.0360 H     1 <1>   0.0800 
 46 H        5.0480     2.2220     0.9920 H     1 <1>   0.3700 
 47 H        0.7620     3.8400     3.1490 H     1 <1>   0.1500 
 48 H        0.4240    -4.5550     2.6450 H     1 <1>   0.0800 
 49 H        1.4350    -3.1370     2.4700 H     1 <1>   0.0800 
 50 H        1.8920    -4.6400     1.7030 H     1 <1>   0.0800 
@<TRIPOS>BOND
  1   1   2  2   
  2   1   3  2   
  3   1   4  am  
  4   1   5  1   
  5   4   6  1   
  6   4   7  1   
  7   5   8  ar  
  8   5   9  ar  
  9   6  10  1   
 10   6  30  1   
 11   6  31  1   
 12   7  11  1   
 13   7  32  1   
 14   7  33  1   
 15   8  12  ar  
 16   8  13  ar  
 17   9  14  ar  
 18   9  34  1   
 19  10  15  1   
 20  10  16  1   
 21  10  17  1   
 22  11  16  1   
 23  11  35  1   
 24  11  36  1   
 25  12  18  ar  
 26  12  19  ar  
 27  13  20  ar  
 28  13  37  1   
 29  14  18  ar  
 30  14  38  1   
 31  15  21  ar  
 32  15  22  ar  
 33  16  23  1   
 34  16  39  1   
 35  17  24  1   
 36  17  40  1   
 37  17  41  1   
 38  18  25  1   
 39  19  26  1   
 40  19  27  ar  
 41  20  27  ar  
 42  20  42  1   
 43  23  43  1   
 44  24  28  1   
 45  24  44  1   
 46  24  45  1   
 47  25  26  am  
 48  25  46  1   
 49  26  29  2   
 50  27  47  1   
 51  28  48  1   
 52  28  49  1   
 53  28  50  1   
@<TRIPOS>SUBSTRUCTURE
  1 ****   6 GROUP 4 **** **** 0

# MOE 2024.06 (io_trps.svl 2023.06)
