@<TRIPOS>MOLECULE
NONAME
39 41 1 0 0 
SMALL
USER_CHARGES


@<TRIPOS>ATOM
  1 S       -0.1770    -0.1460    -0.9860 S.3   1 <1>  -0.0800 
  2 C       -1.5380    -0.8410    -0.1660 C.2   1 <1>   0.4420 
  3 C       -0.5700     1.3530    -0.2150 C.2   1 <1>   0.1980 
  4 N       -2.1500     0.0170     0.5670 N.2   1 <1>  -0.3380 
  5 N       -1.7760    -2.1760    -0.4030 N.am  1 <1>  -0.4940 
  6 N       -1.5920     1.2660     0.5330 N.2   1 <1>  -0.3380 
  7 C        0.2990     2.5630    -0.5000 C.3   1 <1>   0.0200 
  8 C       -2.7540    -3.0070     0.0810 C.2   1 <1>   0.7150 
  9 C        1.6720     2.4480     0.1780 C.3   1 <1>  -0.1600 
 10 O       -3.5860    -2.5730     0.8520 O.2   1 <1>  -0.5700 
 11 C       -2.7660    -4.3780    -0.3430 C.2   1 <1>  -0.0450 
 12 C        2.5360     3.6880    -0.0870 C.3   1 <1>  -0.1600 
 13 S       -1.5230    -4.9390    -1.4940 S.3   1 <1>  -0.0800 
 14 C       -3.5720    -5.4350    -0.0530 C.2   1 <1>   0.0620 
 15 C        3.9030     3.5630     0.5950 C.3   1 <1>  -0.1600 
 16 C       -2.1570    -6.5780    -1.5190 C.2   1 <1>  -0.1100 
 17 O       -4.6300    -5.3910     0.7820 O.3   1 <1>  -0.3420 
 18 C       -3.2250    -6.6630    -0.7080 C.2   1 <1>   0.0620 
 19 C        4.7650     4.8010     0.3320 C.3   1 <1>  -0.2400 
 20 C       -5.5380    -6.4750     0.7590 C.3   1 <1>   0.1200 
 21 O       -3.9410    -7.8000    -0.4990 O.3   1 <1>  -0.3420 
 22 C       -4.7770    -7.8050     0.6440 C.3   1 <1>   0.1200 
 23 H       -1.1270    -2.6280    -1.0390 H     1 <1>   0.3700 
 24 H       -0.2080     3.4390    -0.1350 H     1 <1>   0.0800 
 25 H        0.4180     2.6670    -1.5640 H     1 <1>   0.0800 
 26 H        2.1810     1.5730    -0.1890 H     1 <1>   0.0800 
 27 H        1.5290     2.3290     1.2390 H     1 <1>   0.0800 
 28 H        2.0320     4.5640     0.2870 H     1 <1>   0.0800 
 29 H        2.6780     3.8100    -1.1470 H     1 <1>   0.0800 
 30 H        4.4160     2.6910     0.2250 H     1 <1>   0.0800 
 31 H        3.7690     3.4450     1.6580 H     1 <1>   0.0800 
 32 H       -1.6670    -7.3100    -2.1340 H     1 <1>   0.1500 
 33 H        4.9320     4.9260    -0.7230 H     1 <1>   0.0800 
 34 H        5.7180     4.6950     0.8190 H     1 <1>   0.0800 
 35 H        4.2830     5.6830     0.7150 H     1 <1>   0.0800 
 36 H       -6.1940    -6.3430    -0.0830 H     1 <1>   0.0800 
 37 H       -6.1140    -6.4400     1.6650 H     1 <1>   0.0800 
 38 H       -5.4610    -8.6280     0.5490 H     1 <1>   0.0800 
 39 H       -4.1590    -7.9580     1.5110 H     1 <1>   0.0800 
@<TRIPOS>BOND
  1   1   2  1   
  2   1   3  1   
  3   2   4  2   
  4   2   5  1   
  5   3   6  2   
  6   3   7  1   
  7   4   6  1   
  8   5   8  am  
  9   5  23  1   
 10   7   9  1   
 11   7  24  1   
 12   7  25  1   
 13   8  10  2   
 14   8  11  1   
 15   9  12  1   
 16   9  26  1   
 17   9  27  1   
 18  11  13  1   
 19  11  14  2   
 20  12  15  1   
 21  12  28  1   
 22  12  29  1   
 23  13  16  1   
 24  14  17  1   
 25  14  18  1   
 26  15  19  1   
 27  15  30  1   
 28  15  31  1   
 29  16  18  2   
 30  16  32  1   
 31  17  20  1   
 32  18  21  1   
 33  19  33  1   
 34  19  34  1   
 35  19  35  1   
 36  20  22  1   
 37  20  36  1   
 38  20  37  1   
 39  21  22  1   
 40  22  38  1   
 41  22  39  1   
@<TRIPOS>SUBSTRUCTURE
  1 ****   5 GROUP 4 **** **** 0

# MOE 2024.06 (io_trps.svl 2023.06)
