@<TRIPOS>MOLECULE
NONAME
51 53 1 0 0 
SMALL
USER_CHARGES


@<TRIPOS>ATOM
  1 O       -0.5320     0.4250     2.3380 O.2   1 <1>  -0.5700 
  2 C       -0.1050    -0.3750     1.5400 C.2   1 <1>   0.5690 
  3 N        0.8470    -0.0230     0.6400 N.am  1 <1>  -0.7300 
  4 C       -0.6130    -1.8240     1.5560 C.3   1 <1>   0.1710 
  5 C        1.1730     1.3610     0.2890 C.3   1 <1>   0.4000 
  6 N       -1.5890    -2.1970     0.4890 N.3   1 <1>  -0.8100 
  7 C        1.5890     1.3470    -1.1760 C.2   1 <1>  -0.3320 
  8 C        2.2700     1.8960     1.2220 C.3   1 <1>   0.1200 
  9 C       -1.0700    -1.9910    -0.8900 C.3   1 <1>   0.1100 
 10 C       -2.0320    -3.6010     0.6740 C.3   1 <1>   0.1100 
 11 N        1.4910     2.4270    -1.9860 N.pl3 1 <1>   0.3140 
 12 C        2.1030     0.3460    -1.9310 C.2   1 <1>  -0.1500 
 13 O        2.5060     3.2540     0.9740 O.3   1 <1>  -0.5600 
 14 C       -2.0710    -2.4340    -1.9720 C.3   1 <1>   0.2090 
 15 C       -3.0340    -4.0650    -0.4010 C.3   1 <1>   0.2090 
 16 N        1.9070     2.1420    -3.2320 N.2   1 <1>  -0.7070 
 17 C        1.0120     3.7800    -1.6610 C.3   1 <1>   0.0160 
 18 C        2.2750     0.9010    -3.1910 C.2   1 <1>   0.1390 
 19 C        3.5010     3.8040     1.7740 C.3   1 <1>   0.0400 
 20 N       -2.4590    -3.8580    -1.7610 N.pl3 1 <1>  -0.8380 
 21 C       -1.8940    -4.8930    -2.4720 C.ar  1 <1>   0.7200 
 22 N       -2.4210    -6.1040    -2.2930 N.ar  1 <1>  -0.6200 
 23 N       -0.8660    -4.6000    -3.2700 N.ar  1 <1>  -0.6200 
 24 C       -1.8880    -7.0810    -2.9840 C.ar  1 <1>   0.1600 
 25 C       -0.3530    -5.5980    -3.9480 C.ar  1 <1>   0.1600 
 26 C       -0.8340    -6.8790    -3.8410 C.ar  1 <1>  -0.1500 
 27 H        1.1290    -0.6870    -0.0750 H     1 <1>   0.3700 
 28 H       -1.0810    -1.9810     2.5120 H     1 <1>   0.0800 
 29 H        0.2390    -2.4770     1.5010 H     1 <1>   0.0800 
 30 H        0.2850     1.9570     0.4220 H     1 <1>   0.0800 
 31 H        3.1840     1.3540     1.0570 H     1 <1>   0.0800 
 32 H        1.9530     1.7920     2.2460 H     1 <1>   0.0800 
 33 H       -0.1560    -2.5430    -1.0260 H     1 <1>   0.0800 
 34 H       -0.8690    -0.9470    -1.0470 H     1 <1>   0.0800 
 35 H       -2.4970    -3.7010     1.6400 H     1 <1>   0.0800 
 36 H       -1.1800    -4.2590     0.6440 H     1 <1>   0.0800 
 37 H        2.3480    -0.6670    -1.6700 H     1 <1>   0.1500 
 38 H       -1.6430    -2.2890    -2.9480 H     1 <1>   0.0800 
 39 H       -2.9500    -1.8160    -1.9120 H     1 <1>   0.0800 
 40 H       -3.9420    -3.4950    -0.3100 H     1 <1>   0.0800 
 41 H       -3.2820    -5.0980    -0.2350 H     1 <1>   0.0800 
 42 H        0.2150     3.7250    -0.9460 H     1 <1>   0.0800 
 43 H        0.6570     4.2490    -2.5590 H     1 <1>   0.0800 
 44 H        1.8270     4.3500    -1.2580 H     1 <1>   0.0800 
 45 H        2.6670     0.3720    -4.0440 H     1 <1>   0.1500 
 46 H        3.6050     4.8420     1.5140 H     1 <1>   0.0800 
 47 H        4.4290     3.2900     1.5910 H     1 <1>   0.0800 
 48 H        3.2160     3.7160     2.8090 H     1 <1>   0.0800 
 49 H       -2.3010    -8.0680    -2.8640 H     1 <1>   0.1500 
 50 H        0.4730    -5.3880    -4.6060 H     1 <1>   0.1500 
 51 H       -0.4070    -7.6870    -4.4020 H     1 <1>   0.1500 
@<TRIPOS>BOND
  1   1   2  2   
  2   2   3  am  
  3   2   4  1   
  4   3   5  1   
  5   3  27  1   
  6   4   6  1   
  7   4  28  1   
  8   4  29  1   
  9   5   7  1   
 10   5   8  1   
 11   5  30  1   
 12   6   9  1   
 13   6  10  1   
 14   7  11  1   
 15   7  12  2   
 16   8  13  1   
 17   8  31  1   
 18   8  32  1   
 19   9  14  1   
 20   9  33  1   
 21   9  34  1   
 22  10  15  1   
 23  10  35  1   
 24  10  36  1   
 25  11  16  1   
 26  11  17  1   
 27  12  18  1   
 28  12  37  1   
 29  13  19  1   
 30  14  20  1   
 31  14  38  1   
 32  14  39  1   
 33  15  20  1   
 34  15  40  1   
 35  15  41  1   
 36  16  18  2   
 37  17  42  1   
 38  17  43  1   
 39  17  44  1   
 40  18  45  1   
 41  19  46  1   
 42  19  47  1   
 43  19  48  1   
 44  20  21  1   
 45  21  22  ar  
 46  21  23  ar  
 47  22  24  ar  
 48  23  25  ar  
 49  24  26  ar  
 50  24  49  1   
 51  25  26  ar  
 52  25  50  1   
 53  26  51  1   
@<TRIPOS>SUBSTRUCTURE
  1 ****   9 GROUP 4 **** **** 0

# MOE 2024.06 (io_trps.svl 2023.06)
