@<TRIPOS>MOLECULE
NONAME
48 50 1 0 0 
SMALL
USER_CHARGES


@<TRIPOS>ATOM
  1 O       -0.3880     0.1530     0.3210 O.2   1 <1>  -0.5700 
  2 C       -1.4410     0.7420     0.2530 C.2   1 <1>   0.5690 
  3 N       -2.6230     0.1340     0.5650 N.am  1 <1>  -0.6600 
  4 C       -1.4520     2.1950    -0.2080 C.3   1 <1>  -0.0990 
  5 C       -3.9720     0.7320     0.4380 C.3   1 <1>   0.1400 
  6 C       -2.7120    -1.3070     0.8760 C.3   1 <1>   0.1400 
  7 C       -0.0540     2.8330    -0.3180 C.3   1 <1>  -0.1600 
  8 C       -4.9550    -0.3620     0.8810 C.3   1 <1>  -0.0800 
  9 C       -4.1830    -1.6810     0.6840 C.3   1 <1>  -0.0800 
 10 C       -0.1440     4.2760    -0.8330 C.3   1 <1>   0.0960 
 11 C       -6.3710    -0.3230     0.2250 C.3   1 <1>   0.2800 
 12 C       -4.4640    -2.2780    -0.7030 C.3   1 <1>  -0.1600 
 13 N        1.1790     4.9300    -0.8430 N.pl3 1 <1>   0.3140 
 14 O       -6.3090     0.2760    -1.0200 O.3   1 <1>  -0.6800 
 15 C       -6.8900    -1.7540    -0.0060 C.3   1 <1>  -0.1600 
 16 C       -7.3930     0.4810     1.0590 C.3   1 <1>  -0.1600 
 17 C       -5.9550    -2.6160    -0.8840 C.3   1 <1>  -0.1600 
 18 N        1.4350     6.0300    -0.1500 N.2   1 <1>  -0.7070 
 19 C        2.2800     4.5860    -1.5190 C.2   1 <1>   0.0360 
 20 C       -7.0440     1.9620     1.2920 C.3   1 <1>  -0.2400 
 21 C        2.6690     6.2670    -0.4530 C.2   1 <1>   0.3660 
 22 N        3.2440     5.4050    -1.3010 N.2   1 <1>  -0.5650 
 23 H       -1.9360     2.2280    -1.1660 H     1 <1>   0.0800 
 24 H       -2.0380     2.7650     0.4880 H     1 <1>   0.0800 
 25 H       -4.0610     1.6050     1.0580 H     1 <1>   0.0800 
 26 H       -4.1140     1.0090    -0.5910 H     1 <1>   0.0800 
 27 H       -2.0620    -1.8790     0.2350 H     1 <1>   0.0800 
 28 H       -2.4170    -1.4560     1.9000 H     1 <1>   0.0800 
 29 H        0.5500     2.2460    -0.9880 H     1 <1>   0.0800 
 30 H        0.4100     2.8250     0.6540 H     1 <1>   0.0800 
 31 H       -5.0820    -0.2550     1.9430 H     1 <1>   0.0800 
 32 H       -4.4650    -2.4040     1.4300 H     1 <1>   0.0800 
 33 H       -0.7920     4.8530    -0.1970 H     1 <1>   0.0800 
 34 H       -0.5400     4.2950    -1.8310 H     1 <1>   0.0800 
 35 H       -4.1760    -1.5590    -1.4530 H     1 <1>   0.0800 
 36 H       -3.8710    -3.1630    -0.8580 H     1 <1>   0.0800 
 37 H       -7.1740     0.1910    -1.4590 H     1 <1>   0.4000 
 38 H       -6.9800    -2.2310     0.9540 H     1 <1>   0.0800 
 39 H       -7.8750    -1.7360    -0.4370 H     1 <1>   0.0800 
 40 H       -8.3530     0.4290     0.5770 H     1 <1>   0.0800 
 41 H       -7.5030     0.0070     2.0180 H     1 <1>   0.0800 
 42 H       -6.1200    -3.6530    -0.6470 H     1 <1>   0.0800 
 43 H       -6.2100    -2.4780    -1.9210 H     1 <1>   0.0800 
 44 H        2.3300     3.7250    -2.1610 H     1 <1>   0.1500 
 45 H       -6.8810     2.4680     0.3560 H     1 <1>   0.0800 
 46 H       -6.1640     2.0590     1.8990 H     1 <1>   0.0800 
 47 H       -7.8560     2.4510     1.8020 H     1 <1>   0.0800 
 48 H        3.2240     7.1050    -0.0610 H     1 <1>   0.1500 
@<TRIPOS>BOND
  1   1   2  2   
  2   2   3  am  
  3   2   4  1   
  4   3   5  1   
  5   3   6  1   
  6   4   7  1   
  7   4  23  1   
  8   4  24  1   
  9   5   8  1   
 10   5  25  1   
 11   5  26  1   
 12   6   9  1   
 13   6  27  1   
 14   6  28  1   
 15   7  10  1   
 16   7  29  1   
 17   7  30  1   
 18   8   9  1   
 19   8  11  1   
 20   8  31  1   
 21   9  12  1   
 22   9  32  1   
 23  10  13  1   
 24  10  33  1   
 25  10  34  1   
 26  11  14  1   
 27  11  15  1   
 28  11  16  1   
 29  12  17  1   
 30  12  35  1   
 31  12  36  1   
 32  13  18  1   
 33  13  19  1   
 34  14  37  1   
 35  15  17  1   
 36  15  38  1   
 37  15  39  1   
 38  16  20  1   
 39  16  40  1   
 40  16  41  1   
 41  17  42  1   
 42  17  43  1   
 43  18  21  2   
 44  19  22  2   
 45  19  44  1   
 46  20  45  1   
 47  20  46  1   
 48  20  47  1   
 49  21  22  1   
 50  21  48  1   
@<TRIPOS>SUBSTRUCTURE
  1 ****   2 GROUP 4 **** **** 0

# MOE 2024.06 (io_trps.svl 2023.06)
