@<TRIPOS>MOLECULE
NONAME
51 54 1 0 0 
SMALL
USER_CHARGES


@<TRIPOS>ATOM
  1 S        0.2630     0.0480     0.0030 S.3   1 <1>  -0.0800 
  2 C       -0.4380     1.6160     0.4130 C.2   1 <1>  -0.0130 
  3 C       -1.1620    -0.8230     0.5330 C.2   1 <1>  -0.1400 
  4 C        0.3180     2.8230     0.1720 C.ar  1 <1>   0.0530 
  5 C       -1.6780     1.4090     0.9200 C.2   1 <1>  -0.1500 
  6 C       -2.0870     0.0440     0.9910 C.2   1 <1>  -0.1500 
  7 C       -1.0980    -2.3300     0.3880 C.3   1 <1>   0.5230 
  8 C        1.7110     2.8310     0.0910 C.ar  1 <1>  -0.1500 
  9 C       -0.3380     4.0440     0.0130 C.ar  1 <1>  -0.1500 
 10 N       -2.4730    -2.8850     0.3390 N.4   1 <1>  -0.9590 
 11 C        2.4140     3.9990    -0.1400 C.ar  1 <1>  -0.1500 
 12 C        0.3590     5.2160    -0.2180 C.ar  1 <1>  -0.1500 
 13 C       -3.2830    -2.4440    -0.8290 C.3   1 <1>   0.3430 
 14 C       -2.5560    -4.3720     0.3600 C.3   1 <1>   0.3430 
 15 C        1.7390     5.1960    -0.2960 C.ar  1 <1>  -0.1500 
 16 C       -4.4500    -3.4270    -0.8340 C.3   1 <1>   0.2000 
 17 C       -3.7510    -4.7560    -0.5270 C.3   1 <1>  -0.0800 
 18 O       -5.2720    -3.0860     0.2460 O.3   1 <1>  -0.5600 
 19 C       -4.6450    -5.8460     0.0970 C.3   1 <1>   0.0200 
 20 C       -6.6360    -3.0170    -0.0420 C.3   1 <1>   0.0400 
 21 C       -3.8670    -7.1340     0.2910 C.2   1 <1>  -0.0400 
 22 O       -2.8620    -7.1690     1.1250 O.3   1 <1>  -0.0190 
 23 C       -3.9890    -8.3520    -0.2560 C.2   1 <1>  -0.1500 
 24 N       -2.2940    -8.3360     1.1530 N.2   1 <1>  -0.4100 
 25 C       -2.9560    -9.0750     0.3360 C.2   1 <1>   0.1080 
 26 C       -2.6470   -10.5310     0.0630 C.3   1 <1>  -0.0590 
 27 H       -2.3320     2.1930     1.2600 H     1 <1>   0.1500 
 28 H       -3.0580    -0.2010     1.3880 H     1 <1>   0.1500 
 29 H       -0.5550    -2.7440     1.2220 H     1 <1>   0.0800 
 30 H       -0.5720    -2.5790    -0.5190 H     1 <1>   0.0800 
 31 H        2.2610     1.9170     0.2160 H     1 <1>   0.1500 
 32 H       -1.4100     4.0800     0.0660 H     1 <1>   0.1500 
 33 H       -2.9900    -2.5500     1.1650 H     1 <1>   0.4500 
 34 H        3.4890     3.9790    -0.1990 H     1 <1>   0.1500 
 35 H       -0.1710     6.1460    -0.3380 H     1 <1>   0.1500 
 36 H       -3.6270    -1.4270    -0.7270 H     1 <1>   0.0800 
 37 H       -2.7140    -2.5450    -1.7380 H     1 <1>   0.0800 
 38 H       -1.6560    -4.8220    -0.0270 H     1 <1>   0.0800 
 39 H       -2.7100    -4.7170     1.3710 H     1 <1>   0.0800 
 40 H        2.2850     6.1060    -0.4760 H     1 <1>   0.1500 
 41 H       -5.0010    -3.4230    -1.7610 H     1 <1>   0.0800 
 42 H       -3.3520    -5.1440    -1.4480 H     1 <1>   0.0800 
 43 H       -5.4820    -6.0400    -0.5500 H     1 <1>   0.0800 
 44 H       -5.0290    -5.5270     1.0510 H     1 <1>   0.0800 
 45 H       -7.1610    -2.7750     0.8660 H     1 <1>   0.0800 
 46 H       -6.9770    -3.9700    -0.4100 H     1 <1>   0.0800 
 47 H       -6.8110    -2.2460    -0.7730 H     1 <1>   0.0800 
 48 H       -4.6930    -8.7240    -0.9780 H     1 <1>   0.1500 
 49 H       -3.4960   -11.1380     0.3170 H     1 <1>   0.0800 
 50 H       -1.8060   -10.8460     0.6540 H     1 <1>   0.0800 
 51 H       -2.4120   -10.6670    -0.9770 H     1 <1>   0.0800 
@<TRIPOS>BOND
  1   1   2  1   
  2   1   3  1   
  3   2   4  1   
  4   2   5  2   
  5   3   6  2   
  6   3   7  1   
  7   4   8  ar  
  8   4   9  ar  
  9   5   6  1   
 10   5  27  1   
 11   6  28  1   
 12   7  10  1   
 13   7  29  1   
 14   7  30  1   
 15   8  11  ar  
 16   8  31  1   
 17   9  12  ar  
 18   9  32  1   
 19  10  13  1   
 20  10  14  1   
 21  10  33  1   
 22  11  15  ar  
 23  11  34  1   
 24  12  15  ar  
 25  12  35  1   
 26  13  16  1   
 27  13  36  1   
 28  13  37  1   
 29  14  17  1   
 30  14  38  1   
 31  14  39  1   
 32  15  40  1   
 33  16  17  1   
 34  16  18  1   
 35  16  41  1   
 36  17  19  1   
 37  17  42  1   
 38  18  20  1   
 39  19  21  1   
 40  19  43  1   
 41  19  44  1   
 42  20  45  1   
 43  20  46  1   
 44  20  47  1   
 45  21  22  1   
 46  21  23  2   
 47  22  24  1   
 48  23  25  1   
 49  23  48  1   
 50  24  25  2   
 51  25  26  1   
 52  26  49  1   
 53  26  50  1   
 54  26  51  1   
@<TRIPOS>SUBSTRUCTURE
  1 ****  10 GROUP 4 **** **** 0

# MOE 2024.06 (io_trps.svl 2023.06)
