@<TRIPOS>MOLECULE
NONAME
54 58 1 0 0 
SMALL
USER_CHARGES


@<TRIPOS>ATOM
  1 S       -0.3280    -0.5320    -0.7930 S.3   1 <1>  -0.4600 
  2 C       -1.6990     0.4220    -0.0670 C.3   1 <1>   0.2510 
  3 C       -1.0470    -2.1970    -0.6690 C.3   1 <1>   0.2510 
  4 C       -2.7330    -0.6380     0.2330 C.2   1 <1>   0.1080 
  5 C       -2.4100    -1.9440    -0.0700 C.2   1 <1>  -0.1810 
  6 N       -3.9150    -0.5120     0.7440 N.2   1 <1>  -0.7070 
  7 C       -3.4880    -2.6790     0.2920 C.2   1 <1>  -0.0880 
  8 N       -4.3930    -1.7810     0.7930 N.pl3 1 <1>   0.3140 
  9 N       -3.6300    -4.0810     0.1470 N.am  1 <1>  -0.4940 
 10 C       -5.7630    -2.0190     1.2670 C.3   1 <1>   0.0160 
 11 C       -4.2750    -5.0080     0.9320 C.2   1 <1>   0.5440 
 12 O       -4.7980    -4.6710     1.9750 O.2   1 <1>  -0.5700 
 13 C       -4.3120    -6.4000     0.5250 C.ar  1 <1>   0.0860 
 14 C       -4.4520    -6.7830    -0.8100 C.ar  1 <1>  -0.1500 
 15 C       -4.2180    -7.4200     1.4720 C.ar  1 <1>  -0.1500 
 16 C       -4.4940    -8.1160    -1.1800 C.ar  1 <1>  -0.1500 
 17 C       -4.2570    -8.7540     1.1110 C.ar  1 <1>  -0.1500 
 18 C       -4.4040    -9.1130    -0.2200 C.ar  1 <1>  -0.1430 
 19 C       -4.4740   -10.5780    -0.6180 C.3   1 <1>   0.4860 
 20 N       -5.7660   -11.1400    -0.1480 N.4   1 <1>  -0.9590 
 21 C       -5.8340   -12.6150    -0.3240 C.3   1 <1>   0.4860 
 22 C       -6.9530   -10.4880    -0.7790 C.3   1 <1>   0.3430 
 23 C       -7.1420   -13.1470     0.2360 C.ar  1 <1>  -0.1430 
 24 C       -8.2220   -10.8600    -0.0100 C.3   1 <1>  -0.0170 
 25 C       -8.2630   -12.3330     0.3720 C.ar  1 <1>  -0.1430 
 26 C       -7.2160   -14.4810     0.6100 C.ar  1 <1>  -0.1500 
 27 C       -9.4390   -12.8620     0.8770 C.ar  1 <1>  -0.1500 
 28 C       -8.3940   -15.0030     1.1140 C.ar  1 <1>  -0.1500 
 29 C       -9.5060   -14.1930     1.2470 C.ar  1 <1>  -0.1500 
 30 H       -2.0470     1.1320    -0.7940 H     1 <1>   0.0800 
 31 H       -1.3470     0.9040     0.8260 H     1 <1>   0.0800 
 32 H       -0.4190    -2.7840    -0.0230 H     1 <1>   0.0800 
 33 H       -1.1010    -2.6110    -1.6590 H     1 <1>   0.0800 
 34 H       -3.0450    -4.4840    -0.5830 H     1 <1>   0.3700 
 35 H       -6.3400    -1.1220     1.1450 H     1 <1>   0.0800 
 36 H       -5.7290    -2.2860     2.3070 H     1 <1>   0.0800 
 37 H       -6.2060    -2.8150     0.7000 H     1 <1>   0.0800 
 38 H       -4.5390    -6.0240    -1.5700 H     1 <1>   0.1500 
 39 H       -4.1110    -7.1490     2.5110 H     1 <1>   0.1500 
 40 H       -4.6010    -8.3620    -2.2240 H     1 <1>   0.1500 
 41 H       -4.1710    -9.4990     1.8850 H     1 <1>   0.1500 
 42 H       -3.6510   -11.1060    -0.1630 H     1 <1>   0.0800 
 43 H       -4.3920   -10.6730    -1.6880 H     1 <1>   0.0800 
 44 H       -5.8400   -10.9630     0.8620 H     1 <1>   0.4500 
 45 H       -5.0120   -13.0870     0.1900 H     1 <1>   0.0800 
 46 H       -5.7720   -12.8670    -1.3700 H     1 <1>   0.0800 
 47 H       -7.0460   -10.8180    -1.8010 H     1 <1>   0.0800 
 48 H       -6.8430    -9.4150    -0.7760 H     1 <1>   0.0800 
 49 H       -9.0790   -10.6170    -0.6140 H     1 <1>   0.0800 
 50 H       -8.2800   -10.2650     0.8850 H     1 <1>   0.0800 
 51 H       -6.3650   -15.1340     0.5130 H     1 <1>   0.1500 
 52 H      -10.3150   -12.2450     0.9900 H     1 <1>   0.1500 
 53 H       -8.4490   -16.0390     1.4020 H     1 <1>   0.1500 
 54 H      -10.4230   -14.5990     1.6390 H     1 <1>   0.1500 
@<TRIPOS>BOND
  1   1   2  1   
  2   1   3  1   
  3   2   4  1   
  4   2  30  1   
  5   2  31  1   
  6   3   5  1   
  7   3  32  1   
  8   3  33  1   
  9   4   5  1   
 10   4   6  2   
 11   5   7  2   
 12   6   8  1   
 13   7   8  1   
 14   7   9  1   
 15   8  10  1   
 16   9  11  am  
 17   9  34  1   
 18  10  35  1   
 19  10  36  1   
 20  10  37  1   
 21  11  12  2   
 22  11  13  1   
 23  13  14  ar  
 24  13  15  ar  
 25  14  16  ar  
 26  14  38  1   
 27  15  17  ar  
 28  15  39  1   
 29  16  18  ar  
 30  16  40  1   
 31  17  18  ar  
 32  17  41  1   
 33  18  19  1   
 34  19  20  1   
 35  19  42  1   
 36  19  43  1   
 37  20  21  1   
 38  20  22  1   
 39  20  44  1   
 40  21  23  1   
 41  21  45  1   
 42  21  46  1   
 43  22  24  1   
 44  22  47  1   
 45  22  48  1   
 46  23  25  ar  
 47  23  26  ar  
 48  24  25  1   
 49  24  49  1   
 50  24  50  1   
 51  25  27  ar  
 52  26  28  ar  
 53  26  51  1   
 54  27  29  ar  
 55  27  52  1   
 56  28  29  ar  
 57  28  53  1   
 58  29  54  1   
@<TRIPOS>SUBSTRUCTURE
  1 ****  13 GROUP 4 **** **** 0

# MOE 2024.06 (io_trps.svl 2023.06)
