@<TRIPOS>MOLECULE
NONAME
33 34 1 0 0 
SMALL
USER_CHARGES


@<TRIPOS>ATOM
  1 F       -0.6860    -0.6300     1.1790 F     1 <1>  -0.1900 
  2 C       -1.8080    -1.1250     0.7040 C.ar  1 <1>   0.1900 
  3 C       -2.7780    -0.3590     0.0680 C.ar  1 <1>   0.3920 
  4 C       -2.0310    -2.4680     0.8480 C.ar  1 <1>   0.1600 
  5 O       -2.7160     0.9760    -0.1510 O.3   1 <1>  -0.3630 
  6 N       -3.8770    -0.9200    -0.3830 N.ar  1 <1>  -0.6200 
  7 N       -3.1300    -3.0370     0.4010 N.ar  1 <1>  -0.6200 
  8 C       -1.6270     1.7980     0.2060 C.3   1 <1>   0.0400 
  9 C       -4.0070    -2.2320    -0.2030 C.ar  1 <1>   0.7200 
 10 N       -5.1620    -2.8150    -0.6810 N.pl3 1 <1>  -0.8380 
 11 C       -5.3160    -4.2900    -0.8560 C.3   1 <1>   0.2090 
 12 C       -6.4290    -2.0530    -0.8610 C.3   1 <1>   0.2090 
 13 C       -6.3090    -4.8200     0.1830 C.3   1 <1>  -0.0190 
 14 C       -7.4640    -2.5580     0.1520 C.3   1 <1>  -0.1600 
 15 C       -6.4750    -6.3210     0.0140 C.2   1 <1>   0.5690 
 16 C       -7.6600    -4.0820     0.0720 C.3   1 <1>  -0.1600 
 17 O       -6.7500    -6.7870    -1.0620 O.2   1 <1>  -0.5700 
 18 N       -6.3210    -7.1340     1.0750 N.am  1 <1>  -0.8000 
 19 H       -1.2980    -3.0830     1.3370 H     1 <1>   0.1500 
 20 H       -1.8520     2.8020    -0.1080 H     1 <1>   0.0800 
 21 H       -0.7430     1.4490    -0.2990 H     1 <1>   0.0800 
 22 H       -1.5010     1.7720     1.2730 H     1 <1>   0.0800 
 23 H       -4.3720    -4.7980    -0.7570 H     1 <1>   0.0800 
 24 H       -5.6860    -4.4870    -1.8470 H     1 <1>   0.0800 
 25 H       -6.7890    -2.2070    -1.8640 H     1 <1>   0.0800 
 26 H       -6.2800    -0.9960    -0.7220 H     1 <1>   0.0800 
 27 H       -5.8880    -4.6320     1.1540 H     1 <1>   0.0800 
 28 H       -8.4010    -2.0620    -0.0250 H     1 <1>   0.0800 
 29 H       -7.1320    -2.2860     1.1390 H     1 <1>   0.0800 
 30 H       -8.3190    -4.4070     0.8580 H     1 <1>   0.0800 
 31 H       -8.1200    -4.3300    -0.8700 H     1 <1>   0.0800 
 32 H       -6.4400    -8.1410     0.9520 H     1 <1>   0.3700 
 33 H       -6.0790    -6.8120     2.0110 H     1 <1>   0.3700 
@<TRIPOS>BOND
  1   1   2  1   
  2   2   3  ar  
  3   2   4  ar  
  4   3   5  1   
  5   3   6  ar  
  6   4   7  ar  
  7   4  19  1   
  8   5   8  1   
  9   6   9  ar  
 10   7   9  ar  
 11   8  20  1   
 12   8  21  1   
 13   8  22  1   
 14   9  10  1   
 15  10  11  1   
 16  10  12  1   
 17  11  13  1   
 18  11  23  1   
 19  11  24  1   
 20  12  14  1   
 21  12  25  1   
 22  12  26  1   
 23  13  15  1   
 24  13  16  1   
 25  13  27  1   
 26  14  16  1   
 27  14  28  1   
 28  14  29  1   
 29  15  17  2   
 30  15  18  am  
 31  16  30  1   
 32  16  31  1   
 33  18  32  1   
 34  18  33  1   
@<TRIPOS>SUBSTRUCTURE
  1 ****   9 GROUP 4 **** **** 0

# MOE 2024.06 (io_trps.svl 2023.06)
