@<TRIPOS>MOLECULE
NONAME
52 54 1 0 0 
SMALL
USER_CHARGES


@<TRIPOS>ATOM
  1 CL       3.6670     2.3170     2.1260 Cl    1 <1>  -0.1770 
  2 C        3.9280     0.6870     1.5470 C.ar  1 <1>   0.1770 
  3 C        4.1430     0.4510     0.1920 C.ar  1 <1>   0.0860 
  4 C        3.9150    -0.3390     2.4740 C.ar  1 <1>  -0.1500 
  5 C        4.1700     1.5240    -0.7730 C.2   1 <1>   0.5440 
  6 C        4.3380    -0.8680    -0.2060 C.ar  1 <1>  -0.1500 
  7 C        4.1180    -1.6380     2.0490 C.ar  1 <1>  -0.1500 
  8 O        3.2100     1.6910    -1.5010 O.2   1 <1>  -0.5700 
  9 N        5.2570     2.3610    -0.9000 N.am  1 <1>  -0.6600 
 10 C        4.3320    -1.9180     0.7040 C.ar  1 <1>   0.1000 
 11 C        5.2860     3.4550    -1.9170 C.3   1 <1>   0.3200 
 12 C        6.4850     2.2680    -0.0570 C.3   1 <1>   0.0600 
 13 N        4.5360    -3.2310     0.2950 N.pl3 1 <1>  -0.8380 
 14 C        5.4250     4.8150    -1.2500 C.2   1 <1>   0.0070 
 15 C        3.8680    -3.7830    -0.9150 C.3   1 <1>   0.2090 
 16 C        5.7100    -3.9920     0.7980 C.3   1 <1>   0.2090 
 17 N        6.5090     5.5150    -1.2770 N.2   1 <1>  -0.3380 
 18 N        4.4510     5.4350    -0.5720 N.pl3 1 <1>   0.0480 
 19 C        4.8900    -3.9930    -2.0390 C.3   1 <1>  -0.1600 
 20 C        6.7300    -4.1790    -0.3300 C.3   1 <1>  -0.1600 
 21 N        6.2660     6.6390    -0.6050 N.2   1 <1>  -0.3380 
 22 C        5.0460     6.5730    -0.2010 C.2   1 <1>   0.0360 
 23 C        3.0540     4.9890    -0.3150 C.3   1 <1>   0.1760 
 24 C        6.0950    -4.8210    -1.5720 C.3   1 <1>  -0.1600 
 25 C        2.1460     5.4230    -1.4700 C.3   1 <1>  -0.2400 
 26 C        2.5260     5.5310     1.0200 C.3   1 <1>  -0.2400 
 27 H        3.7450    -0.1220     3.5130 H     1 <1>   0.1500 
 28 H        4.5040    -1.0750    -1.2450 H     1 <1>   0.1500 
 29 H        4.1030    -2.4510     2.7520 H     1 <1>   0.1500 
 30 H        4.4010     3.4470    -2.5270 H     1 <1>   0.0800 
 31 H        6.1270     3.2990    -2.5690 H     1 <1>   0.0800 
 32 H        6.5600     1.3090     0.4220 H     1 <1>   0.0800 
 33 H        6.4630     3.0370     0.6970 H     1 <1>   0.0800 
 34 H        7.3600     2.4120    -0.6680 H     1 <1>   0.0800 
 35 H        3.0880    -3.1170    -1.2420 H     1 <1>   0.0800 
 36 H        3.4140    -4.7250    -0.6580 H     1 <1>   0.0800 
 37 H        5.3770    -4.9510     1.1560 H     1 <1>   0.0800 
 38 H        6.1680    -3.4650     1.6170 H     1 <1>   0.0800 
 39 H        5.2280    -3.0330    -2.3860 H     1 <1>   0.0800 
 40 H        4.4100    -4.4870    -2.8640 H     1 <1>   0.0800 
 41 H        7.5380    -4.7940     0.0230 H     1 <1>   0.0800 
 42 H        7.1360    -3.2160    -0.5870 H     1 <1>   0.0800 
 43 H        4.5530     7.3380     0.3690 H     1 <1>   0.1500 
 44 H        3.0520     3.9170    -0.2590 H     1 <1>   0.0800 
 45 H        6.8230    -4.8850    -2.3620 H     1 <1>   0.0800 
 46 H        5.7720    -5.8200    -1.3320 H     1 <1>   0.0800 
 47 H        2.1290     6.4940    -1.5610 H     1 <1>   0.0800 
 48 H        1.1430     5.0760    -1.2970 H     1 <1>   0.0800 
 49 H        2.4890     4.9930    -2.3950 H     1 <1>   0.0800 
 50 H        2.4160     6.6000     0.9910 H     1 <1>   0.0800 
 51 H        3.1920     5.2590     1.8210 H     1 <1>   0.0800 
 52 H        1.5630     5.0990     1.2280 H     1 <1>   0.0800 
@<TRIPOS>BOND
  1   1   2  1   
  2   2   3  ar  
  3   2   4  ar  
  4   3   5  1   
  5   3   6  ar  
  6   4   7  ar  
  7   4  27  1   
  8   5   8  2   
  9   5   9  am  
 10   6  10  ar  
 11   6  28  1   
 12   7  10  ar  
 13   7  29  1   
 14   9  11  1   
 15   9  12  1   
 16  10  13  1   
 17  11  14  1   
 18  11  30  1   
 19  11  31  1   
 20  12  32  1   
 21  12  33  1   
 22  12  34  1   
 23  13  15  1   
 24  13  16  1   
 25  14  17  2   
 26  14  18  1   
 27  15  19  1   
 28  15  35  1   
 29  15  36  1   
 30  16  20  1   
 31  16  37  1   
 32  16  38  1   
 33  17  21  1   
 34  18  22  1   
 35  18  23  1   
 36  19  24  1   
 37  19  39  1   
 38  19  40  1   
 39  20  24  1   
 40  20  41  1   
 41  20  42  1   
 42  21  22  2   
 43  22  43  1   
 44  23  25  1   
 45  23  26  1   
 46  23  44  1   
 47  24  45  1   
 48  24  46  1   
 49  25  47  1   
 50  25  48  1   
 51  25  49  1   
 52  26  50  1   
 53  26  51  1   
 54  26  52  1   
@<TRIPOS>SUBSTRUCTURE
  1 ****   5 GROUP 4 **** **** 0

# MOE 2024.06 (io_trps.svl 2023.06)
