@<TRIPOS>MOLECULE
NONAME
51 52 1 0 0 
SMALL
USER_CHARGES


@<TRIPOS>ATOM
  1 F        0.3310     0.7110     0.3440 F     1 <1>  -0.1900 
  2 C        0.3690     2.0160     0.3680 C.ar  1 <1>   0.1900 
  3 C        1.4470     2.6410     0.9630 C.ar  1 <1>  -0.1500 
  4 C       -0.6720     2.7240    -0.2020 C.ar  1 <1>  -0.1500 
  5 C        1.4810     4.0260     0.9860 C.ar  1 <1>  -0.1500 
  6 C       -0.6270     4.1080    -0.1730 C.ar  1 <1>  -0.1500 
  7 C        0.4470     4.7620     0.4190 C.ar  1 <1>  -0.1430 
  8 C        0.4970     6.2810     0.4440 C.3   1 <1>  -0.0160 
  9 C        1.3070     6.7980    -0.7450 C.3   1 <1>   0.1400 
 10 N        1.3180     8.2860    -0.7540 N.am  1 <1>  -0.7300 
 11 C        2.3530     9.0440    -0.2930 C.2   1 <1>   0.5690 
 12 O        3.3420     8.5450     0.1920 O.2   1 <1>  -0.5700 
 13 C        2.3140    10.5810    -0.3810 C.3   1 <1>   0.4040 
 14 N        3.6910    11.2080    -0.3980 N.4   1 <1>  -0.9590 
 15 C        3.6400    12.6580    -0.0590 C.3   1 <1>   0.3430 
 16 C        4.3850    10.9370    -1.6980 C.3   1 <1>   0.2630 
 17 C        5.0300    13.1900     0.2880 C.3   1 <1>  -0.1600 
 18 C        4.9440    14.6750     0.6410 C.3   1 <1>   0.2000 
 19 O        4.2110    15.2920    -0.3720 O.3   1 <1>  -0.5600 
 20 C        6.3330    15.3250     0.7420 C.3   1 <1>  -0.1600 
 21 C        3.9580    16.6540    -0.1740 C.3   1 <1>   0.1200 
 22 C        6.2140    16.8400     0.9420 C.3   1 <1>  -0.1600 
 23 C        5.2830    17.4240    -0.1250 C.3   1 <1>  -0.1600 
 24 H        2.2380     2.0560     1.3970 H     1 <1>   0.1500 
 25 H       -1.4940     2.2000    -0.6550 H     1 <1>   0.1500 
 26 H        2.3160     4.5260     1.4460 H     1 <1>   0.1500 
 27 H       -1.4330     4.6690    -0.6130 H     1 <1>   0.1500 
 28 H        0.9560     6.6070     1.3610 H     1 <1>   0.0800 
 29 H       -0.5030     6.6740     0.4070 H     1 <1>   0.0800 
 30 H        0.8770     6.4370    -1.6640 H     1 <1>   0.0800 
 31 H        2.3150     6.4210    -0.6800 H     1 <1>   0.0800 
 32 H        0.4640     8.7070    -1.1300 H     1 <1>   0.3700 
 33 H        1.7720    10.9370     0.4790 H     1 <1>   0.0800 
 34 H        1.7700    10.8690    -1.2630 H     1 <1>   0.0800 
 35 H        4.2180    10.7010     0.3350 H     1 <1>   0.4500 
 36 H        2.9910    12.8140     0.7880 H     1 <1>   0.0800 
 37 H        3.2410    13.2180    -0.8910 H     1 <1>   0.0800 
 38 H        3.8730    11.4290    -2.5090 H     1 <1>   0.0800 
 39 H        4.4120     9.8770    -1.8930 H     1 <1>   0.0800 
 40 H        5.4000    11.2970    -1.6630 H     1 <1>   0.0800 
 41 H        5.6920    13.0820    -0.5510 H     1 <1>   0.0800 
 42 H        5.4380    12.6550     1.1260 H     1 <1>   0.0800 
 43 H        4.4060    14.8060     1.5660 H     1 <1>   0.0800 
 44 H        6.8870    15.1290    -0.1600 H     1 <1>   0.0800 
 45 H        6.8790    14.8950     1.5640 H     1 <1>   0.0800 
 46 H        3.4060    16.7740     0.7420 H     1 <1>   0.0800 
 47 H        3.3540    17.0010    -0.9950 H     1 <1>   0.0800 
 48 H        7.1850    17.3010     0.8790 H     1 <1>   0.0800 
 49 H        5.8100    17.0430     1.9200 H     1 <1>   0.0800 
 50 H        5.0890    18.4610     0.0880 H     1 <1>   0.0800 
 51 H        5.7520    17.3700    -1.0920 H     1 <1>   0.0800 
@<TRIPOS>BOND
  1   1   2  1   
  2   2   3  ar  
  3   2   4  ar  
  4   3   5  ar  
  5   3  24  1   
  6   4   6  ar  
  7   4  25  1   
  8   5   7  ar  
  9   5  26  1   
 10   6   7  ar  
 11   6  27  1   
 12   7   8  1   
 13   8   9  1   
 14   8  28  1   
 15   8  29  1   
 16   9  10  1   
 17   9  30  1   
 18   9  31  1   
 19  10  11  am  
 20  10  32  1   
 21  11  12  2   
 22  11  13  1   
 23  13  14  1   
 24  13  33  1   
 25  13  34  1   
 26  14  15  1   
 27  14  16  1   
 28  14  35  1   
 29  15  17  1   
 30  15  36  1   
 31  15  37  1   
 32  16  38  1   
 33  16  39  1   
 34  16  40  1   
 35  17  18  1   
 36  17  41  1   
 37  17  42  1   
 38  18  19  1   
 39  18  20  1   
 40  18  43  1   
 41  19  21  1   
 42  20  22  1   
 43  20  44  1   
 44  20  45  1   
 45  21  23  1   
 46  21  46  1   
 47  21  47  1   
 48  22  23  1   
 49  22  48  1   
 50  22  49  1   
 51  23  50  1   
 52  23  51  1   
@<TRIPOS>SUBSTRUCTURE
  1 ****  11 GROUP 4 **** **** 0

# MOE 2024.06 (io_trps.svl 2023.06)
