@<TRIPOS>MOLECULE
NONAME
47 48 1 0 0 
SMALL
USER_CHARGES


@<TRIPOS>ATOM
  1 O        1.0580     0.7990    -1.7020 O.2   1 <1>  -0.5700 
  2 C        1.6480     0.8950    -0.6430 C.2   1 <1>   0.5440 
  3 N        1.4200     1.9970     0.1400 N.am  1 <1>  -0.7300 
  4 C        2.5920    -0.1010    -0.2060 C.ar  1 <1>   0.0860 
  5 C        0.5080     3.1220    -0.1930 C.3   1 <1>   0.0600 
  6 C        2.2280    -1.4290     0.1110 C.ar  1 <1>   0.4100 
  7 C        3.9290     0.2550    -0.0930 C.ar  1 <1>  -0.1500 
  8 N        3.1150    -2.3480     0.5020 N.ar  1 <1>  -0.6200 
  9 N        0.9270    -1.9080     0.0560 N.pl3 1 <1>  -0.8380 
 10 C        4.8310    -0.6990     0.3150 C.ar  1 <1>  -0.1500 
 11 C        4.3730    -1.9730     0.5950 C.ar  1 <1>   0.1600 
 12 C        0.6780    -3.2790    -0.4920 C.3   1 <1>   0.2090 
 13 C       -0.2600    -1.1210     0.4940 C.3   1 <1>   0.2090 
 14 C       -0.7930    -3.4600    -0.8990 C.3   1 <1>   0.2000 
 15 C       -1.2540    -2.0540     1.1900 C.3   1 <1>  -0.1600 
 16 O       -0.9750    -4.7230    -1.4650 O.3   1 <1>  -0.6800 
 17 C       -1.7860    -3.2060     0.2820 C.3   1 <1>   0.0000 
 18 C       -1.9040    -4.4910     1.1490 C.3   1 <1>   0.1200 
 19 C       -3.1990    -2.8690    -0.2800 C.3   1 <1>  -0.1600 
 20 O       -2.6970    -4.2870     2.2730 O.3   1 <1>  -0.6800 
 21 C       -3.3390    -1.5490    -1.0640 C.3   1 <1>  -0.1600 
 22 C       -4.7770    -1.3600    -1.5520 C.3   1 <1>  -0.2400 
 23 H        1.9210     2.0760     1.0280 H     1 <1>   0.3700 
 24 H        0.0200     2.9460    -1.1370 H     1 <1>   0.0800 
 25 H        1.0690     4.0370    -0.2600 H     1 <1>   0.0800 
 26 H       -0.2430     3.2210     0.5710 H     1 <1>   0.0800 
 27 H        4.2500     1.2550    -0.3300 H     1 <1>   0.1500 
 28 H        5.8760    -0.4670     0.4130 H     1 <1>   0.1500 
 29 H        5.0820    -2.7190     0.9110 H     1 <1>   0.1500 
 30 H        1.3070    -3.4260    -1.3530 H     1 <1>   0.0800 
 31 H        0.9450    -4.0000     0.2600 H     1 <1>   0.0800 
 32 H        0.0480    -0.3520     1.1810 H     1 <1>   0.0800 
 33 H       -0.7150    -0.6530    -0.3630 H     1 <1>   0.0800 
 34 H       -0.9740    -2.7560    -1.6900 H     1 <1>   0.0800 
 35 H       -0.7300    -2.4590     2.0390 H     1 <1>   0.0800 
 36 H       -2.0730    -1.4760     1.5790 H     1 <1>   0.0800 
 37 H       -0.7000    -5.4240    -0.8460 H     1 <1>   0.4000 
 38 H       -0.9340    -4.8100     1.4910 H     1 <1>   0.0800 
 39 H       -2.3550    -5.2900     0.5870 H     1 <1>   0.0800 
 40 H       -3.5090    -3.6780    -0.9190 H     1 <1>   0.0800 
 41 H       -3.9010    -2.8360     0.5360 H     1 <1>   0.0800 
 42 H       -2.3550    -3.5400     2.7990 H     1 <1>   0.4000 
 43 H       -3.0800    -0.7120    -0.4400 H     1 <1>   0.0800 
 44 H       -2.6880    -1.5420    -1.9200 H     1 <1>   0.0800 
 45 H       -5.4580    -1.3320    -0.7200 H     1 <1>   0.0800 
 46 H       -5.0610    -2.1680    -2.2050 H     1 <1>   0.0800 
 47 H       -4.8630    -0.4360    -2.0960 H     1 <1>   0.0800 
@<TRIPOS>BOND
  1   1   2  2   
  2   2   3  am  
  3   2   4  1   
  4   3   5  1   
  5   3  23  1   
  6   4   6  ar  
  7   4   7  ar  
  8   5  24  1   
  9   5  25  1   
 10   5  26  1   
 11   6   8  ar  
 12   6   9  1   
 13   7  10  ar  
 14   7  27  1   
 15   8  11  ar  
 16   9  12  1   
 17   9  13  1   
 18  10  11  ar  
 19  10  28  1   
 20  11  29  1   
 21  12  14  1   
 22  12  30  1   
 23  12  31  1   
 24  13  15  1   
 25  13  32  1   
 26  13  33  1   
 27  14  16  1   
 28  14  17  1   
 29  14  34  1   
 30  15  17  1   
 31  15  35  1   
 32  15  36  1   
 33  16  37  1   
 34  17  18  1   
 35  17  19  1   
 36  18  20  1   
 37  18  38  1   
 38  18  39  1   
 39  19  21  1   
 40  19  40  1   
 41  19  41  1   
 42  20  42  1   
 43  21  22  1   
 44  21  43  1   
 45  21  44  1   
 46  22  45  1   
 47  22  46  1   
 48  22  47  1   
@<TRIPOS>SUBSTRUCTURE
  1 ****   9 GROUP 4 **** **** 0

# MOE 2024.06 (io_trps.svl 2023.06)
