@<TRIPOS>MOLECULE
NONAME
48 50 1 0 0 
SMALL
USER_CHARGES


@<TRIPOS>ATOM
  1 S        3.3390    -0.9480    -0.9670 S.3   1 <1>  -0.0800 
  2 C        1.6430    -1.3620    -0.8750 C.2   1 <1>   0.1980 
  3 C        2.9030     0.7290    -0.8220 C.2   1 <1>  -0.1100 
  4 N        0.8580    -0.3640    -0.7500 N.2   1 <1>  -0.5650 
  5 C        1.2820    -2.8380    -0.9520 C.3   1 <1>   0.5230 
  6 C        1.5680     0.8250    -0.7210 C.2   1 <1>   0.0460 
  7 N       -0.1520    -3.0420    -0.5540 N.4   1 <1>  -0.9590 
  8 C        0.7720     2.1050    -0.5810 C.3   1 <1>  -0.0590 
  9 C       -0.6580    -4.3540    -1.0890 C.3   1 <1>   0.3430 
 10 C       -0.3120    -2.8230     0.9140 C.3   1 <1>   0.3430 
 11 C       -1.2590    -5.3090    -0.0350 C.3   1 <1>   0.0000 
 12 C       -1.7180    -3.1800     1.3940 C.3   1 <1>  -0.1600 
 13 C       -2.2800    -4.4630     0.7610 C.3   1 <1>   0.2000 
 14 C       -2.0610    -6.3850    -0.8030 C.3   1 <1>   0.1200 
 15 C       -0.1930    -6.0180     0.8760 C.3   1 <1>  -0.0170 
 16 O       -2.8990    -5.2250     1.7360 O.3   1 <1>  -0.6800 
 17 O       -1.2650    -6.9480    -1.7900 O.3   1 <1>  -0.6800 
 18 C        1.2810    -5.7460     0.5680 C.ar  1 <1>  -0.1440 
 19 C        2.0830    -5.0890     1.4930 C.ar  1 <1>  -0.1500 
 20 C        1.8470    -6.1740    -0.6240 C.ar  1 <1>  -0.1500 
 21 C        3.4090    -4.8160     1.2070 C.ar  1 <1>  -0.1500 
 22 C        3.1730    -5.9000    -0.9130 C.ar  1 <1>  -0.1500 
 23 C        3.9530    -5.2130    -0.0010 C.ar  1 <1>  -0.1500 
 24 H        3.6910     1.4610    -0.8300 H     1 <1>   0.1500 
 25 H        1.9330    -3.4020    -0.3100 H     1 <1>   0.0800 
 26 H        1.4350    -3.1730    -1.9640 H     1 <1>   0.0800 
 27 H       -0.6470    -2.2630    -1.0170 H     1 <1>   0.4500 
 28 H        1.4270     2.9570    -0.5760 H     1 <1>   0.0800 
 29 H        0.2140     2.0900     0.3370 H     1 <1>   0.0800 
 30 H        0.0870     2.1990    -1.4040 H     1 <1>   0.0800 
 31 H       -1.4270    -4.1460    -1.8150 H     1 <1>   0.0800 
 32 H        0.1240    -4.8690    -1.6210 H     1 <1>   0.0800 
 33 H        0.3940    -3.4370     1.4420 H     1 <1>   0.0800 
 34 H       -0.0960    -1.7940     1.1590 H     1 <1>   0.0800 
 35 H       -2.3750    -2.3630     1.1540 H     1 <1>   0.0800 
 36 H       -1.6930    -3.2610     2.4660 H     1 <1>   0.0800 
 37 H       -3.0650    -4.1640     0.0840 H     1 <1>   0.0800 
 38 H       -2.9240    -5.9580    -1.2880 H     1 <1>   0.0800 
 39 H       -2.3950    -7.1670    -0.1400 H     1 <1>   0.0800 
 40 H       -0.3670    -5.7640     1.9060 H     1 <1>   0.0800 
 41 H       -0.3270    -7.0850     0.8260 H     1 <1>   0.0800 
 42 H       -2.3140    -5.4000     2.4990 H     1 <1>   0.4000 
 43 H       -1.7160    -7.7170    -2.2020 H     1 <1>   0.4000 
 44 H        1.6910    -4.7930     2.4500 H     1 <1>   0.1500 
 45 H        1.2630    -6.7330    -1.3360 H     1 <1>   0.1500 
 46 H        4.0260    -4.3050     1.9280 H     1 <1>   0.1500 
 47 H        3.6030    -6.2350    -1.8430 H     1 <1>   0.1500 
 48 H        4.9870    -5.0060    -0.2230 H     1 <1>   0.1500 
@<TRIPOS>BOND
  1   1   2  1   
  2   1   3  1   
  3   2   4  2   
  4   2   5  1   
  5   3   6  2   
  6   3  24  1   
  7   4   6  1   
  8   5   7  1   
  9   5  25  1   
 10   5  26  1   
 11   6   8  1   
 12   7   9  1   
 13   7  10  1   
 14   7  27  1   
 15   8  28  1   
 16   8  29  1   
 17   8  30  1   
 18   9  11  1   
 19   9  31  1   
 20   9  32  1   
 21  10  12  1   
 22  10  33  1   
 23  10  34  1   
 24  11  13  1   
 25  11  14  1   
 26  11  15  1   
 27  12  13  1   
 28  12  35  1   
 29  12  36  1   
 30  13  16  1   
 31  13  37  1   
 32  14  17  1   
 33  14  38  1   
 34  14  39  1   
 35  15  18  1   
 36  15  40  1   
 37  15  41  1   
 38  16  42  1   
 39  17  43  1   
 40  18  19  ar  
 41  18  20  ar  
 42  19  21  ar  
 43  19  44  1   
 44  20  22  ar  
 45  20  45  1   
 46  21  23  ar  
 47  21  46  1   
 48  22  23  ar  
 49  22  47  1   
 50  23  48  1   
@<TRIPOS>SUBSTRUCTURE
  1 ****   7 GROUP 4 **** **** 0

# MOE 2024.06 (io_trps.svl 2023.06)
