@<TRIPOS>MOLECULE
NONAME
46 48 1 0 0 
SMALL
USER_CHARGES


@<TRIPOS>ATOM
  1 S       -0.7090    -0.5900     0.5500 S.o2  1 <1>   1.3330 
  2 O        0.6660    -0.5770     0.9780 O.2   1 <1>  -0.6500 
  3 O       -1.1150     0.0270    -0.6890 O.2   1 <1>  -0.6500 
  4 N       -1.0950    -2.2120     0.4450 N.am  1 <1>  -0.9140 
  5 C       -1.7600    -0.0160     1.8650 C.3   1 <1>  -0.1350 
  6 C       -0.6810    -2.7770    -0.8550 C.3   1 <1>   0.2570 
  7 C       -0.9140    -4.2890    -0.9730 C.2   1 <1>   0.5690 
  8 O        0.0450    -5.0200    -0.8950 O.2   1 <1>  -0.5700 
  9 N       -2.1770    -4.7880    -1.1550 N.am  1 <1>  -0.6600 
 10 C       -3.4300    -3.9920    -1.1600 C.3   1 <1>   0.1400 
 11 C       -2.4690    -6.2380    -1.2120 C.3   1 <1>   0.1400 
 12 C       -4.5540    -5.0230    -1.2940 C.3   1 <1>   0.2000 
 13 C       -3.9510    -6.3570    -0.8560 C.3   1 <1>  -0.0800 
 14 O       -5.6330    -4.7050    -0.4850 O.3   1 <1>  -0.6800 
 15 C       -4.6420    -7.5690    -1.5030 C.3   1 <1>  -0.0170 
 16 C       -4.0230    -8.8760    -1.0180 C.ar  1 <1>  -0.1430 
 17 C       -4.3200    -9.4290     0.2500 C.ar  1 <1>   0.0000 
 18 C       -3.1400    -9.5510    -1.8100 C.ar  1 <1>  -0.1500 
 19 C       -3.6630   -10.6310     0.6120 C.ar  1 <1>   0.3100 
 20 C       -5.2280    -8.8660     1.1770 C.ar  1 <1>  -0.1500 
 21 C       -2.5530   -10.7380    -1.3580 C.ar  1 <1>   0.1600 
 22 N       -2.7870   -11.2710    -0.2010 N.ar  1 <1>  -0.6200 
 23 C       -3.9240   -11.1950     1.8710 C.ar  1 <1>  -0.1500 
 24 C       -5.4620    -9.4430     2.3950 C.ar  1 <1>  -0.1500 
 25 C       -4.8020   -10.6210     2.7510 C.ar  1 <1>  -0.1500 
 26 H       -0.4830    -2.6550     1.1320 H     1 <1>   0.4200 
 27 H       -1.5520    -0.5530     2.7690 H     1 <1>   0.0800 
 28 H       -2.7900    -0.1600     1.6030 H     1 <1>   0.0800 
 29 H       -1.5920     1.0290     2.0380 H     1 <1>   0.0800 
 30 H       -1.2200    -2.2910    -1.6500 H     1 <1>   0.0800 
 31 H        0.3680    -2.5870    -1.0100 H     1 <1>   0.0800 
 32 H       -3.5120    -3.4480    -0.2350 H     1 <1>   0.0800 
 33 H       -3.4400    -3.3120    -1.9930 H     1 <1>   0.0800 
 34 H       -2.2800    -6.5900    -2.2110 H     1 <1>   0.0800 
 35 H       -1.8520    -6.7860    -0.5190 H     1 <1>   0.0800 
 36 H       -4.8940    -5.0600    -2.3150 H     1 <1>   0.0800 
 37 H       -4.0070    -6.4370     0.2150 H     1 <1>   0.0800 
 38 H       -5.3580    -4.6740     0.4520 H     1 <1>   0.4000 
 39 H       -4.5520    -7.5010    -2.5730 H     1 <1>   0.0800 
 40 H       -5.6950    -7.5570    -1.2810 H     1 <1>   0.0800 
 41 H       -2.8700    -9.1950    -2.7870 H     1 <1>   0.1500 
 42 H       -5.7520    -7.9640     0.9230 H     1 <1>   0.1500 
 43 H       -1.8620   -11.2390    -2.0140 H     1 <1>   0.1500 
 44 H       -3.4070   -12.1020     2.1210 H     1 <1>   0.1500 
 45 H       -6.1550    -9.0020     3.0920 H     1 <1>   0.1500 
 46 H       -4.9920   -11.0660     3.7120 H     1 <1>   0.1500 
@<TRIPOS>BOND
  1   1   2  2   
  2   1   3  2   
  3   1   4  am  
  4   1   5  1   
  5   4   6  1   
  6   4  26  1   
  7   5  27  1   
  8   5  28  1   
  9   5  29  1   
 10   6   7  1   
 11   6  30  1   
 12   6  31  1   
 13   7   8  2   
 14   7   9  am  
 15   9  10  1   
 16   9  11  1   
 17  10  12  1   
 18  10  32  1   
 19  10  33  1   
 20  11  13  1   
 21  11  34  1   
 22  11  35  1   
 23  12  13  1   
 24  12  14  1   
 25  12  36  1   
 26  13  15  1   
 27  13  37  1   
 28  14  38  1   
 29  15  16  1   
 30  15  39  1   
 31  15  40  1   
 32  16  17  ar  
 33  16  18  ar  
 34  17  19  ar  
 35  17  20  ar  
 36  18  21  ar  
 37  18  41  1   
 38  19  22  ar  
 39  19  23  ar  
 40  20  24  ar  
 41  20  42  1   
 42  21  22  ar  
 43  21  43  1   
 44  23  25  ar  
 45  23  44  1   
 46  24  25  ar  
 47  24  45  1   
 48  25  46  1   
@<TRIPOS>SUBSTRUCTURE
  1 ****  11 GROUP 4 **** **** 0

# MOE 2024.06 (io_trps.svl 2023.06)
