@<TRIPOS>MOLECULE
NONAME
53 57 1 0 0 
SMALL
USER_CHARGES


@<TRIPOS>ATOM
  1 O        0.2210     0.4020    -0.4330 O.2   1 <1>  -0.5700 
  2 C       -0.3270     1.3570     0.0650 C.2   1 <1>   0.5690 
  3 N       -1.6940     1.4290     0.1710 N.am  1 <1>  -0.6600 
  4 C        0.5370     2.5010     0.5790 C.3   1 <1>  -0.0990 
  5 C       -2.4590     2.5770     0.7570 C.3   1 <1>   0.1400 
  6 C       -2.5700     0.3280    -0.3240 C.3   1 <1>   0.1400 
  7 C        2.0360     2.3280     0.2950 C.3   1 <1>   0.0210 
  8 C       -3.4290     3.1770    -0.2800 C.3   1 <1>   0.1430 
  9 C       -3.5630     0.8720    -1.3600 C.3   1 <1>  -0.1600 
 10 C        2.8560     3.5120     0.7850 C.2   1 <1>  -0.1810 
 11 C       -4.1880     4.3140     0.3790 C.ar  1 <1>   0.1660 
 12 C       -4.3630     2.0690    -0.8140 C.3   1 <1>  -0.1600 
 13 C       -2.6750     3.9010    -1.4290 C.3   1 <1>  -0.1600 
 14 C        4.2410     3.6420     0.5310 C.ar  1 <1>   0.0000 
 15 C        2.4730     4.5950     1.5050 C.2   1 <1>  -0.3020 
 16 N       -5.1310     4.1790     1.2800 N.ar  1 <1>  -0.6200 
 17 C       -3.7530     5.5290    -0.0640 C.ar  1 <1>  -0.1440 
 18 C       -2.6450     5.3980    -1.0780 C.3   1 <1>  -0.0170 
 19 C        4.6430     4.8330     1.1250 C.ar  1 <1>  -0.1520 
 20 C        5.1820     2.8590    -0.1470 C.ar  1 <1>  -0.1500 
 21 N        3.5500     5.4070     1.7200 N.pl3 1 <1>   0.0330 
 22 C       -5.6290     5.3260     1.7160 C.ar  1 <1>   0.7200 
 23 C       -4.3520     6.6520     0.4560 C.ar  1 <1>   0.1600 
 24 C        5.9720     5.2600     1.0550 C.ar  1 <1>  -0.1500 
 25 C        6.4900     3.2790    -0.2160 C.ar  1 <1>  -0.1500 
 26 N       -5.3060     6.5600     1.3550 N.ar  1 <1>  -0.6200 
 27 N       -6.6000     5.2270     2.6240 N.pl3 1 <1>  -0.9000 
 28 C        6.8860     4.4800     0.3850 C.ar  1 <1>  -0.1500 
 29 H        0.3930     2.5820     1.6400 H     1 <1>   0.0800 
 30 H        0.2120     3.4110     0.1130 H     1 <1>   0.0800 
 31 H       -1.8050     3.3470     1.1210 H     1 <1>   0.0800 
 32 H       -3.0280     2.2170     1.5970 H     1 <1>   0.0800 
 33 H       -3.1050    -0.0910     0.5100 H     1 <1>   0.0800 
 34 H       -1.9830    -0.4580    -0.7680 H     1 <1>   0.0800 
 35 H        2.1850     2.2180    -0.7650 H     1 <1>   0.0800 
 36 H        2.3940     1.4330     0.7740 H     1 <1>   0.0800 
 37 H       -4.2410     0.0860    -1.6420 H     1 <1>   0.0800 
 38 H       -3.0180     1.1600    -2.2420 H     1 <1>   0.0800 
 39 H       -5.0100     2.4640    -1.5770 H     1 <1>   0.0800 
 40 H       -4.9900     1.7260    -0.0090 H     1 <1>   0.0800 
 41 H       -3.2280     3.7880    -2.3450 H     1 <1>   0.0800 
 42 H       -1.6860     3.5090    -1.5900 H     1 <1>   0.0800 
 43 H        1.4990     4.8460     1.8870 H     1 <1>   0.1500 
 44 H       -2.8220     6.0110    -1.9450 H     1 <1>   0.0800 
 45 H       -1.7050     5.6650    -0.6270 H     1 <1>   0.0800 
 46 H        4.8670     1.9390    -0.6030 H     1 <1>   0.1500 
 47 H        3.5590     6.2900     2.2380 H     1 <1>   0.2700 
 48 H       -4.0460     7.6320     0.1330 H     1 <1>   0.1500 
 49 H        6.2670     6.1840     1.5200 H     1 <1>   0.1500 
 50 H        7.2230     2.6860    -0.7340 H     1 <1>   0.1500 
 51 H       -7.1800     6.0550     2.7250 H     1 <1>   0.4000 
 52 H       -7.0740     4.3290     2.6550 H     1 <1>   0.4000 
 53 H        7.9150     4.7860     0.3160 H     1 <1>   0.1500 
@<TRIPOS>BOND
  1   1   2  2   
  2   2   3  am  
  3   2   4  1   
  4   3   5  1   
  5   3   6  1   
  6   4   7  1   
  7   4  29  1   
  8   4  30  1   
  9   5   8  1   
 10   5  31  1   
 11   5  32  1   
 12   6   9  1   
 13   6  33  1   
 14   6  34  1   
 15   7  10  1   
 16   7  35  1   
 17   7  36  1   
 18   8  11  1   
 19   8  12  1   
 20   8  13  1   
 21   9  12  1   
 22   9  37  1   
 23   9  38  1   
 24  10  14  1   
 25  10  15  2   
 26  11  16  ar  
 27  11  17  ar  
 28  12  39  1   
 29  12  40  1   
 30  13  18  1   
 31  13  41  1   
 32  13  42  1   
 33  14  19  ar  
 34  14  20  ar  
 35  15  21  1   
 36  15  43  1   
 37  16  22  ar  
 38  17  18  1   
 39  17  23  ar  
 40  18  44  1   
 41  18  45  1   
 42  19  21  1   
 43  19  24  ar  
 44  20  25  ar  
 45  20  46  1   
 46  21  47  1   
 47  22  26  ar  
 48  22  27  1   
 49  23  26  ar  
 50  23  48  1   
 51  24  28  ar  
 52  24  49  1   
 53  25  28  ar  
 54  25  50  1   
 55  27  51  1   
 56  27  52  1   
 57  28  53  1   
@<TRIPOS>SUBSTRUCTURE
  1 ****   4 GROUP 4 **** **** 0

# MOE 2024.06 (io_trps.svl 2023.06)
