@<TRIPOS>MOLECULE
NONAME
44 47 1 0 0 
SMALL
USER_CHARGES


@<TRIPOS>ATOM
  1 S       -0.2180     0.1680    -1.7680 S.3   1 <1>  -0.0800 
  2 C       -1.1920     0.9610    -0.5400 C.2   1 <1>  -0.1400 
  3 C       -1.4580    -1.0570    -2.0030 C.2   1 <1>  -0.1100 
  4 C       -2.3550     0.3200    -0.3680 C.2   1 <1>  -0.1810 
  5 C       -0.7290     2.2060     0.2020 C.3   1 <1>   0.4600 
  6 C       -2.5120    -0.8370    -1.1940 C.2   1 <1>  -0.1500 
  7 C       -3.3540     0.8460     0.6370 C.3   1 <1>   0.0210 
  8 O       -1.6620     2.5130     1.2160 O.3   1 <1>  -0.5600 
  9 C       -0.6050     3.4120    -0.7390 C.3   1 <1>  -0.1600 
 10 C        0.5990     1.9370     0.9180 C.3   1 <1>  -0.1600 
 11 C       -3.0330     2.3230     0.9390 C.3   1 <1>   0.1200 
 12 C       -0.0640     4.6420    -0.0100 C.3   1 <1>   0.2090 
 13 C        1.1020     3.1900     1.6290 C.3   1 <1>   0.2090 
 14 N        1.2440     4.2870     0.6220 N.pl3 1 <1>  -0.8380 
 15 C        2.3930     4.9740     0.3680 C.ar  1 <1>   0.4610 
 16 N        3.5590     4.3130     0.3950 N.ar  1 <1>  -0.1790 
 17 C        2.4670     6.3140     0.0570 C.ar  1 <1>  -0.1500 
 18 C        4.7320     4.9190     0.1330 C.ar  1 <1>   0.7710 
 19 C        3.6990     6.8780    -0.1990 C.ar  1 <1>   0.3930 
 20 N        4.8390     6.1900    -0.1630 N.ar  1 <1>  -0.6200 
 21 N        5.8650     4.2150     0.1620 N.pl3 1 <1>  -0.9000 
 22 O        3.7360     8.1750    -0.4950 O.3   1 <1>  -0.3630 
 23 C        4.9340     8.8750    -0.7730 C.3   1 <1>   0.0400 
 24 H       -1.2630    -1.8240    -2.7320 H     1 <1>   0.1500 
 25 H       -3.4000    -1.4430    -1.1440 H     1 <1>   0.1500 
 26 H       -3.3030     0.2660     1.5410 H     1 <1>   0.0800 
 27 H       -4.3510     0.7720     0.2410 H     1 <1>   0.0800 
 28 H       -1.5600     3.6330    -1.1790 H     1 <1>   0.0800 
 29 H        0.0630     3.1670    -1.5440 H     1 <1>   0.0800 
 30 H        1.3350     1.6110     0.2090 H     1 <1>   0.0800 
 31 H        0.4540     1.1430     1.6290 H     1 <1>   0.0800 
 32 H       -3.5910     2.6530     1.7980 H     1 <1>   0.0800 
 33 H       -3.3000     2.9400     0.1000 H     1 <1>   0.0800 
 34 H       -0.7610     4.9550     0.7510 H     1 <1>   0.0800 
 35 H        0.0520     5.4460    -0.7160 H     1 <1>   0.0800 
 36 H        2.0330     2.9890     2.1280 H     1 <1>   0.0800 
 37 H        0.3890     3.4900     2.3830 H     1 <1>   0.0800 
 38 H        3.5390     3.3190     0.5540 H     1 <1>   0.4570 
 39 H        1.5890     6.9280     0.0210 H     1 <1>   0.1500 
 40 H        6.7360     4.7150    -0.0450 H     1 <1>   0.4000 
 41 H        5.9960     3.2250     0.3710 H     1 <1>   0.4000 
 42 H        4.6860     9.9020    -0.9780 H     1 <1>   0.0800 
 43 H        5.4070     8.4330    -1.6320 H     1 <1>   0.0800 
 44 H        5.5800     8.8180     0.0850 H     1 <1>   0.0800 
@<TRIPOS>BOND
  1   1   2  1   
  2   1   3  1   
  3   2   4  2   
  4   2   5  1   
  5   3   6  2   
  6   3  24  1   
  7   4   6  1   
  8   4   7  1   
  9   5   8  1   
 10   5   9  1   
 11   5  10  1   
 12   6  25  1   
 13   7  11  1   
 14   7  26  1   
 15   7  27  1   
 16   8  11  1   
 17   9  12  1   
 18   9  28  1   
 19   9  29  1   
 20  10  13  1   
 21  10  30  1   
 22  10  31  1   
 23  11  32  1   
 24  11  33  1   
 25  12  14  1   
 26  12  34  1   
 27  12  35  1   
 28  13  14  1   
 29  13  36  1   
 30  13  37  1   
 31  14  15  1   
 32  15  16  ar  
 33  15  17  ar  
 34  16  18  ar  
 35  16  38  1   
 36  17  19  ar  
 37  17  39  1   
 38  18  20  ar  
 39  18  21  1   
 40  19  20  ar  
 41  19  22  1   
 42  21  40  1   
 43  21  41  1   
 44  22  23  1   
 45  23  42  1   
 46  23  43  1   
 47  23  44  1   
@<TRIPOS>SUBSTRUCTURE
  1 ****  14 GROUP 4 **** **** 0

# MOE 2024.06 (io_trps.svl 2023.06)
