@<TRIPOS>MOLECULE
NONAME
40 43 1 0 0 
SMALL
USER_CHARGES


@<TRIPOS>ATOM
  1 S       -0.7440     1.1070    -2.3000 S.3   1 <1>  -0.0800 
  2 C       -0.3180     2.1110    -0.9290 C.2   1 <1>  -0.1400 
  3 C        0.7130     1.6120    -3.1450 C.2   1 <1>  -0.1100 
  4 C        0.8420     2.7520    -1.1200 C.2   1 <1>  -0.1810 
  5 C       -1.1820     2.2200     0.2970 C.3   1 <1>   0.0200 
  6 C        1.4320     2.4720    -2.3970 C.2   1 <1>  -0.1500 
  7 C        1.4190     3.6750    -0.0430 C.3   1 <1>   0.4610 
  8 C       -0.7440     3.4860     1.0500 C.3   1 <1>   0.1200 
  9 O        0.6590     3.5620     1.1480 O.3   1 <1>  -0.5600 
 10 C        2.8430     3.2390     0.3250 C.3   1 <1>  -0.1600 
 11 C        1.4060     5.1400    -0.5060 C.3   1 <1>  -0.1600 
 12 C        3.4870     4.1920     1.3350 C.3   1 <1>   0.1400 
 13 C        2.0580     6.0570     0.5280 C.3   1 <1>   0.1400 
 14 N        3.4420     5.5740     0.7820 N.am  1 <1>  -0.6600 
 15 C        4.5900     6.2600     0.4120 C.2   1 <1>   0.5440 
 16 O        5.6710     5.7620     0.6740 O.2   1 <1>  -0.5700 
 17 C        4.5520     7.5430    -0.2820 C.ar  1 <1>   0.3960 
 18 N        3.9930     7.6280    -1.5130 N.ar  1 <1>  -0.6200 
 19 C        5.0990     8.6760     0.3350 C.ar  1 <1>   0.1900 
 20 C        4.0160     8.8160    -2.1000 C.ar  1 <1>   0.1600 
 21 F        5.5990     8.5930     1.5380 F     1 <1>  -0.1900 
 22 C        5.1240     9.9150    -0.2680 C.ar  1 <1>  -0.1500 
 23 C        4.5610     9.9520    -1.5210 C.ar  1 <1>   0.1900 
 24 F        4.5360    11.0800    -2.1730 F     1 <1>  -0.1900 
 25 H        0.8770     1.2060    -4.1270 H     1 <1>   0.1500 
 26 H       -1.0510     1.3520     0.9170 H     1 <1>   0.0800 
 27 H       -2.2180     2.2990     0.0220 H     1 <1>   0.0800 
 28 H        2.3630     2.9230    -2.6950 H     1 <1>   0.1500 
 29 H       -1.1430     3.4820     2.0480 H     1 <1>   0.0800 
 30 H       -1.0980     4.3650     0.5410 H     1 <1>   0.0800 
 31 H        3.4580     3.2190    -0.5550 H     1 <1>   0.0800 
 32 H        2.8160     2.2430     0.7260 H     1 <1>   0.0800 
 33 H        0.4010     5.4580    -0.7050 H     1 <1>   0.0800 
 34 H        1.9530     5.2240    -1.4280 H     1 <1>   0.0800 
 35 H        4.5000     3.8840     1.5290 H     1 <1>   0.0800 
 36 H        2.9470     4.1650     2.2660 H     1 <1>   0.0800 
 37 H        1.5010     6.0260     1.4500 H     1 <1>   0.0800 
 38 H        2.0550     7.0720     0.1740 H     1 <1>   0.0800 
 39 H        3.5850     8.8990    -3.0830 H     1 <1>   0.1500 
 40 H        5.5470    10.7820     0.2040 H     1 <1>   0.1500 
@<TRIPOS>BOND
  1   1   2  1   
  2   1   3  1   
  3   2   4  2   
  4   2   5  1   
  5   3   6  2   
  6   3  25  1   
  7   4   6  1   
  8   4   7  1   
  9   5   8  1   
 10   5  26  1   
 11   5  27  1   
 12   6  28  1   
 13   7   9  1   
 14   7  10  1   
 15   7  11  1   
 16   8   9  1   
 17   8  29  1   
 18   8  30  1   
 19  10  12  1   
 20  10  31  1   
 21  10  32  1   
 22  11  13  1   
 23  11  33  1   
 24  11  34  1   
 25  12  14  1   
 26  12  35  1   
 27  12  36  1   
 28  13  14  1   
 29  13  37  1   
 30  13  38  1   
 31  14  15  am  
 32  15  16  2   
 33  15  17  1   
 34  17  18  ar  
 35  17  19  ar  
 36  18  20  ar  
 37  19  21  1   
 38  19  22  ar  
 39  20  23  ar  
 40  20  39  1   
 41  22  23  ar  
 42  22  40  1   
 43  23  24  1   
@<TRIPOS>SUBSTRUCTURE
  1 ****  13 GROUP 4 **** **** 0

# MOE 2024.06 (io_trps.svl 2023.06)
