@<TRIPOS>MOLECULE
NONAME
51 55 1 0 0 
SMALL
USER_CHARGES


@<TRIPOS>ATOM
  1 O       -0.7450     0.6940     0.7780 O.2   1 <1>  -0.5700 
  2 C       -1.7890     1.2640     0.5150 C.2   1 <1>   0.7150 
  3 N       -2.9760     0.6680     0.8800 N.am  1 <1>  -0.6600 
  4 C       -1.7650     2.5220    -0.1760 C.2   1 <1>  -0.2370 
  5 C       -4.2510     0.8510     0.1340 C.3   1 <1>   0.1400 
  6 C       -3.0340    -0.3890     1.9270 C.3   1 <1>   0.1400 
  7 N       -0.8520     2.8620    -1.1220 N.pl3 1 <1>   0.3140 
  8 C       -2.5770     3.6100    -0.0620 C.2   1 <1>  -0.1500 
  9 C       -4.6330    -0.4710    -0.5310 C.3   1 <1>  -0.1600 
 10 C       -3.4070    -1.7230     1.2790 C.3   1 <1>  -0.1600 
 11 N       -1.0680     4.0890    -1.6190 N.2   1 <1>  -0.7070 
 12 C        0.2730     2.0520    -1.6160 C.3   1 <1>   0.0160 
 13 C       -2.1000     4.5320    -0.9730 C.2   1 <1>   0.1080 
 14 C       -4.7130    -1.6170     0.4870 C.3   1 <1>   0.4600 
 15 C       -2.6740     5.9070    -1.2230 C.3   1 <1>  -0.0590 
 16 O       -5.7260    -1.3290     1.4270 O.3   1 <1>  -0.5600 
 17 C       -5.0230    -2.9410    -0.2000 C.2   1 <1>  -0.3320 
 18 C       -7.0600    -1.6130     1.0750 C.3   1 <1>   0.1200 
 19 N       -4.2070    -3.6210    -1.0620 N.pl3 1 <1>   0.0330 
 20 C       -6.1700    -3.6300    -0.0370 C.2   1 <1>  -0.1810 
 21 C       -7.2700    -3.1210     0.8590 C.3   1 <1>   0.0210 
 22 C       -4.8580    -4.7680    -1.4470 C.ar  1 <1>  -0.1520 
 23 C       -6.0990    -4.8040    -0.8160 C.ar  1 <1>   0.0000 
 24 C       -4.4620    -5.7950    -2.3070 C.ar  1 <1>  -0.1500 
 25 C       -6.9590    -5.8820    -1.0420 C.ar  1 <1>  -0.1500 
 26 C       -5.3200    -6.8500    -2.5220 C.ar  1 <1>  -0.1500 
 27 C       -6.5680    -6.8940    -1.8890 C.ar  1 <1>  -0.1500 
 28 H       -4.1510     1.6080    -0.6230 H     1 <1>   0.0800 
 29 H       -5.0220     1.1570     0.8220 H     1 <1>   0.0800 
 30 H       -3.7760    -0.1180     2.6600 H     1 <1>   0.0800 
 31 H       -2.0870    -0.4780     2.4310 H     1 <1>   0.0800 
 32 H       -3.4150     3.7420     0.5980 H     1 <1>   0.1500 
 33 H       -3.8900    -0.7070    -1.2700 H     1 <1>   0.0800 
 34 H       -5.5690    -0.3700    -1.0470 H     1 <1>   0.0800 
 35 H       -3.5130    -2.4800     2.0340 H     1 <1>   0.0800 
 36 H       -2.6050    -2.0190     0.6290 H     1 <1>   0.0800 
 37 H       -0.0880     1.0860    -1.9120 H     1 <1>   0.0800 
 38 H        0.9980     1.9450    -0.8310 H     1 <1>   0.0800 
 39 H        0.7220     2.5460    -2.4570 H     1 <1>   0.0800 
 40 H       -3.5150     6.0870    -0.5810 H     1 <1>   0.0800 
 41 H       -2.9870     5.9820    -2.2480 H     1 <1>   0.0800 
 42 H       -1.9190     6.6480    -1.0350 H     1 <1>   0.0800 
 43 H       -7.3010    -1.0720     0.1780 H     1 <1>   0.0800 
 44 H       -7.6910    -1.2620     1.8710 H     1 <1>   0.0800 
 45 H       -3.2680    -3.3460    -1.3640 H     1 <1>   0.2700 
 46 H       -8.2280    -3.2930     0.4050 H     1 <1>   0.0800 
 47 H       -7.2370    -3.6360     1.8020 H     1 <1>   0.0800 
 48 H       -3.5020    -5.7550    -2.7880 H     1 <1>   0.1500 
 49 H       -7.9130    -5.9030    -0.5490 H     1 <1>   0.1500 
 50 H       -5.0380    -7.6540    -3.1800 H     1 <1>   0.1500 
 51 H       -7.2200    -7.7300    -2.0740 H     1 <1>   0.1500 
@<TRIPOS>BOND
  1   1   2  2   
  2   2   3  am  
  3   2   4  1   
  4   3   5  1   
  5   3   6  1   
  6   4   7  1   
  7   4   8  2   
  8   5   9  1   
  9   5  28  1   
 10   5  29  1   
 11   6  10  1   
 12   6  30  1   
 13   6  31  1   
 14   7  11  1   
 15   7  12  1   
 16   8  13  1   
 17   8  32  1   
 18   9  14  1   
 19   9  33  1   
 20   9  34  1   
 21  10  14  1   
 22  10  35  1   
 23  10  36  1   
 24  11  13  2   
 25  12  37  1   
 26  12  38  1   
 27  12  39  1   
 28  13  15  1   
 29  14  16  1   
 30  14  17  1   
 31  15  40  1   
 32  15  41  1   
 33  15  42  1   
 34  16  18  1   
 35  17  19  1   
 36  17  20  2   
 37  18  21  1   
 38  18  43  1   
 39  18  44  1   
 40  19  22  1   
 41  19  45  1   
 42  20  21  1   
 43  20  23  1   
 44  21  46  1   
 45  21  47  1   
 46  22  23  ar  
 47  22  24  ar  
 48  23  25  ar  
 49  24  26  ar  
 50  24  48  1   
 51  25  27  ar  
 52  25  49  1   
 53  26  27  ar  
 54  26  50  1   
 55  27  51  1   
@<TRIPOS>SUBSTRUCTURE
  1 ****   9 GROUP 4 **** **** 0

# MOE 2024.06 (io_trps.svl 2023.06)
