@<TRIPOS>MOLECULE
NONAME
43 43 1 0 0 
SMALL
USER_CHARGES


@<TRIPOS>ATOM
  1 O       -0.1080     0.3580     0.6990 O.3   1 <1>  -0.5600 
  2 C        0.0590     1.6950     0.3240 C.3   1 <1>   0.2000 
  3 C        0.9240    -0.4870     0.3080 C.3   1 <1>   0.1200 
  4 C        0.8120     2.4330     1.4490 C.3   1 <1>   0.2090 
  5 C       -1.3360     2.2860     0.0570 C.3   1 <1>  -0.1600 
  6 C        0.6110    -1.8740     0.8530 C.3   1 <1>  -0.2400 
  7 N        1.0980     3.8530     1.0900 N.pl3 1 <1>  -0.8690 
  8 C       -2.0910     1.5540    -1.0620 C.3   1 <1>  -0.2400 
  9 C        2.0750     4.2420     0.2040 C.ar  1 <1>   0.4100 
 10 N        2.8750     3.3030    -0.2550 N.ar  1 <1>  -0.6200 
 11 C        2.2050     5.5680    -0.1950 C.ar  1 <1>  -0.1430 
 12 C        3.7980     3.6930    -1.1060 C.ar  1 <1>   0.4770 
 13 C        3.2090     5.8380    -1.0930 C.ar  1 <1>   0.1600 
 14 C        1.2580     6.6370     0.3620 C.3   1 <1>  -0.0170 
 15 N        4.0170     4.9100    -1.5630 N.ar  1 <1>  -0.6200 
 16 C        4.7160     2.6170    -1.6320 C.3   1 <1>  -0.0970 
 17 C        1.5370     8.0730    -0.1080 C.3   1 <1>  -0.1600 
 18 C        0.5520     9.0660     0.5170 C.3   1 <1>  -0.2400 
 19 H        0.6400     1.7340    -0.5820 H     1 <1>   0.0800 
 20 H        1.8550    -0.1210     0.7090 H     1 <1>   0.0800 
 21 H        0.9690    -0.5030    -0.7680 H     1 <1>   0.0800 
 22 H        1.7440     1.9330     1.6440 H     1 <1>   0.0800 
 23 H        0.2230     2.4080     2.3480 H     1 <1>   0.0800 
 24 H       -1.2260     3.3170    -0.2280 H     1 <1>   0.0800 
 25 H       -1.9130     2.2550     0.9640 H     1 <1>   0.0800 
 26 H        0.5550    -1.8430     1.9260 H     1 <1>   0.0800 
 27 H        1.3860    -2.5610     0.5680 H     1 <1>   0.0800 
 28 H       -0.3250    -2.2220     0.4540 H     1 <1>   0.0800 
 29 H        0.3540     4.5150     1.3040 H     1 <1>   0.4000 
 30 H       -1.5230     1.5790    -1.9750 H     1 <1>   0.0800 
 31 H       -3.0430     2.0230    -1.2340 H     1 <1>   0.0800 
 32 H       -2.2610     0.5270    -0.7890 H     1 <1>   0.0800 
 33 H        3.3770     6.8370    -1.4530 H     1 <1>   0.1500 
 34 H        1.3200     6.6130     1.4370 H     1 <1>   0.0800 
 35 H        0.2520     6.3760     0.0840 H     1 <1>   0.0800 
 36 H        4.7420     1.7840    -0.9540 H     1 <1>   0.0800 
 37 H        5.7110     3.0070    -1.7430 H     1 <1>   0.0800 
 38 H        4.3590     2.2840    -2.5880 H     1 <1>   0.0800 
 39 H        1.4510     8.1270    -1.1800 H     1 <1>   0.0800 
 40 H        2.5390     8.3560     0.1700 H     1 <1>   0.0800 
 41 H       -0.4590     8.8220     0.2390 H     1 <1>   0.0800 
 42 H        0.7670    10.0630     0.1750 H     1 <1>   0.0800 
 43 H        0.6300     9.0510     1.5910 H     1 <1>   0.0800 
@<TRIPOS>BOND
  1   1   2  1   
  2   1   3  1   
  3   2   4  1   
  4   2   5  1   
  5   2  19  1   
  6   3   6  1   
  7   3  20  1   
  8   3  21  1   
  9   4   7  1   
 10   4  22  1   
 11   4  23  1   
 12   5   8  1   
 13   5  24  1   
 14   5  25  1   
 15   6  26  1   
 16   6  27  1   
 17   6  28  1   
 18   7   9  1   
 19   7  29  1   
 20   8  30  1   
 21   8  31  1   
 22   8  32  1   
 23   9  10  ar  
 24   9  11  ar  
 25  10  12  ar  
 26  11  13  ar  
 27  11  14  1   
 28  12  15  ar  
 29  12  16  1   
 30  13  15  ar  
 31  13  33  1   
 32  14  17  1   
 33  14  34  1   
 34  14  35  1   
 35  16  36  1   
 36  16  37  1   
 37  16  38  1   
 38  17  18  1   
 39  17  39  1   
 40  17  40  1   
 41  18  41  1   
 42  18  42  1   
 43  18  43  1   
@<TRIPOS>SUBSTRUCTURE
  1 ****   9 GROUP 4 **** **** 0

# MOE 2024.06 (io_trps.svl 2023.06)
