@<TRIPOS>MOLECULE
NONAME
43 45 1 0 0 
SMALL
USER_CHARGES


@<TRIPOS>ATOM
  1 O       -0.7490     0.7700     0.3670 O.3   1 <1>  -0.5600 
  2 C       -0.2190    -0.5230     0.3650 C.3   1 <1>   0.2800 
  3 C       -2.1330     0.9690     0.4940 C.3   1 <1>   0.1200 
  4 C       -1.2440    -1.5430     0.9200 C.3   1 <1>  -0.1600 
  5 C        1.0280    -0.4810     1.2540 C.3   1 <1>  -0.1600 
  6 C        0.2460    -0.7890    -1.0750 C.3   1 <1>  -0.1600 
  7 C       -2.9280    -0.0820    -0.2930 C.3   1 <1>  -0.1600 
  8 C       -2.5800    -1.5070     0.1720 C.3   1 <1>   0.2800 
  9 C        1.8160    -1.7870     1.1710 C.3   1 <1>   0.3430 
 10 C        0.9710    -2.1220    -1.1690 C.3   1 <1>   0.3430 
 11 O       -2.4430    -2.3080    -0.9390 O.3   1 <1>  -0.6800 
 12 C       -3.6950    -2.1330     1.0090 C.3   1 <1>  -0.2400 
 13 N        2.1420    -2.1100    -0.2490 N.4   1 <1>  -0.9590 
 14 C        2.9840    -3.3290    -0.3590 C.3   1 <1>   0.5230 
 15 C        4.4230    -2.9320    -0.0530 C.2   1 <1>   0.0060 
 16 N        4.8260    -1.6980    -0.0050 N.2   1 <1>  -0.5650 
 17 N        5.4100    -3.8290     0.1870 N.pl3 1 <1>   0.0330 
 18 C        6.1380    -1.7950     0.2820 C.2   1 <1>   0.0770 
 19 C        6.5100    -3.0870     0.4030 C.2   1 <1>  -0.3020 
 20 H       -2.3520     1.9590     0.1310 H     1 <1>   0.0800 
 21 H       -2.3800     0.9280     1.5410 H     1 <1>   0.0800 
 22 H       -1.4230    -1.2910     1.9510 H     1 <1>   0.0800 
 23 H       -0.8610    -2.5460     0.9160 H     1 <1>   0.0800 
 24 H        0.7420    -0.3060     2.2760 H     1 <1>   0.0800 
 25 H        1.6660     0.3310     0.9510 H     1 <1>   0.0800 
 26 H        0.9070    -0.0040    -1.3950 H     1 <1>   0.0800 
 27 H       -0.5840    -0.7970    -1.7530 H     1 <1>   0.0800 
 28 H       -2.7120     0.0520    -1.3380 H     1 <1>   0.0800 
 29 H       -3.9760     0.1120    -0.1550 H     1 <1>   0.0800 
 30 H        1.2340    -2.5850     1.6010 H     1 <1>   0.0800 
 31 H        2.7280    -1.6880     1.7390 H     1 <1>   0.0800 
 32 H        1.2980    -2.2770    -2.1850 H     1 <1>   0.0800 
 33 H        0.2920    -2.9170    -0.9040 H     1 <1>   0.0800 
 34 H       -3.3080    -2.3780    -1.3890 H     1 <1>   0.4000 
 35 H       -3.8560    -1.5540     1.9010 H     1 <1>   0.0800 
 36 H       -3.4300    -3.1340     1.3020 H     1 <1>   0.0800 
 37 H       -4.6190    -2.1610     0.4600 H     1 <1>   0.0800 
 38 H        2.8010    -1.3640    -0.5470 H     1 <1>   0.4500 
 39 H        2.9400    -3.7180    -1.3630 H     1 <1>   0.0800 
 40 H        2.6410    -4.0860     0.3260 H     1 <1>   0.0800 
 41 H        5.3630    -4.8540     0.2020 H     1 <1>   0.2700 
 42 H        6.7590    -0.9180     0.3880 H     1 <1>   0.1500 
 43 H        7.4780    -3.5030     0.6240 H     1 <1>   0.1500 
@<TRIPOS>BOND
  1   1   2  1   
  2   1   3  1   
  3   2   4  1   
  4   2   5  1   
  5   2   6  1   
  6   3   7  1   
  7   3  20  1   
  8   3  21  1   
  9   4   8  1   
 10   4  22  1   
 11   4  23  1   
 12   5   9  1   
 13   5  24  1   
 14   5  25  1   
 15   6  10  1   
 16   6  26  1   
 17   6  27  1   
 18   7   8  1   
 19   7  28  1   
 20   7  29  1   
 21   8  11  1   
 22   8  12  1   
 23   9  13  1   
 24   9  30  1   
 25   9  31  1   
 26  10  13  1   
 27  10  32  1   
 28  10  33  1   
 29  11  34  1   
 30  12  35  1   
 31  12  36  1   
 32  12  37  1   
 33  13  14  1   
 34  13  38  1   
 35  14  15  1   
 36  14  39  1   
 37  14  40  1   
 38  15  16  2   
 39  15  17  1   
 40  16  18  1   
 41  17  19  1   
 42  17  41  1   
 43  18  19  2   
 44  18  42  1   
 45  19  43  1   
@<TRIPOS>SUBSTRUCTURE
  1 ****  13 GROUP 4 **** **** 0

# MOE 2024.06 (io_trps.svl 2023.06)
