@<TRIPOS>MOLECULE
NONAME
51 54 1 0 0 
SMALL
USER_CHARGES


@<TRIPOS>ATOM
  1 O       -4.1330     1.8530    -2.2270 O.2   1 <1>  -0.5700 
  2 C       -3.1320     1.6320    -1.5900 C.2   1 <1>   0.5690 
  3 N       -2.4570     0.4630    -1.6980 N.am  1 <1>  -0.7300 
  4 C       -2.6090     2.6760    -0.6180 C.3   1 <1>   0.0820 
  5 C       -2.8120    -0.7050    -2.5310 C.3   1 <1>   0.2200 
  6 C       -1.8410     2.0230     0.5290 C.2   1 <1>  -0.1810 
  7 C       -3.4380    -1.8060    -1.6850 C.3   1 <1>  -0.0800 
  8 C       -1.5230    -1.3940    -2.9590 C.3   1 <1>   0.1200 
  9 C       -2.3760     1.5310     1.7190 C.2   1 <1>   0.1080 
 10 C       -0.5180     1.7530     0.6080 C.2   1 <1>  -0.3320 
 11 C       -2.2050    -2.4370    -1.0260 C.3   1 <1>   0.1200 
 12 C       -4.5300    -1.3270    -0.7070 C.3   1 <1>  -0.0160 
 13 O       -1.1130    -2.1380    -1.8490 O.3   1 <1>  -0.5600 
 14 N       -1.4720     1.0030     2.4780 N.2   1 <1>  -0.7070 
 15 C       -3.8280     1.5660     2.1440 C.3   1 <1>  -0.0590 
 16 N       -0.3230     1.1450     1.7970 N.pl3 1 <1>   0.3000 
 17 C        0.6080     2.0160    -0.3780 C.3   1 <1>  -0.0600 
 18 C       -5.3140    -2.4090     0.0450 C.ar  1 <1>  -0.1440 
 19 C       -6.2890    -2.0240     0.9990 C.ar  1 <1>   0.0000 
 20 C       -5.1340    -3.7510    -0.1450 C.ar  1 <1>  -0.1500 
 21 C       -6.9670    -3.0450     1.7100 C.ar  1 <1>   0.3100 
 22 C       -6.6370    -0.6830     1.2840 C.ar  1 <1>  -0.1500 
 23 C       -5.8700    -4.6800     0.6010 C.ar  1 <1>   0.1600 
 24 N       -6.7480    -4.3660     1.4970 N.ar  1 <1>  -0.6200 
 25 C       -7.9170    -2.6850     2.6790 C.ar  1 <1>  -0.1500 
 26 C       -7.5720    -0.3650     2.2320 C.ar  1 <1>  -0.1500 
 27 C       -8.2180    -1.3770     2.9430 C.ar  1 <1>  -0.1500 
 28 H       -1.6850     0.2950    -1.0400 H     1 <1>   0.3700 
 29 H       -1.9680     3.3480    -1.1550 H     1 <1>   0.0800 
 30 H       -3.4320     3.2490    -0.2340 H     1 <1>   0.0800 
 31 H       -3.4260    -0.4080    -3.3650 H     1 <1>   0.0800 
 32 H       -3.8700    -2.5230    -2.3610 H     1 <1>   0.0800 
 33 H       -0.7510    -0.6980    -3.2370 H     1 <1>   0.0800 
 34 H       -1.7080    -2.0810    -3.7670 H     1 <1>   0.0800 
 35 H       -2.2860    -3.5050    -0.9310 H     1 <1>   0.0800 
 36 H       -2.0130    -2.0010    -0.0600 H     1 <1>   0.0800 
 37 H       -5.2350    -0.7340    -1.2650 H     1 <1>   0.0800 
 38 H       -4.0740    -0.6850     0.0260 H     1 <1>   0.0800 
 39 H       -4.4710     1.7710     1.3110 H     1 <1>   0.0800 
 40 H       -3.9610     2.3270     2.8900 H     1 <1>   0.0800 
 41 H       -4.0980     0.6160     2.5680 H     1 <1>   0.0800 
 42 H        0.5750     0.8120     2.1690 H     1 <1>   0.2700 
 43 H        0.2320     2.4690    -1.2780 H     1 <1>   0.0800 
 44 H        1.0930     1.0930    -0.6420 H     1 <1>   0.0800 
 45 H        1.3340     2.6790     0.0590 H     1 <1>   0.0800 
 46 H       -4.4390    -4.1500    -0.8560 H     1 <1>   0.1500 
 47 H       -6.1630     0.1120     0.7410 H     1 <1>   0.1500 
 48 H       -5.6900    -5.7260     0.4170 H     1 <1>   0.1500 
 49 H       -8.4050    -3.4820     3.2100 H     1 <1>   0.1500 
 50 H       -7.8220     0.6610     2.4390 H     1 <1>   0.1500 
 51 H       -8.9500    -1.1170     3.6890 H     1 <1>   0.1500 
@<TRIPOS>BOND
  1   1   2  2   
  2   2   3  am  
  3   2   4  1   
  4   3   5  1   
  5   3  28  1   
  6   4   6  1   
  7   4  29  1   
  8   4  30  1   
  9   5   7  1   
 10   5   8  1   
 11   5  31  1   
 12   6   9  1   
 13   6  10  2   
 14   7  11  1   
 15   7  12  1   
 16   7  32  1   
 17   8  13  1   
 18   8  33  1   
 19   8  34  1   
 20   9  14  2   
 21   9  15  1   
 22  10  16  1   
 23  10  17  1   
 24  11  13  1   
 25  11  35  1   
 26  11  36  1   
 27  12  18  1   
 28  12  37  1   
 29  12  38  1   
 30  14  16  1   
 31  15  39  1   
 32  15  40  1   
 33  15  41  1   
 34  16  42  1   
 35  17  43  1   
 36  17  44  1   
 37  17  45  1   
 38  18  19  ar  
 39  18  20  ar  
 40  19  21  ar  
 41  19  22  ar  
 42  20  23  ar  
 43  20  46  1   
 44  21  24  ar  
 45  21  25  ar  
 46  22  26  ar  
 47  22  47  1   
 48  23  24  ar  
 49  23  48  1   
 50  25  27  ar  
 51  25  49  1   
 52  26  27  ar  
 53  26  50  1   
 54  27  51  1   
@<TRIPOS>SUBSTRUCTURE
  1 ****  12 GROUP 4 **** **** 0

# MOE 2024.06 (io_trps.svl 2023.06)
