@<TRIPOS>MOLECULE
NONAME
42 44 1 0 0 
SMALL
USER_CHARGES


@<TRIPOS>ATOM
  1 O        1.2350     0.2200     1.7730 O.3   1 <1>  -0.6800 
  2 C        1.6780    -0.0240     0.4800 C.3   1 <1>   0.2000 
  3 C        2.5740    -1.2640     0.4650 C.3   1 <1>  -0.0800 
  4 C        2.5660     1.1210    -0.0220 C.3   1 <1>   0.1100 
  5 C        3.7180    -0.8680    -0.4650 C.3   1 <1>   0.1100 
  6 C        1.8390    -2.5410     0.0260 C.3   1 <1>  -0.0170 
  7 N        3.9140     0.5560    -0.2080 N.3   1 <1>  -0.8100 
  8 C        2.7830    -3.7270    -0.0750 C.ar  1 <1>   0.1670 
  9 C        4.6790     1.2250    -1.2740 C.3   1 <1>   0.2900 
 10 N        3.3540    -3.9250    -1.2530 N.ar  1 <1>  -0.6200 
 11 C        3.0020    -4.5260     1.0380 C.ar  1 <1>  -0.1500 
 12 C        4.8820     2.7050    -0.9870 C.2   1 <1>   0.0070 
 13 C        4.1740    -4.9620    -1.3260 C.ar  1 <1>   0.1600 
 14 C        3.8600    -5.6010     0.9480 C.ar  1 <1>  -0.1500 
 15 N        4.5880     3.6450    -1.8160 N.2   1 <1>  -0.5650 
 16 N        5.3960     3.2010     0.1510 N.pl3 1 <1>   0.3140 
 17 C        4.4580    -5.8160    -0.2740 C.ar  1 <1>  -0.1500 
 18 C        4.9490     4.7330    -1.1260 C.2   1 <1>   0.3660 
 19 N        5.4390     4.5250     0.0500 N.2   1 <1>  -0.7070 
 20 C        5.8630     2.5050     1.3720 C.3   1 <1>   0.0960 
 21 C        7.2610     1.9030     1.1780 C.3   1 <1>  -0.2400 
 22 H        0.7210    -0.5370     2.1080 H     1 <1>   0.4000 
 23 H        0.8190    -0.1290    -0.1610 H     1 <1>   0.0800 
 24 H        3.0040    -1.4110     1.4410 H     1 <1>   0.0800 
 25 H        2.5920     1.9380     0.6790 H     1 <1>   0.0800 
 26 H        2.1820     1.4750    -0.9640 H     1 <1>   0.0800 
 27 H        3.4300    -1.0260    -1.4920 H     1 <1>   0.0800 
 28 H        4.6140    -1.4280    -0.2550 H     1 <1>   0.0800 
 29 H        1.3740    -2.3860    -0.9320 H     1 <1>   0.0800 
 30 H        1.0600    -2.7660     0.7310 H     1 <1>   0.0800 
 31 H        5.6420     0.7540    -1.3690 H     1 <1>   0.0800 
 32 H        4.1640     1.1200    -2.2140 H     1 <1>   0.0800 
 33 H        2.5080    -4.3110     1.9680 H     1 <1>   0.1500 
 34 H        4.6460    -5.1420    -2.2770 H     1 <1>   0.1500 
 35 H        4.0530    -6.2410     1.7920 H     1 <1>   0.1500 
 36 H        5.1370    -6.6380    -0.4140 H     1 <1>   0.1500 
 37 H        4.8300     5.7170    -1.5490 H     1 <1>   0.1500 
 38 H        5.8860     3.2220     2.1720 H     1 <1>   0.0800 
 39 H        5.1560     1.7400     1.6350 H     1 <1>   0.0800 
 40 H        7.9610     2.6740     0.9090 H     1 <1>   0.0800 
 41 H        7.2430     1.1500     0.4110 H     1 <1>   0.0800 
 42 H        7.5880     1.4470     2.0940 H     1 <1>   0.0800 
@<TRIPOS>BOND
  1   1   2  1   
  2   1  22  1   
  3   2   3  1   
  4   2   4  1   
  5   2  23  1   
  6   3   5  1   
  7   3   6  1   
  8   3  24  1   
  9   4   7  1   
 10   4  25  1   
 11   4  26  1   
 12   5   7  1   
 13   5  27  1   
 14   5  28  1   
 15   6   8  1   
 16   6  29  1   
 17   6  30  1   
 18   7   9  1   
 19   8  10  ar  
 20   8  11  ar  
 21   9  12  1   
 22   9  31  1   
 23   9  32  1   
 24  10  13  ar  
 25  11  14  ar  
 26  11  33  1   
 27  12  15  2   
 28  12  16  1   
 29  13  17  ar  
 30  13  34  1   
 31  14  17  ar  
 32  14  35  1   
 33  15  18  1   
 34  16  19  1   
 35  16  20  1   
 36  17  36  1   
 37  18  19  2   
 38  18  37  1   
 39  20  21  1   
 40  20  38  1   
 41  20  39  1   
 42  21  40  1   
 43  21  41  1   
 44  21  42  1   
@<TRIPOS>SUBSTRUCTURE
  1 ****   5 GROUP 4 **** **** 0

# MOE 2024.06 (io_trps.svl 2023.06)
