@<TRIPOS>MOLECULE
NONAME
48 51 1 0 0 
SMALL
USER_CHARGES


@<TRIPOS>ATOM
  1 O       -1.1500     0.8010     1.9550 O.2   1 <1>  -0.5700 
  2 C       -2.0310     1.1980     1.2180 C.2   1 <1>   0.5440 
  3 N       -3.2730     0.5980     1.2560 N.am  1 <1>  -0.6600 
  4 C       -1.7430     2.2940     0.3220 C.ar  1 <1>   0.0860 
  5 C       -4.3310     0.7880     0.2230 C.3   1 <1>   0.1400 
  6 C       -3.6000    -0.4700     2.2440 C.3   1 <1>   0.1400 
  7 C       -2.4440     3.4950     0.4250 C.ar  1 <1>   0.1600 
  8 C       -0.7700     2.2040    -0.6620 C.ar  1 <1>  -0.1500 
  9 C       -4.5280    -0.5220    -0.5430 C.3   1 <1>  -0.1600 
 10 C       -3.7920    -1.8000     1.5100 C.3   1 <1>  -0.1600 
 11 N       -2.2830     4.5590    -0.3500 N.ar  1 <1>  -0.6200 
 12 C       -0.5760     3.2980    -1.4750 C.ar  1 <1>   0.0830 
 13 C       -4.8510    -1.7010     0.3970 C.3   1 <1>   0.4240 
 14 C       -1.3500     4.4370    -1.2820 C.ar  1 <1>   0.1600 
 15 O        0.3630     3.2330    -2.4380 O.3   1 <1>  -0.5320 
 16 O       -6.0330    -1.3560     1.0870 O.3   1 <1>  -0.5600 
 17 C       -5.0050    -3.0480    -0.3680 C.ar  1 <1>  -0.1430 
 18 C       -7.2500    -1.6180     0.4690 C.3   1 <1>   0.1200 
 19 C       -3.9460    -3.6260    -1.0830 C.ar  1 <1>   0.0830 
 20 C       -6.2280    -3.7180    -0.3560 C.ar  1 <1>  -0.1430 
 21 C       -7.4160    -3.1270     0.3760 C.3   1 <1>  -0.0170 
 22 O       -2.7510    -2.9800    -1.1270 O.3   1 <1>  -0.3630 
 23 C       -4.1240    -4.8410    -1.7410 C.ar  1 <1>  -0.1500 
 24 C       -6.3920    -4.9260    -1.0110 C.ar  1 <1>  -0.1500 
 25 C       -1.5840    -3.5660    -1.6610 C.3   1 <1>   0.0400 
 26 C       -5.3410    -5.4900    -1.7030 C.ar  1 <1>  -0.1500 
 27 H       -4.0660     1.5650    -0.4710 H     1 <1>   0.0800 
 28 H       -5.2490     1.0720     0.7100 H     1 <1>   0.0800 
 29 H       -4.5030    -0.2030     2.7650 H     1 <1>   0.0800 
 30 H       -2.8160    -0.5710     2.9740 H     1 <1>   0.0800 
 31 H       -3.1860     3.5700     1.2020 H     1 <1>   0.1500 
 32 H       -0.1870     1.3090    -0.7800 H     1 <1>   0.1500 
 33 H       -3.6240    -0.7160    -1.0850 H     1 <1>   0.0800 
 34 H       -5.3070    -0.4100    -1.2730 H     1 <1>   0.0800 
 35 H       -4.0870    -2.5620     2.2060 H     1 <1>   0.0800 
 36 H       -2.8400    -2.0860     1.1110 H     1 <1>   0.0800 
 37 H       -1.1940     5.2860    -1.9230 H     1 <1>   0.1500 
 38 H        0.4750     4.0540    -2.9520 H     1 <1>   0.4500 
 39 H       -7.2630    -1.1630    -0.5060 H     1 <1>   0.0800 
 40 H       -8.0290    -1.1880     1.0730 H     1 <1>   0.0800 
 41 H       -8.3270    -3.3500    -0.1470 H     1 <1>   0.0800 
 42 H       -7.4790    -3.5440     1.3650 H     1 <1>   0.0800 
 43 H       -3.3280    -5.3010    -2.2940 H     1 <1>   0.1500 
 44 H       -7.3410    -5.4340    -0.9860 H     1 <1>   0.1500 
 45 H       -0.7670    -2.8870    -1.4960 H     1 <1>   0.0800 
 46 H       -1.7220    -3.7200    -2.7170 H     1 <1>   0.0800 
 47 H       -1.3960    -4.4950    -1.1540 H     1 <1>   0.0800 
 48 H       -5.4710    -6.4290    -2.2120 H     1 <1>   0.1500 
@<TRIPOS>BOND
  1   1   2  2   
  2   2   3  am  
  3   2   4  1   
  4   3   5  1   
  5   3   6  1   
  6   4   7  ar  
  7   4   8  ar  
  8   5   9  1   
  9   5  27  1   
 10   5  28  1   
 11   6  10  1   
 12   6  29  1   
 13   6  30  1   
 14   7  11  ar  
 15   7  31  1   
 16   8  12  ar  
 17   8  32  1   
 18   9  13  1   
 19   9  33  1   
 20   9  34  1   
 21  10  13  1   
 22  10  35  1   
 23  10  36  1   
 24  11  14  ar  
 25  12  14  ar  
 26  12  15  1   
 27  13  16  1   
 28  13  17  1   
 29  14  37  1   
 30  15  38  1   
 31  16  18  1   
 32  17  19  ar  
 33  17  20  ar  
 34  18  21  1   
 35  18  39  1   
 36  18  40  1   
 37  19  22  1   
 38  19  23  ar  
 39  20  21  1   
 40  20  24  ar  
 41  21  41  1   
 42  21  42  1   
 43  22  25  1   
 44  23  26  ar  
 45  23  43  1   
 46  24  26  ar  
 47  24  44  1   
 48  25  45  1   
 49  25  46  1   
 50  25  47  1   
 51  26  48  1   
@<TRIPOS>SUBSTRUCTURE
  1 ****   9 GROUP 4 **** **** 0

# MOE 2024.06 (io_trps.svl 2023.06)
