@<TRIPOS>MOLECULE
NONAME
49 53 1 0 0 
SMALL
USER_CHARGES


@<TRIPOS>ATOM
  1 O       -2.8850     0.4890     0.5740 O.2   1 <1>  -0.5700 
  2 C       -2.8590     1.2130    -0.4070 C.2   1 <1>   0.5440 
  3 N       -3.7230     0.8790    -1.4210 N.am  1 <1>  -0.6600 
  4 C       -1.9900     2.3780    -0.4780 C.ar  1 <1>   0.0860 
  5 C       -5.1520     1.2900    -1.2550 C.3   1 <1>   0.1400 
  6 C       -3.5860    -0.4900    -2.0210 C.3   1 <1>   0.1400 
  7 C       -1.2080     2.7660     0.5920 C.ar  1 <1>  -0.1500 
  8 C       -1.9090     3.1650    -1.6480 C.ar  1 <1>  -0.1500 
  9 C       -5.9290     0.3030    -0.3390 C.3   1 <1>   0.4230 
 10 C       -4.5780    -1.5070    -1.4040 C.3   1 <1>   0.3430 
 11 C       -0.3660     3.8920     0.5520 C.ar  1 <1>   0.0000 
 12 C       -1.0980     4.2660    -1.7140 C.ar  1 <1>  -0.1500 
 13 N       -5.1660    -0.9840    -0.1240 N.4   1 <1>  -0.9590 
 14 C       -7.3500     0.0200    -0.8820 C.3   1 <1>   0.1200 
 15 C       -0.3060     4.6660    -0.6270 C.ar  1 <1>   0.3100 
 16 C        0.4310     4.2920     1.6390 C.ar  1 <1>  -0.1500 
 17 C       -5.9650    -1.9490     0.6860 C.3   1 <1>   0.5180 
 18 O       -8.0220    -0.8970    -0.0650 O.3   1 <1>  -0.5600 
 19 N        0.4740     5.7660    -0.7490 N.ar  1 <1>  -0.6200 
 20 C        1.2090     5.4000     1.4930 C.ar  1 <1>  -0.1500 
 21 C       -5.2090    -3.2760     0.8190 C.3   1 <1>  -0.1950 
 22 C       -7.3820    -2.1370     0.1010 C.3   1 <1>   0.1200 
 23 C        1.1940     6.1010     0.2790 C.ar  1 <1>   0.1600 
 24 C       -5.1930    -4.0040     2.1280 C.3   1 <1>  -0.2000 
 25 C       -3.9360    -3.3730     1.6040 C.3   1 <1>  -0.2000 
 26 H       -5.2000     2.2780    -0.8300 H     1 <1>   0.0800 
 27 H       -5.6130     1.3400    -2.2270 H     1 <1>   0.0800 
 28 H       -3.7340    -0.4360    -3.0850 H     1 <1>   0.0800 
 29 H       -2.5820    -0.8460    -1.8580 H     1 <1>   0.0800 
 30 H       -1.2330     2.1920     1.5020 H     1 <1>   0.1500 
 31 H       -2.4970     2.8920    -2.5060 H     1 <1>   0.1500 
 32 H       -6.0500     0.7860     0.6170 H     1 <1>   0.0800 
 33 H       -4.0520    -2.4300    -1.2250 H     1 <1>   0.0800 
 34 H       -5.3660    -1.7100    -2.1100 H     1 <1>   0.0800 
 35 H       -1.0390     4.8620    -2.6060 H     1 <1>   0.1500 
 36 H       -4.3360    -0.7000     0.4380 H     1 <1>   0.4500 
 37 H       -7.3160    -0.3750    -1.8830 H     1 <1>   0.0800 
 38 H       -7.9300     0.9270    -0.8930 H     1 <1>   0.0800 
 39 H        0.4150     3.7260     2.5540 H     1 <1>   0.1500 
 40 H       -6.0810    -1.5410     1.6770 H     1 <1>   0.0800 
 41 H        1.8380     5.7530     2.2900 H     1 <1>   0.1500 
 42 H       -5.3100    -3.9030    -0.0510 H     1 <1>   0.1000 
 43 H       -7.9810    -2.7250     0.7740 H     1 <1>   0.0800 
 44 H       -7.3470    -2.6380    -0.8510 H     1 <1>   0.0800 
 45 H        1.8190     6.9740     0.1950 H     1 <1>   0.1500 
 46 H       -5.6500    -3.5670     3.0010 H     1 <1>   0.1000 
 47 H       -5.2580    -5.0790     2.1330 H     1 <1>   0.1000 
 48 H       -3.1490    -4.0240     1.2600 H     1 <1>   0.1000 
 49 H       -3.5500    -2.5120     2.1240 H     1 <1>   0.1000 
@<TRIPOS>BOND
  1   1   2  2   
  2   2   3  am  
  3   2   4  1   
  4   3   5  1   
  5   3   6  1   
  6   4   7  ar  
  7   4   8  ar  
  8   5   9  1   
  9   5  26  1   
 10   5  27  1   
 11   6  10  1   
 12   6  28  1   
 13   6  29  1   
 14   7  11  ar  
 15   7  30  1   
 16   8  12  ar  
 17   8  31  1   
 18   9  13  1   
 19   9  14  1   
 20   9  32  1   
 21  10  13  1   
 22  10  33  1   
 23  10  34  1   
 24  11  15  ar  
 25  11  16  ar  
 26  12  15  ar  
 27  12  35  1   
 28  13  17  1   
 29  13  36  1   
 30  14  18  1   
 31  14  37  1   
 32  14  38  1   
 33  15  19  ar  
 34  16  20  ar  
 35  16  39  1   
 36  17  21  1   
 37  17  22  1   
 38  17  40  1   
 39  18  22  1   
 40  19  23  ar  
 41  20  23  ar  
 42  20  41  1   
 43  21  24  1   
 44  21  25  1   
 45  21  42  1   
 46  22  43  1   
 47  22  44  1   
 48  23  45  1   
 49  24  25  1   
 50  24  46  1   
 51  24  47  1   
 52  25  48  1   
 53  25  49  1   
@<TRIPOS>SUBSTRUCTURE
  1 ****   2 GROUP 4 **** **** 0

# MOE 2024.06 (io_trps.svl 2023.06)
