@<TRIPOS>MOLECULE
NONAME
56 58 1 0 0 
SMALL
USER_CHARGES


@<TRIPOS>ATOM
  1 O       -1.5720    -0.2240     1.0740 O.3   1 <1>  -0.3630 
  2 C       -1.9550     1.0730     0.9110 C.ar  1 <1>   0.0820 
  3 C       -0.5100    -0.5520     1.9510 C.3   1 <1>   0.0400 
  4 C       -2.7960     1.3620    -0.1560 C.ar  1 <1>  -0.1440 
  5 C       -1.5570     2.0970     1.7670 C.ar  1 <1>  -0.1500 
  6 C       -3.2580     2.6540    -0.3580 C.ar  1 <1>   0.0820 
  7 C       -3.2200     0.2640    -1.1020 C.3   1 <1>   0.4870 
  8 C       -2.0050     3.3890     1.5560 C.ar  1 <1>  -0.1500 
  9 O       -4.1080     2.8490    -1.3990 O.3   1 <1>  -0.3630 
 10 C       -2.8530     3.6720     0.5010 C.ar  1 <1>  -0.1500 
 11 N       -4.0570    -0.6980    -0.3320 N.4   1 <1>  -0.9590 
 12 C       -4.5640     4.1420    -1.7420 C.3   1 <1>   0.0400 
 13 C       -4.2450    -2.0000    -1.0570 C.3   1 <1>   0.3430 
 14 C       -5.3310    -0.0370     0.0880 C.3   1 <1>   0.3430 
 15 C       -5.2040    -2.9990    -0.3270 C.3   1 <1>   0.4230 
 16 C       -6.1520    -1.0310     0.9050 C.3   1 <1>  -0.1600 
 17 N       -5.4240    -4.3330    -1.0490 N.4   1 <1>  -0.9590 
 18 C       -6.5290    -2.3000     0.0910 C.3   1 <1>   0.0000 
 19 C       -6.6550    -5.0780    -0.6050 C.3   1 <1>   0.3430 
 20 C       -5.4030    -4.2950    -2.5520 C.3   1 <1>   0.2630 
 21 C       -7.3530    -3.2400     1.0140 C.3   1 <1>  -0.1600 
 22 C       -7.3560    -1.9310    -1.1780 C.3   1 <1>   0.1200 
 23 C       -7.0170    -4.7330     0.8380 C.3   1 <1>  -0.1600 
 24 O       -8.2380    -0.9000    -0.9210 O.3   1 <1>  -0.6800 
 25 H       -0.2890    -1.5990     1.8430 H     1 <1>   0.0800 
 26 H       -0.8100    -0.3470     2.9630 H     1 <1>   0.0800 
 27 H        0.3570     0.0280     1.6860 H     1 <1>   0.0800 
 28 H       -0.9060     1.9140     2.6020 H     1 <1>   0.1500 
 29 H       -2.3360    -0.2240    -1.4780 H     1 <1>   0.0800 
 30 H       -3.7720     0.6700    -1.9340 H     1 <1>   0.0800 
 31 H       -1.6920     4.1790     2.2190 H     1 <1>   0.1500 
 32 H       -3.1860     4.6850     0.3710 H     1 <1>   0.1500 
 33 H       -3.4850    -0.8310     0.5230 H     1 <1>   0.4500 
 34 H       -5.1900     4.0600    -2.6120 H     1 <1>   0.0800 
 35 H       -3.7160     4.7670    -1.9620 H     1 <1>   0.0800 
 36 H       -5.1340     4.5440    -0.9220 H     1 <1>   0.0800 
 37 H       -4.6500    -1.7860    -2.0310 H     1 <1>   0.0800 
 38 H       -3.2840    -2.4690    -1.1860 H     1 <1>   0.0800 
 39 H       -5.1170     0.8360     0.6870 H     1 <1>   0.0800 
 40 H       -5.8940     0.2830    -0.7750 H     1 <1>   0.0800 
 41 H       -4.7120    -3.2420     0.6000 H     1 <1>   0.0800 
 42 H       -5.5940    -1.2940     1.7880 H     1 <1>   0.0800 
 43 H       -7.0410    -0.5300     1.2510 H     1 <1>   0.0800 
 44 H       -4.6410    -4.9430    -0.7620 H     1 <1>   0.4500 
 45 H       -7.4890    -4.8190    -1.2370 H     1 <1>   0.0800 
 46 H       -6.4940    -6.1420    -0.6950 H     1 <1>   0.0800 
 47 H       -6.2030    -3.6790    -2.9290 H     1 <1>   0.0800 
 48 H       -5.5300    -5.2900    -2.9500 H     1 <1>   0.0800 
 49 H       -4.4640    -3.9100    -2.9150 H     1 <1>   0.0800 
 50 H       -7.1940    -2.9960     2.0520 H     1 <1>   0.0800 
 51 H       -8.4060    -3.0910     0.8360 H     1 <1>   0.0800 
 52 H       -7.9240    -2.7660    -1.5480 H     1 <1>   0.0800 
 53 H       -6.7210    -1.5800    -1.9720 H     1 <1>   0.0800 
 54 H       -7.8670    -5.3210     1.1390 H     1 <1>   0.0800 
 55 H       -6.2020    -5.0120     1.4840 H     1 <1>   0.0800 
 56 H       -9.0490    -1.2060    -0.4610 H     1 <1>   0.4000 
@<TRIPOS>BOND
  1   1   2  1   
  2   1   3  1   
  3   2   4  ar  
  4   2   5  ar  
  5   3  25  1   
  6   3  26  1   
  7   3  27  1   
  8   4   6  ar  
  9   4   7  1   
 10   5   8  ar  
 11   5  28  1   
 12   6   9  1   
 13   6  10  ar  
 14   7  11  1   
 15   7  29  1   
 16   7  30  1   
 17   8  10  ar  
 18   8  31  1   
 19   9  12  1   
 20  10  32  1   
 21  11  13  1   
 22  11  14  1   
 23  11  33  1   
 24  12  34  1   
 25  12  35  1   
 26  12  36  1   
 27  13  15  1   
 28  13  37  1   
 29  13  38  1   
 30  14  16  1   
 31  14  39  1   
 32  14  40  1   
 33  15  17  1   
 34  15  18  1   
 35  15  41  1   
 36  16  18  1   
 37  16  42  1   
 38  16  43  1   
 39  17  19  1   
 40  17  20  1   
 41  17  44  1   
 42  18  21  1   
 43  18  22  1   
 44  19  23  1   
 45  19  45  1   
 46  19  46  1   
 47  20  47  1   
 48  20  48  1   
 49  20  49  1   
 50  21  23  1   
 51  21  50  1   
 52  21  51  1   
 53  22  24  1   
 54  22  52  1   
 55  22  53  1   
 56  23  54  1   
 57  23  55  1   
 58  24  56  1   
@<TRIPOS>SUBSTRUCTURE
  1 ****  11 GROUP 4 **** **** 0

# MOE 2024.06 (io_trps.svl 2023.06)
