@<TRIPOS>MOLECULE
NONAME
53 54 1 0 0 
SMALL
USER_CHARGES


@<TRIPOS>ATOM
  1 O       -0.6940     2.6920    -0.7070 O.2   1 <1>  -0.5700 
  2 C        0.1230     2.2980     0.0910 C.2   1 <1>   0.5690 
  3 N       -0.2220     1.5000     1.1370 N.am  1 <1>  -0.7300 
  4 C        1.5890     2.7040    -0.0630 C.3   1 <1>  -0.0190 
  5 C       -1.5970     1.0200     1.4270 C.3   1 <1>   0.0600 
  6 C        1.7750     4.2140     0.1720 C.3   1 <1>  -0.1600 
  7 C        2.1460     2.3020    -1.4420 C.3   1 <1>  -0.1600 
  8 C        3.2410     4.6400     0.0040 C.3   1 <1>  -0.1600 
  9 C        3.6130     2.7270    -1.6060 C.3   1 <1>  -0.1600 
 10 C        3.7910     4.2390    -1.3800 C.3   1 <1>  -0.0800 
 11 C        5.2690     4.6270    -1.5460 C.3   1 <1>   0.2090 
 12 N        5.4300     6.1000    -1.4350 N.pl3 1 <1>  -0.8690 
 13 C        6.3940     6.7710    -0.7700 C.ar  1 <1>   0.4100 
 14 N        7.3610     6.0580    -0.2320 N.ar  1 <1>  -0.6200 
 15 C        6.3500     8.1860    -0.6780 C.ar  1 <1>  -0.1430 
 16 C        8.3340     6.6940     0.3960 C.ar  1 <1>   0.7710 
 17 C        7.3760     8.8120    -0.0350 C.ar  1 <1>   0.2180 
 18 C        5.1530     8.9240    -1.2920 C.3   1 <1>  -0.0970 
 19 N        8.3450     8.0310     0.4960 N.ar  1 <1>  -0.1790 
 20 N        9.3530     5.9820     0.9580 N.pl3 1 <1>  -0.8380 
 21 C        7.5400    10.3170     0.1500 C.3   1 <1>  -0.0970 
 22 C       10.6320     6.5240     1.5180 C.3   1 <1>   0.1290 
 23 C        9.3120     4.4820     1.0040 C.3   1 <1>   0.1290 
 24 H        0.5010     1.1980     1.7920 H     1 <1>   0.3700 
 25 H        2.1590     2.1820     0.6840 H     1 <1>   0.0800 
 26 H       -2.2870     1.3880     0.6860 H     1 <1>   0.0800 
 27 H       -1.9090     1.3710     2.3950 H     1 <1>   0.0800 
 28 H       -1.6180    -0.0560     1.4140 H     1 <1>   0.0800 
 29 H        1.4380     4.4670     1.1630 H     1 <1>   0.0800 
 30 H        1.1640     4.7580    -0.5290 H     1 <1>   0.0800 
 31 H        1.5530     2.7670    -2.2130 H     1 <1>   0.0800 
 32 H        2.0620     1.2360    -1.5660 H     1 <1>   0.0800 
 33 H        3.8370     4.1800     0.7740 H     1 <1>   0.0800 
 34 H        3.3080     5.7050     0.1340 H     1 <1>   0.0800 
 35 H        3.9430     2.4660    -2.5980 H     1 <1>   0.0800 
 36 H        4.2190     2.1810    -0.9030 H     1 <1>   0.0800 
 37 H        3.2240     4.7520    -2.1390 H     1 <1>   0.0800 
 38 H        5.6210     4.3130    -2.5140 H     1 <1>   0.0800 
 39 H        5.8580     4.1270    -0.7970 H     1 <1>   0.0800 
 40 H        4.6940     6.6200    -1.9180 H     1 <1>   0.4000 
 41 H        4.2340     8.4620    -0.9780 H     1 <1>   0.0800 
 42 H        5.2080     8.8810    -2.3660 H     1 <1>   0.0800 
 43 H        5.0990     9.9540    -0.9960 H     1 <1>   0.0800 
 44 H        9.1210     8.4120     1.0180 H     1 <1>   0.4570 
 45 H        7.0380    10.8670    -0.6240 H     1 <1>   0.0800 
 46 H        8.5780    10.5950     0.1100 H     1 <1>   0.0800 
 47 H        7.1370    10.6170     1.1020 H     1 <1>   0.0800 
 48 H       10.8290     7.5250     1.1780 H     1 <1>   0.0800 
 49 H       11.4560     5.9060     1.2030 H     1 <1>   0.0800 
 50 H       10.5930     6.5130     2.5950 H     1 <1>   0.0800 
 51 H        8.3000     4.1140     0.9720 H     1 <1>   0.0800 
 52 H        9.7610     4.1240     1.9150 H     1 <1>   0.0800 
 53 H        9.8520     4.0770     0.1650 H     1 <1>   0.0800 
@<TRIPOS>BOND
  1   1   2  2   
  2   2   3  am  
  3   2   4  1   
  4   3   5  1   
  5   3  24  1   
  6   4   6  1   
  7   4   7  1   
  8   4  25  1   
  9   5  26  1   
 10   5  27  1   
 11   5  28  1   
 12   6   8  1   
 13   6  29  1   
 14   6  30  1   
 15   7   9  1   
 16   7  31  1   
 17   7  32  1   
 18   8  10  1   
 19   8  33  1   
 20   8  34  1   
 21   9  10  1   
 22   9  35  1   
 23   9  36  1   
 24  10  11  1   
 25  10  37  1   
 26  11  12  1   
 27  11  38  1   
 28  11  39  1   
 29  12  13  1   
 30  12  40  1   
 31  13  14  ar  
 32  13  15  ar  
 33  14  16  ar  
 34  15  17  ar  
 35  15  18  1   
 36  16  19  ar  
 37  16  20  1   
 38  17  19  ar  
 39  17  21  1   
 40  18  41  1   
 41  18  42  1   
 42  18  43  1   
 43  19  44  1   
 44  20  22  1   
 45  20  23  1   
 46  21  45  1   
 47  21  46  1   
 48  21  47  1   
 49  22  48  1   
 50  22  49  1   
 51  22  50  1   
 52  23  51  1   
 53  23  52  1   
 54  23  53  1   
@<TRIPOS>SUBSTRUCTURE
  1 ****  11 GROUP 4 **** **** 0

# MOE 2024.06 (io_trps.svl 2023.06)
