@<TRIPOS>MOLECULE
NONAME
47 50 1 0 0 
SMALL
USER_CHARGES


@<TRIPOS>ATOM
  1 O       -1.3760     1.0090    -1.3520 O.2   1 <1>  -0.5700 
  2 C       -0.9750     1.9760    -0.7570 C.2   1 <1>   0.5690 
  3 N       -1.8330     2.9380    -0.3520 N.am  1 <1>  -0.7300 
  4 C        0.5230     2.1460    -0.4890 C.3   1 <1>   0.1810 
  5 C       -1.4150     4.1580     0.3810 C.3   1 <1>   0.3640 
  6 O        0.8060     3.1120     0.5020 O.3   1 <1>  -0.5600 
  7 C       -2.1170     5.3630    -0.2370 C.ar  1 <1>  -0.1440 
  8 C        0.1260     4.3480     0.3450 C.3   1 <1>   0.2610 
  9 C       -2.6650     6.3390     0.5840 C.ar  1 <1>   0.1600 
 10 C       -2.2170     5.5230    -1.6080 C.ar  1 <1>  -0.1500 
 11 C        0.5960     5.3700     1.3960 C.2   1 <1>   0.5690 
 12 N       -3.2870     7.4270     0.1590 N.ar  1 <1>  -0.6200 
 13 C       -2.8620     6.6510    -2.0670 C.ar  1 <1>  -0.1500 
 14 O       -0.1490     5.6440     2.3120 O.2   1 <1>  -0.5700 
 15 N        1.8210     5.9840     1.2850 N.am  1 <1>  -0.6600 
 16 C       -3.3720     7.5580    -1.1540 C.ar  1 <1>   0.1600 
 17 C        2.8990     5.6160     0.3120 C.3   1 <1>   0.1400 
 18 C        2.2080     7.1330     2.1630 C.3   1 <1>   0.1400 
 19 C        3.3230     6.8310    -0.5310 C.3   1 <1>   0.2090 
 20 C        2.6270     8.3520     1.3220 C.3   1 <1>   0.2090 
 21 N        3.6930     7.9950     0.3350 N.pl3 1 <1>  -0.8380 
 22 C        4.4090     9.0390    -0.2350 C.ar  1 <1>   0.4100 
 23 N        4.2520     9.2330    -1.5400 N.ar  1 <1>  -0.6200 
 24 C        5.2500     9.8500     0.5460 C.ar  1 <1>   0.1600 
 25 C        4.9570    10.2590    -1.9880 C.ar  1 <1>   0.1600 
 26 N        5.9510    10.8770     0.1020 N.ar  1 <1>  -0.6200 
 27 C        5.7760    11.0550    -1.2000 C.ar  1 <1>   0.1600 
 28 H       -2.8320     2.8090    -0.5210 H     1 <1>   0.3700 
 29 H        1.0170     2.4370    -1.3980 H     1 <1>   0.0800 
 30 H        0.9320     1.2090    -0.1570 H     1 <1>   0.0800 
 31 H       -1.7330     4.0440     1.4040 H     1 <1>   0.0800 
 32 H        0.3870     4.7370    -0.6210 H     1 <1>   0.0800 
 33 H       -2.5860     6.2270     1.6540 H     1 <1>   0.1500 
 34 H       -1.8150     4.8010    -2.3000 H     1 <1>   0.1500 
 35 H       -2.9730     6.8290    -3.1210 H     1 <1>   0.1500 
 36 H       -3.8750     8.4360    -1.5230 H     1 <1>   0.1500 
 37 H        3.7550     5.2630     0.8610 H     1 <1>   0.0800 
 38 H        2.5860     4.8230    -0.3400 H     1 <1>   0.0800 
 39 H        1.3900     7.4150     2.8030 H     1 <1>   0.0800 
 40 H        3.0300     6.8360     2.7900 H     1 <1>   0.0800 
 41 H        2.5160     7.1160    -1.1830 H     1 <1>   0.0800 
 42 H        4.1660     6.5620    -1.1440 H     1 <1>   0.0800 
 43 H        2.9770     9.1290     1.9780 H     1 <1>   0.0800 
 44 H        1.7670     8.7270     0.7940 H     1 <1>   0.0800 
 45 H        5.3310     9.6100     1.5890 H     1 <1>   0.1500 
 46 H        4.8810    10.4810    -3.0380 H     1 <1>   0.1500 
 47 H        6.3080    11.8690    -1.6590 H     1 <1>   0.1500 
@<TRIPOS>BOND
  1   1   2  2   
  2   2   3  am  
  3   2   4  1   
  4   3   5  1   
  5   3  28  1   
  6   4   6  1   
  7   4  29  1   
  8   4  30  1   
  9   5   7  1   
 10   5   8  1   
 11   5  31  1   
 12   6   8  1   
 13   7   9  ar  
 14   7  10  ar  
 15   8  11  1   
 16   8  32  1   
 17   9  12  ar  
 18   9  33  1   
 19  10  13  ar  
 20  10  34  1   
 21  11  14  2   
 22  11  15  am  
 23  12  16  ar  
 24  13  16  ar  
 25  13  35  1   
 26  15  17  1   
 27  15  18  1   
 28  16  36  1   
 29  17  19  1   
 30  17  37  1   
 31  17  38  1   
 32  18  20  1   
 33  18  39  1   
 34  18  40  1   
 35  19  21  1   
 36  19  41  1   
 37  19  42  1   
 38  20  21  1   
 39  20  43  1   
 40  20  44  1   
 41  21  22  1   
 42  22  23  ar  
 43  22  24  ar  
 44  23  25  ar  
 45  24  26  ar  
 46  24  45  1   
 47  25  27  ar  
 48  25  46  1   
 49  26  27  ar  
 50  27  47  1   
@<TRIPOS>SUBSTRUCTURE
  1 ****  15 GROUP 4 **** **** 0

# MOE 2024.06 (io_trps.svl 2023.06)
