@<TRIPOS>MOLECULE
NONAME
50 52 1 0 0 
SMALL
USER_CHARGES


@<TRIPOS>ATOM
  1 F       -1.1960     0.3670     1.1350 F     1 <1>  -0.1900 
  2 C       -2.1990    -0.4660     1.1020 C.ar  1 <1>   0.1900 
  3 C       -2.2800    -1.3650     0.0590 C.ar  1 <1>  -0.1500 
  4 C       -3.1390    -0.4130     2.1130 C.ar  1 <1>  -0.1500 
  5 C       -3.3530    -2.2510     0.0270 C.ar  1 <1>   0.0830 
  6 C       -4.2030    -1.2970     2.0780 C.ar  1 <1>  -0.1500 
  7 O       -3.5270    -3.1660    -0.9620 O.3   1 <1>  -0.3630 
  8 C       -4.3120    -2.2140     1.0390 C.ar  1 <1>  -0.1440 
  9 C       -2.5200    -3.3980    -1.9270 C.3   1 <1>   0.0400 
 10 C       -5.4740    -3.1890     1.0010 C.3   1 <1>   0.4870 
 11 N       -6.6660    -2.5110     0.4300 N.4   1 <1>  -0.9590 
 12 C       -7.9210    -3.2830     0.5740 C.3   1 <1>   0.3430 
 13 C       -6.4470    -2.0540    -0.9730 C.3   1 <1>   0.3430 
 14 C       -9.1250    -2.3740     0.2930 C.3   1 <1>  -0.1600 
 15 C       -7.7290    -1.4560    -1.5680 C.3   1 <1>  -0.1600 
 16 C       -8.7850    -1.0990    -0.5090 C.3   1 <1>   0.2800 
 17 O       -8.1600    -0.2140     0.3950 O.3   1 <1>  -0.5600 
 18 C      -10.0310    -0.4760    -1.1770 C.3   1 <1>  -0.1600 
 19 C       -8.7600     1.0170     0.6960 C.3   1 <1>   0.1200 
 20 C      -10.9810     0.2320    -0.1940 C.3   1 <1>   0.2800 
 21 C      -10.2360     0.7970     1.0220 C.3   1 <1>  -0.1600 
 22 O      -11.5240     1.2960    -0.8730 O.3   1 <1>  -0.6800 
 23 C      -12.1700    -0.6320     0.2250 C.3   1 <1>  -0.2400 
 24 H       -1.5150    -1.3490    -0.6930 H     1 <1>   0.1500 
 25 H       -3.0310     0.3050     2.9080 H     1 <1>   0.1500 
 26 H       -4.9360    -1.2620     2.8670 H     1 <1>   0.1500 
 27 H       -2.8390    -4.2070    -2.5600 H     1 <1>   0.0800 
 28 H       -1.6070    -3.6680    -1.4260 H     1 <1>   0.0800 
 29 H       -2.3840    -2.5080    -2.5160 H     1 <1>   0.0800 
 30 H       -5.6850    -3.5240     2.0030 H     1 <1>   0.0800 
 31 H       -5.2140    -4.0470     0.4030 H     1 <1>   0.0800 
 32 H       -6.8210    -1.6250     0.9470 H     1 <1>   0.4500 
 33 H       -8.0030    -3.6860     1.5710 H     1 <1>   0.0800 
 34 H       -7.9150    -4.1040    -0.1250 H     1 <1>   0.0800 
 35 H       -6.1070    -2.8740    -1.5850 H     1 <1>   0.0800 
 36 H       -5.6770    -1.2980    -0.9760 H     1 <1>   0.0800 
 37 H       -9.5820    -2.1020     1.2260 H     1 <1>   0.0800 
 38 H       -9.8480    -2.9590    -0.2470 H     1 <1>   0.0800 
 39 H       -8.1480    -2.1660    -2.2580 H     1 <1>   0.0800 
 40 H       -7.4710    -0.5840    -2.1410 H     1 <1>   0.0800 
 41 H      -10.5690    -1.2300    -1.7240 H     1 <1>   0.0800 
 42 H       -9.6840     0.2360    -1.9060 H     1 <1>   0.0800 
 43 H       -8.6360     1.6760    -0.1460 H     1 <1>   0.0800 
 44 H       -8.2430     1.4360     1.5430 H     1 <1>   0.0800 
 45 H      -10.6910     1.7160     1.3490 H     1 <1>   0.0800 
 46 H      -10.2920     0.1100     1.8470 H     1 <1>   0.0800 
 47 H      -10.8330     1.9390    -1.1110 H     1 <1>   0.4000 
 48 H      -11.8450    -1.5020     0.7620 H     1 <1>   0.0800 
 49 H      -12.7230    -0.9530    -0.6410 H     1 <1>   0.0800 
 50 H      -12.8270    -0.0700     0.8640 H     1 <1>   0.0800 
@<TRIPOS>BOND
  1   1   2  1   
  2   2   3  ar  
  3   2   4  ar  
  4   3   5  ar  
  5   3  24  1   
  6   4   6  ar  
  7   4  25  1   
  8   5   7  1   
  9   5   8  ar  
 10   6   8  ar  
 11   6  26  1   
 12   7   9  1   
 13   8  10  1   
 14   9  27  1   
 15   9  28  1   
 16   9  29  1   
 17  10  11  1   
 18  10  30  1   
 19  10  31  1   
 20  11  12  1   
 21  11  13  1   
 22  11  32  1   
 23  12  14  1   
 24  12  33  1   
 25  12  34  1   
 26  13  15  1   
 27  13  35  1   
 28  13  36  1   
 29  14  16  1   
 30  14  37  1   
 31  14  38  1   
 32  15  16  1   
 33  15  39  1   
 34  15  40  1   
 35  16  17  1   
 36  16  18  1   
 37  17  19  1   
 38  18  20  1   
 39  18  41  1   
 40  18  42  1   
 41  19  21  1   
 42  19  43  1   
 43  19  44  1   
 44  20  21  1   
 45  20  22  1   
 46  20  23  1   
 47  21  45  1   
 48  21  46  1   
 49  22  47  1   
 50  23  48  1   
 51  23  49  1   
 52  23  50  1   
@<TRIPOS>SUBSTRUCTURE
  1 ****  11 GROUP 4 **** **** 0

# MOE 2024.06 (io_trps.svl 2023.06)
