@<TRIPOS>MOLECULE
NONAME
44 48 1 0 0 
SMALL
USER_CHARGES


@<TRIPOS>ATOM
  1 S        0.4420     1.0280     0.6390 S.3   1 <1>  -0.0800 
  2 C       -1.0520     1.9500     0.5710 C.2   1 <1>  -0.1400 
  3 C       -0.4210    -0.3860     1.2290 C.2   1 <1>  -0.1100 
  4 C       -2.0910     1.1990     0.9600 C.2   1 <1>  -0.1810 
  5 C       -1.1050     3.4060     0.1200 C.3   1 <1>   0.4600 
  6 C       -1.7400    -0.1330     1.3440 C.2   1 <1>  -0.1500 
  7 C       -3.4810     1.7930     0.9610 C.3   1 <1>   0.0210 
  8 O       -2.4140     3.8960     0.3400 O.3   1 <1>  -0.5600 
  9 C       -0.7560     3.5510    -1.3670 C.3   1 <1>  -0.1600 
 10 C       -0.1740     4.2760     0.9720 C.3   1 <1>  -0.1600 
 11 C       -3.4970     3.0410     0.0570 C.3   1 <1>   0.1200 
 12 C       -0.7710     5.0160    -1.8040 C.3   1 <1>   0.1400 
 13 C       -0.1890     5.7350     0.5150 C.3   1 <1>   0.1400 
 14 N        0.1500     5.8000    -0.9340 N.am  1 <1>  -0.6600 
 15 C        1.2920     6.3960    -1.4340 C.2   1 <1>   0.5440 
 16 O        1.6560     6.1220    -2.5620 O.2   1 <1>  -0.5700 
 17 C        2.0730     7.3330    -0.6510 C.ar  1 <1>   0.0860 
 18 C        3.4390     7.1180    -0.4440 C.ar  1 <1>  -0.1500 
 19 C        1.4860     8.4780    -0.0890 C.ar  1 <1>  -0.1500 
 20 C        4.1520     8.0210     0.3150 C.ar  1 <1>   0.0820 
 21 C        2.2160     9.3790     0.6730 C.ar  1 <1>  -0.1500 
 22 O        5.4500     7.9950     0.6350 O.3   1 <1>  -0.3630 
 23 C        3.5590     9.1220     0.8620 C.ar  1 <1>   0.0820 
 24 C        5.7020     9.1570     1.4230 C.3   1 <1>   0.4000 
 25 O        4.4530     9.8340     1.5470 O.3   1 <1>  -0.3630 
 26 H        0.1580    -1.2690     1.4310 H     1 <1>   0.1500 
 27 H       -2.4840    -0.8310     1.6840 H     1 <1>   0.1500 
 28 H       -3.7600     2.0640     1.9630 H     1 <1>   0.0800 
 29 H       -4.1910     1.0750     0.5910 H     1 <1>   0.0800 
 30 H       -1.4350     2.9780    -1.9680 H     1 <1>   0.0800 
 31 H        0.2300     3.1590    -1.5400 H     1 <1>   0.0800 
 32 H        0.8320     3.9060     0.9000 H     1 <1>   0.0800 
 33 H       -0.4730     4.2090     2.0020 H     1 <1>   0.0800 
 34 H       -4.4040     3.5990     0.2110 H     1 <1>   0.0800 
 35 H       -3.4430     2.7530    -0.9780 H     1 <1>   0.0800 
 36 H       -1.7660     5.4180    -1.7120 H     1 <1>   0.0800 
 37 H       -0.4780     5.0910    -2.8380 H     1 <1>   0.0800 
 38 H        0.5160     6.2940     1.1050 H     1 <1>   0.0800 
 39 H       -1.1670     6.1590     0.6680 H     1 <1>   0.0800 
 40 H        3.9260     6.2600    -0.8730 H     1 <1>   0.1500 
 41 H        0.4380     8.6560    -0.2600 H     1 <1>   0.1500 
 42 H        1.7660    10.2550     1.1050 H     1 <1>   0.1500 
 43 H        6.4080     9.7910     0.9170 H     1 <1>   0.0800 
 44 H        6.0540     8.8640     2.3970 H     1 <1>   0.0800 
@<TRIPOS>BOND
  1   1   2  1   
  2   1   3  1   
  3   2   4  2   
  4   2   5  1   
  5   3   6  2   
  6   3  26  1   
  7   4   6  1   
  8   4   7  1   
  9   5   8  1   
 10   5   9  1   
 11   5  10  1   
 12   6  27  1   
 13   7  11  1   
 14   7  28  1   
 15   7  29  1   
 16   8  11  1   
 17   9  12  1   
 18   9  30  1   
 19   9  31  1   
 20  10  13  1   
 21  10  32  1   
 22  10  33  1   
 23  11  34  1   
 24  11  35  1   
 25  12  14  1   
 26  12  36  1   
 27  12  37  1   
 28  13  14  1   
 29  13  38  1   
 30  13  39  1   
 31  14  15  am  
 32  15  16  2   
 33  15  17  1   
 34  17  18  ar  
 35  17  19  ar  
 36  18  20  ar  
 37  18  40  1   
 38  19  21  ar  
 39  19  41  1   
 40  20  22  1   
 41  20  23  ar  
 42  21  23  ar  
 43  21  42  1   
 44  22  24  1   
 45  23  25  1   
 46  24  25  1   
 47  24  43  1   
 48  24  44  1   
@<TRIPOS>SUBSTRUCTURE
  1 ****  13 GROUP 4 **** **** 0

# MOE 2024.06 (io_trps.svl 2023.06)
