@<TRIPOS>MOLECULE
NONAME
42 45 1 0 0 
SMALL
USER_CHARGES


@<TRIPOS>ATOM
  1 S       -0.0860     0.3800    -0.4790 S.3   1 <1>  -0.0800 
  2 C        0.5980    -1.1070     0.1770 C.2   1 <1>   0.3250 
  3 C        1.4420     1.1850    -0.3030 C.2   1 <1>  -0.1400 
  4 N        1.8410    -0.9700     0.4820 N.2   1 <1>  -0.5650 
  5 C       -0.2380    -2.2840     0.3110 C.ar  1 <1>   0.0530 
  6 C        2.3090     0.3010     0.2150 C.2   1 <1>   0.0770 
  7 C        1.4840     2.6410    -0.7460 C.3   1 <1>   0.2900 
  8 C       -1.5890    -2.3150    -0.0510 C.ar  1 <1>  -0.1500 
  9 C        0.3030    -3.4650     0.8250 C.ar  1 <1>  -0.1500 
 10 N        2.7900     3.2970    -0.5540 N.3   1 <1>  -0.8100 
 11 C       -2.3520    -3.4600     0.0930 C.ar  1 <1>  -0.1500 
 12 C       -0.4540    -4.6130     0.9720 C.ar  1 <1>  -0.1500 
 13 C        3.1430     3.4720     0.8810 C.3   1 <1>   0.1100 
 14 C        3.8370     2.7650    -1.4560 C.3   1 <1>   0.1100 
 15 C       -1.7860    -4.6130     0.6060 C.ar  1 <1>  -0.1500 
 16 C        4.3450     4.4060     1.1850 C.3   1 <1>   0.2200 
 17 C        5.1210     3.6160    -1.5290 C.3   1 <1>  -0.0190 
 18 N        4.5890     5.4010     0.1080 N.am  1 <1>  -0.7300 
 19 C        5.6320     3.6080     1.4870 C.3   1 <1>   0.1200 
 20 C        4.8940     5.0700    -1.1630 C.2   1 <1>   0.5690 
 21 C        6.2830     3.0210    -0.7170 C.3   1 <1>   0.1200 
 22 O        5.8820     2.5990     0.5510 O.3   1 <1>  -0.5600 
 23 O        5.0170     5.9270    -2.0030 O.2   1 <1>  -0.5700 
 24 H        3.3430     0.4980     0.4410 H     1 <1>   0.1500 
 25 H        0.7380     3.1920    -0.2000 H     1 <1>   0.0800 
 26 H        1.2180     2.6960    -1.7880 H     1 <1>   0.0800 
 27 H       -2.0630    -1.4390    -0.4520 H     1 <1>   0.1500 
 28 H        1.3400    -3.4800     1.1150 H     1 <1>   0.1500 
 29 H       -3.3900    -3.4550    -0.1930 H     1 <1>   0.1500 
 30 H       -0.0050    -5.5060     1.3720 H     1 <1>   0.1500 
 31 H        2.2890     3.8940     1.3810 H     1 <1>   0.0800 
 32 H        3.3230     2.5160     1.3370 H     1 <1>   0.0800 
 33 H        4.0920     1.7570    -1.1830 H     1 <1>   0.0800 
 34 H        3.4240     2.7310    -2.4500 H     1 <1>   0.0800 
 35 H       -2.3790    -5.5040     0.7180 H     1 <1>   0.1500 
 36 H        4.1130     4.9540     2.0810 H     1 <1>   0.0800 
 37 H        5.4460     3.6080    -2.5530 H     1 <1>   0.0800 
 38 H        4.3130     6.3690     0.2720 H     1 <1>   0.3700 
 39 H        5.5220     3.1190     2.4380 H     1 <1>   0.0800 
 40 H        6.4860     4.2610     1.5430 H     1 <1>   0.0800 
 41 H        7.0910     3.7270    -0.6180 H     1 <1>   0.0800 
 42 H        6.6580     2.1500    -1.2250 H     1 <1>   0.0800 
@<TRIPOS>BOND
  1   1   2  1   
  2   1   3  1   
  3   2   4  2   
  4   2   5  1   
  5   3   6  2   
  6   3   7  1   
  7   4   6  1   
  8   5   8  ar  
  9   5   9  ar  
 10   6  24  1   
 11   7  10  1   
 12   7  25  1   
 13   7  26  1   
 14   8  11  ar  
 15   8  27  1   
 16   9  12  ar  
 17   9  28  1   
 18  10  13  1   
 19  10  14  1   
 20  11  15  ar  
 21  11  29  1   
 22  12  15  ar  
 23  12  30  1   
 24  13  16  1   
 25  13  31  1   
 26  13  32  1   
 27  14  17  1   
 28  14  33  1   
 29  14  34  1   
 30  15  35  1   
 31  16  18  1   
 32  16  19  1   
 33  16  36  1   
 34  17  20  1   
 35  17  21  1   
 36  17  37  1   
 37  18  20  am  
 38  18  38  1   
 39  19  22  1   
 40  19  39  1   
 41  19  40  1   
 42  20  23  2   
 43  21  22  1   
 44  21  41  1   
 45  21  42  1   
@<TRIPOS>SUBSTRUCTURE
  1 ****   6 GROUP 4 **** **** 0

# MOE 2024.06 (io_trps.svl 2023.06)
