@<TRIPOS>MOLECULE
NONAME
52 55 1 0 0 
SMALL
USER_CHARGES


@<TRIPOS>ATOM
  1 O       -0.7240    -0.2570     0.8850 O.2   1 <1>  -0.5700 
  2 C       -1.3320     0.3510     0.0240 C.2   1 <1>   0.7160 
  3 N       -1.9900    -0.3680    -0.9230 N.am  1 <1>  -0.7300 
  4 C       -1.4350     1.7770     0.0250 C.2   1 <1>  -0.0860 
  5 C       -2.1780    -1.8340    -0.8940 C.3   1 <1>   0.2200 
  6 C       -2.5530     2.4960    -0.4160 C.2   1 <1>   0.3720 
  7 C       -0.5550     2.7520     0.3800 C.2   1 <1>   0.0870 
  8 C       -3.3560    -2.2280     0.0240 C.3   1 <1>   0.2000 
  9 C       -2.4160    -2.3460    -2.3180 C.3   1 <1>  -0.1600 
 10 N       -2.3430     3.7630    -0.3540 N.2   1 <1>  -0.4100 
 11 N       -3.7600     1.9220    -0.8520 N.pl3 1 <1>  -0.8210 
 12 O       -1.1380     3.8970     0.1280 O.3   1 <1>  -0.0190 
 13 C        0.7860     2.7420     0.9050 C.ar  1 <1>   0.0530 
 14 O       -3.1400    -1.7800     1.3190 O.3   1 <1>  -0.6800 
 15 C       -3.5500    -3.7460     0.0540 C.3   1 <1>  -0.1600 
 16 C       -2.6310    -3.8690    -2.3180 C.3   1 <1>  -0.1600 
 17 C       -4.6030     2.7650    -1.7670 C.3   1 <1>   0.2090 
 18 C       -4.5880     1.3230     0.2500 C.3   1 <1>   0.2090 
 19 C        1.7640     3.5680     0.3520 C.ar  1 <1>  -0.1500 
 20 C        1.1580     1.9340     1.9780 C.ar  1 <1>  -0.1500 
 21 C       -3.7650    -4.2890    -1.3680 C.3   1 <1>  -0.1600 
 22 C       -5.5410     3.7130    -0.9940 C.3   1 <1>   0.1200 
 23 C       -5.5070     2.3650     0.9120 C.3   1 <1>   0.1200 
 24 C        3.0580     3.5800     0.8380 C.ar  1 <1>  -0.1500 
 25 C        2.4510     1.9390     2.4690 C.ar  1 <1>  -0.1500 
 26 O       -6.2950     3.0080    -0.0490 O.3   1 <1>  -0.5600 
 27 C        3.4050     2.7620     1.8990 C.ar  1 <1>  -0.1500 
 28 H       -2.7080     0.1670    -1.4300 H     1 <1>   0.3700 
 29 H       -1.2810    -2.2970    -0.5180 H     1 <1>   0.0800 
 30 H       -4.2610    -1.7660    -0.3310 H     1 <1>   0.0800 
 31 H       -3.2830    -1.8660    -2.7360 H     1 <1>   0.0800 
 32 H       -1.5630    -2.1080    -2.9300 H     1 <1>   0.0800 
 33 H       -2.2220    -1.4230     1.3870 H     1 <1>   0.4000 
 34 H       -2.6800    -4.2100     0.4850 H     1 <1>   0.0800 
 35 H       -4.4040    -3.9860     0.6630 H     1 <1>   0.0800 
 36 H       -2.8580    -4.2010    -3.3170 H     1 <1>   0.0800 
 37 H       -1.7190    -4.3560    -2.0130 H     1 <1>   0.0800 
 38 H       -3.9690     3.3440    -2.4160 H     1 <1>   0.0800 
 39 H       -5.1980     2.1190    -2.3880 H     1 <1>   0.0800 
 40 H       -5.1950     0.5310    -0.1530 H     1 <1>   0.0800 
 41 H       -3.9510     0.8920     1.0020 H     1 <1>   0.0800 
 42 H        1.5030     4.2080    -0.4730 H     1 <1>   0.1500 
 43 H        0.4270     1.2960     2.4400 H     1 <1>   0.1500 
 44 H       -3.8290    -5.3630    -1.3360 H     1 <1>   0.0800 
 45 H       -4.7020    -3.9180    -1.7510 H     1 <1>   0.0800 
 46 H       -6.2260     4.1890    -1.6720 H     1 <1>   0.0800 
 47 H       -4.9750     4.4750    -0.4870 H     1 <1>   0.0800 
 48 H       -4.9250     3.1040     1.4340 H     1 <1>   0.0800 
 49 H       -6.1670     1.8860     1.6120 H     1 <1>   0.0800 
 50 H        3.7960     4.2250     0.3930 H     1 <1>   0.1500 
 51 H        2.7140     1.3020     3.2950 H     1 <1>   0.1500 
 52 H        4.4120     2.7670     2.2790 H     1 <1>   0.1500 
@<TRIPOS>BOND
  1   1   2  2   
  2   2   3  am  
  3   2   4  1   
  4   3   5  1   
  5   3  28  1   
  6   4   6  1   
  7   4   7  2   
  8   5   8  1   
  9   5   9  1   
 10   5  29  1   
 11   6  10  2   
 12   6  11  1   
 13   7  12  1   
 14   7  13  1   
 15   8  14  1   
 16   8  15  1   
 17   8  30  1   
 18   9  16  1   
 19   9  31  1   
 20   9  32  1   
 21  10  12  1   
 22  11  17  1   
 23  11  18  1   
 24  13  19  ar  
 25  13  20  ar  
 26  14  33  1   
 27  15  21  1   
 28  15  34  1   
 29  15  35  1   
 30  16  21  1   
 31  16  36  1   
 32  16  37  1   
 33  17  22  1   
 34  17  38  1   
 35  17  39  1   
 36  18  23  1   
 37  18  40  1   
 38  18  41  1   
 39  19  24  ar  
 40  19  42  1   
 41  20  25  ar  
 42  20  43  1   
 43  21  44  1   
 44  21  45  1   
 45  22  26  1   
 46  22  46  1   
 47  22  47  1   
 48  23  26  1   
 49  23  48  1   
 50  23  49  1   
 51  24  27  ar  
 52  24  50  1   
 53  25  27  ar  
 54  25  51  1   
 55  27  52  1   
@<TRIPOS>SUBSTRUCTURE
  1 ****   2 GROUP 4 **** **** 0

# MOE 2024.06 (io_trps.svl 2023.06)
