@<TRIPOS>MOLECULE
NONAME
48 50 1 0 0 
SMALL
USER_CHARGES


@<TRIPOS>ATOM
  1 O       -0.8670     0.4690    -0.4760 O.2   1 <1>  -0.5700 
  2 C       -1.5410     1.4640    -0.5520 C.2   1 <1>   0.5690 
  3 N       -2.8280     1.5200    -0.9470 N.am  1 <1>  -0.6600 
  4 C       -1.0390     2.8290    -0.1800 C.3   1 <1>  -0.0990 
  5 C       -3.3860     2.8830    -0.8670 C.3   1 <1>   0.1400 
  6 C       -3.6640     0.3520    -1.2990 C.3   1 <1>   0.2840 
  7 C       -2.3370     3.6500    -0.0410 C.3   1 <1>  -0.0190 
  8 C       -4.7320     0.1650    -0.2380 C.ar  1 <1>  -0.1440 
  9 C       -2.1900     5.1160    -0.4260 C.2   1 <1>   0.5690 
 10 C       -4.3690    -0.2320     1.0400 C.ar  1 <1>   0.1600 
 11 C       -6.0670     0.3890    -0.5130 C.ar  1 <1>  -0.1500 
 12 O       -2.9730     5.6000    -1.2070 O.2   1 <1>  -0.5700 
 13 N       -1.1680     5.8200     0.1490 N.am  1 <1>  -0.4940 
 14 N       -5.2110    -0.4130     2.0460 N.ar  1 <1>  -0.6200 
 15 C       -6.9580     0.2010     0.5220 C.ar  1 <1>  -0.1500 
 16 C       -0.7230     7.1520    -0.0400 C.2   1 <1>  -0.0880 
 17 C       -6.4850    -0.1940     1.7620 C.ar  1 <1>   0.1600 
 18 N       -1.4750     8.2610    -0.3000 N.pl3 1 <1>   0.3140 
 19 C        0.5610     7.5770     0.0370 C.2   1 <1>  -0.1810 
 20 N       -0.7050     9.3670    -0.3830 N.2   1 <1>  -0.7070 
 21 C       -2.9340     8.3910    -0.3980 C.3   1 <1>   0.0160 
 22 C        0.5050     8.9510    -0.1860 C.2   1 <1>   0.1080 
 23 C        1.8190     6.7650     0.3010 C.3   1 <1>  -0.0590 
 24 C        1.6880     9.9020    -0.2020 C.3   1 <1>   0.0210 
 25 C        1.9850    10.4420     1.2000 C.3   1 <1>  -0.2400 
 26 H       -0.4230     3.1940    -0.9830 H     1 <1>   0.0800 
 27 H       -0.4790     2.7910     0.7360 H     1 <1>   0.0800 
 28 H       -4.3460     2.8890    -0.3780 H     1 <1>   0.0800 
 29 H       -3.4810     3.2800    -1.8640 H     1 <1>   0.0800 
 30 H       -3.0500    -0.5310    -1.3550 H     1 <1>   0.0800 
 31 H       -4.1100     0.5120    -2.2650 H     1 <1>   0.0800 
 32 H       -2.6570     3.6120     0.9850 H     1 <1>   0.0800 
 33 H       -3.3250    -0.4050     1.2470 H     1 <1>   0.1500 
 34 H       -6.4040     0.6980    -1.4870 H     1 <1>   0.1500 
 35 H       -0.5510     5.2740     0.7480 H     1 <1>   0.3700 
 36 H       -8.0110     0.3580     0.3740 H     1 <1>   0.1500 
 37 H       -7.1910    -0.3380     2.5620 H     1 <1>   0.1500 
 38 H       -3.4010     7.7220     0.2980 H     1 <1>   0.0800 
 39 H       -3.2380     8.1520    -1.3990 H     1 <1>   0.0800 
 40 H       -3.2140     9.4030    -0.1700 H     1 <1>   0.0800 
 41 H        1.5880     5.7230     0.4100 H     1 <1>   0.0800 
 42 H        2.2950     7.1120     1.2000 H     1 <1>   0.0800 
 43 H        2.5020     6.8780    -0.5210 H     1 <1>   0.0800 
 44 H        1.4590    10.7220    -0.8600 H     1 <1>   0.0800 
 45 H        2.5530     9.3980    -0.5940 H     1 <1>   0.0800 
 46 H        1.1200    10.9580     1.5790 H     1 <1>   0.0800 
 47 H        2.8120    11.1280     1.1670 H     1 <1>   0.0800 
 48 H        2.2240     9.6350     1.8690 H     1 <1>   0.0800 
@<TRIPOS>BOND
  1   1   2  2   
  2   2   3  am  
  3   2   4  1   
  4   3   5  1   
  5   3   6  1   
  6   4   7  1   
  7   4  26  1   
  8   4  27  1   
  9   5   7  1   
 10   5  28  1   
 11   5  29  1   
 12   6   8  1   
 13   6  30  1   
 14   6  31  1   
 15   7   9  1   
 16   7  32  1   
 17   8  10  ar  
 18   8  11  ar  
 19   9  12  2   
 20   9  13  am  
 21  10  14  ar  
 22  10  33  1   
 23  11  15  ar  
 24  11  34  1   
 25  13  16  1   
 26  13  35  1   
 27  14  17  ar  
 28  15  17  ar  
 29  15  36  1   
 30  16  18  1   
 31  16  19  2   
 32  17  37  1   
 33  18  20  1   
 34  18  21  1   
 35  19  22  1   
 36  19  23  1   
 37  20  22  2   
 38  21  38  1   
 39  21  39  1   
 40  21  40  1   
 41  22  24  1   
 42  23  41  1   
 43  23  42  1   
 44  23  43  1   
 45  24  25  1   
 46  24  44  1   
 47  24  45  1   
 48  25  46  1   
 49  25  47  1   
 50  25  48  1   
@<TRIPOS>SUBSTRUCTURE
  1 ****   7 GROUP 4 **** **** 0

# MOE 2024.06 (io_trps.svl 2023.06)
