@<TRIPOS>MOLECULE
NONAME
53 55 1 0 0 
SMALL
USER_CHARGES


@<TRIPOS>ATOM
  1 S        1.2030     0.4580     0.4790 S.3   1 <1>  -0.0800 
  2 C       -0.2040     1.4500     0.8000 C.2   1 <1>  -0.0450 
  3 C        0.1670    -0.9070     0.1500 C.2   1 <1>   0.1980 
  4 C       -1.2890     0.6570     0.6420 C.2   1 <1>   0.0460 
  5 C       -0.0440     2.8280     1.1890 C.2   1 <1>   0.7150 
  6 N       -1.0740    -0.6520     0.2680 N.2   1 <1>  -0.5650 
  7 C        0.8530    -2.2100    -0.2310 C.3   1 <1>   0.0200 
  8 C       -2.7340     1.0650     0.8400 C.3   1 <1>  -0.0590 
  9 O       -0.6030     3.2200     2.1970 O.2   1 <1>  -0.5700 
 10 N        0.7030     3.7290     0.4570 N.am  1 <1>  -0.6600 
 11 C       -0.1350    -3.3500    -0.5110 C.3   1 <1>  -0.2400 
 12 C        1.1840     3.4900    -0.9420 C.3   1 <1>   0.1400 
 13 C        0.9580     5.1090     0.9560 C.3   1 <1>   0.1400 
 14 C        2.7150     3.3580    -1.0330 C.3   1 <1>   0.1400 
 15 C        2.2710     5.1710     1.7460 C.3   1 <1>  -0.1600 
 16 N        3.4310     4.4910    -0.3650 N.am  1 <1>  -0.6600 
 17 C        3.4430     4.3990     1.1250 C.3   1 <1>   0.1400 
 18 C        4.0650     5.4670    -1.0960 C.2   1 <1>   0.5690 
 19 O        4.0440     5.4570    -2.3070 O.2   1 <1>  -0.5700 
 20 C        4.8050     6.6080    -0.4300 C.3   1 <1>   0.1570 
 21 N        6.1490     6.1620    -0.0630 N.pl3 1 <1>   0.3140 
 22 N        6.5690     6.1310     1.2280 N.2   1 <1>  -0.7070 
 23 C        7.1260     5.7580    -0.9190 C.2   1 <1>  -0.0680 
 24 C        7.7940     5.7150     1.1570 C.2   1 <1>   0.1080 
 25 N        7.0080     5.6740    -2.3140 N.pl3 1 <1>  -0.8840 
 26 C        8.1990     5.4660    -0.1500 C.2   1 <1>  -0.1500 
 27 C        8.6580     5.5360     2.3830 C.3   1 <1>  -0.0590 
 28 H        1.5070    -2.4990     0.5720 H     1 <1>   0.0800 
 29 H        1.4530    -2.0390    -1.1060 H     1 <1>   0.0800 
 30 H       -2.8090     2.1000     1.1190 H     1 <1>   0.0800 
 31 H       -3.1710     0.4660     1.6170 H     1 <1>   0.0800 
 32 H       -3.2820     0.9080    -0.0700 H     1 <1>   0.0800 
 33 H       -0.7340    -3.5420     0.3620 H     1 <1>   0.0800 
 34 H        0.3940    -4.2480    -0.7740 H     1 <1>   0.0800 
 35 H       -0.7900    -3.0810    -1.3210 H     1 <1>   0.0800 
 36 H        0.8730     4.3100    -1.5660 H     1 <1>   0.0800 
 37 H        0.7290     2.6030    -1.3470 H     1 <1>   0.0800 
 38 H        0.1450     5.4390     1.5810 H     1 <1>   0.0800 
 39 H        1.0130     5.7850     0.1200 H     1 <1>   0.0800 
 40 H        2.9920     3.3060    -2.0720 H     1 <1>   0.0800 
 41 H        3.0230     2.4310    -0.5840 H     1 <1>   0.0800 
 42 H        2.0960     4.7810     2.7340 H     1 <1>   0.0800 
 43 H        2.5490     6.2010     1.8690 H     1 <1>   0.0800 
 44 H        3.3630     3.3630     1.4100 H     1 <1>   0.0800 
 45 H        4.3740     4.7590     1.5240 H     1 <1>   0.0800 
 46 H        4.2890     6.9400     0.4470 H     1 <1>   0.0800 
 47 H        4.8960     7.4270    -1.1150 H     1 <1>   0.0800 
 48 H        7.6630     5.0270    -2.7650 H     1 <1>   0.4000 
 49 H        6.0480     5.5090    -2.6670 H     1 <1>   0.4000 
 50 H        9.1640     5.1200    -0.4660 H     1 <1>   0.1500 
 51 H        8.7250     6.4680     2.9120 H     1 <1>   0.0800 
 52 H        9.6440     5.2160     2.1050 H     1 <1>   0.0800 
 53 H        8.2160     4.7990     3.0280 H     1 <1>   0.0800 
@<TRIPOS>BOND
  1   1   2  1   
  2   1   3  1   
  3   2   4  2   
  4   2   5  1   
  5   3   6  2   
  6   3   7  1   
  7   4   6  1   
  8   4   8  1   
  9   5   9  2   
 10   5  10  am  
 11   7  11  1   
 12   7  28  1   
 13   7  29  1   
 14   8  30  1   
 15   8  31  1   
 16   8  32  1   
 17  10  12  1   
 18  10  13  1   
 19  11  33  1   
 20  11  34  1   
 21  11  35  1   
 22  12  14  1   
 23  12  36  1   
 24  12  37  1   
 25  13  15  1   
 26  13  38  1   
 27  13  39  1   
 28  14  16  1   
 29  14  40  1   
 30  14  41  1   
 31  15  17  1   
 32  15  42  1   
 33  15  43  1   
 34  16  17  1   
 35  16  18  am  
 36  17  44  1   
 37  17  45  1   
 38  18  19  2   
 39  18  20  1   
 40  20  21  1   
 41  20  46  1   
 42  20  47  1   
 43  21  22  1   
 44  21  23  1   
 45  22  24  2   
 46  23  25  1   
 47  23  26  2   
 48  24  26  1   
 49  24  27  1   
 50  25  48  1   
 51  25  49  1   
 52  26  50  1   
 53  27  51  1   
 54  27  52  1   
 55  27  53  1   
@<TRIPOS>SUBSTRUCTURE
  1 ****  14 GROUP 4 **** **** 0

# MOE 2024.06 (io_trps.svl 2023.06)
