@<TRIPOS>MOLECULE
NONAME
53 56 1 0 0 
SMALL
USER_CHARGES


@<TRIPOS>ATOM
  1 O        0.5940    -0.2810     1.2810 O.3   1 <1>  -0.5600 
  2 C        1.6810    -0.8210     0.5650 C.3   1 <1>   0.4240 
  3 C       -0.6860    -0.6870     0.9110 C.3   1 <1>   0.1200 
  4 C        1.4620    -2.3150     0.2420 C.ar  1 <1>  -0.1440 
  5 C        1.8710     0.0000    -0.7200 C.3   1 <1>  -0.1600 
  6 C        2.8980    -0.6440     1.4820 C.3   1 <1>  -0.1600 
  7 C       -0.8410    -2.1720     1.2250 C.3   1 <1>  -0.0160 
  8 C        0.2700    -2.9560     0.5550 C.ar  1 <1>  -0.1440 
  9 C        2.4600    -3.0540    -0.3820 C.ar  1 <1>  -0.1500 
 10 C        2.1430     1.4720    -0.4160 C.3   1 <1>   0.2090 
 11 C        3.2030     0.8300     1.7550 C.3   1 <1>   0.2090 
 12 C        0.0890    -4.2970     0.2560 C.ar  1 <1>  -0.1500 
 13 C        2.2990    -4.3960    -0.6820 C.ar  1 <1>   0.0830 
 14 N        3.3280     1.5820     0.4740 N.pl3 1 <1>  -0.8380 
 15 C        1.0890    -5.0350    -0.3710 C.ar  1 <1>   0.0830 
 16 O        3.3720    -4.9860    -1.2800 O.3   1 <1>  -0.3630 
 17 C        4.5770     1.8300    -0.0720 C.ar  1 <1>   0.4100 
 18 O        0.9070    -6.3490    -0.7000 O.3   1 <1>  -0.3630 
 19 C        3.7160    -6.3210    -0.9820 C.3   1 <1>   0.0400 
 20 N        5.4130     0.7950    -0.0750 N.ar  1 <1>  -0.6200 
 21 C        4.9130     3.0920    -0.5850 C.ar  1 <1>   0.0730 
 22 C       -0.3430    -6.9890    -0.5700 C.3   1 <1>   0.0400 
 23 C        6.6060     0.9870    -0.6000 C.ar  1 <1>   0.1660 
 24 C        3.9850     4.1780    -0.5500 C.1   1 <1>   0.4840 
 25 C        6.1720     3.2700    -1.1300 C.ar  1 <1>  -0.1500 
 26 C        7.0300     2.1910    -1.1350 C.ar  1 <1>  -0.1500 
 27 C        7.5270    -0.2140    -0.5930 C.3   1 <1>  -0.0970 
 28 N        3.2670     5.0670    -0.5690 N.1   1 <1>  -0.5570 
 29 H       -0.8310    -0.4940    -0.1380 H     1 <1>   0.0800 
 30 H       -1.3930    -0.1060     1.4770 H     1 <1>   0.0800 
 31 H        1.0090    -0.0940    -1.3510 H     1 <1>   0.0800 
 32 H        2.7090    -0.3860    -1.2690 H     1 <1>   0.0800 
 33 H        3.7670    -1.0830     1.0310 H     1 <1>   0.0800 
 34 H        2.7220    -1.1580     2.4080 H     1 <1>   0.0800 
 35 H       -1.8000    -2.5090     0.8750 H     1 <1>   0.0800 
 36 H       -0.7970    -2.3180     2.2890 H     1 <1>   0.0800 
 37 H        3.3940    -2.5920    -0.6470 H     1 <1>   0.1500 
 38 H        1.2920     1.9170     0.0720 H     1 <1>   0.0800 
 39 H        2.3200     2.0010    -1.3360 H     1 <1>   0.0800 
 40 H        4.1180     0.9130     2.3160 H     1 <1>   0.0800 
 41 H        2.4110     1.2660     2.3400 H     1 <1>   0.0800 
 42 H       -0.8460    -4.7510     0.5200 H     1 <1>   0.1500 
 43 H        4.7550    -6.4590    -1.2170 H     1 <1>   0.0800 
 44 H        3.1170    -6.9760    -1.5870 H     1 <1>   0.0800 
 45 H        3.5460    -6.5040     0.0640 H     1 <1>   0.0800 
 46 H       -0.2480    -7.9860    -0.9590 H     1 <1>   0.0800 
 47 H       -1.0750    -6.4440    -1.1380 H     1 <1>   0.0800 
 48 H       -0.6090    -7.0280     0.4710 H     1 <1>   0.0800 
 49 H        6.4740     4.2200    -1.5360 H     1 <1>   0.1500 
 50 H        8.0170     2.2870    -1.5500 H     1 <1>   0.1500 
 51 H        7.0720    -1.0170    -1.1430 H     1 <1>   0.0800 
 52 H        7.6860    -0.5370     0.4200 H     1 <1>   0.0800 
 53 H        8.4770     0.0190    -1.0380 H     1 <1>   0.0800 
@<TRIPOS>BOND
  1   1   2  1   
  2   1   3  1   
  3   2   4  1   
  4   2   5  1   
  5   2   6  1   
  6   3   7  1   
  7   3  29  1   
  8   3  30  1   
  9   4   8  ar  
 10   4   9  ar  
 11   5  10  1   
 12   5  31  1   
 13   5  32  1   
 14   6  11  1   
 15   6  33  1   
 16   6  34  1   
 17   7   8  1   
 18   7  35  1   
 19   7  36  1   
 20   8  12  ar  
 21   9  13  ar  
 22   9  37  1   
 23  10  14  1   
 24  10  38  1   
 25  10  39  1   
 26  11  14  1   
 27  11  40  1   
 28  11  41  1   
 29  12  15  ar  
 30  12  42  1   
 31  13  15  ar  
 32  13  16  1   
 33  14  17  1   
 34  15  18  1   
 35  16  19  1   
 36  17  20  ar  
 37  17  21  ar  
 38  18  22  1   
 39  19  43  1   
 40  19  44  1   
 41  19  45  1   
 42  20  23  ar  
 43  21  24  1   
 44  21  25  ar  
 45  22  46  1   
 46  22  47  1   
 47  22  48  1   
 48  23  26  ar  
 49  23  27  1   
 50  24  28  3   
 51  25  26  ar  
 52  25  49  1   
 53  26  50  1   
 54  27  51  1   
 55  27  52  1   
 56  27  53  1   
@<TRIPOS>SUBSTRUCTURE
  1 ****   2 GROUP 4 **** **** 0

# MOE 2024.06 (io_trps.svl 2023.06)
