@<TRIPOS>MOLECULE
NONAME
45 47 1 0 0 
SMALL
USER_CHARGES


@<TRIPOS>ATOM
  1 O        1.3080     0.2470     1.3060 O.2   1 <1>  -0.5700 
  2 C        1.9530    -0.1020     0.3360 C.2   1 <1>   0.5440 
  3 N        2.1380     0.7840    -0.7080 N.am  1 <1>  -0.6600 
  4 C        2.4950    -1.4450     0.3110 C.ar  1 <1>   0.0860 
  5 C        2.6110     0.3540    -2.0680 C.3   1 <1>   0.1400 
  6 C        1.8160     2.2310    -0.5380 C.3   1 <1>   0.1400 
  7 C        1.6890    -2.5680     0.3650 C.ar  1 <1>  -0.1500 
  8 C        3.8560    -1.7020     0.2360 C.ar  1 <1>  -0.1500 
  9 C        3.5910     1.3340    -2.7380 C.3   1 <1>   0.1400 
 10 C        3.0620     3.0030    -0.0850 C.3   1 <1>  -0.1600 
 11 C        2.2450    -3.8340     0.3190 C.ar  1 <1>   0.3920 
 12 C        4.3190    -3.0020     0.1940 C.ar  1 <1>   0.1600 
 13 N        4.5580     1.9150    -1.7600 N.am  1 <1>  -0.6600 
 14 C        4.1150     3.2130    -1.1810 C.3   1 <1>   0.1400 
 15 O        1.3900    -4.8770     0.3670 O.3   1 <1>  -0.3630 
 16 N        3.5490    -4.0760     0.2280 N.ar  1 <1>  -0.6200 
 17 C        5.6690     1.1930    -1.3470 C.2   1 <1>   0.7160 
 18 C        1.8660    -6.2090     0.3380 C.3   1 <1>   0.0400 
 19 O        5.8880     0.1380    -1.9250 O.2   1 <1>  -0.5700 
 20 C        6.5820     1.5870    -0.2780 C.2   1 <1>   0.2030 
 21 N        6.3860     2.4220     0.7020 N.2   1 <1>  -0.4100 
 22 C        7.8620     1.0700    -0.1380 C.2   1 <1>  -0.1500 
 23 O        7.4460     2.4940     1.4690 O.3   1 <1>  -0.0190 
 24 C        8.3330     1.6730     0.9560 C.2   1 <1>  -0.0400 
 25 C        9.6780     1.5370     1.6390 C.3   1 <1>  -0.0600 
 26 H        1.7550     0.2290    -2.7070 H     1 <1>   0.0800 
 27 H        3.0980    -0.6020    -2.0100 H     1 <1>   0.0800 
 28 H        1.0470     2.3440     0.2080 H     1 <1>   0.0800 
 29 H        1.4300     2.6350    -1.4570 H     1 <1>   0.0800 
 30 H        0.6240    -2.4600     0.4450 H     1 <1>   0.1500 
 31 H        4.5490    -0.8820     0.2110 H     1 <1>   0.1500 
 32 H        3.0340     2.1220    -3.2120 H     1 <1>   0.0800 
 33 H        4.1250     0.8180    -3.5170 H     1 <1>   0.0800 
 34 H        3.5050     2.5060     0.7600 H     1 <1>   0.0800 
 35 H        2.7480     3.9730     0.2550 H     1 <1>   0.0800 
 36 H        5.3820    -3.1670     0.1280 H     1 <1>   0.1500 
 37 H        4.9540     3.7580    -0.7870 H     1 <1>   0.0800 
 38 H        3.6960     3.8220    -1.9640 H     1 <1>   0.0800 
 39 H        1.0210    -6.8710     0.3870 H     1 <1>   0.0800 
 40 H        2.5100    -6.3650     1.1860 H     1 <1>   0.0800 
 41 H        2.4070    -6.3650    -0.5780 H     1 <1>   0.0800 
 42 H        8.3220     0.3480    -0.7890 H     1 <1>   0.1500 
 43 H       10.2960     0.8330     1.1110 H     1 <1>   0.0800 
 44 H        9.5400     1.1920     2.6480 H     1 <1>   0.0800 
 45 H       10.1740     2.4910     1.6600 H     1 <1>   0.0800 
@<TRIPOS>BOND
  1   1   2  2   
  2   2   3  am  
  3   2   4  1   
  4   3   5  1   
  5   3   6  1   
  6   4   7  ar  
  7   4   8  ar  
  8   5   9  1   
  9   5  26  1   
 10   5  27  1   
 11   6  10  1   
 12   6  28  1   
 13   6  29  1   
 14   7  11  ar  
 15   7  30  1   
 16   8  12  ar  
 17   8  31  1   
 18   9  13  1   
 19   9  32  1   
 20   9  33  1   
 21  10  14  1   
 22  10  34  1   
 23  10  35  1   
 24  11  15  1   
 25  11  16  ar  
 26  12  16  ar  
 27  12  36  1   
 28  13  14  1   
 29  13  17  am  
 30  14  37  1   
 31  14  38  1   
 32  15  18  1   
 33  17  19  2   
 34  17  20  1   
 35  18  39  1   
 36  18  40  1   
 37  18  41  1   
 38  20  21  2   
 39  20  22  1   
 40  21  23  1   
 41  22  24  2   
 42  22  42  1   
 43  23  24  1   
 44  24  25  1   
 45  25  43  1   
 46  25  44  1   
 47  25  45  1   
@<TRIPOS>SUBSTRUCTURE
  1 ****   8 GROUP 4 **** **** 0

# MOE 2024.06 (io_trps.svl 2023.06)
