@<TRIPOS>MOLECULE
NONAME
39 41 1 0 0 
SMALL
USER_CHARGES


@<TRIPOS>ATOM
  1 CL      -3.5520     0.7900    -2.8740 Cl    1 <1>  -0.1230 
  2 C       -3.5200     0.5340    -1.1370 C.2   1 <1>   0.1230 
  3 C       -3.5030    -0.6890    -0.4590 C.2   1 <1>   0.2030 
  4 C       -3.5060     1.5060    -0.2120 C.2   1 <1>  -0.3020 
  5 N       -3.4810    -0.4560     0.8480 N.2   1 <1>  -0.7070 
  6 C       -3.5090    -2.0100    -1.0640 C.2   1 <1>   0.7160 
  7 N       -3.4810     0.8810     0.9800 N.pl3 1 <1>   0.3140 
  8 O       -3.5890    -2.1960    -2.2650 O.2   1 <1>  -0.5700 
  9 N       -3.4390    -3.1070    -0.2550 N.am  1 <1>  -0.7300 
 10 C       -3.4560     1.5330     2.2960 C.3   1 <1>   0.0160 
 11 C       -3.4050    -4.5230    -0.6820 C.3   1 <1>   0.2200 
 12 C       -4.7370    -5.2120    -0.4200 C.3   1 <1>  -0.0800 
 13 C       -2.4940    -5.3060     0.2540 C.3   1 <1>   0.1200 
 14 C       -4.6250    -5.6250     1.0510 C.3   1 <1>   0.1200 
 15 C       -5.9980    -4.3940    -0.7530 C.3   1 <1>  -0.0160 
 16 O       -3.2670    -5.5840     1.3820 O.3   1 <1>  -0.5600 
 17 C       -7.2540    -5.2230    -0.5350 C.ar  1 <1>  -0.1430 
 18 C       -7.7050    -6.1200    -1.4820 C.ar  1 <1>  -0.1500 
 19 C       -8.0070    -5.1240     0.6180 C.ar  1 <1>  -0.1500 
 20 C       -8.8500    -6.8590    -1.2350 C.ar  1 <1>   0.1600 
 21 C       -9.1380    -5.9090     0.7660 C.ar  1 <1>   0.1600 
 22 N       -9.5770    -6.7770    -0.1320 N.ar  1 <1>  -0.6200 
 23 H       -3.5110     2.5720    -0.3330 H     1 <1>   0.1500 
 24 H       -3.3920    -2.9360     0.7550 H     1 <1>   0.3700 
 25 H       -2.6040     2.1840     2.3520 H     1 <1>   0.0800 
 26 H       -3.3870     0.7820     3.0610 H     1 <1>   0.0800 
 27 H       -4.3590     2.0980     2.4270 H     1 <1>   0.0800 
 28 H       -3.0940    -4.6020    -1.7110 H     1 <1>   0.0800 
 29 H       -4.7590    -6.1150    -1.0050 H     1 <1>   0.0800 
 30 H       -1.6160    -4.7540     0.5400 H     1 <1>   0.0800 
 31 H       -2.2100    -6.2450    -0.1890 H     1 <1>   0.0800 
 32 H       -4.9990    -6.6200     1.2180 H     1 <1>   0.0800 
 33 H       -5.1350    -4.9300     1.6960 H     1 <1>   0.0800 
 34 H       -5.9550    -4.0740    -1.7800 H     1 <1>   0.0800 
 35 H       -6.0460    -3.5090    -0.1420 H     1 <1>   0.0800 
 36 H       -7.1760    -6.2510    -2.4080 H     1 <1>   0.1500 
 37 H       -7.7270    -4.4440     1.4010 H     1 <1>   0.1500 
 38 H       -9.1870    -7.5540    -1.9850 H     1 <1>   0.1500 
 39 H       -9.7130    -5.8190     1.6720 H     1 <1>   0.1500 
@<TRIPOS>BOND
  1   1   2  1   
  2   2   3  1   
  3   2   4  2   
  4   3   5  2   
  5   3   6  1   
  6   4   7  1   
  7   4  23  1   
  8   5   7  1   
  9   6   8  2   
 10   6   9  am  
 11   7  10  1   
 12   9  11  1   
 13   9  24  1   
 14  10  25  1   
 15  10  26  1   
 16  10  27  1   
 17  11  12  1   
 18  11  13  1   
 19  11  28  1   
 20  12  14  1   
 21  12  15  1   
 22  12  29  1   
 23  13  16  1   
 24  13  30  1   
 25  13  31  1   
 26  14  16  1   
 27  14  32  1   
 28  14  33  1   
 29  15  17  1   
 30  15  34  1   
 31  15  35  1   
 32  17  18  ar  
 33  17  19  ar  
 34  18  20  ar  
 35  18  36  1   
 36  19  21  ar  
 37  19  37  1   
 38  20  22  ar  
 39  20  38  1   
 40  21  22  ar  
 41  21  39  1   
@<TRIPOS>SUBSTRUCTURE
  1 ****   9 GROUP 4 **** **** 0

# MOE 2024.06 (io_trps.svl 2023.06)
