@<TRIPOS>MOLECULE
NONAME
43 46 1 0 0 
SMALL
USER_CHARGES


@<TRIPOS>ATOM
  1 O       -0.5180     0.4850     0.8350 O.2   1 <1>  -0.5700 
  2 C       -1.4860     1.0130     0.3090 C.2   1 <1>   0.7160 
  3 N       -2.6190     0.2300     0.1710 N.am  1 <1>  -0.6600 
  4 C       -1.3990     2.4060    -0.1330 C.2   1 <1>   0.2030 
  5 C       -3.9220     0.6620    -0.3980 C.3   1 <1>   0.1400 
  6 C       -2.6460    -1.2190     0.4840 C.3   1 <1>   0.1400 
  7 N       -2.2830     3.0960    -0.8400 N.2   1 <1>  -0.7070 
  8 C       -0.2940     3.2200     0.1570 C.2   1 <1>  -0.1500 
  9 C       -4.8790    -0.4840    -0.0720 C.3   1 <1>   0.2000 
 10 C       -3.9790    -1.7240    -0.0820 C.3   1 <1>  -0.0800 
 11 N       -1.7480     4.3180    -0.9890 N.pl3 1 <1>   0.3000 
 12 C       -0.5460     4.4210    -0.3960 C.2   1 <1>  -0.2370 
 13 O       -5.3750    -0.2820     1.2080 O.3   1 <1>  -0.6800 
 14 C       -4.5480    -2.9470     0.6610 C.3   1 <1>   0.0200 
 15 C        0.2830     5.6870    -0.4050 C.3   1 <1>  -0.0150 
 16 C       -3.6890    -4.1910     0.5050 C.2   1 <1>  -0.0400 
 17 C        1.1660     6.0110     0.7560 C.3   1 <1>  -0.2000 
 18 C       -0.0800     6.8110     0.5110 C.3   1 <1>  -0.2000 
 19 O       -3.9880    -5.2500     1.2100 O.3   1 <1>  -0.0190 
 20 C       -2.6150    -4.4910    -0.2440 C.2   1 <1>  -0.1500 
 21 N       -3.1730    -6.2370     0.9780 N.2   1 <1>  -0.4100 
 22 C       -2.3340    -5.8080     0.1050 C.2   1 <1>   0.1080 
 23 C       -1.1980    -6.6330    -0.4580 C.3   1 <1>  -0.0590 
 24 H       -4.2580     1.5920     0.0270 H     1 <1>   0.0800 
 25 H       -3.8180     0.7700    -1.4630 H     1 <1>   0.0800 
 26 H       -1.8040    -1.7190     0.0360 H     1 <1>   0.0800 
 27 H       -2.6050    -1.3470     1.5520 H     1 <1>   0.0800 
 28 H        0.5700     2.9060     0.7160 H     1 <1>   0.1500 
 29 H       -5.7090    -0.5490    -0.7550 H     1 <1>   0.0800 
 30 H       -3.8170    -1.9940    -1.1110 H     1 <1>   0.0800 
 31 H       -2.2210     5.0750    -1.4970 H     1 <1>   0.2700 
 32 H       -4.6380    -0.0060     1.7900 H     1 <1>   0.4000 
 33 H       -5.5330    -3.1650     0.2880 H     1 <1>   0.0800 
 34 H       -4.6400    -2.7290     1.7100 H     1 <1>   0.0800 
 35 H        0.6550     5.9370    -1.3850 H     1 <1>   0.1000 
 36 H        1.1890     5.3400     1.5970 H     1 <1>   0.1000 
 37 H        2.1230     6.4640     0.5630 H     1 <1>   0.1000 
 38 H        0.0170     7.8220     0.1560 H     1 <1>   0.1000 
 39 H       -0.9060     6.6850     1.1880 H     1 <1>   0.1000 
 40 H       -2.0700    -3.8980    -0.9530 H     1 <1>   0.1500 
 41 H       -0.2580    -6.1760    -0.2110 H     1 <1>   0.0800 
 42 H       -1.2910    -6.7020    -1.5260 H     1 <1>   0.0800 
 43 H       -1.2230    -7.6240    -0.0420 H     1 <1>   0.0800 
@<TRIPOS>BOND
  1   1   2  2   
  2   2   3  am  
  3   2   4  1   
  4   3   5  1   
  5   3   6  1   
  6   4   7  2   
  7   4   8  1   
  8   5   9  1   
  9   5  24  1   
 10   5  25  1   
 11   6  10  1   
 12   6  26  1   
 13   6  27  1   
 14   7  11  1   
 15   8  12  2   
 16   8  28  1   
 17   9  10  1   
 18   9  13  1   
 19   9  29  1   
 20  10  14  1   
 21  10  30  1   
 22  11  12  1   
 23  11  31  1   
 24  12  15  1   
 25  13  32  1   
 26  14  16  1   
 27  14  33  1   
 28  14  34  1   
 29  15  17  1   
 30  15  18  1   
 31  15  35  1   
 32  16  19  1   
 33  16  20  2   
 34  17  18  1   
 35  17  36  1   
 36  17  37  1   
 37  18  38  1   
 38  18  39  1   
 39  19  21  1   
 40  20  22  1   
 41  20  40  1   
 42  21  22  2   
 43  22  23  1   
 44  23  41  1   
 45  23  42  1   
 46  23  43  1   
@<TRIPOS>SUBSTRUCTURE
  1 ****   3 GROUP 4 **** **** 0

# MOE 2024.06 (io_trps.svl 2023.06)
