@<TRIPOS>MOLECULE
NONAME
45 47 1 0 0 
SMALL
USER_CHARGES


@<TRIPOS>ATOM
  1 S        1.1300     0.1880    -0.7870 S.3   1 <1>  -0.0800 
  2 C        1.4260    -0.4890     0.8070 C.2   1 <1>  -0.1400 
  3 C       -0.3930    -0.6730    -0.9180 C.2   1 <1>  -0.1400 
  4 C        0.4130    -1.2970     1.1740 C.2   1 <1>  -0.1500 
  5 C        2.7140    -0.0790     1.4820 C.3   1 <1>   0.5230 
  6 C       -0.6200    -1.4020     0.1900 C.2   1 <1>  -0.1500 
  7 C       -1.1940    -0.4780    -2.1880 C.3   1 <1>  -0.0600 
  8 N        3.8500    -0.5660     0.6500 N.4   1 <1>  -0.8520 
  9 C        4.0430    -2.0210     0.7720 C.3   1 <1>   0.2960 
 10 C        5.1150     0.1680     0.9170 C.3   1 <1>   0.4860 
 11 C        4.7750    -2.7170    -0.3260 C.3   1 <1>  -0.2000 
 12 C        3.3020    -2.9280    -0.1510 C.3   1 <1>  -0.2000 
 13 C        4.9160     1.6460     0.6580 C.ar  1 <1>  -0.1430 
 14 C        4.8320     2.1260    -0.6390 C.ar  1 <1>   0.1600 
 15 C        4.8150     2.5440     1.7070 C.ar  1 <1>  -0.1500 
 16 N        4.6340     3.3860    -0.9650 N.ar  1 <1>  -0.6200 
 17 C        4.6180     3.8630     1.3740 C.ar  1 <1>  -0.1500 
 18 C        4.5280     4.2480     0.0390 C.ar  1 <1>   0.4100 
 19 N        4.3200     5.5770    -0.2770 N.pl3 1 <1>  -0.8380 
 20 C        3.0320     6.2050     0.1170 C.3   1 <1>   0.1290 
 21 C        4.8980     6.1160    -1.5380 C.3   1 <1>   0.1290 
 22 H        0.3300    -1.8410     2.1000 H     1 <1>   0.1500 
 23 H        2.7660    -0.4950     2.4740 H     1 <1>   0.0800 
 24 H        2.7290     0.9960     1.5540 H     1 <1>   0.0800 
 25 H       -1.4860    -2.0190     0.3610 H     1 <1>   0.1500 
 26 H       -0.6190    -0.7940    -3.0400 H     1 <1>   0.0800 
 27 H       -1.4500     0.5600    -2.3060 H     1 <1>   0.0800 
 28 H       -2.1000    -1.0550    -2.1480 H     1 <1>   0.0800 
 29 H        3.5600    -0.3740    -0.3170 H     1 <1>   0.4500 
 30 H        4.2120    -2.3550     1.7850 H     1 <1>   0.1000 
 31 H        5.8950    -0.2030     0.2720 H     1 <1>   0.0800 
 32 H        5.4230     0.0150     1.9380 H     1 <1>   0.0800 
 33 H        5.4240    -3.5430    -0.0880 H     1 <1>   0.1000 
 34 H        5.1000    -2.1820    -1.2010 H     1 <1>   0.1000 
 35 H        2.6320    -2.5220    -0.8900 H     1 <1>   0.1000 
 36 H        2.9700    -3.8860     0.2140 H     1 <1>   0.1000 
 37 H        4.9270     1.4440    -1.4670 H     1 <1>   0.1500 
 38 H        4.8910     2.2490     2.7400 H     1 <1>   0.1500 
 39 H        4.5390     4.6230     2.1290 H     1 <1>   0.1500 
 40 H        2.5670     5.6490     0.9120 H     1 <1>   0.0800 
 41 H        2.3630     6.2260    -0.7260 H     1 <1>   0.0800 
 42 H        3.2090     7.2120     0.4540 H     1 <1>   0.0800 
 43 H        5.8600     5.6680    -1.7210 H     1 <1>   0.0800 
 44 H        5.0230     7.1820    -1.4600 H     1 <1>   0.0800 
 45 H        4.2470     5.8900    -2.3650 H     1 <1>   0.0800 
@<TRIPOS>BOND
  1   1   2  1   
  2   1   3  1   
  3   2   4  2   
  4   2   5  1   
  5   3   6  2   
  6   3   7  1   
  7   4   6  1   
  8   4  22  1   
  9   5   8  1   
 10   5  23  1   
 11   5  24  1   
 12   6  25  1   
 13   7  26  1   
 14   7  27  1   
 15   7  28  1   
 16   8   9  1   
 17   8  10  1   
 18   8  29  1   
 19   9  11  1   
 20   9  12  1   
 21   9  30  1   
 22  10  13  1   
 23  10  31  1   
 24  10  32  1   
 25  11  12  1   
 26  11  33  1   
 27  11  34  1   
 28  12  35  1   
 29  12  36  1   
 30  13  14  ar  
 31  13  15  ar  
 32  14  16  ar  
 33  14  37  1   
 34  15  17  ar  
 35  15  38  1   
 36  16  18  ar  
 37  17  18  ar  
 38  17  39  1   
 39  18  19  1   
 40  19  20  1   
 41  19  21  1   
 42  20  40  1   
 43  20  41  1   
 44  20  42  1   
 45  21  43  1   
 46  21  44  1   
 47  21  45  1   
@<TRIPOS>SUBSTRUCTURE
  1 ****   5 GROUP 4 **** **** 0

# MOE 2024.06 (io_trps.svl 2023.06)
