@<TRIPOS>MOLECULE
NONAME
47 48 1 0 0 
SMALL
USER_CHARGES


@<TRIPOS>ATOM
  1 S        0.9380     0.0300    -0.3760 S.o2  1 <1>   1.3330 
  2 O        2.2530     0.0790     0.2200 O.2   1 <1>  -0.6500 
  3 O        0.8070    -0.0780    -1.8120 O.2   1 <1>  -0.6500 
  4 N        0.0930    -1.2600     0.3340 N.am  1 <1>  -0.8490 
  5 C       -0.0020     1.4630     0.1420 C.3   1 <1>  -0.0550 
  6 C        0.4370    -1.4750     1.7440 C.3   1 <1>   0.1160 
  7 C        0.2600    -2.5090    -0.4140 C.3   1 <1>   0.1160 
  8 C        0.5260     2.7810    -0.4580 C.3   1 <1>  -0.0800 
  9 C       -0.3640     3.9970    -0.1880 C.3   1 <1>   0.2000 
 10 C        1.9110     3.1960     0.0620 C.3   1 <1>   0.1400 
 11 O       -0.7480     3.9890     1.1450 O.3   1 <1>  -0.6800 
 12 C        0.5750     5.1810    -0.4020 C.3   1 <1>   0.1400 
 13 N        1.8860     4.6800     0.0770 N.am  1 <1>  -0.6600 
 14 C        2.8370     5.4460     0.7090 C.2   1 <1>   0.5440 
 15 O        3.7280     4.8860     1.3160 O.2   1 <1>  -0.5700 
 16 C        2.7620     6.8940     0.6830 C.ar  1 <1>   0.0860 
 17 C        3.1180     7.6560    -0.4380 C.ar  1 <1>  -0.1440 
 18 C        2.3040     7.5660     1.8160 C.ar  1 <1>  -0.1500 
 19 C        2.9930     9.0360    -0.4070 C.ar  1 <1>  -0.1500 
 20 C        3.6640     7.0020    -1.7040 C.3   1 <1>  -0.0170 
 21 C        2.1810     8.9420     1.8400 C.ar  1 <1>  -0.1500 
 22 C        2.5240     9.6800     0.7240 C.ar  1 <1>  -0.1500 
 23 C        5.1590     6.7090    -1.5580 C.3   1 <1>  -0.2400 
 24 H       -1.0210     1.3320    -0.1670 H     1 <1>   0.0800 
 25 H        0.0060     1.5260     1.2120 H     1 <1>   0.0800 
 26 H       -0.1870    -2.2450     2.1640 H     1 <1>   0.0800 
 27 H        0.2840    -0.5700     2.3070 H     1 <1>   0.0800 
 28 H        1.4700    -1.7700     1.8390 H     1 <1>   0.0800 
 29 H       -0.3010    -3.3010     0.0510 H     1 <1>   0.0800 
 30 H        1.3000    -2.7850    -0.4550 H     1 <1>   0.0800 
 31 H       -0.1050    -2.3870    -1.4210 H     1 <1>   0.0800 
 32 H        0.6030     2.6630    -1.5250 H     1 <1>   0.0800 
 33 H       -1.2470     4.0330    -0.8030 H     1 <1>   0.0800 
 34 H        2.7010     2.8380    -0.5780 H     1 <1>   0.0800 
 35 H        2.0800     2.8340     1.0630 H     1 <1>   0.0800 
 36 H        0.0480     4.1450     1.6950 H     1 <1>   0.4000 
 37 H        0.2450     6.0540     0.1360 H     1 <1>   0.0800 
 38 H        0.6490     5.4090    -1.4510 H     1 <1>   0.0800 
 39 H        2.0450     6.9920     2.6880 H     1 <1>   0.1500 
 40 H        3.2670     9.6240    -1.2660 H     1 <1>   0.1500 
 41 H        3.1390     6.0870    -1.9170 H     1 <1>   0.0800 
 42 H        3.5150     7.6550    -2.5460 H     1 <1>   0.0800 
 43 H        1.8230     9.4380     2.7260 H     1 <1>   0.1500 
 44 H        2.4310    10.7520     0.7360 H     1 <1>   0.1500 
 45 H        5.3290     6.0240    -0.7450 H     1 <1>   0.0800 
 46 H        5.6980     7.6180    -1.3570 H     1 <1>   0.0800 
 47 H        5.5420     6.2700    -2.4620 H     1 <1>   0.0800 
@<TRIPOS>BOND
  1   1   2  2   
  2   1   3  2   
  3   1   4  am  
  4   1   5  1   
  5   4   6  1   
  6   4   7  1   
  7   5   8  1   
  8   5  24  1   
  9   5  25  1   
 10   6  26  1   
 11   6  27  1   
 12   6  28  1   
 13   7  29  1   
 14   7  30  1   
 15   7  31  1   
 16   8   9  1   
 17   8  10  1   
 18   8  32  1   
 19   9  11  1   
 20   9  12  1   
 21   9  33  1   
 22  10  13  1   
 23  10  34  1   
 24  10  35  1   
 25  11  36  1   
 26  12  13  1   
 27  12  37  1   
 28  12  38  1   
 29  13  14  am  
 30  14  15  2   
 31  14  16  1   
 32  16  17  ar  
 33  16  18  ar  
 34  17  19  ar  
 35  17  20  1   
 36  18  21  ar  
 37  18  39  1   
 38  19  22  ar  
 39  19  40  1   
 40  20  23  1   
 41  20  41  1   
 42  20  42  1   
 43  21  22  ar  
 44  21  43  1   
 45  22  44  1   
 46  23  45  1   
 47  23  46  1   
 48  23  47  1   
@<TRIPOS>SUBSTRUCTURE
  1 ****  13 GROUP 4 **** **** 0

# MOE 2024.06 (io_trps.svl 2023.06)
