@<TRIPOS>MOLECULE
NONAME
38 39 1 0 0 
SMALL
USER_CHARGES


@<TRIPOS>ATOM
  1 CL       1.0420    -0.5170     1.6460 Cl    1 <1>  -0.1770 
  2 C        2.1770     0.6270     0.9680 C.ar  1 <1>   0.1770 
  3 C        1.8900     1.9810     0.9820 C.ar  1 <1>   0.1600 
  4 C        3.3550     0.1670     0.4220 C.ar  1 <1>  -0.1500 
  5 N        2.6850     2.9270     0.4930 N.ar  1 <1>  -0.6200 
  6 C        4.1780     1.1440    -0.0840 C.ar  1 <1>   0.1900 
  7 C        3.8360     2.5100    -0.0430 C.ar  1 <1>   0.4100 
  8 F        5.3160     0.7590    -0.6140 F     1 <1>  -0.1900 
  9 N        4.6640     3.5020    -0.5660 N.pl3 1 <1>  -0.8380 
 10 C        4.6710     4.8560     0.0540 C.3   1 <1>   0.2090 
 11 C        4.9860     3.4540    -2.0190 C.3   1 <1>   0.1290 
 12 C        6.0930     5.4170     0.0800 C.3   1 <1>  -0.1600 
 13 C        6.1520     6.7460     0.8390 C.3   1 <1>   0.0210 
 14 C        7.5640     7.3040     0.8180 C.2   1 <1>  -0.1810 
 15 C        8.0980     8.1920    -0.1150 C.2   1 <1>   0.1080 
 16 C        8.5770     7.0610     1.6790 C.2   1 <1>  -0.3320 
 17 N        9.3340     8.4870     0.1360 N.2   1 <1>  -0.7070 
 18 C        7.3640     8.7770    -1.3010 C.3   1 <1>  -0.0590 
 19 N        9.6290     7.7870     1.2450 N.pl3 1 <1>   0.3000 
 20 C        8.6330     6.1690     2.9060 C.3   1 <1>  -0.0600 
 21 H        0.9590     2.3000     1.4170 H     1 <1>   0.1500 
 22 H        3.6100    -0.8760     0.3950 H     1 <1>   0.1500 
 23 H        4.3050     4.7890     1.0650 H     1 <1>   0.0800 
 24 H        4.0150     5.5080    -0.4980 H     1 <1>   0.0800 
 25 H        4.5660     2.5720    -2.4700 H     1 <1>   0.0800 
 26 H        6.0540     3.4330    -2.1510 H     1 <1>   0.0800 
 27 H        4.5830     4.3180    -2.5180 H     1 <1>   0.0800 
 28 H        6.4440     5.5730    -0.9240 H     1 <1>   0.0800 
 29 H        6.7430     4.7090     0.5630 H     1 <1>   0.0800 
 30 H        5.8450     6.5970     1.8590 H     1 <1>   0.0800 
 31 H        5.4780     7.4580     0.3960 H     1 <1>   0.0800 
 32 H        6.8420     8.0030    -1.8290 H     1 <1>   0.0800 
 33 H        8.0670     9.2400    -1.9690 H     1 <1>   0.0800 
 34 H        6.6650     9.5170    -0.9620 H     1 <1>   0.0800 
 35 H       10.5580     7.8250     1.6800 H     1 <1>   0.2700 
 36 H        7.7010     5.6510     3.0420 H     1 <1>   0.0800 
 37 H        8.8270     6.7580     3.7850 H     1 <1>   0.0800 
 38 H        9.4130     5.4360     2.7960 H     1 <1>   0.0800 
@<TRIPOS>BOND
  1   1   2  1   
  2   2   3  ar  
  3   2   4  ar  
  4   3   5  ar  
  5   3  21  1   
  6   4   6  ar  
  7   4  22  1   
  8   5   7  ar  
  9   6   7  ar  
 10   6   8  1   
 11   7   9  1   
 12   9  10  1   
 13   9  11  1   
 14  10  12  1   
 15  10  23  1   
 16  10  24  1   
 17  11  25  1   
 18  11  26  1   
 19  11  27  1   
 20  12  13  1   
 21  12  28  1   
 22  12  29  1   
 23  13  14  1   
 24  13  30  1   
 25  13  31  1   
 26  14  15  1   
 27  14  16  2   
 28  15  17  2   
 29  15  18  1   
 30  16  19  1   
 31  16  20  1   
 32  17  19  1   
 33  18  32  1   
 34  18  33  1   
 35  18  34  1   
 36  19  35  1   
 37  20  36  1   
 38  20  37  1   
 39  20  38  1   
@<TRIPOS>SUBSTRUCTURE
  1 ****  10 GROUP 4 **** **** 0

# MOE 2024.06 (io_trps.svl 2023.06)
