@<TRIPOS>MOLECULE
NONAME
47 48 1 0 0 
SMALL
USER_CHARGES


@<TRIPOS>ATOM
  1 F       -0.8360     3.6520    -2.4570 F     1 <1>  -0.1900 
  2 C       -0.3410     3.6110    -1.2450 C.ar  1 <1>   0.1900 
  3 C       -1.1430     3.2020    -0.1850 C.ar  1 <1>   0.0820 
  4 C        0.9790     3.9830    -1.0780 C.ar  1 <1>  -0.1500 
  5 O       -2.4340     2.8510    -0.4360 O.3   1 <1>  -0.3630 
  6 C       -0.5710     3.1740     1.0840 C.ar  1 <1>  -0.1500 
  7 C        1.5420     3.9530     0.1920 C.ar  1 <1>  -0.1430 
  8 C       -3.2990     2.4220     0.5900 C.3   1 <1>   0.1200 
  9 C        0.7540     3.5470     1.2640 C.ar  1 <1>  -0.1500 
 10 C        2.9940     4.3570     0.4200 C.3   1 <1>   0.4330 
 11 C       -4.6550     2.1110    -0.0370 C.3   1 <1>  -0.2400 
 12 N        3.1520     5.7460    -0.0250 N.pl3 1 <1>  -0.8690 
 13 C        3.9520     3.4700    -0.3690 C.3   1 <1>  -0.2400 
 14 C        4.0250     6.7150     0.2510 C.ar  1 <1>   0.7710 
 15 N        3.7670     7.8870    -0.2800 N.ar  1 <1>  -0.6200 
 16 N        5.0990     6.4840     1.0240 N.ar  1 <1>  -0.1790 
 17 C        4.6100     8.8760    -0.0480 C.ar  1 <1>   0.4100 
 18 C        5.9690     7.4800     1.3180 C.ar  1 <1>   0.2110 
 19 N        4.3300    10.0570    -0.6570 N.pl3 1 <1>  -0.8380 
 20 C        5.7410     8.7110     0.7940 C.ar  1 <1>  -0.1430 
 21 C        5.2880    10.7430    -1.5670 C.3   1 <1>   0.1290 
 22 C        2.9280    10.5560    -0.7740 C.3   1 <1>   0.1290 
 23 C        6.6650     9.8770     1.1450 C.3   1 <1>  -0.0970 
 24 H        1.5420     4.2860    -1.9430 H     1 <1>   0.1500 
 25 H       -1.1400     2.8670     1.9410 H     1 <1>   0.1500 
 26 H       -3.3880     3.2130     1.3150 H     1 <1>   0.0800 
 27 H       -2.8800     1.5400     1.0440 H     1 <1>   0.0800 
 28 H        1.1620     3.5150     2.2600 H     1 <1>   0.1500 
 29 H        3.2190     4.2840     1.4720 H     1 <1>   0.0800 
 30 H       -5.0560     2.9930    -0.5030 H     1 <1>   0.0800 
 31 H       -5.3410     1.7810     0.7210 H     1 <1>   0.0800 
 32 H       -4.5520     1.3330    -0.7710 H     1 <1>   0.0800 
 33 H        2.3680     6.0490    -0.6130 H     1 <1>   0.4000 
 34 H        3.7810     3.5690    -1.4260 H     1 <1>   0.0800 
 35 H        3.7880     2.4410    -0.1010 H     1 <1>   0.0800 
 36 H        4.9750     3.7130    -0.1550 H     1 <1>   0.0800 
 37 H        5.2160     5.5400     1.3690 H     1 <1>   0.4570 
 38 H        6.8060     7.2680     1.9640 H     1 <1>   0.1500 
 39 H        6.1700    10.1450    -1.7080 H     1 <1>   0.0800 
 40 H        5.5660    11.6970    -1.1530 H     1 <1>   0.0800 
 41 H        4.8320    10.9000    -2.5300 H     1 <1>   0.0800 
 42 H        2.3010    10.0870    -0.0350 H     1 <1>   0.0800 
 43 H        2.5400    10.3280    -1.7510 H     1 <1>   0.0800 
 44 H        2.9030    11.6200    -0.6190 H     1 <1>   0.0800 
 45 H        6.0810    10.7520     1.3740 H     1 <1>   0.0800 
 46 H        7.3150    10.1040     0.3200 H     1 <1>   0.0800 
 47 H        7.2740     9.6510     2.0010 H     1 <1>   0.0800 
@<TRIPOS>BOND
  1   1   2  1   
  2   2   3  ar  
  3   2   4  ar  
  4   3   5  1   
  5   3   6  ar  
  6   4   7  ar  
  7   4  24  1   
  8   5   8  1   
  9   6   9  ar  
 10   6  25  1   
 11   7   9  ar  
 12   7  10  1   
 13   8  11  1   
 14   8  26  1   
 15   8  27  1   
 16   9  28  1   
 17  10  12  1   
 18  10  13  1   
 19  10  29  1   
 20  11  30  1   
 21  11  31  1   
 22  11  32  1   
 23  12  14  1   
 24  12  33  1   
 25  13  34  1   
 26  13  35  1   
 27  13  36  1   
 28  14  15  ar  
 29  14  16  ar  
 30  15  17  ar  
 31  16  18  ar  
 32  16  37  1   
 33  17  19  1   
 34  17  20  ar  
 35  18  20  ar  
 36  18  38  1   
 37  19  21  1   
 38  19  22  1   
 39  20  23  1   
 40  21  39  1   
 41  21  40  1   
 42  21  41  1   
 43  22  42  1   
 44  22  43  1   
 45  22  44  1   
 46  23  45  1   
 47  23  46  1   
 48  23  47  1   
@<TRIPOS>SUBSTRUCTURE
  1 ****  12 GROUP 4 **** **** 0

# MOE 2024.06 (io_trps.svl 2023.06)
