@<TRIPOS>MOLECULE
NONAME
38 39 1 0 0 
SMALL
USER_CHARGES


@<TRIPOS>ATOM
  1 S       -0.0040    -0.0750     0.4980 S.3   1 <1>  -0.0800 
  2 C        1.2000     1.0380    -0.1490 C.2   1 <1>  -0.0450 
  3 C        0.6260    -1.4560    -0.3950 C.2   1 <1>  -0.0450 
  4 C        1.1670     2.4170     0.2660 C.2   1 <1>   0.7150 
  5 C        2.0090     0.3400    -0.9920 C.2   1 <1>  -0.1500 
  6 C        0.0150    -2.7480    -0.2710 C.2   1 <1>   0.5940 
  7 C        1.6900    -1.0340    -1.1260 C.2   1 <1>  -0.1500 
  8 O        0.3320     2.8190     1.0490 O.2   1 <1>  -0.5700 
  9 N        2.1060     3.2730    -0.2460 N.am  1 <1>  -0.4940 
 10 O        0.4200    -3.7130    -0.8680 O.2   1 <1>  -0.5700 
 11 C       -1.1860    -2.9450     0.6320 C.3   1 <1>  -0.1790 
 12 C        2.2980     4.6170    -0.0140 C.2   1 <1>   0.4420 
 13 S        3.6100     5.3650    -0.8650 S.3   1 <1>  -0.0800 
 14 N        1.6710     5.4480     0.7360 N.2   1 <1>  -0.3380 
 15 C        3.1780     6.8470    -0.0820 C.2   1 <1>   0.1980 
 16 N        2.1780     6.7180     0.6910 N.2   1 <1>  -0.3380 
 17 C        3.9910     8.0910    -0.3860 C.3   1 <1>   0.0200 
 18 C        5.3840     8.0290     0.2580 C.3   1 <1>  -0.1600 
 19 C        6.1910     9.3030    -0.0250 C.3   1 <1>  -0.1600 
 20 C        7.5780     9.2310     0.6230 C.3   1 <1>  -0.1600 
 21 C        8.3840    10.5030     0.3420 C.3   1 <1>  -0.2400 
 22 H        2.8390     0.7500    -1.5390 H     1 <1>   0.1500 
 23 H        2.2630    -1.6850    -1.7670 H     1 <1>   0.1500 
 24 H        2.7590     2.8510    -0.8940 H     1 <1>   0.3700 
 25 H       -1.9950    -2.3200     0.3050 H     1 <1>   0.0800 
 26 H       -0.9260    -2.6980     1.6440 H     1 <1>   0.0800 
 27 H       -1.5050    -3.9700     0.5970 H     1 <1>   0.0800 
 28 H        3.4590     8.9450    -0.0060 H     1 <1>   0.0800 
 29 H        4.0800     8.2010    -1.4520 H     1 <1>   0.0800 
 30 H        5.9180     7.1760    -0.1220 H     1 <1>   0.0800 
 31 H        5.2710     7.9040     1.3230 H     1 <1>   0.0800 
 32 H        5.6620    10.1580     0.3620 H     1 <1>   0.0800 
 33 H        6.3020     9.4310    -1.0890 H     1 <1>   0.0800 
 34 H        8.1160     8.3810     0.2400 H     1 <1>   0.0800 
 35 H        7.4750     9.1080     1.6880 H     1 <1>   0.0800 
 36 H        8.5200    10.6360    -0.7170 H     1 <1>   0.0800 
 37 H        9.3520    10.4340     0.8040 H     1 <1>   0.0800 
 38 H        7.8770    11.3650     0.7370 H     1 <1>   0.0800 
@<TRIPOS>BOND
  1   1   2  1   
  2   1   3  1   
  3   2   4  1   
  4   2   5  2   
  5   3   6  1   
  6   3   7  2   
  7   4   8  2   
  8   4   9  am  
  9   5   7  1   
 10   5  22  1   
 11   6  10  2   
 12   6  11  1   
 13   7  23  1   
 14   9  12  1   
 15   9  24  1   
 16  11  25  1   
 17  11  26  1   
 18  11  27  1   
 19  12  13  1   
 20  12  14  2   
 21  13  15  1   
 22  14  16  1   
 23  15  16  2   
 24  15  17  1   
 25  17  18  1   
 26  17  28  1   
 27  17  29  1   
 28  18  19  1   
 29  18  30  1   
 30  18  31  1   
 31  19  20  1   
 32  19  32  1   
 33  19  33  1   
 34  20  21  1   
 35  20  34  1   
 36  20  35  1   
 37  21  36  1   
 38  21  37  1   
 39  21  38  1   
@<TRIPOS>SUBSTRUCTURE
  1 ****   9 GROUP 4 **** **** 0

# MOE 2024.06 (io_trps.svl 2023.06)
