@<TRIPOS>MOLECULE
NONAME
44 46 1 0 0 
SMALL
USER_CHARGES


@<TRIPOS>ATOM
  1 S       -0.3790     0.1490     1.2290 S.o2  1 <1>   1.5000 
  2 O       -0.2110    -1.2160     1.6880 O.2   1 <1>  -0.6500 
  3 O       -0.8800     1.1410     2.1520 O.2   1 <1>  -0.6500 
  4 N       -1.4700     0.0590    -0.0780 N.am  1 <1>  -0.8490 
  5 C        1.1350     0.7560     0.4490 C.2   1 <1>  -0.0220 
  6 C       -1.5230    -1.2530    -0.7420 C.3   1 <1>   0.1960 
  7 C       -2.8070     0.6190     0.1690 C.3   1 <1>   0.1960 
  8 S        2.1520    -0.4070    -0.4030 S.3   1 <1>  -0.0800 
  9 C        1.6800     1.9860     0.3410 C.2   1 <1>  -0.1500 
 10 C       -2.3830    -2.2850     0.0480 C.3   1 <1>   0.4230 
 11 C       -3.6580    -0.3520     1.0010 C.3   1 <1>  -0.1600 
 12 C        3.2970     0.8380    -0.8670 C.2   1 <1>  -0.1100 
 13 C        2.9040     2.0350    -0.3990 C.2   1 <1>  -0.1500 
 14 N       -2.3520    -3.6970    -0.5220 N.4   1 <1>  -0.9590 
 15 C       -3.8130    -1.7500     0.3390 C.3   1 <1>   0.0000 
 16 C       -3.4590    -4.5780    -0.0240 C.3   1 <1>   0.3430 
 17 C       -2.2460    -3.7990    -2.0140 C.3   1 <1>   0.2630 
 18 C       -4.5230    -2.7070     1.3410 C.3   1 <1>  -0.1600 
 19 C       -4.6280    -1.6450    -0.9820 C.3   1 <1>   0.1200 
 20 C       -3.9380    -4.1330     1.3580 C.3   1 <1>  -0.1600 
 21 O       -5.8140    -0.9550    -0.7970 O.3   1 <1>  -0.6800 
 22 H       -1.9300    -1.1080    -1.7260 H     1 <1>   0.0800 
 23 H       -0.5210    -1.6310    -0.8540 H     1 <1>   0.0800 
 24 H       -2.7310     1.5700     0.6720 H     1 <1>   0.0800 
 25 H       -3.2930     0.8090    -0.7740 H     1 <1>   0.0800 
 26 H        1.2580     2.8830     0.7640 H     1 <1>   0.1500 
 27 H       -1.9250    -2.3610     1.0190 H     1 <1>   0.0800 
 28 H       -3.2010    -0.4470     1.9720 H     1 <1>   0.0800 
 29 H       -4.6220     0.0960     1.1670 H     1 <1>   0.0800 
 30 H        4.1530     0.5380    -1.4460 H     1 <1>   0.1500 
 31 H        3.4280     2.9650    -0.5420 H     1 <1>   0.1500 
 32 H       -1.4840    -4.1010    -0.1320 H     1 <1>   0.4500 
 33 H       -4.2940    -4.5340    -0.7040 H     1 <1>   0.0800 
 34 H       -3.1220    -5.6020     0.0200 H     1 <1>   0.0800 
 35 H       -3.1080    -3.3570    -2.4860 H     1 <1>   0.0800 
 36 H       -2.1850    -4.8330    -2.3140 H     1 <1>   0.0800 
 37 H       -1.3610    -3.2940    -2.3670 H     1 <1>   0.0800 
 38 H       -4.4530    -2.3220     2.3460 H     1 <1>   0.0800 
 39 H       -5.5740    -2.7620     1.1170 H     1 <1>   0.0800 
 40 H       -4.8790    -2.6150    -1.3710 H     1 <1>   0.0800 
 41 H       -4.0840    -1.1090    -1.7390 H     1 <1>   0.0800 
 42 H       -4.6900    -4.8180     1.7110 H     1 <1>   0.0800 
 43 H       -3.1140    -4.1870     2.0490 H     1 <1>   0.0800 
 44 H       -6.4110    -1.4040    -0.1660 H     1 <1>   0.4000 
@<TRIPOS>BOND
  1   1   2  2   
  2   1   3  2   
  3   1   4  am  
  4   1   5  1   
  5   4   6  1   
  6   4   7  1   
  7   5   8  1   
  8   5   9  2   
  9   6  10  1   
 10   6  22  1   
 11   6  23  1   
 12   7  11  1   
 13   7  24  1   
 14   7  25  1   
 15   8  12  1   
 16   9  13  1   
 17   9  26  1   
 18  10  14  1   
 19  10  15  1   
 20  10  27  1   
 21  11  15  1   
 22  11  28  1   
 23  11  29  1   
 24  12  13  2   
 25  12  30  1   
 26  13  31  1   
 27  14  16  1   
 28  14  17  1   
 29  14  32  1   
 30  15  18  1   
 31  15  19  1   
 32  16  20  1   
 33  16  33  1   
 34  16  34  1   
 35  17  35  1   
 36  17  36  1   
 37  17  37  1   
 38  18  20  1   
 39  18  38  1   
 40  18  39  1   
 41  19  21  1   
 42  19  40  1   
 43  19  41  1   
 44  20  42  1   
 45  20  43  1   
 46  21  44  1   
@<TRIPOS>SUBSTRUCTURE
  1 ****   6 GROUP 4 **** **** 0

# MOE 2024.06 (io_trps.svl 2023.06)
