@<TRIPOS>MOLECULE
NONAME
46 49 1 0 0 
SMALL
USER_CHARGES


@<TRIPOS>ATOM
  1 O        1.9990    -0.4300     2.3440 O.2   1 <1>  -0.5700 
  2 C        2.0960    -0.8160     1.1950 C.2   1 <1>   0.6160 
  3 N        2.5140     0.0790     0.2240 N.am  1 <1>  -0.6600 
  4 C        1.8180    -2.2000     0.8970 C.2   1 <1>  -0.0140 
  5 C        2.8980     1.4700     0.6370 C.3   1 <1>   0.1400 
  6 C        2.9340    -0.3800    -1.1390 C.3   1 <1>   0.1400 
  7 C        0.6140    -2.5660     0.1850 C.ar  1 <1>   0.0280 
  8 C        2.6910    -3.1810     1.2630 C.2   1 <1>  -0.1360 
  9 C        4.4260     1.6650     0.8390 C.3   1 <1>   0.4230 
 10 C        4.4150    -0.0980    -1.4810 C.3   1 <1>  -0.0800 
 11 C        0.4090    -3.9190    -0.1420 C.ar  1 <1>   0.1170 
 12 C       -0.3670    -1.6450    -0.1990 C.ar  1 <1>  -0.1500 
 13 C        2.4740    -4.5450     0.9440 C.2   1 <1>   0.6160 
 14 N        5.1480     2.0830    -0.4190 N.4   1 <1>  -0.9590 
 15 C        5.1570     0.4580     1.4900 C.3   1 <1>   0.1200 
 16 C        5.4560    -0.8020    -0.5800 C.3   1 <1>   0.1200 
 17 C        4.6760     1.4000    -1.6600 C.3   1 <1>   0.3430 
 18 N        1.3530    -4.8610     0.2460 N.am  1 <1>  -0.5470 
 19 C       -0.7280    -4.3080    -0.8440 C.ar  1 <1>  -0.1500 
 20 C       -1.4910    -2.0410    -0.8920 C.ar  1 <1>  -0.1500 
 21 O        3.2460    -5.4360     1.2440 O.2   1 <1>  -0.5700 
 22 C        5.1310     3.5690    -0.5970 C.3   1 <1>   0.2630 
 23 O        5.1220    -0.7510     0.7710 O.3   1 <1>  -0.5600 
 24 C       -1.6720    -3.3770    -1.2200 C.ar  1 <1>  -0.1500 
 25 H        2.5210     2.1750    -0.0810 H     1 <1>   0.0800 
 26 H        2.4140     1.7100     1.5670 H     1 <1>   0.0800 
 27 H        2.7700    -1.4380    -1.2420 H     1 <1>   0.0800 
 28 H        2.2990     0.0990    -1.8650 H     1 <1>   0.0800 
 29 H        3.5920    -2.9610     1.8050 H     1 <1>   0.1500 
 30 H        4.5270     2.4760     1.5410 H     1 <1>   0.0800 
 31 H        4.5540    -0.5160    -2.4620 H     1 <1>   0.0800 
 32 H       -0.2570    -0.6050     0.0530 H     1 <1>   0.1500 
 33 H        6.1250     1.7890    -0.2770 H     1 <1>   0.4500 
 34 H        4.6970     0.2530     2.4420 H     1 <1>   0.0800 
 35 H        6.1870     0.7020     1.6760 H     1 <1>   0.0800 
 36 H        6.4470    -0.4050    -0.7120 H     1 <1>   0.0800 
 37 H        5.4860    -1.8480    -0.8370 H     1 <1>   0.0800 
 38 H        3.7690     1.8660    -2.0100 H     1 <1>   0.0800 
 39 H        5.4210     1.5290    -2.4280 H     1 <1>   0.0800 
 40 H        1.2290    -5.8530     0.0500 H     1 <1>   0.3700 
 41 H       -0.8710    -5.3440    -1.0920 H     1 <1>   0.1500 
 42 H       -2.2350    -1.3180    -1.1800 H     1 <1>   0.1500 
 43 H        4.1220     3.9200    -0.7420 H     1 <1>   0.0800 
 44 H        5.7190     3.8500    -1.4570 H     1 <1>   0.0800 
 45 H        5.5440     4.0570     0.2710 H     1 <1>   0.0800 
 46 H       -2.5520    -3.6810    -1.7610 H     1 <1>   0.1500 
@<TRIPOS>BOND
  1   1   2  2   
  2   2   3  am  
  3   2   4  1   
  4   3   5  1   
  5   3   6  1   
  6   4   7  1   
  7   4   8  2   
  8   5   9  1   
  9   5  25  1   
 10   5  26  1   
 11   6  10  1   
 12   6  27  1   
 13   6  28  1   
 14   7  11  ar  
 15   7  12  ar  
 16   8  13  1   
 17   8  29  1   
 18   9  14  1   
 19   9  15  1   
 20   9  30  1   
 21  10  16  1   
 22  10  17  1   
 23  10  31  1   
 24  11  18  1   
 25  11  19  ar  
 26  12  20  ar  
 27  12  32  1   
 28  13  18  am  
 29  13  21  2   
 30  14  17  1   
 31  14  22  1   
 32  14  33  1   
 33  15  23  1   
 34  15  34  1   
 35  15  35  1   
 36  16  23  1   
 37  16  36  1   
 38  16  37  1   
 39  17  38  1   
 40  17  39  1   
 41  18  40  1   
 42  19  24  ar  
 43  19  41  1   
 44  20  24  ar  
 45  20  42  1   
 46  22  43  1   
 47  22  44  1   
 48  22  45  1   
 49  24  46  1   
@<TRIPOS>SUBSTRUCTURE
  1 ****   2 GROUP 4 **** **** 0

# MOE 2024.06 (io_trps.svl 2023.06)
