@<TRIPOS>MOLECULE
NONAME
56 58 1 0 0 
SMALL
USER_CHARGES


@<TRIPOS>ATOM
  1 O       -0.5700    -1.0410     0.3920 O.3   1 <1>  -0.3630 
  2 C       -1.7610    -1.0980    -0.2540 C.ar  1 <1>   0.0830 
  3 C       -0.0470     0.1890     0.8540 C.3   1 <1>   0.1200 
  4 C       -2.1290    -2.3310    -0.7680 C.ar  1 <1>  -0.1500 
  5 C       -2.6060    -0.0060    -0.4220 C.ar  1 <1>  -0.1500 
  6 C        1.3210    -0.0690     1.4850 C.3   1 <1>   0.1200 
  7 C       -3.3300    -2.4890    -1.4420 C.ar  1 <1>  -0.1440 
  8 C       -3.8000    -0.1560    -1.1030 C.ar  1 <1>  -0.1500 
  9 O        1.8760     1.1380     1.8890 O.3   1 <1>  -0.6800 
 10 C       -4.1620    -1.3910    -1.6140 C.ar  1 <1>  -0.1500 
 11 C       -3.7310    -3.8460    -1.9840 C.3   1 <1>   0.4860 
 12 N       -4.1550    -4.7050    -0.8380 N.4   1 <1>  -0.9590 
 13 C       -4.3220    -6.1440    -1.2620 C.3   1 <1>   0.3430 
 14 C       -5.3990    -4.1530    -0.2170 C.3   1 <1>   0.3430 
 15 C       -4.8380    -7.0850    -0.1240 C.3   1 <1>   0.4230 
 16 C       -5.8200    -5.0250     0.9690 C.3   1 <1>  -0.1600 
 17 N       -4.9800    -8.5610    -0.5000 N.4   1 <1>  -0.9590 
 18 C       -6.0900    -6.5100     0.6020 C.3   1 <1>   0.0000 
 19 C       -5.7920    -9.3620     0.4810 C.3   1 <1>   0.3430 
 20 C       -5.5090    -8.8180    -1.8840 C.3   1 <1>   0.2630 
 21 C       -6.3000    -7.3050     1.9220 C.3   1 <1>  -0.1600 
 22 C       -7.4000    -6.6030    -0.2340 C.3   1 <1>   0.1200 
 23 C       -5.7400    -8.7430     1.8790 C.3   1 <1>  -0.1600 
 24 O       -7.2190    -6.1380    -1.5290 O.3   1 <1>  -0.6800 
 25 H        0.0440     0.8520     0.0130 H     1 <1>   0.0800 
 26 H       -0.7220     0.5910     1.5890 H     1 <1>   0.0800 
 27 H       -1.4460    -3.1510    -0.6300 H     1 <1>   0.1500 
 28 H       -2.3530     0.9640    -0.0350 H     1 <1>   0.1500 
 29 H        1.9920    -0.5310     0.7810 H     1 <1>   0.0800 
 30 H        1.2180    -0.6910     2.3570 H     1 <1>   0.0800 
 31 H       -4.4480     0.6940    -1.2370 H     1 <1>   0.1500 
 32 H        2.1750     1.6640     1.1220 H     1 <1>   0.4000 
 33 H       -5.0950    -1.4740    -2.1470 H     1 <1>   0.1500 
 34 H       -2.8850    -4.2840    -2.4890 H     1 <1>   0.0800 
 35 H       -4.5360    -3.7380    -2.6930 H     1 <1>   0.0800 
 36 H       -3.4040    -4.6050    -0.1390 H     1 <1>   0.4500 
 37 H       -5.0200    -6.1800    -2.0800 H     1 <1>   0.0800 
 38 H       -3.3750    -6.5180    -1.6150 H     1 <1>   0.0800 
 39 H       -5.2220    -3.1450     0.1280 H     1 <1>   0.0800 
 40 H       -6.1930    -4.1190    -0.9460 H     1 <1>   0.0800 
 41 H       -4.0610    -7.0550     0.6220 H     1 <1>   0.0800 
 42 H       -5.0480    -4.9540     1.7170 H     1 <1>   0.0800 
 43 H       -6.7070    -4.5960     1.4050 H     1 <1>   0.0800 
 44 H       -4.0340    -8.9710    -0.4600 H     1 <1>   0.4500 
 45 H       -6.8220    -9.3960     0.1630 H     1 <1>   0.0800 
 46 H       -5.4280   -10.3770     0.5180 H     1 <1>   0.0800 
 47 H       -6.5010    -8.4120    -1.9930 H     1 <1>   0.0800 
 48 H       -5.5550    -9.8790    -2.0750 H     1 <1>   0.0800 
 49 H       -4.8700    -8.3720    -2.6280 H     1 <1>   0.0800 
 50 H       -5.8280    -6.8080     2.7530 H     1 <1>   0.0800 
 51 H       -7.3510    -7.3420     2.1620 H     1 <1>   0.0800 
 52 H       -8.1790    -6.0140     0.2240 H     1 <1>   0.0800 
 53 H       -7.7540    -7.6170    -0.3010 H     1 <1>   0.0800 
 54 H       -6.3070    -9.3600     2.5570 H     1 <1>   0.0800 
 55 H       -4.7220    -8.7560     2.2290 H     1 <1>   0.0800 
 56 H       -8.0910    -6.0520    -1.9830 H     1 <1>   0.4000 
@<TRIPOS>BOND
  1   1   2  1   
  2   1   3  1   
  3   2   4  ar  
  4   2   5  ar  
  5   3   6  1   
  6   3  25  1   
  7   3  26  1   
  8   4   7  ar  
  9   4  27  1   
 10   5   8  ar  
 11   5  28  1   
 12   6   9  1   
 13   6  29  1   
 14   6  30  1   
 15   7  10  ar  
 16   7  11  1   
 17   8  10  ar  
 18   8  31  1   
 19   9  32  1   
 20  10  33  1   
 21  11  12  1   
 22  11  34  1   
 23  11  35  1   
 24  12  13  1   
 25  12  14  1   
 26  12  36  1   
 27  13  15  1   
 28  13  37  1   
 29  13  38  1   
 30  14  16  1   
 31  14  39  1   
 32  14  40  1   
 33  15  17  1   
 34  15  18  1   
 35  15  41  1   
 36  16  18  1   
 37  16  42  1   
 38  16  43  1   
 39  17  19  1   
 40  17  20  1   
 41  17  44  1   
 42  18  21  1   
 43  18  22  1   
 44  19  23  1   
 45  19  45  1   
 46  19  46  1   
 47  20  47  1   
 48  20  48  1   
 49  20  49  1   
 50  21  23  1   
 51  21  50  1   
 52  21  51  1   
 53  22  24  1   
 54  22  52  1   
 55  22  53  1   
 56  23  54  1   
 57  23  55  1   
 58  24  56  1   
@<TRIPOS>SUBSTRUCTURE
  1 ****  12 GROUP 4 **** **** 0

# MOE 2024.06 (io_trps.svl 2023.06)
