@<TRIPOS>MOLECULE
NONAME
57 60 1 0 0 
SMALL
USER_CHARGES


@<TRIPOS>ATOM
  1 O       -0.0830     3.7740     0.9100 O.2   1 <1>  -0.5700 
  2 C       -0.4120     2.7220     0.3950 C.2   1 <1>   0.6900 
  3 N       -1.7350     2.4360     0.1730 N.am  1 <1>  -0.6600 
  4 N        0.5220     1.7930     0.0450 N.am  1 <1>  -0.5470 
  5 C       -2.8090     3.3120     0.7340 C.3   1 <1>   0.1400 
  6 C       -2.1950     1.4410    -0.8430 C.3   1 <1>   0.1400 
  7 C        1.9190     1.8710     0.1310 C.ar  1 <1>   0.1170 
  8 C       -3.4810     4.1530    -0.3760 C.3   1 <1>   0.1430 
  9 C       -3.5330     1.8500    -1.4860 C.3   1 <1>  -0.1600 
 10 C        2.5980     1.0050     0.9920 C.ar  1 <1>  -0.1430 
 11 C        2.6480     2.7740    -0.6480 C.ar  1 <1>  -0.1430 
 12 C       -4.8310     4.6040     0.1550 C.ar  1 <1>   0.1670 
 13 C       -3.5980     3.3690    -1.7110 C.3   1 <1>  -0.1600 
 14 C       -2.7510     5.5050    -0.5850 C.3   1 <1>  -0.1600 
 15 C        3.9800     1.0480     1.0670 C.ar  1 <1>  -0.1500 
 16 C        1.8440     0.0140     1.8710 C.3   1 <1>  -0.0970 
 17 C        4.0290     2.8050    -0.5550 C.ar  1 <1>  -0.1500 
 18 C        1.9630     3.7360    -1.6120 C.3   1 <1>  -0.0970 
 19 N       -5.8980     3.8510     0.2630 N.ar  1 <1>  -0.6200 
 20 C       -4.8070     5.9120     0.5350 C.ar  1 <1>  -0.1430 
 21 C       -3.4510     6.5340     0.3170 C.3   1 <1>  -0.0170 
 22 C        4.6960     1.9450     0.2970 C.ar  1 <1>  -0.1500 
 23 C       -6.9780     4.4580     0.7620 C.ar  1 <1>   0.7200 
 24 C       -5.9620     6.4510     1.0410 C.ar  1 <1>   0.1600 
 25 N       -7.0540     5.7330     1.1580 N.ar  1 <1>  -0.6200 
 26 N       -8.1230     3.6940     0.8820 N.pl3 1 <1>  -0.8380 
 27 C       -9.4570     4.3050     1.1380 C.3   1 <1>   0.1290 
 28 C       -8.1030     2.2120     0.7490 C.3   1 <1>   0.1290 
 29 H        0.1430     0.8570    -0.0210 H     1 <1>   0.3700 
 30 H       -2.4210     3.9550     1.5040 H     1 <1>   0.0800 
 31 H       -3.5480     2.6790     1.1940 H     1 <1>   0.0800 
 32 H       -2.2980     0.4750    -0.3790 H     1 <1>   0.0800 
 33 H       -1.4530     1.3690    -1.6210 H     1 <1>   0.0800 
 34 H       -4.3460     1.5470    -0.8490 H     1 <1>   0.0800 
 35 H       -3.6500     1.3340    -2.4220 H     1 <1>   0.0800 
 36 H       -2.7820     3.6380    -2.3590 H     1 <1>   0.0800 
 37 H       -4.5140     3.6310    -2.2120 H     1 <1>   0.0800 
 38 H       -2.8740     5.8260    -1.6050 H     1 <1>   0.0800 
 39 H       -1.6970     5.4380    -0.3760 H     1 <1>   0.0800 
 40 H        4.5120     0.3870     1.7280 H     1 <1>   0.1500 
 41 H        1.1110     0.5340     2.4620 H     1 <1>   0.0800 
 42 H        2.5140    -0.4950     2.5400 H     1 <1>   0.0800 
 43 H        1.3500    -0.7200     1.2610 H     1 <1>   0.0800 
 44 H        4.5970     3.5010    -1.1470 H     1 <1>   0.1500 
 45 H        1.1950     3.2290    -2.1660 H     1 <1>   0.0800 
 46 H        2.6670     4.1470    -2.3120 H     1 <1>   0.0800 
 47 H        1.5190     4.5450    -1.0600 H     1 <1>   0.0800 
 48 H       -3.5210     7.4970    -0.1590 H     1 <1>   0.0800 
 49 H       -2.9360     6.6240     1.2590 H     1 <1>   0.0800 
 50 H        5.7690     1.9760     0.3620 H     1 <1>   0.1500 
 51 H       -5.9910     7.4790     1.3550 H     1 <1>   0.1500 
 52 H       -9.5010     5.3000     0.7280 H     1 <1>   0.0800 
 53 H       -9.6310     4.3560     2.1980 H     1 <1>   0.0800 
 54 H      -10.2290     3.7160     0.6770 H     1 <1>   0.0800 
 55 H       -7.1590     1.8160     1.0840 H     1 <1>   0.0800 
 56 H       -8.2500     1.9420    -0.2820 H     1 <1>   0.0800 
 57 H       -8.8830     1.7750     1.3480 H     1 <1>   0.0800 
@<TRIPOS>BOND
  1   1   2  2   
  2   2   3  am  
  3   2   4  am  
  4   3   5  1   
  5   3   6  1   
  6   4   7  1   
  7   4  29  1   
  8   5   8  1   
  9   5  30  1   
 10   5  31  1   
 11   6   9  1   
 12   6  32  1   
 13   6  33  1   
 14   7  10  ar  
 15   7  11  ar  
 16   8  12  1   
 17   8  13  1   
 18   8  14  1   
 19   9  13  1   
 20   9  34  1   
 21   9  35  1   
 22  10  15  ar  
 23  10  16  1   
 24  11  17  ar  
 25  11  18  1   
 26  12  19  ar  
 27  12  20  ar  
 28  13  36  1   
 29  13  37  1   
 30  14  21  1   
 31  14  38  1   
 32  14  39  1   
 33  15  22  ar  
 34  15  40  1   
 35  16  41  1   
 36  16  42  1   
 37  16  43  1   
 38  17  22  ar  
 39  17  44  1   
 40  18  45  1   
 41  18  46  1   
 42  18  47  1   
 43  19  23  ar  
 44  20  21  1   
 45  20  24  ar  
 46  21  48  1   
 47  21  49  1   
 48  22  50  1   
 49  23  25  ar  
 50  23  26  1   
 51  24  25  ar  
 52  24  51  1   
 53  26  27  1   
 54  26  28  1   
 55  27  52  1   
 56  27  53  1   
 57  27  54  1   
 58  28  55  1   
 59  28  56  1   
 60  28  57  1   
@<TRIPOS>SUBSTRUCTURE
  1 ****   5 GROUP 4 **** **** 0

# MOE 2024.06 (io_trps.svl 2023.06)
