@<TRIPOS>MOLECULE
NONAME
39 40 1 0 0 
SMALL
USER_CHARGES


@<TRIPOS>ATOM
  1 O       -0.0270    -0.0760     0.9170 O.3   1 <1>  -0.5600 
  2 C        0.4260     0.5060    -0.2580 C.3   1 <1>   0.1200 
  3 C       -1.4020     0.1480     1.0380 C.3   1 <1>   0.1200 
  4 C       -0.3230     1.8340    -0.2900 C.3   1 <1>   0.4230 
  5 C       -1.7070     1.3890     0.1770 C.3   1 <1>  -0.0800 
  6 N        0.2540     2.7280     0.7440 N.4   1 <1>  -0.9060 
  7 C       -2.6300     1.0560    -1.0120 C.3   1 <1>  -0.0170 
  8 C        1.5250     3.4040     0.3600 C.3   1 <1>   0.4230 
  9 C       -3.9940     0.5820    -0.5360 C.ar  1 <1>  -0.1440 
 10 C        2.3330     3.7680     1.6200 C.3   1 <1>   0.1200 
 11 C        1.1740     4.6750    -0.4500 C.3   1 <1>   0.1200 
 12 C       -4.9340     1.4560    -0.0250 C.ar  1 <1>  -0.1500 
 13 C       -4.3680    -0.7470    -0.5920 C.ar  1 <1>  -0.1500 
 14 O        3.5760     4.2470     1.2310 O.3   1 <1>  -0.6800 
 15 O        0.0020     5.2550     0.0580 O.3   1 <1>  -0.6800 
 16 C       -6.1600     0.9720     0.4010 C.ar  1 <1>   0.1600 
 17 C       -5.6200    -1.1270    -0.1380 C.ar  1 <1>   0.1600 
 18 N       -6.5220    -0.2990     0.3610 N.ar  1 <1>  -0.6200 
 19 H        1.4970     0.6080    -0.2230 H     1 <1>   0.0800 
 20 H        0.1470    -0.1300    -1.0810 H     1 <1>   0.0800 
 21 H       -1.9160    -0.7330     0.6940 H     1 <1>   0.0800 
 22 H       -1.6310     0.3090     2.0780 H     1 <1>   0.0800 
 23 H       -0.3340     2.3010    -1.2610 H     1 <1>   0.0800 
 24 H       -2.1880     2.1470     0.7710 H     1 <1>   0.0800 
 25 H        0.3670     2.1640     1.5970 H     1 <1>   0.4500 
 26 H       -0.3970     3.5110     0.9270 H     1 <1>   0.4500 
 27 H       -2.1880     0.2970    -1.6350 H     1 <1>   0.0800 
 28 H       -2.7690     1.9330    -1.6220 H     1 <1>   0.0800 
 29 H        2.1350     2.7450    -0.2340 H     1 <1>   0.0800 
 30 H        2.4970     2.8990     2.2340 H     1 <1>   0.0800 
 31 H        1.8380     4.5380     2.1890 H     1 <1>   0.0800 
 32 H        1.0060     4.4280    -1.4840 H     1 <1>   0.0800 
 33 H        1.9710     5.3990    -0.3990 H     1 <1>   0.0800 
 34 H       -4.7330     2.5090     0.0450 H     1 <1>   0.1500 
 35 H       -3.7050    -1.4970    -0.9840 H     1 <1>   0.1500 
 36 H        4.1290     4.4910     2.0050 H     1 <1>   0.4000 
 37 H       -0.1330     6.1530    -0.3240 H     1 <1>   0.4000 
 38 H       -6.8820     1.6670     0.7970 H     1 <1>   0.1500 
 39 H       -5.8950    -2.1670    -0.1880 H     1 <1>   0.1500 
@<TRIPOS>BOND
  1   1   2  1   
  2   1   3  1   
  3   2   4  1   
  4   2  19  1   
  5   2  20  1   
  6   3   5  1   
  7   3  21  1   
  8   3  22  1   
  9   4   5  1   
 10   4   6  1   
 11   4  23  1   
 12   5   7  1   
 13   5  24  1   
 14   6   8  1   
 15   6  25  1   
 16   6  26  1   
 17   7   9  1   
 18   7  27  1   
 19   7  28  1   
 20   8  10  1   
 21   8  11  1   
 22   8  29  1   
 23   9  12  ar  
 24   9  13  ar  
 25  10  14  1   
 26  10  30  1   
 27  10  31  1   
 28  11  15  1   
 29  11  32  1   
 30  11  33  1   
 31  12  16  ar  
 32  12  34  1   
 33  13  17  ar  
 34  13  35  1   
 35  14  36  1   
 36  15  37  1   
 37  16  18  ar  
 38  16  38  1   
 39  17  18  ar  
 40  17  39  1   
@<TRIPOS>SUBSTRUCTURE
  1 ****   5 GROUP 4 **** **** 0

# MOE 2024.06 (io_trps.svl 2023.06)
