@<TRIPOS>MOLECULE
NONAME
49 52 1 0 0 
SMALL
USER_CHARGES


@<TRIPOS>ATOM
  1 O       -0.5280    -0.1090     0.1230 O.2   1 <1>  -0.5700 
  2 C       -1.5720     0.4810    -0.0170 C.2   1 <1>   0.5690 
  3 N       -2.7260    -0.1760    -0.3330 N.am  1 <1>  -0.6600 
  4 C       -1.5720     1.9890     0.1460 C.3   1 <1>  -0.0990 
  5 C       -4.0390     0.4360    -0.6600 C.3   1 <1>   0.1400 
  6 C       -2.7770    -1.6480    -0.4970 C.3   1 <1>   0.1400 
  7 C       -0.4340     2.4570     1.0640 C.3   1 <1>   0.0960 
  8 C       -4.8790    -0.7120    -1.2200 C.3   1 <1>   0.2000 
  9 C       -4.2600    -1.9880    -0.6560 C.3   1 <1>  -0.0800 
 10 N       -0.4350     3.9270     1.1730 N.pl3 1 <1>   0.3140 
 11 O       -6.2040    -0.6110    -0.8270 O.3   1 <1>  -0.6800 
 12 C       -4.5160    -3.2190    -1.5410 C.3   1 <1>  -0.0160 
 13 N       -1.3330     4.5840     1.8740 N.2   1 <1>  -0.4180 
 14 C        0.3680     4.8190     0.6160 C.2   1 <1>   0.0060 
 15 C       -3.9160    -4.4770    -0.9220 C.ar  1 <1>  -0.1440 
 16 N       -1.0600     5.8310     1.7340 N.2   1 <1>   0.0000 
 17 N        0.0000     5.9950     0.9490 N.2   1 <1>  -0.3380 
 18 C        1.5490     4.5110    -0.2870 C.3   1 <1>  -0.0600 
 19 C       -4.5410    -5.1680     0.1440 C.ar  1 <1>   0.0000 
 20 C       -2.7330    -4.9730    -1.3860 C.ar  1 <1>  -0.1500 
 21 C       -3.8840    -6.3110     0.6610 C.ar  1 <1>   0.3100 
 22 C       -5.7760    -4.7950     0.7250 C.ar  1 <1>  -0.1500 
 23 C       -2.1720    -6.1180    -0.8070 C.ar  1 <1>   0.1600 
 24 N       -2.7040    -6.7730     0.1750 N.ar  1 <1>  -0.6200 
 25 C       -4.4730    -7.0090     1.7280 C.ar  1 <1>  -0.1500 
 26 C       -6.3240    -5.4990     1.7630 C.ar  1 <1>  -0.1500 
 27 C       -5.6650    -6.6190     2.2740 C.ar  1 <1>  -0.1500 
 28 H       -1.4610     2.4310    -0.8270 H     1 <1>   0.0800 
 29 H       -2.5070     2.3030     0.5700 H     1 <1>   0.0800 
 30 H       -4.4810     0.8300     0.2390 H     1 <1>   0.0800 
 31 H       -3.9240     1.2150    -1.3940 H     1 <1>   0.0800 
 32 H       -2.2200    -1.9180    -1.3780 H     1 <1>   0.0800 
 33 H       -2.3470    -2.1450     0.3580 H     1 <1>   0.0800 
 34 H        0.5160     2.1340     0.6790 H     1 <1>   0.0800 
 35 H       -0.5610     2.0410     2.0470 H     1 <1>   0.0800 
 36 H       -4.8420    -0.6990    -2.2960 H     1 <1>   0.0800 
 37 H       -4.6470    -2.1640     0.3320 H     1 <1>   0.0800 
 38 H       -6.2780    -0.6550     0.1460 H     1 <1>   0.4000 
 39 H       -4.0850    -3.0550    -2.5140 H     1 <1>   0.0800 
 40 H       -5.5730    -3.3540    -1.6920 H     1 <1>   0.0800 
 41 H        2.0000     5.4280    -0.6220 H     1 <1>   0.0800 
 42 H        1.2250     3.9540    -1.1470 H     1 <1>   0.0800 
 43 H        2.2870     3.9430     0.2490 H     1 <1>   0.0800 
 44 H       -2.2020    -4.5060    -2.1960 H     1 <1>   0.1500 
 45 H       -6.3030    -3.9400     0.3450 H     1 <1>   0.1500 
 46 H       -1.2360    -6.4740    -1.2040 H     1 <1>   0.1500 
 47 H       -3.9490    -7.8690     2.1030 H     1 <1>   0.1500 
 48 H       -7.2640    -5.2040     2.1960 H     1 <1>   0.1500 
 49 H       -6.1050    -7.1650     3.0910 H     1 <1>   0.1500 
@<TRIPOS>BOND
  1   1   2  2   
  2   2   3  am  
  3   2   4  1   
  4   3   5  1   
  5   3   6  1   
  6   4   7  1   
  7   4  28  1   
  8   4  29  1   
  9   5   8  1   
 10   5  30  1   
 11   5  31  1   
 12   6   9  1   
 13   6  32  1   
 14   6  33  1   
 15   7  10  1   
 16   7  34  1   
 17   7  35  1   
 18   8   9  1   
 19   8  11  1   
 20   8  36  1   
 21   9  12  1   
 22   9  37  1   
 23  10  13  1   
 24  10  14  1   
 25  11  38  1   
 26  12  15  1   
 27  12  39  1   
 28  12  40  1   
 29  13  16  2   
 30  14  17  2   
 31  14  18  1   
 32  15  19  ar  
 33  15  20  ar  
 34  16  17  1   
 35  18  41  1   
 36  18  42  1   
 37  18  43  1   
 38  19  21  ar  
 39  19  22  ar  
 40  20  23  ar  
 41  20  44  1   
 42  21  24  ar  
 43  21  25  ar  
 44  22  26  ar  
 45  22  45  1   
 46  23  24  ar  
 47  23  46  1   
 48  25  27  ar  
 49  25  47  1   
 50  26  27  ar  
 51  26  48  1   
 52  27  49  1   
@<TRIPOS>SUBSTRUCTURE
  1 ****   6 GROUP 4 **** **** 0

# MOE 2024.06 (io_trps.svl 2023.06)
