@<TRIPOS>MOLECULE
NONAME
53 55 1 0 0 
SMALL
USER_CHARGES


@<TRIPOS>ATOM
  1 O       -2.1410    -0.5300     2.5780 O.2   1 <1>  -0.5700 
  2 C       -2.0140     0.2370     1.6530 C.2   1 <1>   0.5690 
  3 N       -2.1600    -0.1760     0.3530 N.am  1 <1>  -0.6600 
  4 C       -1.6870     1.6860     1.9980 C.3   1 <1>   0.0440 
  5 C       -2.4370    -1.6110     0.0250 C.3   1 <1>   0.3640 
  6 C       -2.0570     0.7380    -0.8260 C.3   1 <1>   0.1400 
  7 C       -0.3850     2.1950     1.3800 C.ar  1 <1>  -0.1440 
  8 C       -1.1270    -2.2860    -0.4250 C.ar  1 <1>  -0.1440 
  9 C       -3.6250    -1.6950    -0.9790 C.3   1 <1>   0.2000 
 10 C       -2.4600     0.0670    -2.1510 C.3   1 <1>   0.1200 
 11 C       -0.3280     3.4570     0.8080 C.ar  1 <1>  -0.1500 
 12 C        0.7510     1.3950     1.3770 C.ar  1 <1>  -0.1500 
 13 C       -0.0760    -2.3280     0.4820 C.ar  1 <1>  -0.1500 
 14 C       -0.9370    -2.8670    -1.6770 C.ar  1 <1>  -0.1500 
 15 O       -3.6100    -0.7220    -2.0090 O.3   1 <1>  -0.5600 
 16 C       -4.9700    -1.5380    -0.2570 C.3   1 <1>   0.1200 
 17 C        0.8510     3.9010     0.2300 C.ar  1 <1>   0.0830 
 18 C        1.9260     1.8420     0.7960 C.ar  1 <1>  -0.1500 
 19 C        1.1380    -2.9080     0.1580 C.ar  1 <1>   0.0830 
 20 C        0.2760    -3.4450    -2.0150 C.ar  1 <1>  -0.1500 
 21 O       -5.2510    -2.6730     0.5000 O.3   1 <1>  -0.6800 
 22 O        0.9150     5.1190    -0.3270 O.3   1 <1>  -0.5320 
 23 C        1.9770     3.0970     0.2190 C.ar  1 <1>  -0.1500 
 24 O        2.1010    -2.9240     1.1110 O.3   1 <1>  -0.3630 
 25 C        1.3250    -3.4540    -1.1140 C.ar  1 <1>   0.0830 
 26 C        2.4020    -4.1880     1.6580 C.3   1 <1>   0.0400 
 27 O        2.4970    -4.0020    -1.5210 O.3   1 <1>  -0.3630 
 28 C        3.6050    -3.1320    -1.5980 C.3   1 <1>   0.0400 
 29 H       -2.5130     2.2970     1.6880 H     1 <1>   0.0800 
 30 H       -1.6080     1.7720     3.0670 H     1 <1>   0.0800 
 31 H       -2.7440    -2.1290     0.9180 H     1 <1>   0.0800 
 32 H       -2.6910     1.5920    -0.6690 H     1 <1>   0.0800 
 33 H       -1.0440     1.0870    -0.9200 H     1 <1>   0.0800 
 34 H       -3.6290    -2.6560    -1.4580 H     1 <1>   0.0800 
 35 H       -1.6600    -0.5450    -2.5230 H     1 <1>   0.0800 
 36 H       -2.6680     0.8180    -2.8920 H     1 <1>   0.0800 
 37 H       -1.1930     4.0930     0.8100 H     1 <1>   0.1500 
 38 H        0.7300     0.4140     1.8230 H     1 <1>   0.1500 
 39 H       -0.1930    -1.9090     1.4660 H     1 <1>   0.1500 
 40 H       -1.7170    -2.8770    -2.4160 H     1 <1>   0.1500 
 41 H       -5.7690    -1.4070    -0.9670 H     1 <1>   0.0800 
 42 H       -4.9390    -0.6940     0.4100 H     1 <1>   0.0800 
 43 H        2.7960     1.2090     0.7960 H     1 <1>   0.1500 
 44 H        0.4170    -3.8860    -2.9850 H     1 <1>   0.1500 
 45 H       -5.5270    -3.4160    -0.0720 H     1 <1>   0.4000 
 46 H        0.0980     5.6360    -0.2220 H     1 <1>   0.4500 
 47 H        2.8820     3.4580    -0.2350 H     1 <1>   0.1500 
 48 H        3.1290    -4.0520     2.4380 H     1 <1>   0.0800 
 49 H        2.8020    -4.8220     0.8870 H     1 <1>   0.0800 
 50 H        1.5010    -4.6130     2.0620 H     1 <1>   0.0800 
 51 H        4.4150    -3.6600    -2.0670 H     1 <1>   0.0800 
 52 H        3.8920    -2.8290    -0.6070 H     1 <1>   0.0800 
 53 H        3.3330    -2.2740    -2.1870 H     1 <1>   0.0800 
@<TRIPOS>BOND
  1   1   2  2   
  2   2   3  am  
  3   2   4  1   
  4   3   5  1   
  5   3   6  1   
  6   4   7  1   
  7   4  29  1   
  8   4  30  1   
  9   5   8  1   
 10   5   9  1   
 11   5  31  1   
 12   6  10  1   
 13   6  32  1   
 14   6  33  1   
 15   7  11  ar  
 16   7  12  ar  
 17   8  13  ar  
 18   8  14  ar  
 19   9  15  1   
 20   9  16  1   
 21   9  34  1   
 22  10  15  1   
 23  10  35  1   
 24  10  36  1   
 25  11  17  ar  
 26  11  37  1   
 27  12  18  ar  
 28  12  38  1   
 29  13  19  ar  
 30  13  39  1   
 31  14  20  ar  
 32  14  40  1   
 33  16  21  1   
 34  16  41  1   
 35  16  42  1   
 36  17  22  1   
 37  17  23  ar  
 38  18  23  ar  
 39  18  43  1   
 40  19  24  1   
 41  19  25  ar  
 42  20  25  ar  
 43  20  44  1   
 44  21  45  1   
 45  22  46  1   
 46  23  47  1   
 47  24  26  1   
 48  25  27  1   
 49  26  48  1   
 50  26  49  1   
 51  26  50  1   
 52  27  28  1   
 53  28  51  1   
 54  28  52  1   
 55  28  53  1   
@<TRIPOS>SUBSTRUCTURE
  1 ****   3 GROUP 4 **** **** 0

# MOE 2024.06 (io_trps.svl 2023.06)
