@<TRIPOS>MOLECULE
NONAME
52 56 1 0 0 
SMALL
USER_CHARGES


@<TRIPOS>ATOM
  1 O       -0.9600    -0.6250    -1.5740 O.2   1 <1>  -0.5700 
  2 C       -1.4430     0.3330    -0.9900 C.2   1 <1>   0.5440 
  3 N       -2.6190     0.0900    -0.2930 N.am  1 <1>  -0.6600 
  4 C       -0.7520     1.6380    -1.0710 C.ar  1 <1>   0.3960 
  5 C       -3.4000     1.0750     0.4880 C.3   1 <1>   0.1400 
  6 C       -3.2630    -1.2430    -0.2610 C.3   1 <1>   0.1400 
  7 N       -1.2100     2.7130    -0.4020 N.ar  1 <1>  -0.6200 
  8 C        0.3970     1.7510    -1.8570 C.ar  1 <1>  -0.1500 
  9 C       -4.6140     0.3290     1.0420 C.3   1 <1>  -0.0800 
 10 C       -4.6590    -1.0420     0.3370 C.3   1 <1>  -0.0800 
 11 C       -0.5680     3.8700    -0.5070 C.ar  1 <1>   0.2870 
 12 C        1.0810     2.9400    -1.9690 C.ar  1 <1>  -0.1500 
 13 C       -5.9300     1.1470     1.0200 C.3   1 <1>   0.4240 
 14 C       -5.7780    -1.1370    -0.7140 C.3   1 <1>  -0.1600 
 15 N       -1.1060     4.9760     0.2070 N.pl3 1 <1>   0.3260 
 16 C        0.5820     4.0160    -1.2750 C.ar  1 <1>  -0.1500 
 17 O       -6.0650     1.7980    -0.1940 O.3   1 <1>  -0.6800 
 18 C       -5.8960     2.2070     2.1410 C.ar  1 <1>  -0.1440 
 19 C       -7.1210     0.1740     1.0770 C.3   1 <1>  -0.1600 
 20 C       -7.1640    -0.8150    -0.1150 C.3   1 <1>  -0.1600 
 21 C       -0.9340     6.2950     0.0210 C.2   1 <1>   0.0370 
 22 C       -1.9480     4.9710     1.2520 C.2   1 <1>   0.0370 
 23 C       -5.4030     3.4870     1.8970 C.ar  1 <1>  -0.1500 
 24 C       -6.3190     1.9100     3.4330 C.ar  1 <1>  -0.1500 
 25 N       -1.5890     7.0070     0.8690 N.2   1 <1>  -0.3380 
 26 N       -2.2430     6.1560     1.6610 N.2   1 <1>  -0.3380 
 27 C       -5.3320     4.4340     2.9030 C.ar  1 <1>  -0.1500 
 28 C       -6.2540     2.8560     4.4420 C.ar  1 <1>  -0.1500 
 29 C       -5.7590     4.1200     4.1780 C.ar  1 <1>  -0.1500 
 30 H       -2.8070     1.4670     1.2960 H     1 <1>   0.0800 
 31 H       -3.6820     1.8840    -0.1620 H     1 <1>   0.0800 
 32 H       -3.3080    -1.6630    -1.2520 H     1 <1>   0.0800 
 33 H       -2.6770    -1.8930     0.3660 H     1 <1>   0.0800 
 34 H        0.7590     0.8880    -2.3890 H     1 <1>   0.1500 
 35 H       -4.3940     0.1230     2.0750 H     1 <1>   0.0800 
 36 H       -4.8330    -1.8150     1.0660 H     1 <1>   0.0800 
 37 H        1.9700     3.0190    -2.5740 H     1 <1>   0.1500 
 38 H       -5.5580    -0.4550    -1.5190 H     1 <1>   0.0800 
 39 H       -5.7950    -2.1260    -1.1400 H     1 <1>   0.0800 
 40 H        1.0920     4.9610    -1.3330 H     1 <1>   0.1500 
 41 H       -6.1650     1.1150    -0.8810 H     1 <1>   0.4000 
 42 H       -7.0420    -0.4070     1.9770 H     1 <1>   0.0800 
 43 H       -8.0400     0.7300     1.1370 H     1 <1>   0.0800 
 44 H       -7.6270    -1.7280     0.2200 H     1 <1>   0.0800 
 45 H       -7.7920    -0.4120    -0.8930 H     1 <1>   0.0800 
 46 H       -0.3150     6.6980    -0.7580 H     1 <1>   0.1500 
 47 H       -2.3220     4.0590     1.6820 H     1 <1>   0.1500 
 48 H       -5.0660     3.7630     0.9130 H     1 <1>   0.1500 
 49 H       -6.7000     0.9370     3.6810 H     1 <1>   0.1500 
 50 H       -4.9430     5.4160     2.6890 H     1 <1>   0.1500 
 51 H       -6.5890     2.6100     5.4340 H     1 <1>   0.1500 
 52 H       -5.7070     4.8570     4.9600 H     1 <1>   0.1500 
@<TRIPOS>BOND
  1   1   2  2   
  2   2   3  am  
  3   2   4  1   
  4   3   5  1   
  5   3   6  1   
  6   4   7  ar  
  7   4   8  ar  
  8   5   9  1   
  9   5  30  1   
 10   5  31  1   
 11   6  10  1   
 12   6  32  1   
 13   6  33  1   
 14   7  11  ar  
 15   8  12  ar  
 16   8  34  1   
 17   9  10  1   
 18   9  13  1   
 19   9  35  1   
 20  10  14  1   
 21  10  36  1   
 22  11  15  1   
 23  11  16  ar  
 24  12  16  ar  
 25  12  37  1   
 26  13  17  1   
 27  13  18  1   
 28  13  19  1   
 29  14  20  1   
 30  14  38  1   
 31  14  39  1   
 32  15  21  1   
 33  15  22  1   
 34  16  40  1   
 35  17  41  1   
 36  18  23  ar  
 37  18  24  ar  
 38  19  20  1   
 39  19  42  1   
 40  19  43  1   
 41  20  44  1   
 42  20  45  1   
 43  21  25  2   
 44  21  46  1   
 45  22  26  2   
 46  22  47  1   
 47  23  27  ar  
 48  23  48  1   
 49  24  28  ar  
 50  24  49  1   
 51  25  26  1   
 52  27  29  ar  
 53  27  50  1   
 54  28  29  ar  
 55  28  51  1   
 56  29  52  1   
@<TRIPOS>SUBSTRUCTURE
  1 ****   5 GROUP 4 **** **** 0

# MOE 2024.06 (io_trps.svl 2023.06)
