@<TRIPOS>MOLECULE
NONAME
39 40 1 0 0 
SMALL
USER_CHARGES


@<TRIPOS>ATOM
  1 O        0.9820     0.1880     1.5840 O.2   1 <1>  -0.5700 
  2 C        0.9020     0.1980     0.3730 C.2   1 <1>   0.7800 
  3 O        1.1430     1.2770    -0.3590 O.3   1 <1>  -0.4300 
  4 N        0.5590    -0.9090    -0.3220 N.am  1 <1>  -0.7300 
  5 C        1.5140     2.5570     0.1090 C.3   1 <1>   0.2800 
  6 C        0.0470    -2.1670     0.2680 C.3   1 <1>   0.2200 
  7 C        2.8630     2.4860     0.8330 C.3   1 <1>  -0.2400 
  8 C        0.4060     3.1390     0.9950 C.3   1 <1>  -0.2400 
  9 C        1.6600     3.4170    -1.1470 C.3   1 <1>  -0.2400 
 10 C        0.9630    -2.6690     1.4140 C.3   1 <1>   0.3430 
 11 C       -0.0730    -3.2210    -0.8410 C.3   1 <1>  -0.0650 
 12 N        0.5860    -4.0380     1.8990 N.4   1 <1>  -0.9060 
 13 C       -0.4230    -4.5940    -0.2440 C.3   1 <1>  -0.1900 
 14 C        0.5910    -5.0450     0.8130 C.3   1 <1>   0.4380 
 15 C       -1.8660    -4.9440    -0.0550 C.3   1 <1>  -0.2000 
 16 C       -1.0530    -5.6170    -1.1330 C.3   1 <1>  -0.2000 
 17 H        0.4070    -0.7600    -1.3210 H     1 <1>   0.3700 
 18 H       -0.9320    -1.9700     0.6730 H     1 <1>   0.0800 
 19 H        2.7810     1.9480     1.7590 H     1 <1>   0.0800 
 20 H        3.2050     3.4780     1.0670 H     1 <1>   0.0800 
 21 H        3.6000     2.0130     0.2100 H     1 <1>   0.0800 
 22 H        0.3220     2.5990     1.9200 H     1 <1>   0.0800 
 23 H       -0.5380     3.1130     0.4810 H     1 <1>   0.0800 
 24 H        0.6320     4.1610     1.2370 H     1 <1>   0.0800 
 25 H        2.4180     3.0110    -1.7930 H     1 <1>   0.0800 
 26 H        1.9430     4.4190    -0.8820 H     1 <1>   0.0800 
 27 H        0.7280     3.4590    -1.6820 H     1 <1>   0.0800 
 28 H        0.9090    -1.9720     2.2360 H     1 <1>   0.0800 
 29 H        1.9780    -2.6840     1.0550 H     1 <1>   0.0800 
 30 H        0.8620    -3.2990    -1.3690 H     1 <1>   0.0800 
 31 H       -0.8310    -2.9180    -1.5430 H     1 <1>   0.0800 
 32 H       -0.3630    -4.0020     2.2910 H     1 <1>   0.4500 
 33 H        1.2190    -4.3270     2.6540 H     1 <1>   0.4500 
 34 H        0.3110    -6.0130     1.1980 H     1 <1>   0.0800 
 35 H        1.5730    -5.1200     0.3720 H     1 <1>   0.0800 
 36 H       -2.6370    -4.2600    -0.3710 H     1 <1>   0.1000 
 37 H       -2.1870    -5.5570     0.7710 H     1 <1>   0.1000 
 38 H       -0.8180    -6.6610    -1.0120 H     1 <1>   0.1000 
 39 H       -1.2740    -5.3720    -2.1590 H     1 <1>   0.1000 
@<TRIPOS>BOND
  1   1   2  2   
  2   2   3  1   
  3   2   4  am  
  4   3   5  1   
  5   4   6  1   
  6   4  17  1   
  7   5   7  1   
  8   5   8  1   
  9   5   9  1   
 10   6  10  1   
 11   6  11  1   
 12   6  18  1   
 13   7  19  1   
 14   7  20  1   
 15   7  21  1   
 16   8  22  1   
 17   8  23  1   
 18   8  24  1   
 19   9  25  1   
 20   9  26  1   
 21   9  27  1   
 22  10  12  1   
 23  10  28  1   
 24  10  29  1   
 25  11  13  1   
 26  11  30  1   
 27  11  31  1   
 28  12  14  1   
 29  12  32  1   
 30  12  33  1   
 31  13  14  1   
 32  13  15  1   
 33  13  16  1   
 34  14  34  1   
 35  14  35  1   
 36  15  16  1   
 37  15  36  1   
 38  15  37  1   
 39  16  38  1   
 40  16  39  1   
@<TRIPOS>SUBSTRUCTURE
  1 ****   4 GROUP 4 **** **** 0

# MOE 2024.06 (io_trps.svl 2023.06)
