@<TRIPOS>MOLECULE
NONAME
43 45 1 0 0 
SMALL
USER_CHARGES


@<TRIPOS>ATOM
  1 O        1.1520    -0.8880     2.3290 O.2   1 <1>  -0.5700 
  2 C        1.6020    -0.3510     1.3330 C.2   1 <1>   0.5440 
  3 N        0.9240     0.7180     0.7950 N.am  1 <1>  -0.6600 
  4 C        2.8040    -0.8700     0.7380 C.ar  1 <1>   0.0860 
  5 C       -0.3820     1.1850     1.3080 C.3   1 <1>   0.1400 
  6 C        1.4270     1.6050    -0.2800 C.3   1 <1>   0.1400 
  7 C        2.7580    -1.5160    -0.5090 C.ar  1 <1>   0.4100 
  8 C        4.0250    -0.8020     1.3930 C.ar  1 <1>  -0.1500 
  9 C       -0.6010     2.5380     0.6400 C.3   1 <1>  -0.1600 
 10 C        0.2330     2.4820    -0.6370 C.3   1 <1>  -0.1600 
 11 N        3.8090    -2.0870    -1.0890 N.ar  1 <1>  -0.6200 
 12 N        1.5840    -1.5980    -1.2130 N.pl3 1 <1>  -0.8690 
 13 C        5.1170    -1.3750     0.7830 C.ar  1 <1>  -0.1500 
 14 C        4.9550    -1.9990    -0.4420 C.ar  1 <1>   0.1600 
 15 C        1.1350    -2.8420    -1.8740 C.3   1 <1>   0.3890 
 16 C       -0.2770    -3.1630    -1.4010 C.2   1 <1>   0.0060 
 17 N       -1.3190    -3.0720    -2.1680 N.2   1 <1>  -0.5650 
 18 N       -0.5700    -3.5570    -0.1330 N.pl3 1 <1>   0.0480 
 19 C       -2.3420    -3.4220    -1.3700 C.2   1 <1>   0.0770 
 20 C       -1.9060    -3.7180    -0.1280 C.2   1 <1>  -0.3020 
 21 C        0.3220    -3.7750     1.0300 C.3   1 <1>   0.0960 
 22 C        0.5650    -5.2700     1.2520 C.3   1 <1>  -0.2400 
 23 H       -0.3670     1.2670     2.3820 H     1 <1>   0.0800 
 24 H       -1.1440     0.4860     1.0100 H     1 <1>   0.0800 
 25 H        1.7700     1.0480    -1.1350 H     1 <1>   0.0800 
 26 H        2.2310     2.2070     0.1080 H     1 <1>   0.0800 
 27 H        4.1000    -0.3210     2.3530 H     1 <1>   0.1500 
 28 H       -0.2270     3.3110     1.2890 H     1 <1>   0.0800 
 29 H       -1.6430     2.7210     0.4430 H     1 <1>   0.0800 
 30 H       -0.3290     2.0030    -1.4200 H     1 <1>   0.0800 
 31 H        0.5390     3.4580    -0.9720 H     1 <1>   0.0800 
 32 H        0.7840    -1.0620    -0.8580 H     1 <1>   0.4000 
 33 H        6.0860    -1.3460     1.2500 H     1 <1>   0.1500 
 34 H        5.8140    -2.4490    -0.9100 H     1 <1>   0.1500 
 35 H        1.7960    -3.6590    -1.6420 H     1 <1>   0.0800 
 36 H        1.1330    -2.6940    -2.9390 H     1 <1>   0.0800 
 37 H       -3.3550    -3.4410    -1.7360 H     1 <1>   0.1500 
 38 H       -2.4600    -4.0280     0.7380 H     1 <1>   0.1500 
 39 H       -0.1340    -3.3370     1.9000 H     1 <1>   0.0800 
 40 H        1.2590    -3.2800     0.8640 H     1 <1>   0.0800 
 41 H       -0.3640    -5.7750     1.4490 H     1 <1>   0.0800 
 42 H        1.2150    -5.4080     2.0970 H     1 <1>   0.0800 
 43 H        1.0320    -5.7040     0.3860 H     1 <1>   0.0800 
@<TRIPOS>BOND
  1   1   2  2   
  2   2   3  am  
  3   2   4  1   
  4   3   5  1   
  5   3   6  1   
  6   4   7  ar  
  7   4   8  ar  
  8   5   9  1   
  9   5  23  1   
 10   5  24  1   
 11   6  10  1   
 12   6  25  1   
 13   6  26  1   
 14   7  11  ar  
 15   7  12  1   
 16   8  13  ar  
 17   8  27  1   
 18   9  10  1   
 19   9  28  1   
 20   9  29  1   
 21  10  30  1   
 22  10  31  1   
 23  11  14  ar  
 24  12  15  1   
 25  12  32  1   
 26  13  14  ar  
 27  13  33  1   
 28  14  34  1   
 29  15  16  1   
 30  15  35  1   
 31  15  36  1   
 32  16  17  2   
 33  16  18  1   
 34  17  19  1   
 35  18  20  1   
 36  18  21  1   
 37  19  20  2   
 38  19  37  1   
 39  20  38  1   
 40  21  22  1   
 41  21  39  1   
 42  21  40  1   
 43  22  41  1   
 44  22  42  1   
 45  22  43  1   
@<TRIPOS>SUBSTRUCTURE
  1 ****  12 GROUP 4 **** **** 0

# MOE 2024.06 (io_trps.svl 2023.06)
