@<TRIPOS>MOLECULE
NONAME
56 58 1 0 0 
SMALL
USER_CHARGES


@<TRIPOS>ATOM
  1 O       -0.2690     0.7500     0.8300 O.2   1 <1>  -0.5700 
  2 C       -0.3340     1.9530     0.7360 C.2   1 <1>   0.5690 
  3 N       -1.4060     2.6680     1.1980 N.am  1 <1>  -0.6600 
  4 C        0.8180     2.6820     0.0430 C.3   1 <1>   0.1810 
  5 C       -1.4760     4.1590     1.0340 C.3   1 <1>   0.3640 
  6 C       -2.5000     2.0450     1.9970 C.3   1 <1>   0.0600 
  7 O        0.8960     4.0430     0.3870 O.3   1 <1>  -0.5600 
  8 C       -2.8290     4.5860     0.4370 C.ar  1 <1>  -0.1430 
  9 C       -0.3100     4.7650     0.2040 C.3   1 <1>   0.2610 
 10 C       -3.4120     4.0350    -0.7100 C.ar  1 <1>  -0.1430 
 11 C       -3.5020     5.6060     1.1010 C.ar  1 <1>  -0.1500 
 12 C       -0.0910     6.2650     0.4990 C.2   1 <1>   0.5690 
 13 C       -4.6380     4.5140    -1.1510 C.ar  1 <1>  -0.1500 
 14 C       -2.7870     2.9050    -1.5240 C.3   1 <1>  -0.0960 
 15 C       -4.7210     6.0770     0.6520 C.ar  1 <1>  -0.1500 
 16 O       -0.5770     6.7210     1.5130 O.2   1 <1>  -0.5700 
 17 N        0.6350     7.0760    -0.3570 N.am  1 <1>  -0.6600 
 18 C       -5.2910     5.5290    -0.4780 C.ar  1 <1>  -0.1500 
 19 C        0.7170     8.5450    -0.0430 C.3   1 <1>   0.2200 
 20 C        1.3710     6.5390    -1.5490 C.3   1 <1>   0.1400 
 21 C        0.8820     9.4460    -1.2800 C.3   1 <1>  -0.1600 
 22 C        1.8190     8.8250     0.9910 C.3   1 <1>  -0.1600 
 23 C        2.8570     6.3730    -1.2450 C.3   1 <1>  -0.2400 
 24 C        0.8880    10.9290    -0.8800 C.3   1 <1>  -0.1600 
 25 C        1.8410    10.3100     1.3870 C.3   1 <1>  -0.1600 
 26 C        1.9840    11.2150     0.1560 C.3   1 <1>  -0.1600 
 27 H        0.7050     2.6040    -1.0220 H     1 <1>   0.0800 
 28 H        1.7460     2.2230     0.3270 H     1 <1>   0.0800 
 29 H       -1.4050     4.5590     2.0300 H     1 <1>   0.0800 
 30 H       -2.5740     2.5310     2.9540 H     1 <1>   0.0800 
 31 H       -2.3060     0.9980     2.1580 H     1 <1>   0.0800 
 32 H       -3.4380     2.1440     1.4790 H     1 <1>   0.0800 
 33 H       -0.5780     4.6860    -0.8300 H     1 <1>   0.0800 
 34 H       -3.0750     6.0550     1.9830 H     1 <1>   0.1500 
 35 H       -5.1010     4.0970    -2.0270 H     1 <1>   0.1500 
 36 H       -3.2650     2.8130    -2.4830 H     1 <1>   0.0800 
 37 H       -2.9070     1.9710    -1.0050 H     1 <1>   0.0800 
 38 H       -1.7440     3.0750    -1.6980 H     1 <1>   0.0800 
 39 H       -5.2200     6.8690     1.1810 H     1 <1>   0.1500 
 40 H       -6.2400     5.8900    -0.8340 H     1 <1>   0.1500 
 41 H       -0.2180     8.8300     0.4110 H     1 <1>   0.0800 
 42 H        0.9820     5.5810    -1.8340 H     1 <1>   0.0800 
 43 H        1.2340     7.1800    -2.4020 H     1 <1>   0.0800 
 44 H        1.8130     9.2330    -1.7720 H     1 <1>   0.0800 
 45 H        0.0710     9.2680    -1.9630 H     1 <1>   0.0800 
 46 H        1.6420     8.2320     1.8710 H     1 <1>   0.0800 
 47 H        2.7780     8.5590     0.5930 H     1 <1>   0.0800 
 48 H        2.9910     5.8240    -0.3290 H     1 <1>   0.0800 
 49 H        3.3410     7.3280    -1.1700 H     1 <1>   0.0800 
 50 H        3.3280     5.8260    -2.0410 H     1 <1>   0.0800 
 51 H        1.0480    11.5380    -1.7520 H     1 <1>   0.0800 
 52 H       -0.0710    11.1910    -0.4660 H     1 <1>   0.0800 
 53 H        0.9270    10.5510     1.9030 H     1 <1>   0.0800 
 54 H        2.6580    10.4890     2.0650 H     1 <1>   0.0800 
 55 H        1.9310    12.2470     0.4610 H     1 <1>   0.0800 
 56 H        2.9490    11.0550    -0.2930 H     1 <1>   0.0800 
@<TRIPOS>BOND
  1   1   2  2   
  2   2   3  am  
  3   2   4  1   
  4   3   5  1   
  5   3   6  1   
  6   4   7  1   
  7   4  27  1   
  8   4  28  1   
  9   5   8  1   
 10   5   9  1   
 11   5  29  1   
 12   6  30  1   
 13   6  31  1   
 14   6  32  1   
 15   7   9  1   
 16   8  10  ar  
 17   8  11  ar  
 18   9  12  1   
 19   9  33  1   
 20  10  13  ar  
 21  10  14  1   
 22  11  15  ar  
 23  11  34  1   
 24  12  16  2   
 25  12  17  am  
 26  13  18  ar  
 27  13  35  1   
 28  14  36  1   
 29  14  37  1   
 30  14  38  1   
 31  15  18  ar  
 32  15  39  1   
 33  17  19  1   
 34  17  20  1   
 35  18  40  1   
 36  19  21  1   
 37  19  22  1   
 38  19  41  1   
 39  20  23  1   
 40  20  42  1   
 41  20  43  1   
 42  21  24  1   
 43  21  44  1   
 44  21  45  1   
 45  22  25  1   
 46  22  46  1   
 47  22  47  1   
 48  23  48  1   
 49  23  49  1   
 50  23  50  1   
 51  24  26  1   
 52  24  51  1   
 53  24  52  1   
 54  25  26  1   
 55  25  53  1   
 56  25  54  1   
 57  26  55  1   
 58  26  56  1   
@<TRIPOS>SUBSTRUCTURE
  1 ****  12 GROUP 4 **** **** 0

# MOE 2024.06 (io_trps.svl 2023.06)
