@<TRIPOS>MOLECULE
NONAME
56 58 1 0 0 
SMALL
USER_CHARGES


@<TRIPOS>ATOM
  1 O        0.1050     0.4480    -0.3720 O.3   1 <1>  -0.5600 
  2 C       -0.8160    -0.4170    -0.9630 C.3   1 <1>   0.2640 
  3 C        0.1900     1.6980    -0.9530 C.3   1 <1>   0.1200 
  4 C       -0.8000    -1.7310    -0.2010 C.ar  1 <1>  -0.1440 
  5 C        1.2300     2.4700    -0.1450 C.3   1 <1>  -0.1600 
  6 C       -1.8050    -2.0300     0.7080 C.ar  1 <1>  -0.1500 
  7 C        0.2200    -2.6460    -0.4100 C.ar  1 <1>  -0.1500 
  8 C        1.4240     3.8810    -0.6940 C.3   1 <1>   0.3430 
  9 C       -1.7920    -3.2330     1.3940 C.ar  1 <1>  -0.1500 
 10 C        0.2340    -3.8490     0.2750 C.ar  1 <1>  -0.1500 
 11 N        2.3770     4.6390     0.1670 N.4   1 <1>  -0.9590 
 12 C       -0.7730    -4.1430     1.1770 C.ar  1 <1>  -0.1500 
 13 C        2.1890     6.1210    -0.0420 C.3   1 <1>   0.3430 
 14 C        3.7890     4.1910    -0.0520 C.3   1 <1>   0.3430 
 15 C        3.1020     7.0310     0.8070 C.3   1 <1>   0.2090 
 16 C        4.6420     4.5070     1.1750 C.3   1 <1>  -0.1600 
 17 N        4.5420     6.9030     0.4120 N.pl3 1 <1>  -0.8380 
 18 C        5.3520     5.8610     1.1030 C.3   1 <1>   0.2090 
 19 C        5.1820     7.9000    -0.2540 C.ar  1 <1>   0.1000 
 20 C        5.4760     9.1540     0.3200 C.ar  1 <1>  -0.1440 
 21 C        5.6030     7.6840    -1.5720 C.ar  1 <1>  -0.1500 
 22 C        6.1360    10.1060    -0.4210 C.ar  1 <1>   0.2110 
 23 C        5.0940     9.4670     1.7660 C.3   1 <1>  -0.0970 
 24 C        6.2600     8.6590    -2.2750 C.ar  1 <1>   0.2110 
 25 N        6.5170     9.8580    -1.6980 N.ar  1 <1>  -0.1790 
 26 H       -0.5330    -0.5790    -1.9890 H     1 <1>   0.0800 
 27 H       -1.7930     0.0320    -0.9220 H     1 <1>   0.0800 
 28 H       -0.7770     2.1700    -0.9010 H     1 <1>   0.0800 
 29 H        0.4970     1.5810    -1.9800 H     1 <1>   0.0800 
 30 H        2.1520     1.9190    -0.1840 H     1 <1>   0.0800 
 31 H        0.8900     2.5210     0.8750 H     1 <1>   0.0800 
 32 H       -2.6000    -1.3290     0.8880 H     1 <1>   0.1500 
 33 H        1.0100    -2.4220    -1.1050 H     1 <1>   0.1500 
 34 H        0.4670     4.3790    -0.7000 H     1 <1>   0.0800 
 35 H        1.7890     3.8380    -1.7080 H     1 <1>   0.0800 
 36 H       -2.5740    -3.4590     2.0970 H     1 <1>   0.1500 
 37 H        1.0290    -4.5550     0.1080 H     1 <1>   0.1500 
 38 H        2.1400     4.4190     1.1440 H     1 <1>   0.4500 
 39 H       -0.7630    -5.0770     1.7100 H     1 <1>   0.1500 
 40 H        1.1670     6.3750     0.1840 H     1 <1>   0.0800 
 41 H        2.3580     6.3610    -1.0780 H     1 <1>   0.0800 
 42 H        4.2050     4.6620    -0.9280 H     1 <1>   0.0800 
 43 H        3.8070     3.1250    -0.2060 H     1 <1>   0.0800 
 44 H        2.9800     6.8170     1.8550 H     1 <1>   0.0800 
 45 H        2.7890     8.0480     0.6460 H     1 <1>   0.0800 
 46 H        5.4070     3.7550     1.2540 H     1 <1>   0.0800 
 47 H        4.0580     4.4410     2.0750 H     1 <1>   0.0800 
 48 H        6.2820     5.7410     0.5700 H     1 <1>   0.0800 
 49 H        5.5940     6.1940     2.0990 H     1 <1>   0.0800 
 50 H        5.3990     6.7300    -2.0240 H     1 <1>   0.1500 
 51 H        6.3690    11.0710     0.0010 H     1 <1>   0.1500 
 52 H        5.3700     8.6530     2.4110 H     1 <1>   0.0800 
 53 H        4.0340     9.6280     1.8480 H     1 <1>   0.0800 
 54 H        5.5950    10.3510     2.1210 H     1 <1>   0.0800 
 55 H        6.5830     8.4910    -3.2910 H     1 <1>   0.1500 
 56 H        7.0120    10.5850    -2.2300 H     1 <1>   0.4570 
@<TRIPOS>BOND
  1   1   2  1   
  2   1   3  1   
  3   2   4  1   
  4   2  26  1   
  5   2  27  1   
  6   3   5  1   
  7   3  28  1   
  8   3  29  1   
  9   4   6  ar  
 10   4   7  ar  
 11   5   8  1   
 12   5  30  1   
 13   5  31  1   
 14   6   9  ar  
 15   6  32  1   
 16   7  10  ar  
 17   7  33  1   
 18   8  11  1   
 19   8  34  1   
 20   8  35  1   
 21   9  12  ar  
 22   9  36  1   
 23  10  12  ar  
 24  10  37  1   
 25  11  13  1   
 26  11  14  1   
 27  11  38  1   
 28  12  39  1   
 29  13  15  1   
 30  13  40  1   
 31  13  41  1   
 32  14  16  1   
 33  14  42  1   
 34  14  43  1   
 35  15  17  1   
 36  15  44  1   
 37  15  45  1   
 38  16  18  1   
 39  16  46  1   
 40  16  47  1   
 41  17  18  1   
 42  17  19  1   
 43  18  48  1   
 44  18  49  1   
 45  19  20  ar  
 46  19  21  ar  
 47  20  22  ar  
 48  20  23  1   
 49  21  24  ar  
 50  21  50  1   
 51  22  25  ar  
 52  22  51  1   
 53  23  52  1   
 54  23  53  1   
 55  23  54  1   
 56  24  25  ar  
 57  24  55  1   
 58  25  56  1   
@<TRIPOS>SUBSTRUCTURE
  1 ****  11 GROUP 4 **** **** 0

# MOE 2024.06 (io_trps.svl 2023.06)
