@<TRIPOS>MOLECULE
NONAME
47 49 1 0 0 
SMALL
USER_CHARGES


@<TRIPOS>ATOM
  1 S       -0.8530     0.8790     0.0520 S.3   1 <1>  -0.3320 
  2 C       -2.1310    -0.3710    -0.1810 C.ar  1 <1>   0.1020 
  3 C        0.7710     0.0110    -0.0850 C.3   1 <1>  -0.0100 
  4 C       -3.4430     0.0550    -0.1030 C.ar  1 <1>  -0.1500 
  5 C       -1.8260    -1.6990    -0.4300 C.ar  1 <1>  -0.1500 
  6 C       -4.4870    -0.8460    -0.2720 C.ar  1 <1>   0.1170 
  7 C       -2.8590    -2.6040    -0.6020 C.ar  1 <1>  -0.1500 
  8 N       -5.8030    -0.3720    -0.2010 N.am  1 <1>  -0.5470 
  9 C       -4.1740    -2.1790    -0.5250 C.ar  1 <1>  -0.1500 
 10 C       -6.9850    -1.0030     0.0650 C.2   1 <1>   0.6900 
 11 O       -7.0110    -2.1570     0.4470 O.2   1 <1>  -0.5700 
 12 N       -8.1500    -0.2930    -0.0770 N.am  1 <1>  -0.6600 
 13 C       -8.3280     0.8340    -1.0300 C.3   1 <1>   0.1400 
 14 C       -9.4020    -0.7460     0.5870 C.3   1 <1>   0.1400 
 15 C       -8.9410     2.0290    -0.2980 C.3   1 <1>  -0.1600 
 16 C      -10.0480     0.4350     1.3150 C.3   1 <1>  -0.1600 
 17 C      -10.2520     1.6530     0.4080 C.3   1 <1>   0.4180 
 18 O      -10.6080     2.7020     1.2690 O.3   1 <1>  -0.5600 
 19 C      -11.3770     1.3940    -0.5970 C.2   1 <1>  -0.2880 
 20 C      -11.2310     3.8220     0.7040 C.3   1 <1>   0.1200 
 21 C      -12.4460     2.1800    -0.7430 C.2   1 <1>  -0.2760 
 22 C      -12.5870     3.4350     0.0990 C.3   1 <1>  -0.0220 
 23 C      -13.5860     1.9130    -1.7090 C.3   1 <1>  -0.1020 
 24 H        1.5440     0.7440     0.0600 H     1 <1>   0.0800 
 25 H        0.8350    -0.4220    -1.0670 H     1 <1>   0.0800 
 26 H        0.8110    -0.7420     0.6820 H     1 <1>   0.0800 
 27 H       -3.6440     1.0900     0.0940 H     1 <1>   0.1500 
 28 H       -0.8110    -2.0400    -0.4920 H     1 <1>   0.1500 
 29 H       -2.6430    -3.6410    -0.7960 H     1 <1>   0.1500 
 30 H       -5.9060     0.6360    -0.2150 H     1 <1>   0.3700 
 31 H       -4.9650    -2.8940    -0.6660 H     1 <1>   0.1500 
 32 H       -8.9810     0.5160    -1.8250 H     1 <1>   0.0800 
 33 H       -7.3920     1.1190    -1.4760 H     1 <1>   0.0800 
 34 H       -9.1890    -1.5250     1.2990 H     1 <1>   0.0800 
 35 H      -10.0700    -1.1490    -0.1530 H     1 <1>   0.0800 
 36 H       -9.1240     2.8090    -1.0120 H     1 <1>   0.0800 
 37 H       -8.2360     2.3880     0.4300 H     1 <1>   0.0800 
 38 H       -9.4120     0.7100     2.1370 H     1 <1>   0.0800 
 39 H      -10.9980     0.1290     1.7150 H     1 <1>   0.0800 
 40 H      -11.2330     0.5040    -1.1800 H     1 <1>   0.1500 
 41 H      -10.5840     4.2340    -0.0480 H     1 <1>   0.0800 
 42 H      -11.3650     4.5510     1.4830 H     1 <1>   0.0800 
 43 H      -12.9370     4.2530    -0.5050 H     1 <1>   0.0800 
 44 H      -13.3000     3.2670     0.8850 H     1 <1>   0.0800 
 45 H      -13.6730     2.7190    -2.4160 H     1 <1>   0.0800 
 46 H      -14.5130     1.8210    -1.1700 H     1 <1>   0.0800 
 47 H      -13.4160     1.0000    -2.2510 H     1 <1>   0.0800 
@<TRIPOS>BOND
  1   1   2  1   
  2   1   3  1   
  3   2   4  ar  
  4   2   5  ar  
  5   3  24  1   
  6   3  25  1   
  7   3  26  1   
  8   4   6  ar  
  9   4  27  1   
 10   5   7  ar  
 11   5  28  1   
 12   6   8  1   
 13   6   9  ar  
 14   7   9  ar  
 15   7  29  1   
 16   8  10  am  
 17   8  30  1   
 18   9  31  1   
 19  10  11  2   
 20  10  12  am  
 21  12  13  1   
 22  12  14  1   
 23  13  15  1   
 24  13  32  1   
 25  13  33  1   
 26  14  16  1   
 27  14  34  1   
 28  14  35  1   
 29  15  17  1   
 30  15  36  1   
 31  15  37  1   
 32  16  17  1   
 33  16  38  1   
 34  16  39  1   
 35  17  18  1   
 36  17  19  1   
 37  18  20  1   
 38  19  21  2   
 39  19  40  1   
 40  20  22  1   
 41  20  41  1   
 42  20  42  1   
 43  21  22  1   
 44  21  23  1   
 45  22  43  1   
 46  22  44  1   
 47  23  45  1   
 48  23  46  1   
 49  23  47  1   
@<TRIPOS>SUBSTRUCTURE
  1 ****  12 GROUP 4 **** **** 0

# MOE 2024.06 (io_trps.svl 2023.06)
