@<TRIPOS>MOLECULE
NONAME
49 51 1 0 0 
SMALL
USER_CHARGES


@<TRIPOS>ATOM
  1 O        0.3000     2.5920     0.7970 O.2   1 <1>  -0.5700 
  2 C       -0.8620     2.3330     0.5230 C.2   1 <1>   0.5440 
  3 N       -1.3710     2.6810    -0.7090 N.am  1 <1>  -0.4200 
  4 C       -1.7360     1.6740     1.4530 C.ar  1 <1>   0.0860 
  5 C       -2.6850     2.4070    -1.0000 C.2   1 <1>   0.4500 
  6 C       -0.5180     3.3560    -1.7170 C.3   1 <1>   0.1400 
  7 C       -3.0550     1.4420     1.0440 C.ar  1 <1>   0.1790 
  8 C       -1.3410     1.2600     2.7290 C.ar  1 <1>  -0.1500 
  9 N       -3.5020     1.8290    -0.2050 N.2   1 <1>  -0.6290 
 10 C       -0.5030     4.8650    -1.4570 C.3   1 <1>  -0.1600 
 11 C       -3.9380     0.8090     1.9110 C.ar  1 <1>  -0.1500 
 12 C       -2.2290     0.6330     3.5780 C.ar  1 <1>  -0.1500 
 13 C        0.4720     5.5860    -2.4010 C.3   1 <1>  -0.0990 
 14 C       -3.5350     0.4060     3.1670 C.ar  1 <1>  -0.1500 
 15 C        0.4930     7.0790    -2.1490 C.2   1 <1>   0.5690 
 16 O       -0.0630     7.8100    -2.9300 O.2   1 <1>  -0.5700 
 17 N        1.1330     7.5380    -1.0450 N.am  1 <1>  -0.7300 
 18 C        1.2450     8.9590    -0.6610 C.3   1 <1>   0.1400 
 19 C        2.7180     9.2990    -0.4430 C.3   1 <1>  -0.1600 
 20 C        2.9000    10.7750    -0.0750 C.3   1 <1>   0.0210 
 21 C        4.3630    11.0780     0.1770 C.2   1 <1>  -0.1810 
 22 C        5.3760    11.1440    -0.7730 C.2   1 <1>   0.1390 
 23 C        4.9800    11.3420     1.3470 C.2   1 <1>  -0.3020 
 24 N        6.5280    11.4220    -0.2450 N.2   1 <1>  -0.7070 
 25 N        6.2830    11.5460     1.0690 N.pl3 1 <1>   0.3140 
 26 C        7.3520    11.8610     2.0210 C.3   1 <1>   0.0160 
 27 H       -3.0300     2.7120    -1.9730 H     1 <1>   0.0600 
 28 H       -0.8940     3.1540    -2.7060 H     1 <1>   0.0800 
 29 H        0.4820     2.9600    -1.6560 H     1 <1>   0.0800 
 30 H       -0.3270     1.4380     3.0440 H     1 <1>   0.1500 
 31 H       -0.2020     5.0460    -0.4390 H     1 <1>   0.0800 
 32 H       -1.4920     5.2660    -1.5970 H     1 <1>   0.0800 
 33 H       -4.9470     0.6380     1.5810 H     1 <1>   0.1500 
 34 H       -1.9140     0.3180     4.5590 H     1 <1>   0.1500 
 35 H        0.1820     5.4180    -3.4230 H     1 <1>   0.0800 
 36 H        1.4680     5.2020    -2.2700 H     1 <1>   0.0800 
 37 H       -4.2290    -0.0840     3.8290 H     1 <1>   0.1500 
 38 H        1.5650     6.8710    -0.4040 H     1 <1>   0.3700 
 39 H        0.6830     9.1280     0.2410 H     1 <1>   0.0800 
 40 H        0.8350     9.5820    -1.4400 H     1 <1>   0.0800 
 41 H        3.2670     9.0910    -1.3450 H     1 <1>   0.0800 
 42 H        3.1160     8.6900     0.3500 H     1 <1>   0.0800 
 43 H        2.3360    11.0020     0.8130 H     1 <1>   0.0800 
 44 H        2.5400    11.4030    -0.8720 H     1 <1>   0.0800 
 45 H        5.2350    10.9840    -1.8290 H     1 <1>   0.1500 
 46 H        4.5760    11.3940     2.3410 H     1 <1>   0.1500 
 47 H        6.9290    12.0700     2.9840 H     1 <1>   0.0800 
 48 H        7.8920    12.7180     1.6640 H     1 <1>   0.0800 
 49 H        8.0170    11.0200     2.0860 H     1 <1>   0.0800 
@<TRIPOS>BOND
  1   1   2  2   
  2   2   3  am  
  3   2   4  1   
  4   3   5  1   
  5   3   6  1   
  6   4   7  ar  
  7   4   8  ar  
  8   5   9  2   
  9   5  27  1   
 10   6  10  1   
 11   6  28  1   
 12   6  29  1   
 13   7   9  1   
 14   7  11  ar  
 15   8  12  ar  
 16   8  30  1   
 17  10  13  1   
 18  10  31  1   
 19  10  32  1   
 20  11  14  ar  
 21  11  33  1   
 22  12  14  ar  
 23  12  34  1   
 24  13  15  1   
 25  13  35  1   
 26  13  36  1   
 27  14  37  1   
 28  15  16  2   
 29  15  17  am  
 30  17  18  1   
 31  17  38  1   
 32  18  19  1   
 33  18  39  1   
 34  18  40  1   
 35  19  20  1   
 36  19  41  1   
 37  19  42  1   
 38  20  21  1   
 39  20  43  1   
 40  20  44  1   
 41  21  22  1   
 42  21  23  2   
 43  22  24  2   
 44  22  45  1   
 45  23  25  1   
 46  23  46  1   
 47  24  25  1   
 48  25  26  1   
 49  26  47  1   
 50  26  48  1   
 51  26  49  1   
@<TRIPOS>SUBSTRUCTURE
  1 ****  17 GROUP 4 **** **** 0

# MOE 2024.06 (io_trps.svl 2023.06)
