@<TRIPOS>MOLECULE
NONAME
49 51 1 0 0 
SMALL
USER_CHARGES


@<TRIPOS>ATOM
  1 O        1.7010     0.5430     1.3340 O.3   1 <1>  -0.6800 
  2 C        2.0080     0.0380     0.0730 C.3   1 <1>   0.2000 
  3 C        2.6500    -1.3380     0.2510 C.3   1 <1>  -0.0800 
  4 C        3.1370     0.8760    -0.5290 C.3   1 <1>   0.3430 
  5 C        4.1480    -1.0430     0.4720 C.3   1 <1>   0.3430 
  6 C        2.4110    -2.2380    -0.9820 C.3   1 <1>  -0.0170 
  7 N        4.3880     0.4000     0.1470 N.4   1 <1>  -0.9590 
  8 C        2.9110    -3.6610    -0.7690 C.ar  1 <1>   0.1670 
  9 C        4.6770     1.1690     1.3990 C.3   1 <1>   0.4860 
 10 N        4.2230    -3.8160    -0.6800 N.ar  1 <1>  -0.6200 
 11 C        2.0050    -4.7190    -0.6830 C.ar  1 <1>   0.1600 
 12 C        4.8050     2.6430     1.0910 C.ar  1 <1>  -0.1440 
 13 C        4.5640    -5.0860    -0.5130 C.ar  1 <1>   0.1600 
 14 N        2.3450    -5.9820    -0.5040 N.ar  1 <1>  -0.6200 
 15 C        5.9280     3.1740     0.5000 C.ar  1 <1>   0.1600 
 16 C        3.7840     3.5170     1.3910 C.ar  1 <1>   0.1600 
 17 C        3.6550    -6.1330    -0.4270 C.ar  1 <1>   0.1600 
 18 N        6.0210     4.4440     0.2010 N.ar  1 <1>  -0.6200 
 19 N        3.8520     4.7910     1.1010 N.ar  1 <1>  -0.6200 
 20 C        4.9680     5.1930     0.5110 C.ar  1 <1>   0.7200 
 21 N        5.0000     6.5070     0.2100 N.pl3 1 <1>  -0.8690 
 22 C        6.2310     7.2640    -0.0790 C.3   1 <1>   0.2090 
 23 C        5.8500     8.6770    -0.5170 C.3   1 <1>  -0.1600 
 24 C        7.0910     9.5170    -0.8460 C.3   1 <1>  -0.2400 
 25 H        0.8570     0.1700     1.6700 H     1 <1>   0.4000 
 26 H        1.1160     0.0460    -0.5310 H     1 <1>   0.0800 
 27 H        2.2430    -1.8420     1.1120 H     1 <1>   0.0800 
 28 H        2.9590     1.9300    -0.3950 H     1 <1>   0.0800 
 29 H        3.2010     0.6670    -1.5840 H     1 <1>   0.0800 
 30 H        4.7540    -1.6630    -0.1670 H     1 <1>   0.0800 
 31 H        4.4140    -1.2510     1.4960 H     1 <1>   0.0800 
 32 H        2.9020    -1.8310    -1.8490 H     1 <1>   0.0800 
 33 H        1.3570    -2.2710    -1.1980 H     1 <1>   0.0800 
 34 H        5.1850     0.4980    -0.4950 H     1 <1>   0.4500 
 35 H        3.8800     1.0230     2.1110 H     1 <1>   0.0800 
 36 H        5.5920     0.8150     1.8450 H     1 <1>   0.0800 
 37 H        0.9510    -4.5180    -0.7670 H     1 <1>   0.1500 
 38 H        5.6140    -5.3140    -0.4400 H     1 <1>   0.1500 
 39 H        6.7740     2.5520     0.2580 H     1 <1>   0.1500 
 40 H        2.8840     3.1680     1.8730 H     1 <1>   0.1500 
 41 H        4.0270    -7.1340    -0.2890 H     1 <1>   0.1500 
 42 H        4.2350     7.0300     0.6320 H     1 <1>   0.4000 
 43 H        6.8460     7.2970     0.8040 H     1 <1>   0.0800 
 44 H        6.7810     6.7700    -0.8640 H     1 <1>   0.0800 
 45 H        5.2240     8.6180    -1.3900 H     1 <1>   0.0800 
 46 H        5.2990     9.1590     0.2710 H     1 <1>   0.0800 
 47 H        7.6500     9.0640    -1.6470 H     1 <1>   0.0800 
 48 H        7.7270     9.6030     0.0170 H     1 <1>   0.0800 
 49 H        6.7950    10.5050    -1.1520 H     1 <1>   0.0800 
@<TRIPOS>BOND
  1   1   2  1   
  2   1  25  1   
  3   2   3  1   
  4   2   4  1   
  5   2  26  1   
  6   3   5  1   
  7   3   6  1   
  8   3  27  1   
  9   4   7  1   
 10   4  28  1   
 11   4  29  1   
 12   5   7  1   
 13   5  30  1   
 14   5  31  1   
 15   6   8  1   
 16   6  32  1   
 17   6  33  1   
 18   7   9  1   
 19   7  34  1   
 20   8  10  ar  
 21   8  11  ar  
 22   9  12  1   
 23   9  35  1   
 24   9  36  1   
 25  10  13  ar  
 26  11  14  ar  
 27  11  37  1   
 28  12  15  ar  
 29  12  16  ar  
 30  13  17  ar  
 31  13  38  1   
 32  14  17  ar  
 33  15  18  ar  
 34  15  39  1   
 35  16  19  ar  
 36  16  40  1   
 37  17  41  1   
 38  18  20  ar  
 39  19  20  ar  
 40  20  21  1   
 41  21  22  1   
 42  21  42  1   
 43  22  23  1   
 44  22  43  1   
 45  22  44  1   
 46  23  24  1   
 47  23  45  1   
 48  23  46  1   
 49  24  47  1   
 50  24  48  1   
 51  24  49  1   
@<TRIPOS>SUBSTRUCTURE
  1 ****   7 GROUP 4 **** **** 0

# MOE 2024.06 (io_trps.svl 2023.06)
