@<TRIPOS>MOLECULE
NONAME
45 47 1 0 0 
SMALL
USER_CHARGES


@<TRIPOS>ATOM
  1 F       -0.4680     2.3950     1.4830 F     1 <1>  -0.1900 
  2 C       -1.4440     2.7320     0.6800 C.ar  1 <1>   0.1900 
  3 C       -1.1410     3.2790    -0.5580 C.ar  1 <1>  -0.1440 
  4 C       -2.7420     2.5240     1.1150 C.ar  1 <1>  -0.1500 
  5 C       -2.2240     3.6170    -1.3550 C.ar  1 <1>   0.1900 
  6 C        0.3070     3.5020    -0.9940 C.3   1 <1>   0.0450 
  7 C       -3.7980     2.8740     0.2870 C.ar  1 <1>  -0.1500 
  8 F       -2.0160     4.1390    -2.5350 F     1 <1>  -0.1900 
  9 C       -3.5380     3.4250    -0.9580 C.ar  1 <1>  -0.1500 
 10 C        0.9450     4.6750    -0.2630 C.2   1 <1>   0.5690 
 11 O        0.3400     5.7180    -0.1650 O.2   1 <1>  -0.5700 
 12 N        2.2180     4.5930     0.2290 N.am  1 <1>  -0.6600 
 13 C        2.6020     5.4140     1.4370 C.3   1 <1>   0.1400 
 14 C        3.3450     4.0490    -0.5850 C.3   1 <1>   0.1400 
 15 C        3.2910     6.7540     1.0720 C.3   1 <1>   0.4230 
 16 C        4.2930     5.1370    -1.1570 C.3   1 <1>  -0.0800 
 17 N        2.8740     7.1260    -0.3300 N.4   1 <1>  -0.9590 
 18 C        4.8190     6.6840     1.3350 C.3   1 <1>   0.1200 
 19 C        5.6040     5.2590    -0.3660 C.3   1 <1>   0.1200 
 20 C        3.7000     6.5360    -1.4290 C.3   1 <1>   0.3430 
 21 C        2.7840     8.6370    -0.4920 C.3   1 <1>   0.2370 
 22 O        5.3590     5.4400     0.9850 O.3   1 <1>  -0.5600 
 23 C        4.0970     9.3870    -0.2590 C.2   1 <1>   0.9060 
 24 O        4.9290     9.3970    -1.1710 O.co2 1 <1>  -0.9000 
 25 O        4.3300     9.7920     0.8830 O.co2 1 <1>  -0.9000 
 26 H       -2.9200     2.0970     2.0860 H     1 <1>   0.1500 
 27 H        0.3630     3.6880    -2.0500 H     1 <1>   0.0800 
 28 H        0.8660     2.6080    -0.7900 H     1 <1>   0.0800 
 29 H       -4.8130     2.7210     0.6100 H     1 <1>   0.1500 
 30 H       -4.3410     3.7050    -1.6160 H     1 <1>   0.1500 
 31 H        1.7110     5.6440     1.9960 H     1 <1>   0.0800 
 32 H        3.2270     4.8300     2.0890 H     1 <1>   0.0800 
 33 H        3.9070     3.3550     0.0190 H     1 <1>   0.0800 
 34 H        2.9440     3.4900    -1.4120 H     1 <1>   0.0800 
 35 H        2.9100     7.5100     1.7380 H     1 <1>   0.0800 
 36 H        4.6070     4.7780    -2.1200 H     1 <1>   0.0800 
 37 H        1.9190     6.7240    -0.4100 H     1 <1>   0.4500 
 38 H        4.9830     6.7980     2.3910 H     1 <1>   0.0800 
 39 H        5.3660     7.4680     0.8420 H     1 <1>   0.0800 
 40 H        6.2140     6.0740    -0.7230 H     1 <1>   0.0800 
 41 H        6.1730     4.3500    -0.4580 H     1 <1>   0.0800 
 42 H        3.0920     6.4870    -2.3160 H     1 <1>   0.0800 
 43 H        4.5190     7.2040    -1.6480 H     1 <1>   0.0800 
 44 H        2.4520     8.8770    -1.4850 H     1 <1>   0.0800 
 45 H        2.0700     9.0330     0.2060 H     1 <1>   0.0800 
@<TRIPOS>BOND
  1   1   2  1   
  2   2   3  ar  
  3   2   4  ar  
  4   3   5  ar  
  5   3   6  1   
  6   4   7  ar  
  7   4  26  1   
  8   5   8  1   
  9   5   9  ar  
 10   6  10  1   
 11   6  27  1   
 12   6  28  1   
 13   7   9  ar  
 14   7  29  1   
 15   9  30  1   
 16  10  11  2   
 17  10  12  am  
 18  12  13  1   
 19  12  14  1   
 20  13  15  1   
 21  13  31  1   
 22  13  32  1   
 23  14  16  1   
 24  14  33  1   
 25  14  34  1   
 26  15  17  1   
 27  15  18  1   
 28  15  35  1   
 29  16  19  1   
 30  16  20  1   
 31  16  36  1   
 32  17  20  1   
 33  17  21  1   
 34  17  37  1   
 35  18  22  1   
 36  18  38  1   
 37  18  39  1   
 38  19  22  1   
 39  19  40  1   
 40  19  41  1   
 41  20  42  1   
 42  20  43  1   
 43  21  23  1   
 44  21  44  1   
 45  21  45  1   
 46  23  24  ar  
 47  23  25  ar  
@<TRIPOS>SUBSTRUCTURE
  1 ****  10 GROUP 4 **** **** 0

# MOE 2024.06 (io_trps.svl 2023.06)
