@<TRIPOS>MOLECULE
NONAME
51 53 1 0 0 
SMALL
USER_CHARGES


@<TRIPOS>ATOM
  1 O        0.5670     1.0740    -1.1240 O.2   1 <1>  -0.5700 
  2 C       -0.2760     1.8280    -0.7080 C.2   1 <1>   0.5690 
  3 N       -1.5740     1.5350    -0.4900 N.am  1 <1>  -0.6600 
  4 C        0.0100     3.2660    -0.3810 C.3   1 <1>  -0.0990 
  5 C       -2.3460     2.7040    -0.0320 C.3   1 <1>   0.1400 
  6 C       -2.2000     0.2240    -0.7660 C.3   1 <1>   0.2780 
  7 C       -1.2600     3.7180     0.3710 C.3   1 <1>  -0.0190 
  8 C       -2.8350    -0.3160     0.5020 C.2   1 <1>  -0.2880 
  9 C       -1.6470     5.1700     0.1240 C.2   1 <1>   0.5690 
 10 C       -2.4020    -1.3820     1.1830 C.2   1 <1>  -0.3000 
 11 O       -2.7930     5.4380    -0.1420 O.2   1 <1>  -0.5700 
 12 N       -0.6570     6.1090     0.2230 N.am  1 <1>  -0.4940 
 13 C       -0.6280     7.4960    -0.0410 C.2   1 <1>  -0.0880 
 14 N       -1.6210     8.4190     0.0800 N.pl3 1 <1>   0.3140 
 15 C        0.4840     8.1680    -0.4520 C.2   1 <1>  -0.0540 
 16 N       -1.1830     9.6570    -0.2400 N.2   1 <1>  -0.7070 
 17 C       -2.9970     8.2460     0.5610 C.3   1 <1>   0.0160 
 18 C        1.7860     7.6120    -0.7350 C.ar  1 <1>   0.0540 
 19 C        0.0620     9.4970    -0.5510 C.2   1 <1>   0.1080 
 20 C        2.9290     7.9440     0.0040 C.ar  1 <1>   0.0830 
 21 C        1.9140     6.6930    -1.7730 C.ar  1 <1>  -0.1500 
 22 C        0.9350    10.6560    -0.9750 C.3   1 <1>  -0.0590 
 23 O        2.7840     8.8400     1.0180 O.3   1 <1>  -0.3630 
 24 C        4.1530     7.3570    -0.3030 C.ar  1 <1>  -0.1500 
 25 C        3.1300     6.1090    -2.0730 C.ar  1 <1>  -0.1500 
 26 C        3.8770     9.2860     1.7890 C.3   1 <1>   0.0400 
 27 C        4.2520     6.4420    -1.3360 C.ar  1 <1>  -0.1500 
 28 H        0.1380     3.8020    -1.3040 H     1 <1>   0.0800 
 29 H        0.8940     3.3490     0.2240 H     1 <1>   0.0800 
 30 H       -2.9750     2.4610     0.8060 H     1 <1>   0.0800 
 31 H       -2.9480     3.0680    -0.8490 H     1 <1>   0.0800 
 32 H       -1.4490    -0.4630    -1.1180 H     1 <1>   0.0800 
 33 H       -2.9430     0.3330    -1.5370 H     1 <1>   0.0800 
 34 H       -1.0920     3.5980     1.4260 H     1 <1>   0.0800 
 35 H       -3.6940     0.2530     0.8100 H     1 <1>   0.1500 
 36 H       -2.8670    -1.7520     2.0810 H     1 <1>   0.1500 
 37 H       -1.5450    -1.9700     0.9030 H     1 <1>   0.1500 
 38 H        0.2740     5.7310     0.4040 H     1 <1>   0.3700 
 39 H       -3.0040     7.5470     1.3750 H     1 <1>   0.0800 
 40 H       -3.6050     7.8790    -0.2440 H     1 <1>   0.0800 
 41 H       -3.3760     9.1930     0.8960 H     1 <1>   0.0800 
 42 H        1.0430     6.4410    -2.3520 H     1 <1>   0.1500 
 43 H        1.6980    10.3220    -1.6520 H     1 <1>   0.0800 
 44 H        1.3970    11.0890    -0.1070 H     1 <1>   0.0800 
 45 H        0.3360    11.4030    -1.4620 H     1 <1>   0.0800 
 46 H        5.0420     7.5950     0.2500 H     1 <1>   0.1500 
 47 H        3.2060     5.4000    -2.8800 H     1 <1>   0.1500 
 48 H        3.5100    10.0030     2.5020 H     1 <1>   0.0800 
 49 H        4.5950     9.7530     1.1380 H     1 <1>   0.0800 
 50 H        4.3080     8.4470     2.3040 H     1 <1>   0.0800 
 51 H        5.2010     5.9890    -1.5680 H     1 <1>   0.1500 
@<TRIPOS>BOND
  1   1   2  2   
  2   2   3  am  
  3   2   4  1   
  4   3   5  1   
  5   3   6  1   
  6   4   7  1   
  7   4  28  1   
  8   4  29  1   
  9   5   7  1   
 10   5  30  1   
 11   5  31  1   
 12   6   8  1   
 13   6  32  1   
 14   6  33  1   
 15   7   9  1   
 16   7  34  1   
 17   8  10  2   
 18   8  35  1   
 19   9  11  2   
 20   9  12  am  
 21  10  36  1   
 22  10  37  1   
 23  12  13  1   
 24  12  38  1   
 25  13  14  1   
 26  13  15  2   
 27  14  16  1   
 28  14  17  1   
 29  15  18  1   
 30  15  19  1   
 31  16  19  2   
 32  17  39  1   
 33  17  40  1   
 34  17  41  1   
 35  18  20  ar  
 36  18  21  ar  
 37  19  22  1   
 38  20  23  1   
 39  20  24  ar  
 40  21  25  ar  
 41  21  42  1   
 42  22  43  1   
 43  22  44  1   
 44  22  45  1   
 45  23  26  1   
 46  24  27  ar  
 47  24  46  1   
 48  25  27  ar  
 49  25  47  1   
 50  26  48  1   
 51  26  49  1   
 52  26  50  1   
 53  27  51  1   
@<TRIPOS>SUBSTRUCTURE
  1 ****  12 GROUP 4 **** **** 0

# MOE 2024.06 (io_trps.svl 2023.06)
