@<TRIPOS>MOLECULE
NONAME
47 50 1 0 0 
SMALL
USER_CHARGES


@<TRIPOS>ATOM
  1 O       -1.0030    -0.2520    -0.1090 O.3   1 <1>  -0.2800 
  2 C       -1.0290     1.0340    -0.3650 C.2   1 <1>   0.4250 
  3 C       -1.0080    -0.7310    -1.3190 C.2   1 <1>   0.2980 
  4 N       -1.0330     1.3030    -1.6270 N.2   1 <1>  -0.3380 
  5 C       -1.0500     1.9840     0.7220 C.ar  1 <1>   0.0530 
  6 N       -1.0200     0.1450    -2.2450 N.2   1 <1>  -0.3380 
  7 C       -1.0030    -2.2430    -1.5270 C.3   1 <1>   0.2900 
  8 C       -1.1340     1.5700     2.0530 C.ar  1 <1>   0.1600 
  9 C       -0.9890     3.3550     0.4980 C.ar  1 <1>  -0.1500 
 10 N       -2.1840    -2.9250    -0.9400 N.3   1 <1>  -0.8100 
 11 N       -1.1570     2.3610     3.1140 N.ar  1 <1>  -0.6200 
 12 C       -1.0130     4.1970     1.5880 C.ar  1 <1>  -0.1500 
 13 C       -2.0400    -4.3850    -1.0190 C.3   1 <1>   0.1100 
 14 C       -3.4410    -2.4590    -1.5520 C.3   1 <1>   0.1100 
 15 C       -1.0960     3.6570     2.8590 C.ar  1 <1>   0.1600 
 16 C       -3.1950    -5.0680    -0.2840 C.3   1 <1>  -0.1600 
 17 C       -4.6340    -3.0860    -0.8280 C.3   1 <1>  -0.1600 
 18 C       -4.5400    -4.6090    -0.8530 C.3   1 <1>   0.2000 
 19 O       -5.5770    -5.1020    -0.0670 O.3   1 <1>  -0.5600 
 20 C       -5.9860    -6.4110    -0.3650 C.3   1 <1>   0.2630 
 21 C       -7.1450    -6.8750     0.5160 C.ar  1 <1>   0.1670 
 22 N       -7.6280    -8.0780     0.2260 N.ar  1 <1>  -0.6200 
 23 C       -7.6380    -6.0800     1.5440 C.ar  1 <1>  -0.1500 
 24 C       -8.6320    -8.4960     0.9800 C.ar  1 <1>   0.1600 
 25 C       -8.6830    -6.5300     2.3220 C.ar  1 <1>  -0.1500 
 26 C       -9.1880    -7.7750     2.0230 C.ar  1 <1>  -0.1500 
 27 H       -0.1100    -2.6320    -1.0710 H     1 <1>   0.0800 
 28 H       -0.9560    -2.4490    -2.5830 H     1 <1>   0.0800 
 29 H       -1.1870     0.5130     2.2520 H     1 <1>   0.1500 
 30 H       -0.9240     3.7470    -0.5040 H     1 <1>   0.1500 
 31 H       -0.9670     5.2630     1.4570 H     1 <1>   0.1500 
 32 H       -1.1120    -4.6810    -0.5580 H     1 <1>   0.0800 
 33 H       -2.0250    -4.6970    -2.0500 H     1 <1>   0.0800 
 34 H       -3.4630    -2.7210    -2.5970 H     1 <1>   0.0800 
 35 H       -3.5180    -1.3880    -1.4690 H     1 <1>   0.0800 
 36 H       -1.1140     4.3220     3.7060 H     1 <1>   0.1500 
 37 H       -3.1390    -4.8130     0.7600 H     1 <1>   0.0800 
 38 H       -3.0890    -6.1310    -0.3850 H     1 <1>   0.0800 
 39 H       -5.5450    -2.7730    -1.3040 H     1 <1>   0.0800 
 40 H       -4.6410    -2.7390     0.1900 H     1 <1>   0.0800 
 41 H       -4.6640    -4.9560    -1.8660 H     1 <1>   0.0800 
 42 H       -5.1550    -7.0770    -0.2230 H     1 <1>   0.0800 
 43 H       -6.2980    -6.4440    -1.3940 H     1 <1>   0.0800 
 44 H       -7.2090    -5.1140     1.7380 H     1 <1>   0.1500 
 45 H       -9.0350    -9.4690     0.7550 H     1 <1>   0.1500 
 46 H       -9.0840    -5.9330     3.1230 H     1 <1>   0.1500 
 47 H      -10.0040    -8.1860     2.5890 H     1 <1>   0.1500 
@<TRIPOS>BOND
  1   1   2  1   
  2   1   3  1   
  3   2   4  2   
  4   2   5  1   
  5   3   6  2   
  6   3   7  1   
  7   4   6  1   
  8   5   8  ar  
  9   5   9  ar  
 10   7  10  1   
 11   7  27  1   
 12   7  28  1   
 13   8  11  ar  
 14   8  29  1   
 15   9  12  ar  
 16   9  30  1   
 17  10  13  1   
 18  10  14  1   
 19  11  15  ar  
 20  12  15  ar  
 21  12  31  1   
 22  13  16  1   
 23  13  32  1   
 24  13  33  1   
 25  14  17  1   
 26  14  34  1   
 27  14  35  1   
 28  15  36  1   
 29  16  18  1   
 30  16  37  1   
 31  16  38  1   
 32  17  18  1   
 33  17  39  1   
 34  17  40  1   
 35  18  19  1   
 36  18  41  1   
 37  19  20  1   
 38  20  21  1   
 39  20  42  1   
 40  20  43  1   
 41  21  22  ar  
 42  21  23  ar  
 43  22  24  ar  
 44  23  25  ar  
 45  23  44  1   
 46  24  26  ar  
 47  24  45  1   
 48  25  26  ar  
 49  25  46  1   
 50  26  47  1   
@<TRIPOS>SUBSTRUCTURE
  1 ****  17 GROUP 4 **** **** 0

# MOE 2024.06 (io_trps.svl 2023.06)
