@<TRIPOS>MOLECULE
Untitled Document
53 56 1 0 0 
SMALL
USER_CHARGES


@<TRIPOS>ATOM
  1 O       -1.1390    -1.9230    -3.0720 O.2   1 <1>  -0.5700 
  2 C       -0.9820    -2.3810    -1.9610 C.2   1 <1>   0.5440 
  3 N        0.3010    -2.5310    -1.5580 N.am  1 <1>  -0.8000 
  4 C       -2.1070    -2.7320    -1.1100 C.ar  1 <1>   0.0860 
  5 C       -1.9960    -3.6710    -0.0820 C.ar  1 <1>  -0.1500 
  6 C       -3.3540    -2.1340    -1.2940 C.ar  1 <1>  -0.1500 
  7 C       -3.0740    -3.9900     0.7240 C.ar  1 <1>  -0.1500 
  8 C       -4.4340    -2.4510    -0.4910 C.ar  1 <1>  -0.1500 
  9 C       -4.3030    -3.3850     0.5210 C.ar  1 <1>  -0.0320 
 10 C       -5.4980    -3.7310     1.3890 C.3   1 <1>  -0.0680 
 11 C       -6.6930    -4.3720     0.7430 C.3   1 <1>  -0.1000 
 12 C       -5.8400    -5.1550     1.6970 C.3   1 <1>  -0.2000 
 13 C       -8.1010    -3.9140     1.1060 C.2   1 <1>   0.6300 
 14 O       -8.2500    -2.7790     1.4870 O.2   1 <1>  -0.5700 
 15 N       -9.1790    -4.7570     0.9770 N.am  1 <1>  -0.6600 
 16 C       -9.1070    -6.1180     0.3640 C.3   1 <1>   0.2200 
 17 C      -10.5460    -4.2050     1.2660 C.3   1 <1>   0.1400 
 18 C      -10.4030    -6.4150    -0.4290 C.3   1 <1>   0.3430 
 19 C       -8.8520    -7.1620     1.4580 C.3   1 <1>  -0.2400 
 20 C      -11.6100    -5.2960     1.4960 C.3   1 <1>   0.3430 
 21 N      -11.6620    -6.3520     0.4140 N.4   1 <1>  -0.9280 
 22 C      -12.9370    -6.2280    -0.3620 C.3   1 <1>   0.4720 
 23 C      -13.0880    -7.1390    -1.6110 C.3   1 <1>   0.0000 
 24 C      -13.0490    -5.0090    -1.3190 C.3   1 <1>   0.0000 
 25 C      -13.8310    -5.9490    -2.2730 C.3   1 <1>   0.0000 
 26 H        1.0440    -2.2330    -2.1900 H     1 <1>   0.3700 
 27 H        0.5740    -2.7660    -0.6060 H     1 <1>   0.3700 
 28 H       -1.0570    -4.1650     0.0870 H     1 <1>   0.1500 
 29 H       -3.4720    -1.4080    -2.0810 H     1 <1>   0.1500 
 30 H       -2.9590    -4.7130     1.5120 H     1 <1>   0.1500 
 31 H       -5.3830    -1.9670    -0.6520 H     1 <1>   0.1500 
 32 H       -5.6750    -2.9980     2.1590 H     1 <1>   0.1000 
 33 H       -6.5960    -4.5630    -0.3100 H     1 <1>   0.1000 
 34 H       -6.2020    -5.3690     2.6880 H     1 <1>   0.1000 
 35 H       -5.2150    -5.9390     1.3060 H     1 <1>   0.1000 
 36 H       -8.2880    -6.1520    -0.3340 H     1 <1>   0.0800 
 37 H      -10.4990    -3.5840     2.1460 H     1 <1>   0.0800 
 38 H      -10.8480    -3.5750     0.4480 H     1 <1>   0.0800 
 39 H      -10.3200    -7.3900    -0.8820 H     1 <1>   0.0800 
 40 H      -10.4600    -5.6940    -1.2260 H     1 <1>   0.0800 
 41 H       -9.6130    -7.1480     2.2150 H     1 <1>   0.0800 
 42 H       -7.9040    -6.9800     1.9310 H     1 <1>   0.0800 
 43 H       -8.8130    -8.1470     1.0280 H     1 <1>   0.0800 
 44 H      -12.5740    -4.8260     1.6020 H     1 <1>   0.0800 
 45 H      -11.3850    -5.7690     2.4370 H     1 <1>   0.0800 
 46 H      -11.7270    -7.2530     0.9040 H     1 <1>   0.4500 
 47 H      -13.7960    -6.2990     0.2820 H     1 <1>   0.0000 
 48 H      -12.1730    -7.3700    -2.1260 H     1 <1>   0.0000 
 49 H      -13.7230    -7.9930    -1.4510 H     1 <1>   0.0000 
 50 H      -13.6510    -4.2080    -0.9310 H     1 <1>   0.0000 
 51 H      -12.1180    -4.6830    -1.7490 H     1 <1>   0.0000 
 52 H      -14.8890    -5.9570    -2.0710 H     1 <1>   0.0000 
 53 H      -13.5930    -5.8110    -3.3130 H     1 <1>   0.0000 
@<TRIPOS>BOND
  1   1   2  2   
  2   2   3  am  
  3   2   4  1   
  4   3  26  1   
  5   3  27  1   
  6   4   5  ar  
  7   4   6  ar  
  8   5   7  ar  
  9   5  28  1   
 10   6   8  ar  
 11   6  29  1   
 12   7   9  ar  
 13   7  30  1   
 14   8   9  ar  
 15   8  31  1   
 16   9  10  1   
 17  10  11  1   
 18  10  12  1   
 19  10  32  1   
 20  11  12  1   
 21  11  13  1   
 22  11  33  1   
 23  12  34  1   
 24  12  35  1   
 25  13  14  2   
 26  13  15  am  
 27  15  16  1   
 28  15  17  1   
 29  16  18  1   
 30  16  19  1   
 31  16  36  1   
 32  17  20  1   
 33  17  37  1   
 34  17  38  1   
 35  18  21  1   
 36  18  39  1   
 37  18  40  1   
 38  19  41  1   
 39  19  42  1   
 40  19  43  1   
 41  20  21  1   
 42  20  44  1   
 43  20  45  1   
 44  21  22  1   
 45  21  46  1   
 46  22  23  1   
 47  22  24  1   
 48  22  47  1   
 49  23  25  1   
 50  23  48  1   
 51  23  49  1   
 52  24  25  1   
 53  24  50  1   
 54  24  51  1   
 55  25  52  1   
 56  25  53  1   
@<TRIPOS>SUBSTRUCTURE
  1 ****  11 GROUP 4 **** **** 0

# MOE 2024.06 (io_trps.svl 2023.06)
