@<TRIPOS>MOLECULE
NONAME
53 56 1 0 0 
SMALL
USER_CHARGES


@<TRIPOS>ATOM
  1 CL       0.4730    -1.0720    -2.1120 Cl    1 <1>  -0.1770 
  2 C       -0.6330    -2.0850    -1.2150 C.ar  1 <1>   0.1770 
  3 C       -0.3000    -3.3930    -0.9610 C.ar  1 <1>  -0.1500 
  4 C       -1.8380    -1.5280    -0.7760 C.ar  1 <1>  -0.1500 
  5 C       -1.2010    -4.1860    -0.2420 C.ar  1 <1>   0.0000 
  6 C       -2.7290    -2.3000    -0.0670 C.ar  1 <1>  -0.1500 
  7 C       -2.4010    -3.6340     0.1960 C.ar  1 <1>  -0.1520 
  8 C       -1.1940    -5.5310     0.1910 C.2   1 <1>  -0.1810 
  9 N       -3.0990    -4.6000     0.8710 N.pl3 1 <1>   0.0330 
 10 C       -2.3590    -5.7560     0.8500 C.2   1 <1>  -0.3320 
 11 C       -0.0290    -6.4670    -0.0770 C.3   1 <1>  -0.0590 
 12 C       -2.8570    -7.0260     1.4950 C.3   1 <1>   0.5230 
 13 N       -3.3130    -7.9050     0.3950 N.4   1 <1>  -0.9590 
 14 C       -3.5120    -9.3090     0.9280 C.3   1 <1>   0.3430 
 15 C       -4.5310    -7.2860    -0.2310 C.3   1 <1>   0.3430 
 16 C       -4.3120   -10.2670    -0.0140 C.3   1 <1>   0.4230 
 17 C       -5.2780    -8.2760    -1.1310 C.3   1 <1>  -0.1600 
 18 N       -4.5760   -11.6340     0.5720 N.4   1 <1>  -0.9590 
 19 C       -5.6400    -9.5790    -0.3720 C.3   1 <1>  -0.1060 
 20 C       -5.3370   -12.5250    -0.3480 C.3   1 <1>   0.3430 
 21 C       -3.4140   -12.3450     1.1790 C.3   1 <1>   0.2630 
 22 C       -6.3490    -9.2600     0.9590 C.2   1 <1>   0.9060 
 23 C       -6.5010   -10.4750    -1.2930 C.3   1 <1>  -0.1600 
 24 C       -6.6760   -11.8830    -0.7090 C.3   1 <1>  -0.1600 
 25 O       -6.1910   -10.0420     1.9060 O.co2 1 <1>  -0.9000 
 26 O       -6.8840    -8.1660     1.1090 O.co2 1 <1>  -0.9000 
 27 H        0.6310    -3.8000    -1.3050 H     1 <1>   0.1500 
 28 H       -2.0470    -0.4980    -1.0020 H     1 <1>   0.1500 
 29 H       -3.6620    -1.8900     0.2810 H     1 <1>   0.1500 
 30 H       -4.0050    -4.4340     1.3260 H     1 <1>   0.2700 
 31 H        0.8720    -6.0440     0.3320 H     1 <1>   0.0800 
 32 H        0.1050    -6.5920    -1.1370 H     1 <1>   0.0800 
 33 H       -0.1860    -7.4280     0.3740 H     1 <1>   0.0800 
 34 H       -3.6620    -6.8230     2.1850 H     1 <1>   0.0800 
 35 H       -2.0460    -7.4900     2.0330 H     1 <1>   0.0800 
 36 H       -2.5650    -7.8620    -0.3070 H     1 <1>   0.4500 
 37 H       -2.5490    -9.7450     1.1330 H     1 <1>   0.0800 
 38 H       -4.0490    -9.2460     1.8610 H     1 <1>   0.0800 
 39 H       -5.1990    -6.9430     0.5430 H     1 <1>   0.0800 
 40 H       -4.2460    -6.4220    -0.8100 H     1 <1>   0.0800 
 41 H       -3.7420   -10.3990    -0.9180 H     1 <1>   0.0800 
 42 H       -6.1870    -7.7960    -1.4550 H     1 <1>   0.0800 
 43 H       -4.6950    -8.4830    -2.0110 H     1 <1>   0.0800 
 44 H       -5.2630   -11.3960     1.3420 H     1 <1>   0.4500 
 45 H       -4.7660   -12.7010    -1.2450 H     1 <1>   0.0800 
 46 H       -5.5220   -13.4740     0.1300 H     1 <1>   0.0800 
 47 H       -2.6700   -12.5610     0.4300 H     1 <1>   0.0800 
 48 H       -3.7410   -13.2740     1.6180 H     1 <1>   0.0800 
 49 H       -2.9710   -11.7470     1.9590 H     1 <1>   0.0800 
 50 H       -7.4720   -10.0230    -1.4270 H     1 <1>   0.0800 
 51 H       -6.0430   -10.5550    -2.2640 H     1 <1>   0.0800 
 52 H       -7.1850   -12.5050    -1.4240 H     1 <1>   0.0800 
 53 H       -7.2960   -11.8410     0.1720 H     1 <1>   0.0800 
@<TRIPOS>BOND
  1   1   2  1   
  2   2   3  ar  
  3   2   4  ar  
  4   3   5  ar  
  5   3  27  1   
  6   4   6  ar  
  7   4  28  1   
  8   5   7  ar  
  9   5   8  1   
 10   6   7  ar  
 11   6  29  1   
 12   7   9  1   
 13   8  10  2   
 14   8  11  1   
 15   9  10  1   
 16   9  30  1   
 17  10  12  1   
 18  11  31  1   
 19  11  32  1   
 20  11  33  1   
 21  12  13  1   
 22  12  34  1   
 23  12  35  1   
 24  13  14  1   
 25  13  15  1   
 26  13  36  1   
 27  14  16  1   
 28  14  37  1   
 29  14  38  1   
 30  15  17  1   
 31  15  39  1   
 32  15  40  1   
 33  16  18  1   
 34  16  19  1   
 35  16  41  1   
 36  17  19  1   
 37  17  42  1   
 38  17  43  1   
 39  18  20  1   
 40  18  21  1   
 41  18  44  1   
 42  19  22  1   
 43  19  23  1   
 44  20  24  1   
 45  20  45  1   
 46  20  46  1   
 47  21  47  1   
 48  21  48  1   
 49  21  49  1   
 50  22  25  ar  
 51  22  26  ar  
 52  23  24  1   
 53  23  50  1   
 54  23  51  1   
 55  24  52  1   
 56  24  53  1   
@<TRIPOS>SUBSTRUCTURE
  1 ****  13 GROUP 4 **** **** 0

# MOE 2024.06 (io_trps.svl 2023.06)
