@<TRIPOS>MOLECULE
NONAME
45 45 1 0 0 
SMALL
USER_CHARGES


@<TRIPOS>ATOM
  1 O       -1.9170    -0.0540    -2.0240 O.2   1 <1>  -0.5700 
  2 C       -1.8300     0.2880    -0.8630 C.2   1 <1>   0.5690 
  3 N       -2.0780    -0.6260     0.1330 N.am  1 <1>  -0.6600 
  4 C       -1.4670     1.7670    -0.5420 C.3   1 <1>   0.2810 
  5 C       -2.4400    -2.0320    -0.2120 C.3   1 <1>   0.3200 
  6 C       -2.1640    -0.2990     1.5850 C.3   1 <1>   0.1400 
  7 N       -0.0800     1.8750    -0.0050 N.am  1 <1>  -0.7300 
  8 C       -1.6390     2.6890    -1.7730 C.3   1 <1>  -0.1600 
  9 C       -3.9210    -2.1170    -0.5290 C.2   1 <1>   0.0060 
 10 C       -3.5710     0.1950     1.9440 C.3   1 <1>   0.1200 
 11 C        0.3630     2.4230     1.1470 C.2   1 <1>   0.5690 
 12 C       -1.5470     4.2090    -1.5090 C.3   1 <1>  -0.0800 
 13 N       -4.8130    -2.6920     0.2130 N.2   1 <1>  -0.5650 
 14 N       -4.4250    -1.5620    -1.6520 N.pl3 1 <1>   0.0330 
 15 O       -3.5290     0.8140     3.1840 O.3   1 <1>  -0.6800 
 16 O        1.5130     2.2810     1.4670 O.2   1 <1>  -0.5700 
 17 C       -0.5480     3.2250     2.0460 C.3   1 <1>  -0.1790 
 18 C       -2.3970     4.9690    -2.5360 C.3   1 <1>  -0.2400 
 19 C       -0.1060     4.7340    -1.5950 C.3   1 <1>  -0.2400 
 20 C       -5.9620    -2.5050    -0.4670 C.2   1 <1>   0.0770 
 21 C       -5.7450    -1.8150    -1.6080 C.2   1 <1>  -0.3020 
 22 H       -2.1590     2.1050     0.2060 H     1 <1>   0.0800 
 23 H       -1.8700    -2.3600    -1.0640 H     1 <1>   0.0800 
 24 H       -2.2110    -2.6900     0.6080 H     1 <1>   0.0800 
 25 H       -1.9300    -1.1710     2.1700 H     1 <1>   0.0800 
 26 H       -1.4400     0.4550     1.8250 H     1 <1>   0.0800 
 27 H        0.6330     1.4020    -0.5650 H     1 <1>   0.3700 
 28 H       -0.9430     2.4020    -2.5420 H     1 <1>   0.0800 
 29 H       -2.6210     2.4840    -2.1630 H     1 <1>   0.0800 
 30 H       -4.2750    -0.6190     1.9850 H     1 <1>   0.0800 
 31 H       -3.9100     0.9250     1.2320 H     1 <1>   0.0800 
 32 H       -1.9450     4.4270    -0.5320 H     1 <1>   0.0800 
 33 H       -3.8780    -1.0420    -2.3510 H     1 <1>   0.2700 
 34 H       -3.5330     0.1500     3.9030 H     1 <1>   0.4000 
 35 H       -0.8440     4.1280     1.5490 H     1 <1>   0.0800 
 36 H       -0.0200     3.4890     2.9450 H     1 <1>   0.0800 
 37 H       -1.4180     2.6610     2.3180 H     1 <1>   0.0800 
 38 H       -2.0520     4.7690    -3.5360 H     1 <1>   0.0800 
 39 H       -2.3390     6.0290    -2.3610 H     1 <1>   0.0800 
 40 H       -3.4290     4.6770    -2.4640 H     1 <1>   0.0800 
 41 H        0.3130     4.5310    -2.5650 H     1 <1>   0.0800 
 42 H        0.5260     4.2830    -0.8550 H     1 <1>   0.0800 
 43 H       -0.0860     5.7970    -1.4340 H     1 <1>   0.0800 
 44 H       -6.9000    -2.8830    -0.0930 H     1 <1>   0.1500 
 45 H       -6.4360    -1.5000    -2.3680 H     1 <1>   0.1500 
@<TRIPOS>BOND
  1   1   2  2   
  2   2   3  am  
  3   2   4  1   
  4   3   5  1   
  5   3   6  1   
  6   4   7  1   
  7   4   8  1   
  8   4  22  1   
  9   5   9  1   
 10   5  23  1   
 11   5  24  1   
 12   6  10  1   
 13   6  25  1   
 14   6  26  1   
 15   7  11  am  
 16   7  27  1   
 17   8  12  1   
 18   8  28  1   
 19   8  29  1   
 20   9  13  2   
 21   9  14  1   
 22  10  15  1   
 23  10  30  1   
 24  10  31  1   
 25  11  16  2   
 26  11  17  1   
 27  12  18  1   
 28  12  19  1   
 29  12  32  1   
 30  13  20  1   
 31  14  21  1   
 32  14  33  1   
 33  15  34  1   
 34  17  35  1   
 35  17  36  1   
 36  17  37  1   
 37  18  38  1   
 38  18  39  1   
 39  18  40  1   
 40  19  41  1   
 41  19  42  1   
 42  19  43  1   
 43  20  21  2   
 44  20  44  1   
 45  21  45  1   
@<TRIPOS>SUBSTRUCTURE
  1 ****   2 GROUP 4 **** **** 0

# MOE 2024.06 (io_trps.svl 2023.06)
