@<TRIPOS>MOLECULE
NONAME
51 53 1 0 0 
SMALL
USER_CHARGES


@<TRIPOS>ATOM
  1 F       -3.0960    -2.1070    -3.2570 F     1 <1>  -0.1900 
  2 C       -2.2540    -2.5440    -2.3580 C.ar  1 <1>   0.1900 
  3 C       -2.3410    -2.0590    -1.0540 C.ar  1 <1>   0.0000 
  4 C       -1.3210    -3.4830    -2.7530 C.ar  1 <1>  -0.1500 
  5 C       -3.3700    -1.1320    -0.6350 C.ar  1 <1>   0.0000 
  6 C       -1.4030    -2.5440    -0.1440 C.ar  1 <1>  -0.1500 
  7 C       -0.4130    -3.9560    -1.8220 C.ar  1 <1>  -0.1500 
  8 C       -4.3510    -1.5140     0.2950 C.ar  1 <1>   0.0860 
  9 C       -3.3960     0.1600    -1.1530 C.ar  1 <1>  -0.1500 
 10 C       -0.4530    -3.4790    -0.5210 C.ar  1 <1>  -0.1500 
 11 C       -4.3790    -2.8460     0.8630 C.2   1 <1>   0.5440 
 12 C       -5.3070    -0.5770     0.6820 C.ar  1 <1>  -0.1500 
 13 C       -4.3570     1.0720    -0.7620 C.ar  1 <1>  -0.1500 
 14 O       -4.1570    -2.9790     2.0540 O.2   1 <1>  -0.5700 
 15 N       -4.6450    -3.9630     0.1000 N.am  1 <1>  -0.6600 
 16 C       -5.3170     0.7030     0.1620 C.ar  1 <1>  -0.1500 
 17 C       -4.2180    -5.3300     0.5490 C.3   1 <1>   0.1400 
 18 C       -5.1710    -3.9180    -1.2880 C.3   1 <1>   0.1400 
 19 C       -5.0140    -6.4940    -0.1060 C.3   1 <1>  -0.1060 
 20 C       -6.4430    -4.7660    -1.3820 C.3   1 <1>  -0.1600 
 21 C       -4.3530    -6.9680    -1.4150 C.2   1 <1>   0.9060 
 22 C       -6.4360    -5.9590    -0.4100 C.3   1 <1>   0.2000 
 23 C       -5.0990    -7.6810     0.8990 C.3   1 <1>  -0.1600 
 24 O       -5.0260    -7.6400    -2.2130 O.co2 1 <1>  -0.9000 
 25 O       -3.1720    -6.6940    -1.6620 O.co2 1 <1>  -0.9000 
 26 O       -7.2160    -6.9530    -0.9660 O.3   1 <1>  -0.6800 
 27 C       -3.7330    -8.2460     1.3280 C.3   1 <1>  -0.1600 
 28 C       -3.9050    -9.4240     2.2900 C.3   1 <1>  -0.2400 
 29 H       -1.3150    -3.8500    -3.7630 H     1 <1>   0.1500 
 30 H       -1.4330    -2.2000     0.8750 H     1 <1>   0.1500 
 31 H        0.3090    -4.7020    -2.1050 H     1 <1>   0.1500 
 32 H       -2.6490     0.4490    -1.8710 H     1 <1>   0.1500 
 33 H        0.2490    -3.8520     0.2040 H     1 <1>   0.1500 
 34 H       -6.0490    -0.8690     1.4060 H     1 <1>   0.1500 
 35 H       -4.3590     2.0670    -1.1740 H     1 <1>   0.1500 
 36 H       -6.0670     1.4100     0.4740 H     1 <1>   0.1500 
 37 H       -3.1630    -5.4430     0.3650 H     1 <1>   0.0800 
 38 H       -4.3560    -5.3800     1.6140 H     1 <1>   0.0800 
 39 H       -5.3800    -2.9110    -1.6010 H     1 <1>   0.0800 
 40 H       -4.4200    -4.3220    -1.9480 H     1 <1>   0.0800 
 41 H       -6.5280    -5.1140    -2.3970 H     1 <1>   0.0800 
 42 H       -7.2950    -4.1510    -1.1660 H     1 <1>   0.0800 
 43 H       -6.9040    -5.6600     0.5120 H     1 <1>   0.0800 
 44 H       -5.6430    -7.3670     1.7720 H     1 <1>   0.0800 
 45 H       -5.6600    -8.4780     0.4400 H     1 <1>   0.0800 
 46 H       -6.6090    -7.4180    -1.6170 H     1 <1>   0.4000 
 47 H       -3.1900    -8.5780     0.4580 H     1 <1>   0.0800 
 48 H       -3.1460    -7.4840     1.8100 H     1 <1>   0.0800 
 49 H       -4.4630   -10.2120     1.8150 H     1 <1>   0.0800 
 50 H       -4.4280    -9.1120     3.1770 H     1 <1>   0.0800 
 51 H       -2.9410    -9.8090     2.5730 H     1 <1>   0.0800 
@<TRIPOS>BOND
  1   1   2  1   
  2   2   3  ar  
  3   2   4  ar  
  4   3   5  1   
  5   3   6  ar  
  6   4   7  ar  
  7   4  29  1   
  8   5   8  ar  
  9   5   9  ar  
 10   6  10  ar  
 11   6  30  1   
 12   7  10  ar  
 13   7  31  1   
 14   8  11  1   
 15   8  12  ar  
 16   9  13  ar  
 17   9  32  1   
 18  10  33  1   
 19  11  14  2   
 20  11  15  am  
 21  12  16  ar  
 22  12  34  1   
 23  13  16  ar  
 24  13  35  1   
 25  15  17  1   
 26  15  18  1   
 27  16  36  1   
 28  17  19  1   
 29  17  37  1   
 30  17  38  1   
 31  18  20  1   
 32  18  39  1   
 33  18  40  1   
 34  19  21  1   
 35  19  22  1   
 36  19  23  1   
 37  20  22  1   
 38  20  41  1   
 39  20  42  1   
 40  21  24  ar  
 41  21  25  ar  
 42  22  26  1   
 43  22  43  1   
 44  23  27  1   
 45  23  44  1   
 46  23  45  1   
 47  26  46  1   
 48  27  28  1   
 49  27  47  1   
 50  27  48  1   
 51  28  49  1   
 52  28  50  1   
 53  28  51  1   
@<TRIPOS>SUBSTRUCTURE
  1 ****  15 GROUP 4 **** **** 0

# MOE 2024.06 (io_trps.svl 2023.06)
