@<TRIPOS>MOLECULE
NONAME
48 50 1 0 0 
SMALL
USER_CHARGES


@<TRIPOS>ATOM
  1 S        0.4420     0.6180     0.2470 S.o2  1 <1>   1.3330 
  2 O        1.5180     0.7670     1.2030 O.2   1 <1>  -0.6500 
  3 O       -0.8430     0.1230     0.6860 O.2   1 <1>  -0.6500 
  4 N        0.9990    -0.3870    -1.0030 N.am  1 <1>  -0.8490 
  5 C        0.1780     2.1780    -0.5970 C.3   1 <1>  -0.0550 
  6 C        2.4440    -0.2850    -1.2380 C.3   1 <1>   0.1160 
  7 C        0.6260    -1.7910    -0.8000 C.3   1 <1>   0.1160 
  8 C       -0.4850     3.2590     0.2790 C.3   1 <1>  -0.0800 
  9 C       -0.7690     4.5190    -0.5420 C.3   1 <1>   0.2000 
 10 C        0.4330     3.7390     1.4220 C.3   1 <1>   0.1100 
 11 O       -1.9110     5.1040    -0.0330 O.3   1 <1>  -0.6800 
 12 C        0.4010     5.4320    -0.2010 C.3   1 <1>   0.1100 
 13 N        0.6300     5.1810     1.2260 N.3   1 <1>  -0.8100 
 14 C        1.9490     5.6580     1.6970 C.3   1 <1>   0.2900 
 15 C        2.1390     7.1540     1.4760 C.2   1 <1>   0.1980 
 16 S        1.1480     8.2380     2.4220 S.3   1 <1>  -0.0800 
 17 N        2.9370     7.7420     0.6760 N.2   1 <1>  -0.5650 
 18 C        1.9110     9.5790     1.6260 C.2   1 <1>  -0.1100 
 19 C        2.8240     9.1330     0.7370 C.2   1 <1>   0.1730 
 20 C        3.6600     9.9510    -0.1260 C.ar  1 <1>   0.0540 
 21 C        3.2740    11.2470    -0.4820 C.ar  1 <1>  -0.1500 
 22 C        4.8730     9.4700    -0.6290 C.ar  1 <1>  -0.1500 
 23 C        4.0630    12.0360    -1.3010 C.ar  1 <1>  -0.1500 
 24 C        5.6750    10.2430    -1.4490 C.ar  1 <1>  -0.1500 
 25 C        5.2540    11.5180    -1.7710 C.ar  1 <1>   0.1900 
 26 F        6.0030    12.2560    -2.5440 F     1 <1>  -0.1900 
 27 H        1.1140     2.5450    -0.9710 H     1 <1>   0.0800 
 28 H       -0.4590     1.9940    -1.4400 H     1 <1>   0.0800 
 29 H        2.7210    -0.8700    -2.0980 H     1 <1>   0.0800 
 30 H        2.9910    -0.6410    -0.3800 H     1 <1>   0.0800 
 31 H        2.7190     0.7390    -1.4220 H     1 <1>   0.0800 
 32 H        0.9820    -2.3950    -1.6170 H     1 <1>   0.0800 
 33 H       -0.4470    -1.8850    -0.7570 H     1 <1>   0.0800 
 34 H        1.0420    -2.1590     0.1230 H     1 <1>   0.0800 
 35 H       -1.4010     2.8550     0.6770 H     1 <1>   0.0800 
 36 H       -0.9060     4.3530    -1.5960 H     1 <1>   0.0800 
 37 H        1.3820     3.2310     1.3920 H     1 <1>   0.0800 
 38 H       -0.0240     3.5610     2.3810 H     1 <1>   0.0800 
 39 H       -1.6760     5.4380     0.8610 H     1 <1>   0.4000 
 40 H        0.1720     6.4670    -0.3940 H     1 <1>   0.0800 
 41 H        1.2670     5.1460    -0.7730 H     1 <1>   0.0800 
 42 H        2.0460     5.4500     2.7480 H     1 <1>   0.0800 
 43 H        2.7320     5.1340     1.1770 H     1 <1>   0.0800 
 44 H        1.6010    10.5670     1.9060 H     1 <1>   0.1500 
 45 H        2.3420    11.6430    -0.1210 H     1 <1>   0.1500 
 46 H        5.1900     8.4750    -0.3690 H     1 <1>   0.1500 
 47 H        3.7660    13.0320    -1.5750 H     1 <1>   0.1500 
 48 H        6.6070     9.8690    -1.8330 H     1 <1>   0.1500 
@<TRIPOS>BOND
  1   1   2  2   
  2   1   3  2   
  3   1   4  am  
  4   1   5  1   
  5   4   6  1   
  6   4   7  1   
  7   5   8  1   
  8   5  27  1   
  9   5  28  1   
 10   6  29  1   
 11   6  30  1   
 12   6  31  1   
 13   7  32  1   
 14   7  33  1   
 15   7  34  1   
 16   8   9  1   
 17   8  10  1   
 18   8  35  1   
 19   9  11  1   
 20   9  12  1   
 21   9  36  1   
 22  10  13  1   
 23  10  37  1   
 24  10  38  1   
 25  11  39  1   
 26  12  13  1   
 27  12  40  1   
 28  12  41  1   
 29  13  14  1   
 30  14  15  1   
 31  14  42  1   
 32  14  43  1   
 33  15  16  1   
 34  15  17  2   
 35  16  18  1   
 36  17  19  1   
 37  18  19  2   
 38  18  44  1   
 39  19  20  1   
 40  20  21  ar  
 41  20  22  ar  
 42  21  23  ar  
 43  21  45  1   
 44  22  24  ar  
 45  22  46  1   
 46  23  25  ar  
 47  23  47  1   
 48  24  25  ar  
 49  24  48  1   
 50  25  26  1   
@<TRIPOS>SUBSTRUCTURE
  1 ****  12 GROUP 4 **** **** 0

# MOE 2024.06 (io_trps.svl 2023.06)
