@<TRIPOS>MOLECULE
NONAME
58 61 1 0 0 
SMALL
USER_CHARGES


@<TRIPOS>ATOM
  1 O       -1.3750     2.1450     2.9180 O.2   1 <1>  -0.5700 
  2 C       -1.1420     2.4700     1.7610 C.2   1 <1>   0.7160 
  3 N       -2.1790     2.3520     0.8380 N.am  1 <1>  -0.6600 
  4 C        0.2030     2.9590     1.4010 C.2   1 <1>   0.4300 
  5 C       -3.5560     1.9730     1.2490 C.3   1 <1>   0.1400 
  6 C       -1.9970     2.7030    -0.6000 C.3   1 <1>   0.1400 
  7 N        0.8790     3.8460     2.1110 N.2   1 <1>  -0.7070 
  8 N        0.8560     2.5240     0.2940 N.2   1 <1>  -0.5650 
  9 C       -4.5630     3.0490     0.8230 C.3   1 <1>  -0.1600 
 10 C       -3.3240     2.7580    -1.3650 C.3   1 <1>  -0.1600 
 11 N        2.0050     3.9700     1.4400 N.pl3 1 <1>   0.6010 
 12 C        1.9700     3.1690     0.3420 C.2   1 <1>   0.3120 
 13 C       -4.3870     3.5980    -0.6210 C.3   1 <1>   0.2800 
 14 C        3.1100     4.7560     1.6900 C.2   1 <1>  -0.1810 
 15 N        2.9970     3.0920    -0.5700 N.2   1 <1>  -0.5760 
 16 O       -3.8450     4.8930    -0.4630 O.3   1 <1>  -0.5600 
 17 C       -5.7740     3.6590    -1.3620 C.3   1 <1>   0.2000 
 18 C        4.1360     4.6900     0.8010 C.2   1 <1>  -0.1360 
 19 C        4.0290     3.8300    -0.3300 C.2   1 <1>   0.3760 
 20 C       -4.0460     5.8260    -1.4750 C.3   1 <1>   0.1200 
 21 O       -5.6370     3.4280    -2.7420 O.3   1 <1>  -0.6800 
 22 C       -6.4830     5.0270    -1.1340 C.3   1 <1>   0.3000 
 23 C       -5.5420     6.1530    -1.6190 C.3   1 <1>  -0.1600 
 24 N       -6.7190     5.2770     0.3080 N.am  1 <1>  -0.7300 
 25 C       -7.8260     5.1600    -1.8750 C.3   1 <1>  -0.2400 
 26 C       -7.5480     4.7700     1.2510 C.2   1 <1>   0.5690 
 27 O       -7.5030     5.2390     2.3590 O.2   1 <1>  -0.5700 
 28 C       -8.5220     3.6290     0.9830 C.3   1 <1>  -0.0990 
 29 C       -8.6370     2.6430     2.1600 C.3   1 <1>  -0.1600 
 30 C       -9.5680     1.4750     1.8230 C.3   1 <1>  -0.2400 
 31 H       -3.8040     1.0340     0.7840 H     1 <1>   0.0800 
 32 H       -3.6220     1.8320     2.3140 H     1 <1>   0.0800 
 33 H       -1.5200     3.6670    -0.6620 H     1 <1>   0.0800 
 34 H       -1.3490     1.9780    -1.0640 H     1 <1>   0.0800 
 35 H       -4.5080     3.8600     1.5280 H     1 <1>   0.0800 
 36 H       -5.5350     2.6120     0.9410 H     1 <1>   0.0800 
 37 H       -3.6910     1.7570    -1.5080 H     1 <1>   0.0800 
 38 H       -3.1310     3.1600    -2.3410 H     1 <1>   0.0800 
 39 H        3.0790     5.3660     2.5730 H     1 <1>   0.1500 
 40 H       -6.4010     2.8600    -1.0170 H     1 <1>   0.0800 
 41 H        5.0360     5.2670     0.9160 H     1 <1>   0.1500 
 42 H        4.8600     3.8030    -1.0140 H     1 <1>   0.0600 
 43 H       -3.4920     6.7130    -1.2180 H     1 <1>   0.0800 
 44 H       -3.6410     5.4270    -2.3880 H     1 <1>   0.0800 
 45 H       -5.0250     4.0810    -3.1300 H     1 <1>   0.4000 
 46 H       -5.7650     7.0700    -1.1030 H     1 <1>   0.0800 
 47 H       -5.7140     6.3510    -2.6620 H     1 <1>   0.0800 
 48 H       -6.0270     5.9210     0.6980 H     1 <1>   0.3700 
 49 H       -7.6710     5.1550    -2.9390 H     1 <1>   0.0800 
 50 H       -8.3090     6.0840    -1.6120 H     1 <1>   0.0800 
 51 H       -8.4840     4.3430    -1.6570 H     1 <1>   0.0800 
 52 H       -9.4860     4.0580     0.7810 H     1 <1>   0.0800 
 53 H       -8.2130     3.0760     0.1220 H     1 <1>   0.0800 
 54 H       -7.6600     2.2640     2.4080 H     1 <1>   0.0800 
 55 H       -9.0150     3.1620     3.0250 H     1 <1>   0.0800 
 56 H       -9.1950     0.9220     0.9790 H     1 <1>   0.0800 
 57 H      -10.5560     1.8350     1.5940 H     1 <1>   0.0800 
 58 H       -9.6370     0.8070     2.6650 H     1 <1>   0.0800 
@<TRIPOS>BOND
  1   1   2  2   
  2   2   3  am  
  3   2   4  1   
  4   3   5  1   
  5   3   6  1   
  6   4   7  2   
  7   4   8  1   
  8   5   9  1   
  9   5  31  1   
 10   5  32  1   
 11   6  10  1   
 12   6  33  1   
 13   6  34  1   
 14   7  11  1   
 15   8  12  2   
 16   9  13  1   
 17   9  35  1   
 18   9  36  1   
 19  10  13  1   
 20  10  37  1   
 21  10  38  1   
 22  11  12  1   
 23  11  14  1   
 24  12  15  1   
 25  13  16  1   
 26  13  17  1   
 27  14  18  2   
 28  14  39  1   
 29  15  19  2   
 30  16  20  1   
 31  17  21  1   
 32  17  22  1   
 33  17  40  1   
 34  18  19  1   
 35  18  41  1   
 36  19  42  1   
 37  20  23  1   
 38  20  43  1   
 39  20  44  1   
 40  21  45  1   
 41  22  23  1   
 42  22  24  1   
 43  22  25  1   
 44  23  46  1   
 45  23  47  1   
 46  24  26  am  
 47  24  48  1   
 48  25  49  1   
 49  25  50  1   
 50  25  51  1   
 51  26  27  2   
 52  26  28  1   
 53  28  29  1   
 54  28  52  1   
 55  28  53  1   
 56  29  30  1   
 57  29  54  1   
 58  29  55  1   
 59  30  56  1   
 60  30  57  1   
 61  30  58  1   
@<TRIPOS>SUBSTRUCTURE
  1 ****   3 GROUP 4 **** **** 0

# MOE 2024.06 (io_trps.svl 2023.06)
