@<TRIPOS>MOLECULE
NONAME
48 50 1 0 0 
SMALL
USER_CHARGES


@<TRIPOS>ATOM
  1 CL       2.2330     3.3410     2.3550 Cl    1 <1>  -0.1770 
  2 C        0.9400     2.8660     1.2780 C.ar  1 <1>   0.1770 
  3 C        1.2130     2.3580     0.0130 C.ar  1 <1>  -0.1440 
  4 C       -0.3570     3.0120     1.7350 C.ar  1 <1>  -0.1500 
  5 C        0.1380     1.9950    -0.7920 C.ar  1 <1>  -0.1500 
  6 C        2.6470     2.2090    -0.4900 C.3   1 <1>   0.3640 
  7 C       -1.4140     2.6450     0.9220 C.ar  1 <1>  -0.1500 
  8 C       -1.1640     2.1360    -0.3400 C.ar  1 <1>  -0.1500 
  9 N        2.8070     0.8500    -1.0630 N.am  1 <1>  -0.7300 
 10 C        3.0110     3.3050    -1.5230 C.3   1 <1>   0.2610 
 11 C        3.4570     0.5950    -2.2200 C.2   1 <1>   0.5690 
 12 O        4.1740     2.9400    -2.2570 O.3   1 <1>  -0.5600 
 13 C        3.2280     4.6380    -0.8060 C.2   1 <1>   0.5690 
 14 O        3.5700    -0.5330    -2.6260 O.2   1 <1>  -0.5700 
 15 C        4.0290     1.7650    -3.0270 C.3   1 <1>   0.1810 
 16 O        2.2680     5.3190    -0.5270 O.2   1 <1>  -0.5700 
 17 N        4.5020     5.0120    -0.5110 N.am  1 <1>  -0.7300 
 18 C        4.9930     6.2350     0.1910 C.3   1 <1>   0.3610 
 19 C        4.6700     7.5320    -0.6270 C.2   1 <1>   0.5690 
 20 C        6.5160     6.0120     0.3690 C.3   1 <1>  -0.1600 
 21 C        4.3430     6.2750     1.5950 C.3   1 <1>  -0.1600 
 22 O        5.5430     8.2300    -1.0870 O.2   1 <1>  -0.5700 
 23 N        3.3870     7.8830    -0.8630 N.am  1 <1>  -0.8000 
 24 C        7.1860     7.0190     1.3210 C.3   1 <1>  -0.1600 
 25 C        4.9850     7.3170     2.5230 C.3   1 <1>  -0.1600 
 26 C        6.4850     7.0530     2.6830 C.3   1 <1>  -0.1600 
 27 H       -0.5340     3.4100     2.7180 H     1 <1>   0.1500 
 28 H        0.3050     1.5950    -1.7780 H     1 <1>   0.1500 
 29 H        3.3360     2.2880     0.3310 H     1 <1>   0.0800 
 30 H       -2.4280     2.7550     1.2700 H     1 <1>   0.1500 
 31 H       -1.9860     1.8490    -0.9740 H     1 <1>   0.1500 
 32 H        2.4330     0.0650    -0.5270 H     1 <1>   0.3700 
 33 H        2.2040     3.4310    -2.2230 H     1 <1>   0.0800 
 34 H        3.3810     1.9790    -3.8570 H     1 <1>   0.0800 
 35 H        4.9990     1.4970    -3.4040 H     1 <1>   0.0800 
 36 H        5.2440     4.4620    -0.9500 H     1 <1>   0.3700 
 37 H        6.6820     5.0270     0.7680 H     1 <1>   0.0800 
 38 H        7.0000     6.0690    -0.5910 H     1 <1>   0.0800 
 39 H        3.2940     6.4930     1.5140 H     1 <1>   0.0800 
 40 H        4.4420     5.3070     2.0560 H     1 <1>   0.0800 
 41 H        3.1700     8.6930    -1.4410 H     1 <1>   0.3700 
 42 H        2.6220     7.2220    -0.6650 H     1 <1>   0.3700 
 43 H        8.2200     6.7520     1.4560 H     1 <1>   0.0800 
 44 H        7.1630     8.0040     0.8870 H     1 <1>   0.0800 
 45 H        4.8340     8.3050     2.1200 H     1 <1>   0.0800 
 46 H        4.5100     7.2810     3.4880 H     1 <1>   0.0800 
 47 H        6.9240     7.8230     3.2940 H     1 <1>   0.0800 
 48 H        6.6310     6.1110     3.1850 H     1 <1>   0.0800 
@<TRIPOS>BOND
  1   1   2  1   
  2   2   3  ar  
  3   2   4  ar  
  4   3   5  ar  
  5   3   6  1   
  6   4   7  ar  
  7   4  27  1   
  8   5   8  ar  
  9   5  28  1   
 10   6   9  1   
 11   6  10  1   
 12   6  29  1   
 13   7   8  ar  
 14   7  30  1   
 15   8  31  1   
 16   9  11  am  
 17   9  32  1   
 18  10  12  1   
 19  10  13  1   
 20  10  33  1   
 21  11  14  2   
 22  11  15  1   
 23  12  15  1   
 24  13  16  2   
 25  13  17  am  
 26  15  34  1   
 27  15  35  1   
 28  17  18  1   
 29  17  36  1   
 30  18  19  1   
 31  18  20  1   
 32  18  21  1   
 33  19  22  2   
 34  19  23  am  
 35  20  24  1   
 36  20  37  1   
 37  20  38  1   
 38  21  25  1   
 39  21  39  1   
 40  21  40  1   
 41  23  41  1   
 42  23  42  1   
 43  24  26  1   
 44  24  43  1   
 45  24  44  1   
 46  25  26  1   
 47  25  45  1   
 48  25  46  1   
 49  26  47  1   
 50  26  48  1   
@<TRIPOS>SUBSTRUCTURE
  1 ****  13 GROUP 4 **** **** 0

# MOE 2024.06 (io_trps.svl 2023.06)
