@<TRIPOS>MOLECULE
NONAME
53 55 1 0 0 
SMALL
USER_CHARGES


@<TRIPOS>ATOM
  1 S       -0.6580     0.1990     1.7520 S.o2  1 <1>   1.4470 
  2 O       -1.7850     0.5960     2.5670 O.2   1 <1>  -0.6500 
  3 O        0.6260    -0.0600     2.3600 O.2   1 <1>  -0.6500 
  4 N       -1.0670    -1.2880     1.0900 N.am  1 <1>  -0.9140 
  5 C       -0.4920     1.2750     0.3030 C.ar  1 <1>  -0.0090 
  6 C       -1.5450    -2.2190     2.0910 C.3   1 <1>   0.1960 
  7 C        0.7550     1.5700    -0.2370 C.ar  1 <1>  -0.1500 
  8 C       -1.6110     1.8130    -0.3210 C.ar  1 <1>  -0.1500 
  9 C       -1.8790    -3.5410     1.4040 C.3   1 <1>  -0.1600 
 10 C        0.8800     2.3740    -1.3580 C.ar  1 <1>  -0.1500 
 11 C       -1.4930     2.6170    -1.4420 C.ar  1 <1>  -0.1500 
 12 C       -2.5650    -4.4980     2.3750 C.3   1 <1>   0.2090 
 13 C       -0.2450     2.9000    -1.9680 C.ar  1 <1>  -0.1440 
 14 N       -2.8500    -5.7710     1.6720 N.pl3 1 <1>  -0.8690 
 15 C       -0.1120     3.7830    -3.1950 C.3   1 <1>  -0.0970 
 16 C       -3.9480    -6.2710     1.0940 C.ar  1 <1>   0.7710 
 17 N       -3.8370    -7.4860     0.6020 N.ar  1 <1>  -0.6200 
 18 N       -5.0810    -5.5520     1.0280 N.ar  1 <1>  -0.1790 
 19 C       -4.8980    -8.0220     0.0260 C.ar  1 <1>   0.4100 
 20 C       -6.1930    -6.0630     0.4460 C.ar  1 <1>   0.2110 
 21 N       -4.7770    -9.2800    -0.4720 N.pl3 1 <1>  -0.8380 
 22 C       -6.1140    -7.3150    -0.0660 C.ar  1 <1>  -0.1500 
 23 C       -5.8520   -10.0930    -1.1100 C.3   1 <1>   0.2090 
 24 C       -3.5200   -10.0720    -0.4170 C.3   1 <1>   0.2090 
 25 C       -5.1920   -11.4060    -1.5420 C.3   1 <1>   0.2000 
 26 C       -3.6890   -11.1720    -1.4570 C.3   1 <1>  -0.1600 
 27 O       -5.5320   -11.7280    -2.8450 O.3   1 <1>  -0.6800 
 28 H       -0.1740    -1.6400     0.7490 H     1 <1>   0.4200 
 29 H       -2.4310    -1.8160     2.5570 H     1 <1>   0.0800 
 30 H       -0.7930    -2.3640     2.8520 H     1 <1>   0.0800 
 31 H        1.6420     1.1710     0.2250 H     1 <1>   0.1500 
 32 H       -2.5890     1.6020     0.0770 H     1 <1>   0.1500 
 33 H       -0.9700    -3.9880     1.0410 H     1 <1>   0.0800 
 34 H       -2.5330    -3.3450     0.5720 H     1 <1>   0.0800 
 35 H        1.8590     2.5880    -1.7520 H     1 <1>   0.1500 
 36 H       -2.3780     3.0230    -1.9010 H     1 <1>   0.1500 
 37 H       -3.4720    -4.0610     2.7570 H     1 <1>   0.0800 
 38 H       -1.9150    -4.6980     3.2130 H     1 <1>   0.0800 
 39 H       -2.0470    -6.4110     1.6290 H     1 <1>   0.4000 
 40 H        0.7670     3.5200    -3.7560 H     1 <1>   0.0800 
 41 H       -0.0370     4.8130    -2.8960 H     1 <1>   0.0800 
 42 H       -0.9690     3.6690    -3.8350 H     1 <1>   0.0800 
 43 H       -5.0450    -4.6200     1.4250 H     1 <1>   0.4570 
 44 H       -7.0930    -5.4690     0.4060 H     1 <1>   0.1500 
 45 H       -6.9600    -7.7760    -0.5400 H     1 <1>   0.1500 
 46 H       -6.2470    -9.5700    -1.9630 H     1 <1>   0.0800 
 47 H       -6.6360   -10.2920    -0.4000 H     1 <1>   0.0800 
 48 H       -3.4160   -10.4980     0.5670 H     1 <1>   0.0800 
 49 H       -2.6600    -9.4610    -0.6350 H     1 <1>   0.0800 
 50 H       -5.5040   -12.2100    -0.8980 H     1 <1>   0.0800 
 51 H       -3.1630   -12.0630    -1.1660 H     1 <1>   0.0800 
 52 H       -3.2990   -10.8140    -2.3930 H     1 <1>   0.0800 
 53 H       -5.1200   -11.0990    -3.4680 H     1 <1>   0.4000 
@<TRIPOS>BOND
  1   1   2  2   
  2   1   3  2   
  3   1   4  am  
  4   1   5  1   
  5   4   6  1   
  6   4  28  1   
  7   5   7  ar  
  8   5   8  ar  
  9   6   9  1   
 10   6  29  1   
 11   6  30  1   
 12   7  10  ar  
 13   7  31  1   
 14   8  11  ar  
 15   8  32  1   
 16   9  12  1   
 17   9  33  1   
 18   9  34  1   
 19  10  13  ar  
 20  10  35  1   
 21  11  13  ar  
 22  11  36  1   
 23  12  14  1   
 24  12  37  1   
 25  12  38  1   
 26  13  15  1   
 27  14  16  1   
 28  14  39  1   
 29  15  40  1   
 30  15  41  1   
 31  15  42  1   
 32  16  17  ar  
 33  16  18  ar  
 34  17  19  ar  
 35  18  20  ar  
 36  18  43  1   
 37  19  21  1   
 38  19  22  ar  
 39  20  22  ar  
 40  20  44  1   
 41  21  23  1   
 42  21  24  1   
 43  22  45  1   
 44  23  25  1   
 45  23  46  1   
 46  23  47  1   
 47  24  26  1   
 48  24  48  1   
 49  24  49  1   
 50  25  26  1   
 51  25  27  1   
 52  25  50  1   
 53  26  51  1   
 54  26  52  1   
 55  27  53  1   
@<TRIPOS>SUBSTRUCTURE
  1 ****   9 GROUP 4 **** **** 0

# MOE 2024.06 (io_trps.svl 2023.06)
