@<TRIPOS>MOLECULE
NONAME
48 51 1 0 0 
SMALL
USER_CHARGES


@<TRIPOS>ATOM
  1 S        1.2640    -0.3730    -2.3550 S.3   1 <1>  -0.0800 
  2 C        0.9760    -1.8490    -1.4630 C.2   1 <1>  -0.1100 
  3 C        2.2840     0.2450    -1.0730 C.2   1 <1>  -0.1100 
  4 C        1.6340    -1.8650    -0.2760 C.2   1 <1>  -0.0860 
  5 C        2.3720    -0.6450    -0.0690 C.2   1 <1>  -0.1500 
  6 C        1.6280    -2.9260     0.7140 C.2   1 <1>   0.7160 
  7 O        1.6570    -2.6370     1.8960 O.2   1 <1>  -0.5700 
  8 N        1.6120    -4.2550     0.3540 N.am  1 <1>  -0.6600 
  9 C        1.2520    -5.3020     1.3730 C.3   1 <1>   0.2200 
 10 C        2.1570    -4.7030    -0.9640 C.3   1 <1>   0.1400 
 11 C        2.5160    -5.8560     2.0600 C.3   1 <1>   0.1200 
 12 C        0.2810    -6.4050     0.8700 C.3   1 <1>   0.1100 
 13 C        2.7140    -6.1370    -0.9770 C.3   1 <1>  -0.0800 
 14 O        3.1820    -6.8240     1.3080 O.3   1 <1>  -0.5600 
 15 N        0.3030    -6.7210    -0.5770 N.3   1 <1>  -0.8100 
 16 C        3.7640    -6.3840     0.1220 C.3   1 <1>   0.1200 
 17 C        1.6170    -7.2200    -1.0250 C.3   1 <1>   0.1100 
 18 C       -0.7880    -7.6290    -0.9960 C.3   1 <1>   0.2900 
 19 C       -0.6850    -9.0450    -0.4300 C.2   1 <1>   0.0070 
 20 N        0.0360    -9.9830    -0.9390 N.2   1 <1>  -0.5650 
 21 N       -1.3570    -9.4860     0.6460 N.pl3 1 <1>   0.3140 
 22 C       -0.2200   -11.0020    -0.1120 C.2   1 <1>   0.3660 
 23 N       -1.0470   -10.7580     0.8480 N.2   1 <1>  -0.7070 
 24 C       -2.3390    -8.7930     1.5090 C.3   1 <1>   0.0960 
 25 C       -3.7550    -8.8930     0.9290 C.3   1 <1>  -0.2400 
 26 H        0.3270    -2.5780    -1.9150 H     1 <1>   0.1500 
 27 H        2.7120     1.2220    -1.2070 H     1 <1>   0.1500 
 28 H        2.9320    -0.5030     0.8400 H     1 <1>   0.1500 
 29 H        0.7160    -4.8050     2.1620 H     1 <1>   0.0800 
 30 H        1.3790    -4.6300    -1.7040 H     1 <1>   0.0800 
 31 H        2.9460    -4.0310    -1.2550 H     1 <1>   0.0800 
 32 H        2.2300    -6.3320     2.9810 H     1 <1>   0.0800 
 33 H        3.2000    -5.0590     2.2950 H     1 <1>   0.0800 
 34 H       -0.7100    -6.0670     1.1140 H     1 <1>   0.0800 
 35 H        0.4610    -7.3040     1.4350 H     1 <1>   0.0800 
 36 H        3.2520    -6.2270    -1.9030 H     1 <1>   0.0800 
 37 H        4.3490    -5.5020     0.3200 H     1 <1>   0.0800 
 38 H        4.4290    -7.1670    -0.1950 H     1 <1>   0.0800 
 39 H        1.9070    -8.0790    -0.4410 H     1 <1>   0.0800 
 40 H        1.5230    -7.5510    -2.0450 H     1 <1>   0.0800 
 41 H       -1.7330    -7.1920    -0.7270 H     1 <1>   0.0800 
 42 H       -0.7750    -7.7010    -2.0700 H     1 <1>   0.0800 
 43 H        0.2470   -11.9620    -0.2600 H     1 <1>   0.1500 
 44 H       -2.3110    -9.2550     2.4800 H     1 <1>   0.0800 
 45 H       -2.0530    -7.7650     1.6160 H     1 <1>   0.0800 
 46 H       -4.0430    -9.9260     0.8400 H     1 <1>   0.0800 
 47 H       -3.8060    -8.4270    -0.0380 H     1 <1>   0.0800 
 48 H       -4.4530    -8.4020     1.5840 H     1 <1>   0.0800 
@<TRIPOS>BOND
  1   1   2  1   
  2   1   3  1   
  3   2   4  2   
  4   2  26  1   
  5   3   5  2   
  6   3  27  1   
  7   4   5  1   
  8   4   6  1   
  9   5  28  1   
 10   6   7  2   
 11   6   8  am  
 12   8   9  1   
 13   8  10  1   
 14   9  11  1   
 15   9  12  1   
 16   9  29  1   
 17  10  13  1   
 18  10  30  1   
 19  10  31  1   
 20  11  14  1   
 21  11  32  1   
 22  11  33  1   
 23  12  15  1   
 24  12  34  1   
 25  12  35  1   
 26  13  16  1   
 27  13  17  1   
 28  13  36  1   
 29  14  16  1   
 30  15  17  1   
 31  15  18  1   
 32  16  37  1   
 33  16  38  1   
 34  17  39  1   
 35  17  40  1   
 36  18  19  1   
 37  18  41  1   
 38  18  42  1   
 39  19  20  2   
 40  19  21  1   
 41  20  22  1   
 42  21  23  1   
 43  21  24  1   
 44  22  23  2   
 45  22  43  1   
 46  24  25  1   
 47  24  44  1   
 48  24  45  1   
 49  25  46  1   
 50  25  47  1   
 51  25  48  1   
@<TRIPOS>SUBSTRUCTURE
  1 ****  12 GROUP 4 **** **** 0

# MOE 2024.06 (io_trps.svl 2023.06)
