@<TRIPOS>MOLECULE
NONAME
51 54 1 0 0 
SMALL
USER_CHARGES


@<TRIPOS>ATOM
  1 O       -2.2110    -0.7690    -1.0630 O.2   1 <1>  -0.5700 
  2 C       -1.9330     0.3750    -0.8060 C.2   1 <1>   0.5950 
  3 C       -2.6090     1.1940     0.1570 C.2   1 <1>  -0.0860 
  4 C       -0.7900     1.0470    -1.5620 C.3   1 <1>  -0.0990 
  5 C       -3.5710     0.8910     1.1530 C.2   1 <1>  -0.0860 
  6 C       -2.3820     2.5220     0.2820 C.2   1 <1>  -0.0400 
  7 C       -1.0480     2.5500    -1.8290 C.3   1 <1>  -0.1600 
  8 C       -3.8060     2.0780     1.7750 C.2   1 <1>  -0.0400 
  9 C       -4.1250    -0.4090     1.4360 C.2   1 <1>   0.7160 
 10 O       -3.0950     3.0430     1.2420 O.3   1 <1>  -0.2800 
 11 C       -1.4190     3.3370    -0.5540 C.3   1 <1>   0.0200 
 12 C       -4.7170     2.4070     2.9390 C.3   1 <1>  -0.0600 
 13 O       -3.8260    -0.9770     2.4700 O.2   1 <1>  -0.5700 
 14 N       -4.9990    -1.0170     0.5690 N.am  1 <1>  -0.6600 
 15 C       -5.4850    -0.4360    -0.7090 C.3   1 <1>   0.1400 
 16 C       -5.2090    -2.4790     0.5610 C.3   1 <1>   0.1400 
 17 C       -5.9800    -1.6220    -1.5490 C.3   1 <1>   0.2000 
 18 C       -5.2840    -2.8340    -0.9240 C.3   1 <1>  -0.0800 
 19 O       -7.3650    -1.7690    -1.4000 O.3   1 <1>  -0.5600 
 20 C       -5.9630    -4.1870    -1.2000 C.3   1 <1>   0.0200 
 21 C       -8.1390    -0.9920    -2.2580 C.3   1 <1>   0.0400 
 22 C       -5.1390    -5.3700    -0.7190 C.2   1 <1>  -0.0400 
 23 O       -5.6590    -6.5680    -0.7750 O.3   1 <1>  -0.0190 
 24 C       -3.9000    -5.4870    -0.2140 C.2   1 <1>  -0.1500 
 25 N       -4.8380    -7.4770    -0.3330 N.2   1 <1>  -0.4100 
 26 C       -3.7700    -6.8540     0.0130 C.2   1 <1>   0.1080 
 27 C       -2.5420    -7.5210     0.5880 C.3   1 <1>  -0.0590 
 28 H        0.1050     0.9320    -0.9770 H     1 <1>   0.0800 
 29 H       -0.6420     0.5360    -2.4960 H     1 <1>   0.0800 
 30 H       -0.1840     2.9960    -2.2900 H     1 <1>   0.0800 
 31 H       -1.8660     2.6330    -2.5260 H     1 <1>   0.0800 
 32 H       -1.8730     4.2760    -0.8200 H     1 <1>   0.0800 
 33 H       -0.5400     3.5390     0.0310 H     1 <1>   0.0800 
 34 H       -5.2240     1.5230     3.2810 H     1 <1>   0.0800 
 35 H       -5.4460     3.1360     2.6360 H     1 <1>   0.0800 
 36 H       -4.1360     2.8090     3.7490 H     1 <1>   0.0800 
 37 H       -6.2700     0.2760    -0.5240 H     1 <1>   0.0800 
 38 H       -4.6740     0.0470    -1.2210 H     1 <1>   0.0800 
 39 H       -4.4050    -2.9940     1.0580 H     1 <1>   0.0800 
 40 H       -6.1400    -2.7000     1.0540 H     1 <1>   0.0800 
 41 H       -5.7420    -1.5200    -2.5940 H     1 <1>   0.0800 
 42 H       -4.2780    -2.8630    -1.3060 H     1 <1>   0.0800 
 43 H       -6.1270    -4.2950    -2.2570 H     1 <1>   0.0800 
 44 H       -6.9240    -4.2170    -0.7160 H     1 <1>   0.0800 
 45 H       -9.1750    -1.1830    -2.0370 H     1 <1>   0.0800 
 46 H       -7.9310    -1.2710    -3.2760 H     1 <1>   0.0800 
 47 H       -7.9240     0.0500    -2.0970 H     1 <1>   0.0800 
 48 H       -3.1550    -4.7390    -0.0170 H     1 <1>   0.1500 
 49 H       -1.6920    -7.3230    -0.0390 H     1 <1>   0.0800 
 50 H       -2.6940    -8.5840     0.6450 H     1 <1>   0.0800 
 51 H       -2.3510    -7.1430     1.5760 H     1 <1>   0.0800 
@<TRIPOS>BOND
  1   1   2  2   
  2   2   3  1   
  3   2   4  1   
  4   3   5  1   
  5   3   6  2   
  6   4   7  1   
  7   4  28  1   
  8   4  29  1   
  9   5   8  2   
 10   5   9  1   
 11   6  10  1   
 12   6  11  1   
 13   7  11  1   
 14   7  30  1   
 15   7  31  1   
 16   8  10  1   
 17   8  12  1   
 18   9  13  2   
 19   9  14  am  
 20  11  32  1   
 21  11  33  1   
 22  12  34  1   
 23  12  35  1   
 24  12  36  1   
 25  14  15  1   
 26  14  16  1   
 27  15  17  1   
 28  15  37  1   
 29  15  38  1   
 30  16  18  1   
 31  16  39  1   
 32  16  40  1   
 33  17  18  1   
 34  17  19  1   
 35  17  41  1   
 36  18  20  1   
 37  18  42  1   
 38  19  21  1   
 39  20  22  1   
 40  20  43  1   
 41  20  44  1   
 42  21  45  1   
 43  21  46  1   
 44  21  47  1   
 45  22  23  1   
 46  22  24  2   
 47  23  25  1   
 48  24  26  1   
 49  24  48  1   
 50  25  26  2   
 51  26  27  1   
 52  27  49  1   
 53  27  50  1   
 54  27  51  1   
@<TRIPOS>SUBSTRUCTURE
  1 ****  14 GROUP 4 **** **** 0

# MOE 2024.06 (io_trps.svl 2023.06)
