@<TRIPOS>MOLECULE
NONAME
45 48 1 0 0 
SMALL
USER_CHARGES


@<TRIPOS>ATOM
  1 CL      -1.1570    -0.4310    -1.1350 Cl    1 <1>  -0.1230 
  2 C       -2.3490     0.4040    -0.1530 C.2   1 <1>   0.1230 
  3 C       -2.5160     1.8020    -0.1570 C.ar  1 <1>   0.0000 
  4 C       -3.2380    -0.1600     0.6960 C.2   1 <1>  -0.3320 
  5 C       -3.5520     2.0450     0.7410 C.ar  1 <1>  -0.1520 
  6 C       -1.9060     2.8700    -0.8230 C.ar  1 <1>  -0.1500 
  7 N       -3.9810     0.8460     1.2620 N.pl3 1 <1>   0.0330 
  8 C       -3.4480    -1.6170     1.0250 C.3   1 <1>   0.5230 
  9 C       -3.9930     3.3480     0.9850 C.ar  1 <1>  -0.1500 
 10 C       -2.3430     4.1510    -0.5810 C.ar  1 <1>  -0.1500 
 11 N       -3.5040    -2.3620    -0.2530 N.4   1 <1>  -0.9590 
 12 C       -3.3860     4.3890     0.3220 C.ar  1 <1>  -0.1500 
 13 C       -4.7100    -1.9720    -1.0500 C.3   1 <1>   0.3430 
 14 C       -3.6050    -3.8300    -0.0050 C.3   1 <1>   0.3430 
 15 C       -5.7770    -3.0150    -0.7070 C.3   1 <1>   0.2000 
 16 C       -4.9500    -4.2960    -0.5830 C.3   1 <1>  -0.0800 
 17 O       -6.3310    -2.6860     0.5300 O.3   1 <1>  -0.6800 
 18 C       -5.6000    -5.4430     0.2180 C.3   1 <1>   0.0200 
 19 C       -4.6790    -6.6470     0.2770 C.2   1 <1>  -0.0400 
 20 O       -3.5640    -6.5770     0.9530 O.3   1 <1>  -0.0190 
 21 C       -4.7590    -7.8740    -0.2590 C.2   1 <1>  -0.1500 
 22 N       -2.8840    -7.6800     0.8840 N.2   1 <1>  -0.4100 
 23 C       -3.5830    -8.4860     0.1660 C.2   1 <1>   0.1080 
 24 C       -3.1720    -9.9040    -0.1660 C.3   1 <1>  -0.0590 
 25 H       -1.1040     2.6750    -1.5140 H     1 <1>   0.1500 
 26 H       -4.7330     0.7650     1.9590 H     1 <1>   0.2700 
 27 H       -4.3700    -1.7510     1.5700 H     1 <1>   0.0800 
 28 H       -2.6310    -1.9740     1.6320 H     1 <1>   0.0800 
 29 H       -4.7930     3.5310     1.6810 H     1 <1>   0.1500 
 30 H       -1.8860     4.9860    -1.0850 H     1 <1>   0.1500 
 31 H       -2.6460    -2.1190    -0.7700 H     1 <1>   0.4500 
 32 H       -3.7080     5.4030     0.4920 H     1 <1>   0.1500 
 33 H       -5.0480    -0.9740    -0.8270 H     1 <1>   0.0800 
 34 H       -4.4790    -2.0380    -2.1000 H     1 <1>   0.0800 
 35 H       -2.7920    -4.3630    -0.4720 H     1 <1>   0.0800 
 36 H       -3.5810    -4.0300     1.0540 H     1 <1>   0.0800 
 37 H       -6.5600    -3.0630    -1.4450 H     1 <1>   0.0800 
 38 H       -4.7550    -4.6610    -1.5770 H     1 <1>   0.0800 
 39 H       -7.1970    -3.1300     0.6590 H     1 <1>   0.4000 
 40 H       -6.5240    -5.7330    -0.2500 H     1 <1>   0.0800 
 41 H       -5.8170    -5.1360     1.2270 H     1 <1>   0.0800 
 42 H       -5.5210    -8.3180    -0.8720 H     1 <1>   0.1500 
 43 H       -3.9080   -10.5930     0.2070 H     1 <1>   0.0800 
 44 H       -2.2240   -10.1290     0.2890 H     1 <1>   0.0800 
 45 H       -3.0840   -10.0210    -1.2300 H     1 <1>   0.0800 
@<TRIPOS>BOND
  1   1   2  1   
  2   2   3  1   
  3   2   4  2   
  4   3   5  ar  
  5   3   6  ar  
  6   4   7  1   
  7   4   8  1   
  8   5   7  1   
  9   5   9  ar  
 10   6  10  ar  
 11   6  25  1   
 12   7  26  1   
 13   8  11  1   
 14   8  27  1   
 15   8  28  1   
 16   9  12  ar  
 17   9  29  1   
 18  10  12  ar  
 19  10  30  1   
 20  11  13  1   
 21  11  14  1   
 22  11  31  1   
 23  12  32  1   
 24  13  15  1   
 25  13  33  1   
 26  13  34  1   
 27  14  16  1   
 28  14  35  1   
 29  14  36  1   
 30  15  16  1   
 31  15  17  1   
 32  15  37  1   
 33  16  18  1   
 34  16  38  1   
 35  17  39  1   
 36  18  19  1   
 37  18  40  1   
 38  18  41  1   
 39  19  20  1   
 40  19  21  2   
 41  20  22  1   
 42  21  23  1   
 43  21  42  1   
 44  22  23  2   
 45  23  24  1   
 46  24  43  1   
 47  24  44  1   
 48  24  45  1   
@<TRIPOS>SUBSTRUCTURE
  1 ****  11 GROUP 4 **** **** 0

# MOE 2024.06 (io_trps.svl 2023.06)
