@<TRIPOS>MOLECULE
NONAME
42 45 1 0 0 
SMALL
USER_CHARGES


@<TRIPOS>ATOM
  1 S       -0.1320    -0.4390     1.3240 S.3   1 <1>  -0.0800 
  2 C       -0.4600    -1.2940    -0.1850 C.2   1 <1>   0.4620 
  3 C        1.5110    -0.1780     0.8110 C.2   1 <1>  -0.1100 
  4 N        0.5670    -1.3570    -0.9580 N.2   1 <1>  -0.5650 
  5 N       -1.7170    -1.8120    -0.4280 N.pl3 1 <1>  -0.8220 
  6 C        1.6650    -0.7330    -0.3980 C.2   1 <1>   0.0770 
  7 C       -1.9920    -2.6070    -1.6540 C.3   1 <1>   0.2090 
  8 C       -2.8800    -1.7080     0.4930 C.3   1 <1>   0.2090 
  9 C       -2.4040    -4.0240    -1.2510 C.3   1 <1>  -0.1600 
 10 C       -3.2910    -3.1120     0.9320 C.3   1 <1>  -0.1600 
 11 C       -3.5920    -4.0250    -0.2730 C.3   1 <1>   0.4240 
 12 O       -4.6300    -3.4060    -1.0050 O.3   1 <1>  -0.5600 
 13 C       -3.9810    -5.4710     0.1540 C.ar  1 <1>  -0.1430 
 14 C       -5.9390    -3.6310    -0.5960 C.3   1 <1>   0.1200 
 15 C       -3.0920    -6.3120     0.8390 C.ar  1 <1>   0.0830 
 16 C       -5.2510    -5.9660    -0.1410 C.ar  1 <1>  -0.1430 
 17 C       -6.2650    -5.0930    -0.8520 C.3   1 <1>  -0.0170 
 18 O       -1.8580    -5.8440     1.1600 O.3   1 <1>  -0.3630 
 19 C       -3.4760    -7.6060     1.1880 C.ar  1 <1>  -0.1500 
 20 C       -5.6210    -7.2530     0.2090 C.ar  1 <1>  -0.1500 
 21 C       -0.8520    -6.6530     1.7280 C.3   1 <1>   0.0400 
 22 C       -4.7340    -8.0750     0.8720 C.ar  1 <1>  -0.1500 
 23 H        2.1700     0.3580     1.4690 H     1 <1>   0.1500 
 24 H        2.5770    -0.7310    -0.9700 H     1 <1>   0.1500 
 25 H       -1.1220    -2.6500    -2.2860 H     1 <1>   0.0800 
 26 H       -2.7830    -2.1340    -2.2120 H     1 <1>   0.0800 
 27 H       -3.6940    -1.2310    -0.0270 H     1 <1>   0.0800 
 28 H       -2.6500    -1.1130     1.3570 H     1 <1>   0.0800 
 29 H       -1.5450    -4.4910    -0.8130 H     1 <1>   0.0800 
 30 H       -2.6660    -4.5900    -2.1250 H     1 <1>   0.0800 
 31 H       -4.1440    -3.0630     1.5800 H     1 <1>   0.0800 
 32 H       -2.4840    -3.5150     1.5110 H     1 <1>   0.0800 
 33 H       -6.5810    -2.9920    -1.1760 H     1 <1>   0.0800 
 34 H       -6.0370    -3.3840     0.4460 H     1 <1>   0.0800 
 35 H       -6.2370    -5.2890    -1.9090 H     1 <1>   0.0800 
 36 H       -7.2570    -5.3010    -0.4930 H     1 <1>   0.0800 
 37 H       -2.8120    -8.2660     1.7110 H     1 <1>   0.1500 
 38 H       -6.6030    -7.6220    -0.0340 H     1 <1>   0.1500 
 39 H        0.0380    -6.0570     1.8240 H     1 <1>   0.0800 
 40 H       -0.6660    -7.4870     1.0760 H     1 <1>   0.0800 
 41 H       -1.1760    -6.9830     2.6990 H     1 <1>   0.0800 
 42 H       -5.0240    -9.0750     1.1430 H     1 <1>   0.1500 
@<TRIPOS>BOND
  1   1   2  1   
  2   1   3  1   
  3   2   4  2   
  4   2   5  1   
  5   3   6  2   
  6   3  23  1   
  7   4   6  1   
  8   5   7  1   
  9   5   8  1   
 10   6  24  1   
 11   7   9  1   
 12   7  25  1   
 13   7  26  1   
 14   8  10  1   
 15   8  27  1   
 16   8  28  1   
 17   9  11  1   
 18   9  29  1   
 19   9  30  1   
 20  10  11  1   
 21  10  31  1   
 22  10  32  1   
 23  11  12  1   
 24  11  13  1   
 25  12  14  1   
 26  13  15  ar  
 27  13  16  ar  
 28  14  17  1   
 29  14  33  1   
 30  14  34  1   
 31  15  18  1   
 32  15  19  ar  
 33  16  17  1   
 34  16  20  ar  
 35  17  35  1   
 36  17  36  1   
 37  18  21  1   
 38  19  22  ar  
 39  19  37  1   
 40  20  22  ar  
 41  20  38  1   
 42  21  39  1   
 43  21  40  1   
 44  21  41  1   
 45  22  42  1   
@<TRIPOS>SUBSTRUCTURE
  1 ****  11 GROUP 4 **** **** 0

# MOE 2024.06 (io_trps.svl 2023.06)
