@<TRIPOS>MOLECULE
NONAME
52 54 1 0 0 
SMALL
USER_CHARGES


@<TRIPOS>ATOM
  1 O       -0.7560     2.6300    -0.4980 O.2   1 <1>  -0.5700 
  2 C        0.1460     1.8450    -0.6810 C.2   1 <1>   0.5690 
  3 N       -0.1180     0.6710    -1.2950 N.am  1 <1>  -0.8000 
  4 C        1.5770     2.2080    -0.2160 C.3   1 <1>   0.3500 
  5 N        1.6850     3.6630     0.1200 N.pl3 1 <1>  -0.8690 
  6 C        2.0090     1.3840     1.0060 C.3   1 <1>  -0.0170 
  7 C        2.7640     4.4570    -0.0050 C.ar  1 <1>   0.4100 
  8 C        2.1530    -0.0910     0.6570 C.ar  1 <1>  -0.1430 
  9 N        3.9070     3.8760    -0.3040 N.ar  1 <1>  -0.6200 
 10 C        2.6480     5.8550     0.1790 C.ar  1 <1>  -0.1430 
 11 C        1.2060    -1.0110     1.0840 C.ar  1 <1>  -0.1500 
 12 C        3.2310    -0.5200    -0.1050 C.ar  1 <1>  -0.1500 
 13 C        4.9800     4.6420    -0.4350 C.ar  1 <1>   0.7710 
 14 C        3.7620     6.6150     0.0110 C.ar  1 <1>   0.2180 
 15 C        1.2980     6.4790     0.5410 C.3   1 <1>  -0.0170 
 16 C        1.3270    -2.3450     0.7390 C.ar  1 <1>  -0.1500 
 17 C        3.3560    -1.8540    -0.4510 C.ar  1 <1>  -0.1500 
 18 N        4.9150     5.9750    -0.2930 N.ar  1 <1>  -0.1790 
 19 N        6.1820     4.0690    -0.7280 N.pl3 1 <1>  -0.8380 
 20 C        3.7850     8.1340     0.1500 C.3   1 <1>  -0.0170 
 21 C        1.4290     7.9280     1.0310 C.3   1 <1>  -0.1600 
 22 C        2.3990    -2.7620    -0.0290 C.ar  1 <1>   0.0830 
 23 C        7.5260     4.7290    -0.6920 C.3   1 <1>   0.1290 
 24 C        6.2830     2.6090    -1.0600 C.3   1 <1>   0.1290 
 25 C        2.3720     8.7340     0.1310 C.3   1 <1>  -0.1600 
 26 O        2.5030    -4.0560    -0.3590 O.3   1 <1>  -0.5330 
 27 H       -1.0750     0.4560    -1.5770 H     1 <1>   0.3700 
 28 H        0.5450    -0.1100    -1.3210 H     1 <1>   0.3700 
 29 H        2.2460     1.9970    -1.0310 H     1 <1>   0.0800 
 30 H        0.7440     4.0620     0.2410 H     1 <1>   0.4000 
 31 H        2.9580     1.7460     1.3600 H     1 <1>   0.0800 
 32 H        1.2890     1.5130     1.7940 H     1 <1>   0.0800 
 33 H        0.3680    -0.6950     1.6820 H     1 <1>   0.1500 
 34 H        3.9770     0.1840    -0.4310 H     1 <1>   0.1500 
 35 H        0.6620     6.4530    -0.3280 H     1 <1>   0.0800 
 36 H        0.8180     5.9040     1.3150 H     1 <1>   0.0800 
 37 H        0.5970    -3.0660     1.0630 H     1 <1>   0.1500 
 38 H        4.1930    -2.1800    -1.0410 H     1 <1>   0.1500 
 39 H        5.7820     6.4680    -0.4510 H     1 <1>   0.4570 
 40 H        4.2610     8.3890     1.0820 H     1 <1>   0.0800 
 41 H        4.3550     8.5750    -0.6490 H     1 <1>   0.0800 
 42 H        0.4550     8.3890     1.0440 H     1 <1>   0.0800 
 43 H        1.8040     7.9330     2.0400 H     1 <1>   0.0800 
 44 H        8.2420     4.0700    -0.2280 H     1 <1>   0.0800 
 45 H        7.5110     5.6420    -0.1230 H     1 <1>   0.0800 
 46 H        7.8590     4.9380    -1.6950 H     1 <1>   0.0800 
 47 H        7.0620     2.4440    -1.7850 H     1 <1>   0.0800 
 48 H        5.3620     2.2380    -1.4780 H     1 <1>   0.0800 
 49 H        6.5100     2.0480    -0.1700 H     1 <1>   0.0800 
 50 H        2.4080     9.7580     0.4630 H     1 <1>   0.0800 
 51 H        1.9890     8.7290    -0.8760 H     1 <1>   0.0800 
 52 H        3.3100    -4.2630    -0.8620 H     1 <1>   0.4500 
@<TRIPOS>BOND
  1   1   2  2   
  2   2   3  am  
  3   2   4  1   
  4   3  27  1   
  5   3  28  1   
  6   4   5  1   
  7   4   6  1   
  8   4  29  1   
  9   5   7  1   
 10   5  30  1   
 11   6   8  1   
 12   6  31  1   
 13   6  32  1   
 14   7   9  ar  
 15   7  10  ar  
 16   8  11  ar  
 17   8  12  ar  
 18   9  13  ar  
 19  10  14  ar  
 20  10  15  1   
 21  11  16  ar  
 22  11  33  1   
 23  12  17  ar  
 24  12  34  1   
 25  13  18  ar  
 26  13  19  1   
 27  14  18  ar  
 28  14  20  1   
 29  15  21  1   
 30  15  35  1   
 31  15  36  1   
 32  16  22  ar  
 33  16  37  1   
 34  17  22  ar  
 35  17  38  1   
 36  18  39  1   
 37  19  23  1   
 38  19  24  1   
 39  20  25  1   
 40  20  40  1   
 41  20  41  1   
 42  21  25  1   
 43  21  42  1   
 44  21  43  1   
 45  22  26  1   
 46  23  44  1   
 47  23  45  1   
 48  23  46  1   
 49  24  47  1   
 50  24  48  1   
 51  24  49  1   
 52  25  50  1   
 53  25  51  1   
 54  26  52  1   
@<TRIPOS>SUBSTRUCTURE
  1 ****   4 GROUP 4 **** **** 0

# MOE 2024.06 (io_trps.svl 2023.06)
