@<TRIPOS>MOLECULE
NONAME
44 47 1 0 0 
SMALL
USER_CHARGES


@<TRIPOS>ATOM
  1 O       -2.1130    -0.7050    -2.8030 O.2   1 <1>  -0.5700 
  2 C       -2.2400    -1.0700    -1.6670 C.2   1 <1>   0.5690 
  3 N       -2.1010    -0.1980    -0.6540 N.am  1 <1>  -0.7300 
  4 C       -2.5970    -2.5030    -1.3800 C.3   1 <1>  -0.0190 
  5 C       -2.2460    -0.5150     0.7860 C.3   1 <1>   0.2200 
  6 C       -1.5080    -3.2040    -0.5370 C.3   1 <1>   0.1200 
  7 C       -4.0310    -2.5470    -0.8330 C.3   1 <1>   0.3430 
  8 C       -1.2090    -1.5860     1.2090 C.3   1 <1>   0.1200 
  9 C       -3.7160    -0.9070     1.1110 C.3   1 <1>   0.3430 
 10 O       -1.5770    -2.8890     0.8300 O.3   1 <1>  -0.5600 
 11 N       -4.1320    -2.2790     0.6430 N.4   1 <1>  -0.9590 
 12 C       -5.4360    -2.7100     1.2140 C.3   1 <1>   0.4860 
 13 C       -5.6080    -4.1960     0.9630 C.ar  1 <1>  -0.1440 
 14 C       -6.5740    -4.6570     0.1060 C.ar  1 <1>  -0.1500 
 15 C       -4.7600    -5.1130     1.6030 C.ar  1 <1>  -0.1500 
 16 C       -6.7290    -6.0320    -0.1600 C.ar  1 <1>   0.0000 
 17 C       -4.8910    -6.4520     1.3650 C.ar  1 <1>  -0.1500 
 18 C       -5.8690    -6.9500     0.4810 C.ar  1 <1>   0.0000 
 19 C       -7.7120    -6.5230    -1.0450 C.ar  1 <1>  -0.1500 
 20 C       -6.0210    -8.3250     0.2150 C.ar  1 <1>  -0.1500 
 21 C       -7.8380    -7.8620    -1.2880 C.ar  1 <1>  -0.1500 
 22 C       -6.9840    -8.7680    -0.6510 C.ar  1 <1>   0.0820 
 23 O       -7.1380   -10.0730    -0.9130 O.3   1 <1>  -0.5330 
 24 H       -1.8030     0.7490    -0.9140 H     1 <1>   0.3700 
 25 H       -2.6130    -2.9960    -2.3350 H     1 <1>   0.0800 
 26 H       -2.0200     0.3880     1.3270 H     1 <1>   0.0800 
 27 H       -0.5230    -2.9590    -0.9000 H     1 <1>   0.0800 
 28 H       -1.6320    -4.2710    -0.6140 H     1 <1>   0.0800 
 29 H       -4.4160    -3.5330    -1.0340 H     1 <1>   0.0800 
 30 H       -4.6410    -1.8440    -1.3780 H     1 <1>   0.0800 
 31 H       -1.1250    -1.5920     2.2820 H     1 <1>   0.0800 
 32 H       -0.2360    -1.3630     0.8040 H     1 <1>   0.0800 
 33 H       -4.3710    -0.1630     0.6880 H     1 <1>   0.0800 
 34 H       -3.8290    -0.8660     2.1820 H     1 <1>   0.0800 
 35 H       -3.4100    -2.9150     1.0380 H     1 <1>   0.4500 
 36 H       -5.4580    -2.5270     2.2760 H     1 <1>   0.0800 
 37 H       -6.2420    -2.1620     0.7540 H     1 <1>   0.0800 
 38 H       -7.2470    -3.9820    -0.3930 H     1 <1>   0.1500 
 39 H       -4.0040    -4.7680     2.2890 H     1 <1>   0.1500 
 40 H       -4.2440    -7.1590     1.8550 H     1 <1>   0.1500 
 41 H       -8.3700    -5.8250    -1.5310 H     1 <1>   0.1500 
 42 H       -5.3660    -9.0190     0.7070 H     1 <1>   0.1500 
 43 H       -8.5840    -8.2470    -1.9610 H     1 <1>   0.1500 
 44 H       -6.5210   -10.6450    -0.4230 H     1 <1>   0.4500 
@<TRIPOS>BOND
  1   1   2  2   
  2   2   3  am  
  3   2   4  1   
  4   3   5  1   
  5   3  24  1   
  6   4   6  1   
  7   4   7  1   
  8   4  25  1   
  9   5   8  1   
 10   5   9  1   
 11   5  26  1   
 12   6  10  1   
 13   6  27  1   
 14   6  28  1   
 15   7  11  1   
 16   7  29  1   
 17   7  30  1   
 18   8  10  1   
 19   8  31  1   
 20   8  32  1   
 21   9  11  1   
 22   9  33  1   
 23   9  34  1   
 24  11  12  1   
 25  11  35  1   
 26  12  13  1   
 27  12  36  1   
 28  12  37  1   
 29  13  14  ar  
 30  13  15  ar  
 31  14  16  ar  
 32  14  38  1   
 33  15  17  ar  
 34  15  39  1   
 35  16  18  ar  
 36  16  19  ar  
 37  17  18  ar  
 38  17  40  1   
 39  18  20  ar  
 40  19  21  ar  
 41  19  41  1   
 42  20  22  ar  
 43  20  42  1   
 44  21  22  ar  
 45  21  43  1   
 46  22  23  1   
 47  23  44  1   
@<TRIPOS>SUBSTRUCTURE
  1 ****  13 GROUP 4 **** **** 0

# MOE 2024.06 (io_trps.svl 2023.06)
