@<TRIPOS>MOLECULE
NONAME
44 45 1 0 0 
SMALL
USER_CHARGES


@<TRIPOS>ATOM
  1 O        2.3140     1.7870    -1.9280 O.3   1 <1>  -0.6800 
  2 C        1.8170     1.3630    -0.6890 C.3   1 <1>   0.1200 
  3 C        2.6730     1.8930     0.4880 C.3   1 <1>   0.2890 
  4 N        2.6490     3.3820     0.6040 N.pl3 1 <1>  -0.8690 
  5 C        2.2050     1.3060     1.8290 C.3   1 <1>  -0.0170 
  6 C        3.2270     4.3350    -0.1340 C.ar  1 <1>   0.7710 
  7 C        2.2620    -0.2140     1.8250 C.ar  1 <1>  -0.1430 
  8 N        3.3210     5.5220     0.4210 N.ar  1 <1>  -0.6200 
  9 N        3.6740     4.0690    -1.3660 N.ar  1 <1>  -0.1790 
 10 C        1.0970    -0.9630     1.7440 C.ar  1 <1>  -0.1500 
 11 C        3.4840    -0.8650     1.8960 C.ar  1 <1>  -0.1500 
 12 C        3.8960     6.4850    -0.2780 C.ar  1 <1>   0.4100 
 13 C        4.3000     5.0120    -2.1040 C.ar  1 <1>   0.2110 
 14 C        1.1550    -2.3450     1.7220 C.ar  1 <1>  -0.1500 
 15 C        3.5420    -2.2470     1.8740 C.ar  1 <1>  -0.1500 
 16 N        3.9390     7.7080     0.3100 N.pl3 1 <1>  -0.8380 
 17 C        4.4400     6.2510    -1.5700 C.ar  1 <1>  -0.1430 
 18 C        2.3780    -2.9880     1.7850 C.ar  1 <1>  -0.1500 
 19 C        4.2300     7.8610     1.7650 C.3   1 <1>   0.1290 
 20 C        3.3420     8.9210    -0.3140 C.3   1 <1>   0.1290 
 21 C        5.1920     7.3370    -2.3390 C.3   1 <1>  -0.0970 
 22 H        1.8190     1.3240    -2.6440 H     1 <1>   0.4000 
 23 H        0.7980     1.6960    -0.5920 H     1 <1>   0.0800 
 24 H        1.8280     0.2860    -0.6950 H     1 <1>   0.0800 
 25 H        3.6900     1.5700     0.3330 H     1 <1>   0.0800 
 26 H        2.2940     3.7300     1.5000 H     1 <1>   0.4000 
 27 H        2.8390     1.6670     2.6190 H     1 <1>   0.0800 
 28 H        1.1990     1.6280     2.0350 H     1 <1>   0.0800 
 29 H        3.4290     3.1340    -1.7120 H     1 <1>   0.4570 
 30 H        0.1350    -0.4810     1.7010 H     1 <1>   0.1500 
 31 H        4.4000    -0.3050     1.9730 H     1 <1>   0.1500 
 32 H        4.6660     4.7460    -3.0820 H     1 <1>   0.1500 
 33 H        0.2490    -2.9230     1.6600 H     1 <1>   0.1500 
 34 H        4.4940    -2.7490     1.9290 H     1 <1>   0.1500 
 35 H        2.4230    -4.0640     1.7690 H     1 <1>   0.1500 
 36 H        4.8680     8.7130     1.9240 H     1 <1>   0.0800 
 37 H        4.7300     6.9840     2.1400 H     1 <1>   0.0800 
 38 H        3.3120     7.9970     2.3090 H     1 <1>   0.0800 
 39 H        2.6160     9.3570     0.3500 H     1 <1>   0.0800 
 40 H        2.8450     8.6660    -1.2340 H     1 <1>   0.0800 
 41 H        4.1120     9.6460    -0.5140 H     1 <1>   0.0800 
 42 H        5.7730     6.9180    -3.1410 H     1 <1>   0.0800 
 43 H        5.8640     7.8580    -1.6780 H     1 <1>   0.0800 
 44 H        4.5020     8.0480    -2.7580 H     1 <1>   0.0800 
@<TRIPOS>BOND
  1   1   2  1   
  2   1  22  1   
  3   2   3  1   
  4   2  23  1   
  5   2  24  1   
  6   3   4  1   
  7   3   5  1   
  8   3  25  1   
  9   4   6  1   
 10   4  26  1   
 11   5   7  1   
 12   5  27  1   
 13   5  28  1   
 14   6   8  ar  
 15   6   9  ar  
 16   7  10  ar  
 17   7  11  ar  
 18   8  12  ar  
 19   9  13  ar  
 20   9  29  1   
 21  10  14  ar  
 22  10  30  1   
 23  11  15  ar  
 24  11  31  1   
 25  12  16  1   
 26  12  17  ar  
 27  13  17  ar  
 28  13  32  1   
 29  14  18  ar  
 30  14  33  1   
 31  15  18  ar  
 32  15  34  1   
 33  16  19  1   
 34  16  20  1   
 35  17  21  1   
 36  18  35  1   
 37  19  36  1   
 38  19  37  1   
 39  19  38  1   
 40  20  39  1   
 41  20  40  1   
 42  20  41  1   
 43  21  42  1   
 44  21  43  1   
 45  21  44  1   
@<TRIPOS>SUBSTRUCTURE
  1 ****   4 GROUP 4 **** **** 0

# MOE 2024.06 (io_trps.svl 2023.06)
