@<TRIPOS>MOLECULE
NONAME
50 52 1 0 0 
SMALL
USER_CHARGES


@<TRIPOS>ATOM
  1 O        1.8690    -0.7000     2.1010 O.2   1 <1>  -0.5700 
  2 C        1.7900    -0.9820     0.9210 C.2   1 <1>   0.5440 
  3 N        1.7770     0.0200    -0.0210 N.am  1 <1>  -0.4940 
  4 C        1.6790    -2.3630     0.5000 C.ar  1 <1>   0.0860 
  5 C        1.9860     1.4130     0.1140 C.2   1 <1>  -0.0880 
  6 C        1.0810    -3.3200     1.3230 C.ar  1 <1>  -0.1500 
  7 C        2.1610    -2.8050    -0.7360 C.ar  1 <1>  -0.1500 
  8 N        2.9530     2.0450     0.8440 N.pl3 1 <1>   0.3140 
  9 C        1.2770     2.3880    -0.5040 C.2   1 <1>  -0.1810 
 10 C        0.9580    -4.6390     0.9330 C.ar  1 <1>  -0.1500 
 11 C        2.0360    -4.1230    -1.1290 C.ar  1 <1>  -0.1500 
 12 N        2.8760     3.3900     0.6930 N.2   1 <1>  -0.7070 
 13 C        4.0610     1.4680     1.6410 C.3   1 <1>   0.0960 
 14 C        1.8720     3.5780    -0.1040 C.2   1 <1>   0.1390 
 15 C        0.0820     2.2730    -1.4320 C.3   1 <1>  -0.0590 
 16 C        1.4320    -5.0640    -0.3040 C.ar  1 <1>   0.1000 
 17 C        5.0830     0.7400     0.7570 C.3   1 <1>  -0.2400 
 18 N        1.3230    -6.3850    -0.7160 N.pl3 1 <1>  -0.8380 
 19 C        2.5510    -7.1640    -1.0570 C.3   1 <1>   0.2090 
 20 C        0.0610    -7.1640    -0.5300 C.3   1 <1>   0.2090 
 21 C        2.7150    -8.3820    -0.1220 C.3   1 <1>   0.3430 
 22 C        0.2860    -8.3850     0.3890 C.3   1 <1>   0.3430 
 23 N        1.4660    -9.2280    -0.0370 N.4   1 <1>  -0.9590 
 24 C        1.6610   -10.3900     0.8810 C.3   1 <1>   0.2630 
 25 H        1.4160    -0.2620    -0.9300 H     1 <1>   0.3700 
 26 H        0.7110    -3.0110     2.2870 H     1 <1>   0.1500 
 27 H        2.6470    -2.1100    -1.3980 H     1 <1>   0.1500 
 28 H        0.4960    -5.3410     1.5990 H     1 <1>   0.1500 
 29 H        2.4050    -4.4320    -2.0890 H     1 <1>   0.1500 
 30 H        3.6580     0.8090     2.3840 H     1 <1>   0.0800 
 31 H        4.5490     2.2760     2.1560 H     1 <1>   0.0800 
 32 H        1.5470     4.5560    -0.4150 H     1 <1>   0.1500 
 33 H       -0.2950     1.2670    -1.4430 H     1 <1>   0.0800 
 34 H        0.3660     2.5530    -2.4300 H     1 <1>   0.0800 
 35 H       -0.7020     2.9280    -1.0960 H     1 <1>   0.0800 
 36 H        4.6240    -0.0950     0.2610 H     1 <1>   0.0800 
 37 H        5.8900     0.3730     1.3650 H     1 <1>   0.0800 
 38 H        5.4840     1.4170     0.0240 H     1 <1>   0.0800 
 39 H        3.4190    -6.5330    -0.9660 H     1 <1>   0.0800 
 40 H        2.4900    -7.4930    -2.0790 H     1 <1>   0.0800 
 41 H       -0.2890    -7.4960    -1.4920 H     1 <1>   0.0800 
 42 H       -0.7030    -6.5320    -0.1120 H     1 <1>   0.0800 
 43 H        2.9660    -8.0140     0.8600 H     1 <1>   0.0800 
 44 H        3.5410    -8.9800    -0.4700 H     1 <1>   0.0800 
 45 H       -0.6090    -8.9850     0.3970 H     1 <1>   0.0800 
 46 H        0.4490    -8.0230     1.3900 H     1 <1>   0.0800 
 47 H        1.2670    -9.5780    -0.9860 H     1 <1>   0.4500 
 48 H        1.8720   -10.0470     1.8810 H     1 <1>   0.0800 
 49 H        2.4860   -10.9990     0.5450 H     1 <1>   0.0800 
 50 H        0.7730   -11.0020     0.9060 H     1 <1>   0.0800 
@<TRIPOS>BOND
  1   1   2  2   
  2   2   3  am  
  3   2   4  1   
  4   3   5  1   
  5   3  25  1   
  6   4   6  ar  
  7   4   7  ar  
  8   5   8  1   
  9   5   9  2   
 10   6  10  ar  
 11   6  26  1   
 12   7  11  ar  
 13   7  27  1   
 14   8  12  1   
 15   8  13  1   
 16   9  14  1   
 17   9  15  1   
 18  10  16  ar  
 19  10  28  1   
 20  11  16  ar  
 21  11  29  1   
 22  12  14  2   
 23  13  17  1   
 24  13  30  1   
 25  13  31  1   
 26  14  32  1   
 27  15  33  1   
 28  15  34  1   
 29  15  35  1   
 30  16  18  1   
 31  17  36  1   
 32  17  37  1   
 33  17  38  1   
 34  18  19  1   
 35  18  20  1   
 36  19  21  1   
 37  19  39  1   
 38  19  40  1   
 39  20  22  1   
 40  20  41  1   
 41  20  42  1   
 42  21  23  1   
 43  21  43  1   
 44  21  44  1   
 45  22  23  1   
 46  22  45  1   
 47  22  46  1   
 48  23  24  1   
 49  23  47  1   
 50  24  48  1   
 51  24  49  1   
 52  24  50  1   
@<TRIPOS>SUBSTRUCTURE
  1 ****   4 GROUP 4 **** **** 0

# MOE 2024.06 (io_trps.svl 2023.06)
