@<TRIPOS>MOLECULE
NONAME
50 54 1 0 0 
SMALL
USER_CHARGES


@<TRIPOS>ATOM
  1 O        0.4430     0.4820    -1.7050 O.2   1 <1>  -0.5700 
  2 C       -0.0540     1.5500    -1.4090 C.2   1 <1>   0.5440 
  3 N       -1.4190     1.6340    -1.2430 N.am  1 <1>  -0.6600 
  4 C        0.8110     2.6810    -1.1680 C.ar  1 <1>   0.0860 
  5 C       -2.1600     2.8890    -0.8930 C.3   1 <1>   0.1400 
  6 C       -2.2790     0.4160    -1.3820 C.3   1 <1>   0.1400 
  7 C        1.6350     2.7690    -0.0320 C.ar  1 <1>  -0.0230 
  8 C        0.8260     3.7240    -2.0940 C.ar  1 <1>  -0.1500 
  9 C       -2.8920     2.7570     0.4630 C.3   1 <1>   0.1440 
 10 C       -3.6090     0.5560    -0.6220 C.3   1 <1>  -0.1600 
 11 N        1.6990     1.7340     0.9570 N.pl3 1 <1>   0.5930 
 12 C        2.4190     3.9120     0.1340 C.ar  1 <1>  -0.1500 
 13 C        1.6090     4.8450    -1.9100 C.ar  1 <1>  -0.1500 
 14 C       -4.0060     3.7910     0.4780 C.ar  1 <1>   0.1660 
 15 C       -3.4210     1.3180     0.7000 C.3   1 <1>  -0.1600 
 16 C       -1.9990     3.2270     1.6440 C.3   1 <1>  -0.1600 
 17 N        2.7720     1.5550     1.7420 N.2   1 <1>  -0.7070 
 18 C        0.7540     0.8840     1.4140 C.2   1 <1>   0.0360 
 19 C        2.4070     4.9400    -0.7870 C.ar  1 <1>  -0.1500 
 20 N       -5.1260     3.7160    -0.2080 N.ar  1 <1>  -0.6200 
 21 C       -3.7070     4.8470     1.2860 C.ar  1 <1>  -0.1430 
 22 C       -2.3570     4.6940     1.9360 C.3   1 <1>  -0.0170 
 23 C        2.3990     0.6360     2.5640 C.2   1 <1>   0.3660 
 24 N        1.1500     0.1870     2.4160 N.2   1 <1>  -0.5650 
 25 C       -5.9460     4.7440    -0.0370 C.ar  1 <1>   0.4770 
 26 C       -4.6270     5.8590     1.3880 C.ar  1 <1>   0.1600 
 27 N       -5.7630     5.8150     0.7230 N.ar  1 <1>  -0.6200 
 28 C       -7.2490     4.6930    -0.7960 C.3   1 <1>  -0.0970 
 29 H       -2.8880     3.0640    -1.6670 H     1 <1>   0.0800 
 30 H       -1.5120     3.7450    -0.8730 H     1 <1>   0.0800 
 31 H       -1.7440    -0.4330    -0.9880 H     1 <1>   0.0800 
 32 H       -2.4680     0.2300    -2.4250 H     1 <1>   0.0800 
 33 H        0.2100     3.6470    -2.9740 H     1 <1>   0.1500 
 34 H       -4.0100    -0.4230    -0.4290 H     1 <1>   0.0800 
 35 H       -4.3220     1.0770    -1.2390 H     1 <1>   0.0800 
 36 H        3.0580     4.0020     0.9980 H     1 <1>   0.1500 
 37 H        1.6020     5.6400    -2.6370 H     1 <1>   0.1500 
 38 H       -4.3510     1.3530     1.2410 H     1 <1>   0.0800 
 39 H       -2.7180     0.7630     1.2970 H     1 <1>   0.0800 
 40 H       -0.9520     3.1190     1.4340 H     1 <1>   0.0800 
 41 H       -2.2300     2.6510     2.5240 H     1 <1>   0.0800 
 42 H       -0.2250     0.8120     0.9840 H     1 <1>   0.1500 
 43 H        3.0240     5.8110    -0.6360 H     1 <1>   0.1500 
 44 H       -1.6520     5.3610     1.4710 H     1 <1>   0.0800 
 45 H       -2.4010     4.8870     2.9940 H     1 <1>   0.0800 
 46 H        3.0370     0.2390     3.3390 H     1 <1>   0.1500 
 47 H       -4.4360     6.7120     2.0160 H     1 <1>   0.1500 
 48 H       -7.2070     3.9450    -1.5660 H     1 <1>   0.0800 
 49 H       -7.4440     5.6480    -1.2460 H     1 <1>   0.0800 
 50 H       -8.0450     4.4540    -0.1160 H     1 <1>   0.0800 
@<TRIPOS>BOND
  1   1   2  2   
  2   2   3  am  
  3   2   4  1   
  4   3   5  1   
  5   3   6  1   
  6   4   7  ar  
  7   4   8  ar  
  8   5   9  1   
  9   5  29  1   
 10   5  30  1   
 11   6  10  1   
 12   6  31  1   
 13   6  32  1   
 14   7  11  1   
 15   7  12  ar  
 16   8  13  ar  
 17   8  33  1   
 18   9  14  1   
 19   9  15  1   
 20   9  16  1   
 21  10  15  1   
 22  10  34  1   
 23  10  35  1   
 24  11  17  1   
 25  11  18  1   
 26  12  19  ar  
 27  12  36  1   
 28  13  19  ar  
 29  13  37  1   
 30  14  20  ar  
 31  14  21  ar  
 32  15  38  1   
 33  15  39  1   
 34  16  22  1   
 35  16  40  1   
 36  16  41  1   
 37  17  23  2   
 38  18  24  2   
 39  18  42  1   
 40  19  43  1   
 41  20  25  ar  
 42  21  22  1   
 43  21  26  ar  
 44  22  44  1   
 45  22  45  1   
 46  23  24  1   
 47  23  46  1   
 48  25  27  ar  
 49  25  28  1   
 50  26  27  ar  
 51  26  47  1   
 52  28  48  1   
 53  28  49  1   
 54  28  50  1   
@<TRIPOS>SUBSTRUCTURE
  1 ****   5 GROUP 4 **** **** 0

# MOE 2024.06 (io_trps.svl 2023.06)
