@<TRIPOS>MOLECULE
NONAME
43 46 1 0 0 
SMALL
USER_CHARGES


@<TRIPOS>ATOM
  1 O        1.1280    -0.3990     1.5100 O.3   1 <1>  -0.0190 
  2 N        1.6510     0.7880     1.5160 N.2   1 <1>  -0.4100 
  3 C        1.3250    -0.8320     0.2900 C.2   1 <1>   0.2980 
  4 C        2.1320     1.0110     0.3440 C.2   1 <1>   0.5150 
  5 N        1.9440    -0.0290    -0.4750 N.2   1 <1>  -0.5650 
  6 C        0.8370    -2.2330    -0.0740 C.3   1 <1>   0.2900 
  7 C        2.8000     2.2320    -0.0570 C.2   1 <1>   0.1410 
  8 N       -0.6140    -2.3750    -0.3990 N.3   1 <1>  -0.8100 
  9 O        3.2900     2.3870    -1.2840 O.3   1 <1>  -0.2800 
 10 C        3.0500     3.3660     0.6540 C.2   1 <1>  -0.1500 
 11 C       -1.5020    -1.8800     0.6900 C.3   1 <1>   0.1900 
 12 C       -0.8590    -3.7490    -0.8690 C.3   1 <1>   0.0300 
 13 C        3.8390     3.5810    -1.3710 C.2   1 <1>  -0.0100 
 14 C        3.7250     4.2410    -0.2010 C.2   1 <1>  -0.1500 
 15 C       -2.8860    -2.5450     0.7810 C.3   1 <1>  -0.1600 
 16 C       -1.8880    -0.4300     0.3780 C.3   1 <1>  -0.1600 
 17 C       -3.7370    -1.8820    -0.3110 C.3   1 <1>  -0.0800 
 18 C       -3.0890    -0.5210    -0.5710 C.3   1 <1>  -0.0800 
 19 C       -5.2020    -1.6140     0.0580 C.3   1 <1>  -0.1600 
 20 C       -4.1790     0.5390    -0.3680 C.3   1 <1>  -0.1600 
 21 C       -5.4850    -0.2320    -0.5180 C.3   1 <1>   0.2000 
 22 O       -6.4870     0.3850     0.1980 O.3   1 <1>  -0.6800 
 23 H        1.0850    -2.8970     0.7360 H     1 <1>   0.0800 
 24 H        1.4050    -2.5440    -0.9320 H     1 <1>   0.0800 
 25 H        2.7860     3.5660     1.6770 H     1 <1>   0.1500 
 26 H       -1.0010    -1.9600     1.6400 H     1 <1>   0.0800 
 27 H       -0.1510    -4.0100    -1.6360 H     1 <1>   0.0800 
 28 H       -1.8410    -3.8260    -1.3020 H     1 <1>   0.0800 
 29 H       -0.7700    -4.4490    -0.0550 H     1 <1>   0.0800 
 30 H        4.2890     3.8780    -2.3030 H     1 <1>   0.1500 
 31 H        4.0680     5.2290     0.0520 H     1 <1>   0.1500 
 32 H       -2.8770    -3.6160     0.7180 H     1 <1>   0.0800 
 33 H       -3.2890    -2.2910     1.7450 H     1 <1>   0.0800 
 34 H       -2.1750     0.0440     1.2990 H     1 <1>   0.0800 
 35 H       -1.0930     0.1410    -0.0640 H     1 <1>   0.0800 
 36 H       -3.6880    -2.4590    -1.2190 H     1 <1>   0.0800 
 37 H       -2.7390    -0.5020    -1.5910 H     1 <1>   0.0800 
 38 H       -5.3240    -1.5950     1.1260 H     1 <1>   0.0800 
 39 H       -5.8550    -2.3540    -0.3670 H     1 <1>   0.0800 
 40 H       -4.1020     1.3240    -1.0990 H     1 <1>   0.0800 
 41 H       -4.1130     0.9590     0.6200 H     1 <1>   0.0800 
 42 H       -5.7780    -0.2970    -1.5530 H     1 <1>   0.0800 
 43 H       -6.2220     0.4620     1.1320 H     1 <1>   0.4000 
@<TRIPOS>BOND
  1   1   2  1   
  2   1   3  1   
  3   2   4  2   
  4   3   5  2   
  5   3   6  1   
  6   4   5  1   
  7   4   7  1   
  8   6   8  1   
  9   6  23  1   
 10   6  24  1   
 11   7   9  1   
 12   7  10  2   
 13   8  11  1   
 14   8  12  1   
 15   9  13  1   
 16  10  14  1   
 17  10  25  1   
 18  11  15  1   
 19  11  16  1   
 20  11  26  1   
 21  12  27  1   
 22  12  28  1   
 23  12  29  1   
 24  13  14  2   
 25  13  30  1   
 26  14  31  1   
 27  15  17  1   
 28  15  32  1   
 29  15  33  1   
 30  16  18  1   
 31  16  34  1   
 32  16  35  1   
 33  17  18  1   
 34  17  19  1   
 35  17  36  1   
 36  18  20  1   
 37  18  37  1   
 38  19  21  1   
 39  19  38  1   
 40  19  39  1   
 41  20  21  1   
 42  20  40  1   
 43  20  41  1   
 44  21  22  1   
 45  21  42  1   
 46  22  43  1   
@<TRIPOS>SUBSTRUCTURE
  1 ****  16 GROUP 4 **** **** 0

# MOE 2024.06 (io_trps.svl 2023.06)
