@<TRIPOS>MOLECULE
NONAME
46 48 1 0 0 
SMALL
USER_CHARGES


@<TRIPOS>ATOM
  1 O       -1.6120     1.4080    -2.0890 O.2   1 <1>  -0.5700 
  2 C       -2.1090     1.6630    -1.0010 C.2   1 <1>   0.7160 
  3 N       -3.2480     0.9590    -0.6340 N.am  1 <1>  -0.6600 
  4 C       -1.4410     2.6450    -0.1440 C.2   1 <1>   0.2030 
  5 C       -3.7480    -0.1920    -1.4690 C.3   1 <1>   0.1400 
  6 C       -3.8960     1.1190     0.7120 C.3   1 <1>   0.1400 
  7 N       -1.9960     3.5870     0.6110 N.2   1 <1>  -0.7070 
  8 C       -0.0460     2.7160    -0.0140 C.2   1 <1>  -0.1810 
  9 C       -4.2040    -1.3350    -0.5570 C.3   1 <1>   0.2000 
 10 C       -5.3250     0.5690     0.6970 C.3   1 <1>  -0.1600 
 11 N       -0.9790     4.2280     1.2080 N.pl3 1 <1>   0.3000 
 12 C        0.2060     3.7080     0.8500 C.2   1 <1>  -0.3320 
 13 C        1.0540     1.8880    -0.6610 C.3   1 <1>   0.3010 
 14 O       -4.4920    -2.4830    -1.2770 O.3   1 <1>  -0.6800 
 15 C       -5.3910    -0.9570     0.3680 C.3   1 <1>  -0.1060 
 16 C        1.6120     4.0830     1.2660 C.3   1 <1>   0.0200 
 17 O        2.3060     2.5010    -0.4420 O.3   1 <1>  -0.5600 
 18 C       -5.1500    -1.8290     1.6120 C.2   1 <1>   0.9060 
 19 C       -6.8150    -1.2860    -0.1910 C.3   1 <1>  -0.1600 
 20 C        2.5570     2.9280     0.8730 C.3   1 <1>   0.1200 
 21 O       -4.9460    -1.3110     2.7160 O.co2 1 <1>  -0.9000 
 22 O       -5.1210    -3.0600     1.4580 O.co2 1 <1>  -0.9000 
 23 C       -7.1790    -0.7240    -1.5800 C.3   1 <1>  -0.1600 
 24 C       -8.6090    -1.1140    -1.9650 C.3   1 <1>  -0.2400 
 25 H       -4.5660     0.1460    -2.0770 H     1 <1>   0.0800 
 26 H       -2.9670    -0.5580    -2.1100 H     1 <1>   0.0800 
 27 H       -3.3160     0.5990     1.4580 H     1 <1>   0.0800 
 28 H       -3.9440     2.1570     0.9820 H     1 <1>   0.0800 
 29 H       -3.3520    -1.5860     0.0540 H     1 <1>   0.0800 
 30 H       -5.7860     0.7550     1.6520 H     1 <1>   0.0800 
 31 H       -5.8720     1.1490    -0.0190 H     1 <1>   0.0800 
 32 H       -1.1260     5.0140     1.8520 H     1 <1>   0.2700 
 33 H        0.9050     1.8210    -1.7250 H     1 <1>   0.0800 
 34 H        1.0790     0.8970    -0.2420 H     1 <1>   0.0800 
 35 H       -4.7860    -3.1410    -0.5970 H     1 <1>   0.4000 
 36 H        1.6660     4.2440     2.3270 H     1 <1>   0.0800 
 37 H        1.9160     4.9840     0.7630 H     1 <1>   0.0800 
 38 H       -6.9250    -2.3560    -0.2340 H     1 <1>   0.0800 
 39 H       -7.5380    -0.9400     0.5280 H     1 <1>   0.0800 
 40 H        2.4190     2.0860     1.5290 H     1 <1>   0.0800 
 41 H        3.5830     3.2480     0.9260 H     1 <1>   0.0800 
 42 H       -7.1010     0.3470    -1.5960 H     1 <1>   0.0800 
 43 H       -6.5060    -1.1210    -2.3180 H     1 <1>   0.0800 
 44 H       -9.3110    -0.7160    -1.2530 H     1 <1>   0.0800 
 45 H       -8.7080    -2.1860    -1.9880 H     1 <1>   0.0800 
 46 H       -8.8470    -0.7260    -2.9390 H     1 <1>   0.0800 
@<TRIPOS>BOND
  1   1   2  2   
  2   2   3  am  
  3   2   4  1   
  4   3   5  1   
  5   3   6  1   
  6   4   7  2   
  7   4   8  1   
  8   5   9  1   
  9   5  25  1   
 10   5  26  1   
 11   6  10  1   
 12   6  27  1   
 13   6  28  1   
 14   7  11  1   
 15   8  12  2   
 16   8  13  1   
 17   9  14  1   
 18   9  15  1   
 19   9  29  1   
 20  10  15  1   
 21  10  30  1   
 22  10  31  1   
 23  11  12  1   
 24  11  32  1   
 25  12  16  1   
 26  13  17  1   
 27  13  33  1   
 28  13  34  1   
 29  14  35  1   
 30  15  18  1   
 31  15  19  1   
 32  16  20  1   
 33  16  36  1   
 34  16  37  1   
 35  17  20  1   
 36  18  21  ar  
 37  18  22  ar  
 38  19  23  1   
 39  19  38  1   
 40  19  39  1   
 41  20  40  1   
 42  20  41  1   
 43  23  24  1   
 44  23  42  1   
 45  23  43  1   
 46  24  44  1   
 47  24  45  1   
 48  24  46  1   
@<TRIPOS>SUBSTRUCTURE
  1 ****   3 GROUP 4 **** **** 0

# MOE 2024.06 (io_trps.svl 2023.06)
