@<TRIPOS>MOLECULE
NONAME
45 47 1 0 0 
SMALL
USER_CHARGES


@<TRIPOS>ATOM
  1 F        0.6580    -1.0470    -0.8780 F     1 <1>  -0.1900 
  2 C        0.2710    -2.1460    -0.2900 C.ar  1 <1>   0.1900 
  3 C        1.0140    -3.2930    -0.4730 C.ar  1 <1>  -0.1500 
  4 C       -0.8690    -2.1130     0.4900 C.ar  1 <1>  -0.1500 
  5 C        0.5960    -4.4640     0.1540 C.ar  1 <1>   0.0830 
  6 C       -1.2800    -3.2790     1.1130 C.ar  1 <1>  -0.1500 
  7 O        1.2590    -5.6450     0.0220 O.3   1 <1>  -0.3630 
  8 C       -0.5520    -4.4520     0.9470 C.ar  1 <1>  -0.1440 
  9 C        2.5530    -5.6910    -0.5480 C.3   1 <1>   0.0400 
 10 C       -1.0120    -5.7210     1.6400 C.3   1 <1>   0.4870 
 11 N       -1.3120    -6.7410     0.6050 N.4   1 <1>  -0.9590 
 12 C       -2.5170    -6.3550    -0.1930 C.3   1 <1>   0.3430 
 13 C       -1.5890    -8.0720     1.2230 C.3   1 <1>   0.3430 
 14 C       -3.6600    -7.2170     0.3500 C.3   1 <1>   0.2000 
 15 C       -2.9630    -8.5260     0.7100 C.3   1 <1>  -0.0800 
 16 O       -4.1260    -6.6380     1.5260 O.3   1 <1>  -0.6800 
 17 C       -2.8380    -9.4660    -0.5070 C.3   1 <1>  -0.0170 
 18 C       -1.9320   -10.6450    -0.1910 C.ar  1 <1>  -0.1430 
 19 C       -2.2910   -11.6170     0.7220 C.ar  1 <1>  -0.1500 
 20 C       -0.6990   -10.8020    -0.7950 C.ar  1 <1>  -0.1500 
 21 C       -1.4180   -12.6570     0.9940 C.ar  1 <1>   0.1600 
 22 C        0.0980   -11.8810    -0.4530 C.ar  1 <1>   0.1600 
 23 N       -0.2290   -12.8040     0.4350 N.ar  1 <1>  -0.6200 
 24 H        1.8870    -3.2440    -1.0950 H     1 <1>   0.1500 
 25 H       -1.4150    -1.1920     0.6050 H     1 <1>   0.1500 
 26 H       -2.1660    -3.2580     1.7260 H     1 <1>   0.1500 
 27 H        2.9280    -6.6950    -0.4580 H     1 <1>   0.0800 
 28 H        3.1980    -5.0160    -0.0120 H     1 <1>   0.0800 
 29 H        2.4930    -5.4180    -1.5870 H     1 <1>   0.0800 
 30 H       -1.8900    -5.5280     2.2360 H     1 <1>   0.0800 
 31 H       -0.2240    -6.0720     2.2850 H     1 <1>   0.0800 
 32 H       -0.4690    -6.7590     0.0080 H     1 <1>   0.4500 
 33 H       -2.7480    -5.3050    -0.1090 H     1 <1>   0.0800 
 34 H       -2.3520    -6.5970    -1.2290 H     1 <1>   0.0800 
 35 H       -0.8190    -8.7860     0.9790 H     1 <1>   0.0800 
 36 H       -1.6360    -7.9720     2.2960 H     1 <1>   0.0800 
 37 H       -4.4800    -7.3170    -0.3430 H     1 <1>   0.0800 
 38 H       -3.4930    -9.0490     1.4870 H     1 <1>   0.0800 
 39 H       -4.9740    -7.0420     1.8100 H     1 <1>   0.4000 
 40 H       -2.4460    -8.9390    -1.3590 H     1 <1>   0.0800 
 41 H       -3.8110    -9.8380    -0.7790 H     1 <1>   0.0800 
 42 H       -3.2410   -11.5850     1.2250 H     1 <1>   0.1500 
 43 H       -0.3450   -10.1050    -1.5320 H     1 <1>   0.1500 
 44 H       -1.7120   -13.4080     1.7080 H     1 <1>   0.1500 
 45 H        1.0560   -11.9930    -0.9330 H     1 <1>   0.1500 
@<TRIPOS>BOND
  1   1   2  1   
  2   2   3  ar  
  3   2   4  ar  
  4   3   5  ar  
  5   3  24  1   
  6   4   6  ar  
  7   4  25  1   
  8   5   7  1   
  9   5   8  ar  
 10   6   8  ar  
 11   6  26  1   
 12   7   9  1   
 13   8  10  1   
 14   9  27  1   
 15   9  28  1   
 16   9  29  1   
 17  10  11  1   
 18  10  30  1   
 19  10  31  1   
 20  11  12  1   
 21  11  13  1   
 22  11  32  1   
 23  12  14  1   
 24  12  33  1   
 25  12  34  1   
 26  13  15  1   
 27  13  35  1   
 28  13  36  1   
 29  14  15  1   
 30  14  16  1   
 31  14  37  1   
 32  15  17  1   
 33  15  38  1   
 34  16  39  1   
 35  17  18  1   
 36  17  40  1   
 37  17  41  1   
 38  18  19  ar  
 39  18  20  ar  
 40  19  21  ar  
 41  19  42  1   
 42  20  22  ar  
 43  20  43  1   
 44  21  23  ar  
 45  21  44  1   
 46  22  23  ar  
 47  22  45  1   
@<TRIPOS>SUBSTRUCTURE
  1 ****  11 GROUP 4 **** **** 0

# MOE 2024.06 (io_trps.svl 2023.06)
