@<TRIPOS>MOLECULE
NONAME
48 50 1 0 0 
SMALL
USER_CHARGES


@<TRIPOS>ATOM
  1 S       -0.8900     0.1300     1.4260 S.3   1 <1>  -0.0800 
  2 C       -2.4020    -0.1490     0.5800 C.2   1 <1>  -0.1400 
  3 C       -0.5090     1.5140     0.4180 C.2   1 <1>  -0.1400 
  4 C       -2.5620     0.7730    -0.3930 C.2   1 <1>  -0.1500 
  5 C       -3.1950    -1.3350     1.1050 C.3   1 <1>   0.5230 
  6 C       -1.4880     1.7130    -0.4830 C.2   1 <1>  -0.1500 
  7 C        0.8010     2.2250     0.7130 C.3   1 <1>   0.0200 
  8 N       -4.4430    -1.5770     0.3350 N.4   1 <1>  -0.9590 
  9 C        1.0380     3.4150    -0.2210 C.3   1 <1>  -0.2400 
 10 C       -4.1660    -2.0250    -1.0660 C.3   1 <1>   0.3430 
 11 C       -5.4350    -0.4700     0.4360 C.3   1 <1>   0.3430 
 12 C       -5.3880    -2.7170    -1.7090 C.3   1 <1>   0.1400 
 13 C       -6.8460    -1.0190     0.6810 C.3   1 <1>  -0.1600 
 14 N       -6.4830    -3.0130    -0.7280 N.am  1 <1>  -0.6600 
 15 C       -7.4130    -1.8940    -0.4460 C.3   1 <1>   0.1400 
 16 C       -6.3970    -4.0880     0.1220 C.2   1 <1>   0.5440 
 17 O       -5.3090    -4.2740     0.6360 O.2   1 <1>  -0.5700 
 18 C       -7.5400    -4.9000     0.4940 C.ar  1 <1>   0.0860 
 19 C       -8.5690    -5.2350    -0.3940 C.ar  1 <1>   0.1900 
 20 C       -7.6600    -5.3990     1.7940 C.ar  1 <1>  -0.1500 
 21 F       -8.5110    -4.8260    -1.6320 F     1 <1>  -0.1900 
 22 C       -9.6690    -5.9990    -0.0400 C.ar  1 <1>  -0.1500 
 23 C       -8.7580    -6.1600     2.1460 C.ar  1 <1>   0.1900 
 24 C       -9.7700    -6.4710     1.2570 C.ar  1 <1>  -0.1500 
 25 F       -8.8440    -6.6030     3.3700 F     1 <1>  -0.1900 
 26 H       -3.3860     0.8620    -1.0760 H     1 <1>   0.1500 
 27 H       -3.4380    -1.1590     2.1400 H     1 <1>   0.0800 
 28 H       -2.5720    -2.2140     1.0620 H     1 <1>   0.0800 
 29 H       -1.5020     2.4970    -1.2220 H     1 <1>   0.1500 
 30 H        1.6110     1.5250     0.6100 H     1 <1>   0.0800 
 31 H        0.7900     2.5710     1.7330 H     1 <1>   0.0800 
 32 H       -4.8880    -2.4250     0.7460 H     1 <1>   0.4500 
 33 H        1.0760     3.0840    -1.2440 H     1 <1>   0.0800 
 34 H        1.9720     3.8900     0.0210 H     1 <1>   0.0800 
 35 H        0.2490     4.1370    -0.1140 H     1 <1>   0.0800 
 36 H       -3.3580    -2.7380    -1.0520 H     1 <1>   0.0800 
 37 H       -3.8510    -1.1950    -1.6770 H     1 <1>   0.0800 
 38 H       -5.4210     0.1220    -0.4640 H     1 <1>   0.0800 
 39 H       -5.1700     0.1740     1.2600 H     1 <1>   0.0800 
 40 H       -5.0620    -3.6400    -2.1580 H     1 <1>   0.0800 
 41 H       -5.7720    -2.1020    -2.5040 H     1 <1>   0.0800 
 42 H       -7.5090    -0.1810     0.8100 H     1 <1>   0.0800 
 43 H       -6.8630    -1.5670     1.6070 H     1 <1>   0.0800 
 44 H       -7.5610    -1.3090    -1.3390 H     1 <1>   0.0800 
 45 H       -8.3730    -2.2860    -0.1520 H     1 <1>   0.0800 
 46 H       -6.9000    -5.1970     2.5270 H     1 <1>   0.1500 
 47 H      -10.4290    -6.2220    -0.7690 H     1 <1>   0.1500 
 48 H      -10.6070    -7.0680     1.5750 H     1 <1>   0.1500 
@<TRIPOS>BOND
  1   1   2  1   
  2   1   3  1   
  3   2   4  2   
  4   2   5  1   
  5   3   6  2   
  6   3   7  1   
  7   4   6  1   
  8   4  26  1   
  9   5   8  1   
 10   5  27  1   
 11   5  28  1   
 12   6  29  1   
 13   7   9  1   
 14   7  30  1   
 15   7  31  1   
 16   8  10  1   
 17   8  11  1   
 18   8  32  1   
 19   9  33  1   
 20   9  34  1   
 21   9  35  1   
 22  10  12  1   
 23  10  36  1   
 24  10  37  1   
 25  11  13  1   
 26  11  38  1   
 27  11  39  1   
 28  12  14  1   
 29  12  40  1   
 30  12  41  1   
 31  13  15  1   
 32  13  42  1   
 33  13  43  1   
 34  14  15  1   
 35  14  16  am  
 36  15  44  1   
 37  15  45  1   
 38  16  17  2   
 39  16  18  1   
 40  18  19  ar  
 41  18  20  ar  
 42  19  21  1   
 43  19  22  ar  
 44  20  23  ar  
 45  20  46  1   
 46  22  24  ar  
 47  22  47  1   
 48  23  24  ar  
 49  23  25  1   
 50  24  48  1   
@<TRIPOS>SUBSTRUCTURE
  1 ****   8 GROUP 4 **** **** 0

# MOE 2024.06 (io_trps.svl 2023.06)
