@<TRIPOS>MOLECULE
NONAME
41 44 1 0 0 
SMALL
USER_CHARGES


@<TRIPOS>ATOM
  1 O        1.0220     1.3830     1.1820 O.3   1 <1>  -0.0190 
  2 N        1.8670     0.4140     1.3790 N.2   1 <1>  -0.4100 
  3 C        0.8760     1.6500    -0.0890 C.2   1 <1>  -0.0400 
  4 C        2.2670     0.0460     0.2140 C.2   1 <1>   0.1080 
  5 C        1.6620     0.8110    -0.7790 C.2   1 <1>  -0.1500 
  6 C       -0.0570     2.7610    -0.5320 C.3   1 <1>   0.0200 
  7 C        3.2610    -1.0670    -0.0300 C.3   1 <1>  -0.0590 
  8 C        0.3510     4.1090     0.0830 C.3   1 <1>  -0.0800 
  9 C       -0.4540     5.2830    -0.4650 C.3   1 <1>   0.2000 
 10 C        1.8040     4.4950    -0.1860 C.3   1 <1>   0.2090 
 11 O       -1.6580     5.3930     0.2150 O.3   1 <1>  -0.6800 
 12 C        0.4350     6.5130    -0.2700 C.3   1 <1>   0.2090 
 13 N        1.8260     5.9830    -0.1700 N.pl3 1 <1>  -0.8380 
 14 C        2.9550     6.7420    -0.0540 C.ar  1 <1>   0.4100 
 15 N        4.1040     6.0730    -0.0100 N.ar  1 <1>  -0.6200 
 16 C        2.9370     8.1700     0.0170 C.ar  1 <1>   0.2270 
 17 C        5.2290     6.7500     0.1050 C.ar  1 <1>   0.7710 
 18 N        1.9300     9.1010    -0.0040 N.2   1 <1>  -0.5650 
 19 C        4.1320     8.8220     0.1310 C.ar  1 <1>   0.1560 
 20 N        5.2910     8.0940     0.1750 N.ar  1 <1>  -0.1260 
 21 N        6.3420     6.0220     0.1510 N.pl3 1 <1>  -0.9000 
 22 C        2.5220    10.2390     0.0920 C.2   1 <1>   0.0360 
 23 N        3.8750    10.1440     0.1790 N.pl3 1 <1>   0.0330 
 24 H        1.8140     0.7200    -1.8380 H     1 <1>   0.1500 
 25 H       -0.0400     2.8250    -1.6050 H     1 <1>   0.0800 
 26 H       -1.0610     2.5190    -0.2290 H     1 <1>   0.0800 
 27 H        2.8640    -1.7610    -0.7470 H     1 <1>   0.0800 
 28 H        3.4590    -1.5900     0.8880 H     1 <1>   0.0800 
 29 H        4.1810    -0.6570    -0.4030 H     1 <1>   0.0800 
 30 H        0.2340     4.0610     1.1520 H     1 <1>   0.0800 
 31 H       -0.6690     5.1590    -1.5130 H     1 <1>   0.0800 
 32 H        2.1190     4.1510    -1.1570 H     1 <1>   0.0800 
 33 H        2.4570     4.0840     0.5670 H     1 <1>   0.0800 
 34 H       -1.5020     5.4780     1.1760 H     1 <1>   0.4000 
 35 H        0.1820     7.0280     0.6410 H     1 <1>   0.0800 
 36 H        0.3440     7.1810    -1.1090 H     1 <1>   0.0800 
 37 H        6.2110     8.5150     0.2610 H     1 <1>   0.4570 
 38 H        7.3150     6.3190     0.2400 H     1 <1>   0.4000 
 39 H        6.2300     5.0030     0.1010 H     1 <1>   0.4000 
 40 H        2.0140    11.1910     0.1060 H     1 <1>   0.1500 
 41 H        4.5180    10.9380     0.2620 H     1 <1>   0.2700 
@<TRIPOS>BOND
  1   1   2  1   
  2   1   3  1   
  3   2   4  2   
  4   3   5  2   
  5   3   6  1   
  6   4   5  1   
  7   4   7  1   
  8   5  24  1   
  9   6   8  1   
 10   6  25  1   
 11   6  26  1   
 12   7  27  1   
 13   7  28  1   
 14   7  29  1   
 15   8   9  1   
 16   8  10  1   
 17   8  30  1   
 18   9  11  1   
 19   9  12  1   
 20   9  31  1   
 21  10  13  1   
 22  10  32  1   
 23  10  33  1   
 24  11  34  1   
 25  12  13  1   
 26  12  35  1   
 27  12  36  1   
 28  13  14  1   
 29  14  15  ar  
 30  14  16  ar  
 31  15  17  ar  
 32  16  18  1   
 33  16  19  ar  
 34  17  20  ar  
 35  17  21  1   
 36  18  22  2   
 37  19  20  ar  
 38  19  23  1   
 39  20  37  1   
 40  21  38  1   
 41  21  39  1   
 42  22  23  1   
 43  22  40  1   
 44  23  41  1   
@<TRIPOS>SUBSTRUCTURE
  1 ****  10 GROUP 4 **** **** 0

# MOE 2024.06 (io_trps.svl 2023.06)
