@<TRIPOS>MOLECULE
NONAME
47 48 1 0 0 
SMALL
USER_CHARGES


@<TRIPOS>ATOM
  1 S        0.4270     0.9920    -0.5040 S.o2  1 <1>   1.3330 
  2 O       -0.5460     2.0090    -0.8310 O.2   1 <1>  -0.6500 
  3 O        0.2310    -0.3610    -0.9770 O.2   1 <1>  -0.6500 
  4 N        0.5360     0.9350     1.1900 N.am  1 <1>  -0.8490 
  5 C        2.0530     1.5350    -1.0340 C.3   1 <1>  -0.0550 
  6 C       -0.5230     0.1090     1.7740 C.3   1 <1>   0.1160 
  7 C        0.5360     2.2620     1.8190 C.3   1 <1>   0.1160 
  8 C        3.1800     0.4990    -0.8240 C.3   1 <1>  -0.0800 
  9 C        4.5500     0.9360    -1.3200 C.3   1 <1>   0.2200 
 10 C        3.4630     0.1290     0.6360 C.3   1 <1>   0.1200 
 11 N        4.8160     2.3360    -0.9190 N.am  1 <1>  -0.7300 
 12 C        5.4510     0.0090    -0.5150 C.3   1 <1>   0.1200 
 13 O        4.8340    -0.1310     0.7300 O.3   1 <1>  -0.5600 
 14 C        4.6990     3.4350    -1.7170 C.2   1 <1>   0.6160 
 15 O        4.5600     3.2500    -2.9120 O.2   1 <1>  -0.5700 
 16 C        4.7400     4.7740    -1.1890 C.2   1 <1>   0.0290 
 17 C        4.2620     5.0420     0.1380 C.2   1 <1>   0.6160 
 18 C        5.2160     5.8210    -1.9350 C.2   1 <1>  -0.1500 
 19 O        3.7420     4.1660     0.8300 O.2   1 <1>  -0.5700 
 20 N        4.3650     6.3360     0.6570 N.am  1 <1>  -0.4690 
 21 C        5.2620     7.1210    -1.4030 C.2   1 <1>  -0.1500 
 22 C        4.8450     7.3670    -0.1300 C.2   1 <1>  -0.0290 
 23 C        3.9200     6.5960     2.0620 C.3   1 <1>   0.0600 
 24 C        4.8980     8.7840     0.4260 C.3   1 <1>  -0.1020 
 25 H        2.0070     1.7630    -2.0820 H     1 <1>   0.0800 
 26 H        2.2920     2.4460    -0.5250 H     1 <1>   0.0800 
 27 H       -0.4180     0.0690     2.8450 H     1 <1>   0.0800 
 28 H       -0.4600    -0.8960     1.3920 H     1 <1>   0.0800 
 29 H       -1.4920     0.5120     1.5270 H     1 <1>   0.0800 
 30 H        0.6620     2.1660     2.8830 H     1 <1>   0.0800 
 31 H       -0.3920     2.7740     1.6210 H     1 <1>   0.0800 
 32 H        1.3470     2.8590     1.4390 H     1 <1>   0.0800 
 33 H        2.9090    -0.4070    -1.3400 H     1 <1>   0.0800 
 34 H        4.6760     0.8080    -2.3820 H     1 <1>   0.0800 
 35 H        2.9140    -0.7440     0.9470 H     1 <1>   0.0800 
 36 H        3.2470     0.9490     1.3000 H     1 <1>   0.0800 
 37 H        4.7810     2.4850     0.0980 H     1 <1>   0.3700 
 38 H        6.4440     0.4020    -0.3870 H     1 <1>   0.0800 
 39 H        5.4960    -0.9660    -0.9690 H     1 <1>   0.0800 
 40 H        5.5640     5.6650    -2.9430 H     1 <1>   0.1500 
 41 H        5.6380     7.9100    -2.0320 H     1 <1>   0.1500 
 42 H        4.6290     7.2260     2.5660 H     1 <1>   0.0800 
 43 H        3.8420     5.6820     2.6240 H     1 <1>   0.0800 
 44 H        2.9580     7.0770     2.0490 H     1 <1>   0.0800 
 45 H        5.5860     8.8360     1.2500 H     1 <1>   0.0800 
 46 H        3.9220     9.0930     0.7550 H     1 <1>   0.0800 
 47 H        5.2290     9.4760    -0.3270 H     1 <1>   0.0800 
@<TRIPOS>BOND
  1   1   2  2   
  2   1   3  2   
  3   1   4  am  
  4   1   5  1   
  5   4   6  1   
  6   4   7  1   
  7   5   8  1   
  8   5  25  1   
  9   5  26  1   
 10   6  27  1   
 11   6  28  1   
 12   6  29  1   
 13   7  30  1   
 14   7  31  1   
 15   7  32  1   
 16   8   9  1   
 17   8  10  1   
 18   8  33  1   
 19   9  11  1   
 20   9  12  1   
 21   9  34  1   
 22  10  13  1   
 23  10  35  1   
 24  10  36  1   
 25  11  14  am  
 26  11  37  1   
 27  12  13  1   
 28  12  38  1   
 29  12  39  1   
 30  14  15  2   
 31  14  16  1   
 32  16  17  1   
 33  16  18  2   
 34  17  19  2   
 35  17  20  am  
 36  18  21  1   
 37  18  40  1   
 38  20  22  1   
 39  20  23  1   
 40  21  22  2   
 41  21  41  1   
 42  22  24  1   
 43  23  42  1   
 44  23  43  1   
 45  23  44  1   
 46  24  45  1   
 47  24  46  1   
 48  24  47  1   
@<TRIPOS>SUBSTRUCTURE
  1 ****  19 GROUP 4 **** **** 0

# MOE 2024.06 (io_trps.svl 2023.06)
