@<TRIPOS>MOLECULE
NONAME
55 59 1 0 0 
SMALL
USER_CHARGES


@<TRIPOS>ATOM
  1 O       -2.0630    -0.4220     1.2350 O.2   1 <1>  -0.5700 
  2 C       -2.7380     0.5400     0.9130 C.2   1 <1>   0.5440 
  3 N       -4.0440     0.6020     1.3560 N.am  1 <1>  -0.6600 
  4 C       -2.1550     1.5650     0.0780 C.ar  1 <1>   0.0860 
  5 C       -4.5740    -0.3190     2.4110 C.3   1 <1>   0.1400 
  6 C       -5.0890     1.3710     0.6350 C.3   1 <1>   0.1400 
  7 C       -2.2970     1.5590    -1.3130 C.ar  1 <1>   0.0820 
  8 C       -1.4220     2.6040     0.6490 C.ar  1 <1>  -0.1500 
  9 C       -5.9820    -0.8270     2.0640 C.3   1 <1>  -0.1600 
 10 C       -5.9620     0.3990    -0.1680 C.3   1 <1>  -0.1600 
 11 O       -3.0030     0.5930    -1.9280 O.3   1 <1>  -0.3620 
 12 C       -1.7420     2.5620    -2.0900 C.ar  1 <1>  -0.1500 
 13 C       -0.8580     3.6070    -0.1220 C.ar  1 <1>  -0.1440 
 14 C       -6.2270    -0.9400     0.5540 C.3   1 <1>   0.4600 
 15 C       -2.3070    -0.5800    -2.2880 C.3   1 <1>   0.0400 
 16 C       -1.0230     3.5820    -1.4970 C.ar  1 <1>  -0.1500 
 17 C       -0.0620     4.7290     0.5200 C.3   1 <1>  -0.0970 
 18 O       -7.5970    -1.2470     0.4220 O.3   1 <1>  -0.5600 
 19 C       -5.4120    -2.0830    -0.0560 C.2   1 <1>  -0.3320 
 20 C       -8.0260    -1.7790    -0.8090 C.3   1 <1>   0.1200 
 21 N       -4.0570    -2.2480     0.0280 N.pl3 1 <1>   0.0330 
 22 C       -5.9350    -3.0920    -0.7810 C.2   1 <1>  -0.1810 
 23 C       -7.4170    -3.1700    -1.0530 C.3   1 <1>   0.0210 
 24 C       -3.7230    -3.3890    -0.6580 C.ar  1 <1>  -0.1520 
 25 C       -4.8860    -3.9460    -1.1810 C.ar  1 <1>   0.0000 
 26 C       -2.4800    -3.9890    -0.8680 C.ar  1 <1>  -0.1500 
 27 C       -4.8090    -5.1240    -1.9320 C.ar  1 <1>  -0.1500 
 28 C       -2.4180    -5.1460    -1.6100 C.ar  1 <1>  -0.1500 
 29 C       -3.5830    -5.7130    -2.1420 C.ar  1 <1>  -0.1500 
 30 H       -4.6000     0.2020     3.3530 H     1 <1>   0.0800 
 31 H       -3.9180    -1.1640     2.5290 H     1 <1>   0.0800 
 32 H       -4.6580     2.1060    -0.0220 H     1 <1>   0.0800 
 33 H       -5.6930     1.8930     1.3580 H     1 <1>   0.0800 
 34 H       -1.2990     2.6110     1.7180 H     1 <1>   0.1500 
 35 H       -6.7010    -0.1460     2.4790 H     1 <1>   0.0800 
 36 H       -6.1340    -1.7860     2.5230 H     1 <1>   0.0800 
 37 H       -5.4830     0.2000    -1.1080 H     1 <1>   0.0800 
 38 H       -6.8920     0.8930    -0.3790 H     1 <1>   0.0800 
 39 H       -1.8770     2.5390    -3.1570 H     1 <1>   0.1500 
 40 H       -3.0190    -1.2930    -2.6640 H     1 <1>   0.0800 
 41 H       -1.8140    -0.9800    -1.4190 H     1 <1>   0.0800 
 42 H       -1.5860    -0.3370    -3.0480 H     1 <1>   0.0800 
 43 H       -0.5910     4.3570    -2.1070 H     1 <1>   0.1500 
 44 H       -0.0040     4.6020     1.5860 H     1 <1>   0.0800 
 45 H       -0.5300     5.6750     0.3130 H     1 <1>   0.0800 
 46 H        0.9370     4.7430     0.1230 H     1 <1>   0.0800 
 47 H       -7.7350    -1.1030    -1.5940 H     1 <1>   0.0800 
 48 H       -9.0990    -1.8430    -0.7840 H     1 <1>   0.0800 
 49 H       -3.3930    -1.6200     0.5100 H     1 <1>   0.2700 
 50 H       -7.5920    -3.4710    -2.0690 H     1 <1>   0.0800 
 51 H       -7.8680    -3.8900    -0.3950 H     1 <1>   0.0800 
 52 H       -1.5950    -3.5430    -0.4480 H     1 <1>   0.1500 
 53 H       -5.7100    -5.5480    -2.3320 H     1 <1>   0.1500 
 54 H       -1.4720    -5.6280    -1.7860 H     1 <1>   0.1500 
 55 H       -3.5080    -6.6190    -2.7170 H     1 <1>   0.1500 
@<TRIPOS>BOND
  1   1   2  2   
  2   2   3  am  
  3   2   4  1   
  4   3   5  1   
  5   3   6  1   
  6   4   7  ar  
  7   4   8  ar  
  8   5   9  1   
  9   5  30  1   
 10   5  31  1   
 11   6  10  1   
 12   6  32  1   
 13   6  33  1   
 14   7  11  1   
 15   7  12  ar  
 16   8  13  ar  
 17   8  34  1   
 18   9  14  1   
 19   9  35  1   
 20   9  36  1   
 21  10  14  1   
 22  10  37  1   
 23  10  38  1   
 24  11  15  1   
 25  12  16  ar  
 26  12  39  1   
 27  13  16  ar  
 28  13  17  1   
 29  14  18  1   
 30  14  19  1   
 31  15  40  1   
 32  15  41  1   
 33  15  42  1   
 34  16  43  1   
 35  17  44  1   
 36  17  45  1   
 37  17  46  1   
 38  18  20  1   
 39  19  21  1   
 40  19  22  2   
 41  20  23  1   
 42  20  47  1   
 43  20  48  1   
 44  21  24  1   
 45  21  49  1   
 46  22  23  1   
 47  22  25  1   
 48  23  50  1   
 49  23  51  1   
 50  24  25  ar  
 51  24  26  ar  
 52  25  27  ar  
 53  26  28  ar  
 54  26  52  1   
 55  27  29  ar  
 56  27  53  1   
 57  28  29  ar  
 58  28  54  1   
 59  29  55  1   
@<TRIPOS>SUBSTRUCTURE
  1 ****  21 GROUP 4 **** **** 0

# MOE 2024.06 (io_trps.svl 2023.06)
