@<TRIPOS>MOLECULE
NONAME
35 36 1 0 0 
SMALL
USER_CHARGES


@<TRIPOS>ATOM
  1 N       -0.5330    -0.2310    -0.4070 N.ar  1 <1>  -0.6200 
  2 C       -1.4380     0.6180     0.0390 C.ar  1 <1>   0.4100 
  3 C        0.5640     0.3030    -0.9010 C.ar  1 <1>   0.4760 
  4 N       -2.5910     0.0820     0.5630 N.pl3 1 <1>  -0.8690 
  5 C       -1.2410     1.9930    -0.0230 C.ar  1 <1>  -0.1430 
  6 N        0.8650     1.5810    -1.0130 N.ar  1 <1>  -0.6200 
  7 C        1.6040    -0.6650    -1.4100 C.3   1 <1>  -0.0970 
  8 C       -2.7920    -1.3590     0.8570 C.3   1 <1>   0.2090 
  9 C       -0.0520     2.4150    -0.5670 C.ar  1 <1>   0.1600 
 10 C       -2.3160     2.9540     0.4970 C.3   1 <1>  -0.0170 
 11 C       -3.3490    -2.0650    -0.3770 C.3   1 <1>   0.0200 
 12 C       -1.9940     4.4450     0.3460 C.3   1 <1>  -0.2400 
 13 C       -3.4050    -3.5600    -0.1390 C.2   1 <1>   0.0070 
 14 N       -4.4080    -4.1970     0.3520 N.2   1 <1>  -0.3380 
 15 N       -2.3900    -4.3900    -0.4080 N.pl3 1 <1>   0.0330 
 16 N       -4.0610    -5.4910     0.4200 N.2   1 <1>  -0.3380 
 17 C       -2.8600    -5.5820    -0.0420 C.2   1 <1>   0.2700 
 18 N       -2.1630    -6.7660    -0.1420 N.pl3 1 <1>  -0.8840 
 19 H       -3.2640     0.7170     0.9930 H     1 <1>   0.4000 
 20 H        1.5310    -1.5990    -0.8860 H     1 <1>   0.0800 
 21 H        2.5880    -0.2590    -1.2590 H     1 <1>   0.0800 
 22 H        1.4490    -0.8310    -2.4590 H     1 <1>   0.0800 
 23 H       -3.4770    -1.4710     1.6810 H     1 <1>   0.0800 
 24 H       -1.8540    -1.8040     1.1420 H     1 <1>   0.0800 
 25 H        0.1790     3.4620    -0.6510 H     1 <1>   0.1500 
 26 H       -2.4820     2.7470     1.5410 H     1 <1>   0.0800 
 27 H       -3.2350     2.7520    -0.0270 H     1 <1>   0.0800 
 28 H       -2.7250    -1.8580    -1.2280 H     1 <1>   0.0800 
 29 H       -4.3390    -1.7000    -0.5790 H     1 <1>   0.0800 
 30 H       -1.1050     4.6980     0.8970 H     1 <1>   0.0800 
 31 H       -2.8070     5.0350     0.7310 H     1 <1>   0.0800 
 32 H       -1.8550     4.6990    -0.6910 H     1 <1>   0.0800 
 33 H       -1.4610    -4.1800    -0.7710 H     1 <1>   0.2700 
 34 H       -2.6660    -7.5080     0.3580 H     1 <1>   0.4000 
 35 H       -2.0200    -7.0740    -1.1060 H     1 <1>   0.4000 
@<TRIPOS>BOND
  1   1   2  ar  
  2   1   3  ar  
  3   2   4  1   
  4   2   5  ar  
  5   3   6  ar  
  6   3   7  1   
  7   4   8  1   
  8   4  19  1   
  9   5   9  ar  
 10   5  10  1   
 11   6   9  ar  
 12   7  20  1   
 13   7  21  1   
 14   7  22  1   
 15   8  11  1   
 16   8  23  1   
 17   8  24  1   
 18   9  25  1   
 19  10  12  1   
 20  10  26  1   
 21  10  27  1   
 22  11  13  1   
 23  11  28  1   
 24  11  29  1   
 25  12  30  1   
 26  12  31  1   
 27  12  32  1   
 28  13  14  2   
 29  13  15  1   
 30  14  16  1   
 31  15  17  1   
 32  15  33  1   
 33  16  17  2   
 34  17  18  1   
 35  18  34  1   
 36  18  35  1   
@<TRIPOS>SUBSTRUCTURE
  1 ****   8 GROUP 4 **** **** 0

# MOE 2024.06 (io_trps.svl 2023.06)
