@<TRIPOS>MOLECULE
NONAME
52 55 1 0 0 
SMALL
USER_CHARGES


@<TRIPOS>ATOM
  1 O        0.5930    -0.2090     1.0270 O.3   1 <1>  -0.5600 
  2 C        1.6810    -0.7540     0.3130 C.3   1 <1>   0.4240 
  3 C       -0.6870    -0.6110     0.6530 C.3   1 <1>   0.1200 
  4 C        1.4560    -2.2490    -0.0080 C.ar  1 <1>  -0.1440 
  5 C        1.8770     0.0630    -0.9730 C.3   1 <1>  -0.1600 
  6 C        2.8980    -0.5800     1.2280 C.3   1 <1>  -0.1600 
  7 C       -0.8470    -2.0940     0.9720 C.3   1 <1>  -0.0160 
  8 C        0.2620    -2.8850     0.3060 C.ar  1 <1>  -0.1440 
  9 C        2.4520    -2.9930    -0.6290 C.ar  1 <1>  -0.1500 
 10 C        2.1480     1.5360    -0.6720 C.3   1 <1>   0.2090 
 11 C        3.2040     0.8930     1.5070 C.3   1 <1>   0.2090 
 12 C        0.0750    -4.2260     0.0120 C.ar  1 <1>  -0.1500 
 13 C        2.2850    -4.3360    -0.9240 C.ar  1 <1>   0.0820 
 14 N        3.3080     1.6650     0.2410 N.pl3 1 <1>  -0.8380 
 15 C        1.0740    -4.9700    -0.6110 C.ar  1 <1>   0.0820 
 16 O        3.3530    -4.9360    -1.5200 O.3   1 <1>  -0.3630 
 17 C        4.5550     1.8730    -0.3220 C.ar  1 <1>   0.4100 
 18 O        0.8890    -6.2830    -0.9370 O.3   1 <1>  -0.3630 
 19 C        3.7090    -6.2590    -1.1810 C.3   1 <1>   0.0400 
 20 N        5.2550     0.7820    -0.6100 N.ar  1 <1>  -0.6200 
 21 C        5.0130     3.1750    -0.5690 C.ar  1 <1>  -0.1430 
 22 C       -0.3650    -6.9180    -0.8110 C.3   1 <1>   0.0400 
 23 C        6.4360     0.9800    -1.1640 C.ar  1 <1>   0.1600 
 24 C        6.2500     3.3540    -1.1490 C.ar  1 <1>  -0.1500 
 25 C        4.1690     4.3880    -0.2020 C.3   1 <1>  -0.0970 
 26 C        6.9740     2.2200    -1.4520 C.ar  1 <1>  -0.1500 
 27 H       -0.8260    -0.4220    -0.3970 H     1 <1>   0.0800 
 28 H       -1.3930    -0.0260     1.2140 H     1 <1>   0.0800 
 29 H        1.0200    -0.0340    -1.6100 H     1 <1>   0.0800 
 30 H        2.7190    -0.3230    -1.5160 H     1 <1>   0.0800 
 31 H        3.7660    -1.0170     0.7740 H     1 <1>   0.0800 
 32 H        2.7240    -1.0980     2.1520 H     1 <1>   0.0800 
 33 H       -1.8070    -2.4290     0.6220 H     1 <1>   0.0800 
 34 H       -0.8050    -2.2370     2.0370 H     1 <1>   0.0800 
 35 H        3.3880    -2.5350    -0.8950 H     1 <1>   0.1500 
 36 H        1.2860     1.9840    -0.2080 H     1 <1>   0.0800 
 37 H        2.3510     2.0600    -1.5900 H     1 <1>   0.0800 
 38 H        4.1290     0.9730     2.0520 H     1 <1>   0.0800 
 39 H        2.4210     1.3200     2.1100 H     1 <1>   0.0800 
 40 H       -0.8610    -4.6760     0.2770 H     1 <1>   0.1500 
 41 H        4.7480    -6.3960    -1.4150 H     1 <1>   0.0800 
 42 H        3.1130    -6.9370    -1.7650 H     1 <1>   0.0800 
 43 H        3.5410    -6.4110    -0.1300 H     1 <1>   0.0800 
 44 H       -0.2730    -7.9170    -1.1980 H     1 <1>   0.0800 
 45 H       -1.0920    -6.3700    -1.3830 H     1 <1>   0.0800 
 46 H       -0.6360    -6.9540     0.2290 H     1 <1>   0.0800 
 47 H        7.0090     0.1010    -1.4030 H     1 <1>   0.1500 
 48 H        6.6430     4.3330    -1.3580 H     1 <1>   0.1500 
 49 H        3.8740     4.3250     0.8310 H     1 <1>   0.0800 
 50 H        3.2840     4.4140    -0.8110 H     1 <1>   0.0800 
 51 H        4.7160     5.3010    -0.3460 H     1 <1>   0.0800 
 52 H        7.9450     2.2970    -1.9050 H     1 <1>   0.1500 
@<TRIPOS>BOND
  1   1   2  1   
  2   1   3  1   
  3   2   4  1   
  4   2   5  1   
  5   2   6  1   
  6   3   7  1   
  7   3  27  1   
  8   3  28  1   
  9   4   8  ar  
 10   4   9  ar  
 11   5  10  1   
 12   5  29  1   
 13   5  30  1   
 14   6  11  1   
 15   6  31  1   
 16   6  32  1   
 17   7   8  1   
 18   7  33  1   
 19   7  34  1   
 20   8  12  ar  
 21   9  13  ar  
 22   9  35  1   
 23  10  14  1   
 24  10  36  1   
 25  10  37  1   
 26  11  14  1   
 27  11  38  1   
 28  11  39  1   
 29  12  15  ar  
 30  12  40  1   
 31  13  15  ar  
 32  13  16  1   
 33  14  17  1   
 34  15  18  1   
 35  16  19  1   
 36  17  20  ar  
 37  17  21  ar  
 38  18  22  1   
 39  19  41  1   
 40  19  42  1   
 41  19  43  1   
 42  20  23  ar  
 43  21  24  ar  
 44  21  25  1   
 45  22  44  1   
 46  22  45  1   
 47  22  46  1   
 48  23  26  ar  
 49  23  47  1   
 50  24  26  ar  
 51  24  48  1   
 52  25  49  1   
 53  25  50  1   
 54  25  51  1   
 55  26  52  1   
@<TRIPOS>SUBSTRUCTURE
  1 ****   2 GROUP 4 **** **** 0

# MOE 2024.06 (io_trps.svl 2023.06)
