@<TRIPOS>MOLECULE
NONAME
67 70 1 0 0 
SMALL
USER_CHARGES


@<TRIPOS>ATOM
  1 O       -3.2680     0.3800    -1.9850 O.2   1 <1>  -0.5700 
  2 C       -2.8420     1.3970    -1.4810 C.2   1 <1>   0.5690 
  3 N       -1.7910     1.3760    -0.5980 N.am  1 <1>  -0.6600 
  4 C       -3.6130     2.6690    -1.8020 C.3   1 <1>   0.1810 
  5 C       -0.8620     0.2120    -0.5340 C.3   1 <1>   0.1400 
  6 C       -1.4250     2.4780     0.3400 C.3   1 <1>   0.1400 
  7 O       -4.8820     2.6030    -1.1730 O.3   1 <1>  -0.3620 
  8 C        0.5670     0.6750    -0.8330 C.3   1 <1>  -0.1600 
  9 C       -0.0120     2.9730     0.0240 C.3   1 <1>  -0.1600 
 10 C       -4.9480     2.9480     0.1280 C.ar  1 <1>   0.0820 
 11 C        1.0060     1.8230     0.0890 C.3   1 <1>  -0.0800 
 12 C       -4.9060     1.9980     1.1530 C.ar  1 <1>  -0.1440 
 13 C       -5.1050     4.2950     0.4150 C.ar  1 <1>  -0.1500 
 14 C        2.4040     2.3180    -0.2940 C.3   1 <1>  -0.2400 
 15 C       -5.0220     2.4460     2.4620 C.ar  1 <1>  -0.1500 
 16 C       -4.7030     0.4910     0.9740 C.3   1 <1>   0.4860 
 17 C       -5.2150     4.7190     1.7250 C.ar  1 <1>  -0.1500 
 18 C       -5.1740     3.7920     2.7490 C.ar  1 <1>  -0.1500 
 19 N       -5.4280    -0.1430    -0.1610 N.4   1 <1>  -0.9590 
 20 C       -5.5220    -1.6300     0.0160 C.3   1 <1>   0.5660 
 21 C       -6.7970     0.4100    -0.4220 C.3   1 <1>   0.3430 
 22 C       -4.1430    -2.2400     0.2640 C.ar  1 <1>  -0.1440 
 23 C       -6.2840    -2.3170    -1.1490 C.3   1 <1>   0.2000 
 24 C       -7.4490    -0.2990    -1.6210 C.3   1 <1>   0.1200 
 25 C       -3.2180    -2.4300    -0.7550 C.ar  1 <1>  -0.1500 
 26 C       -3.8140    -2.6410     1.5520 C.ar  1 <1>  -0.1500 
 27 O       -7.5170    -1.6770    -1.3930 O.3   1 <1>  -0.5600 
 28 C       -6.5650    -3.7910    -0.8110 C.3   1 <1>   0.1200 
 29 C       -1.9890    -3.0060    -0.4890 C.ar  1 <1>  -0.1500 
 30 C       -2.5800    -3.2070     1.8200 C.ar  1 <1>  -0.1500 
 31 O       -7.1030    -3.8980     0.4700 O.3   1 <1>  -0.6800 
 32 C       -1.6660    -3.3910     0.8000 C.ar  1 <1>  -0.1500 
 33 H       -3.7810     2.7150    -2.8620 H     1 <1>   0.0800 
 34 H       -3.1020     3.5610    -1.4980 H     1 <1>   0.0800 
 35 H       -0.9120    -0.2330     0.4450 H     1 <1>   0.0800 
 36 H       -1.1420    -0.5340    -1.2580 H     1 <1>   0.0800 
 37 H       -2.1190     3.2960     0.2910 H     1 <1>   0.0800 
 38 H       -1.4480     2.0970     1.3480 H     1 <1>   0.0800 
 39 H        1.2360    -0.1600    -0.7140 H     1 <1>   0.0800 
 40 H        0.6190     0.9890    -1.8610 H     1 <1>   0.0800 
 41 H       -0.0060     3.4170    -0.9560 H     1 <1>   0.0800 
 42 H        0.2610     3.7350     0.7320 H     1 <1>   0.0800 
 43 H        1.0430     1.4550     1.1010 H     1 <1>   0.0800 
 44 H       -5.1490     5.0120    -0.3860 H     1 <1>   0.1500 
 45 H        2.4110     2.6960    -1.3020 H     1 <1>   0.0800 
 46 H        3.1160     1.5150    -0.2250 H     1 <1>   0.0800 
 47 H        2.7180     3.1050     0.3690 H     1 <1>   0.0800 
 48 H       -4.9910     1.7530     3.2870 H     1 <1>   0.1500 
 49 H       -5.0150     0.0110     1.8860 H     1 <1>   0.0800 
 50 H       -3.6480     0.2970     0.8630 H     1 <1>   0.0800 
 51 H       -5.3360     5.7660     1.9490 H     1 <1>   0.1500 
 52 H       -5.2610     4.1200     3.7710 H     1 <1>   0.1500 
 53 H       -4.8340     0.0250    -0.9950 H     1 <1>   0.4500 
 54 H       -6.1080    -1.8180     0.9000 H     1 <1>   0.0800 
 55 H       -7.4220     0.2740     0.4450 H     1 <1>   0.0800 
 56 H       -6.7480     1.4640    -0.6290 H     1 <1>   0.0800 
 57 H       -5.7100    -2.2670    -2.0570 H     1 <1>   0.0800 
 58 H       -6.8920    -0.1210    -2.5250 H     1 <1>   0.0800 
 59 H       -8.4540     0.0580    -1.7600 H     1 <1>   0.0800 
 60 H       -3.4340    -2.1370    -1.7690 H     1 <1>   0.1500 
 61 H       -4.5160    -2.5280     2.3610 H     1 <1>   0.1500 
 62 H       -5.6540    -4.3650    -0.8350 H     1 <1>   0.0800 
 63 H       -7.2630    -4.2060    -1.5180 H     1 <1>   0.0800 
 64 H       -1.2790    -3.1570    -1.2860 H     1 <1>   0.1500 
 65 H       -2.3320    -3.5150     2.8220 H     1 <1>   0.1500 
 66 H       -7.4670    -4.7960     0.6160 H     1 <1>   0.4000 
 67 H       -0.7090    -3.8380     1.0060 H     1 <1>   0.1500 
@<TRIPOS>BOND
  1   1   2  2   
  2   2   3  am  
  3   2   4  1   
  4   3   5  1   
  5   3   6  1   
  6   4   7  1   
  7   4  33  1   
  8   4  34  1   
  9   5   8  1   
 10   5  35  1   
 11   5  36  1   
 12   6   9  1   
 13   6  37  1   
 14   6  38  1   
 15   7  10  1   
 16   8  11  1   
 17   8  39  1   
 18   8  40  1   
 19   9  11  1   
 20   9  41  1   
 21   9  42  1   
 22  10  12  ar  
 23  10  13  ar  
 24  11  14  1   
 25  11  43  1   
 26  12  15  ar  
 27  12  16  1   
 28  13  17  ar  
 29  13  44  1   
 30  14  45  1   
 31  14  46  1   
 32  14  47  1   
 33  15  18  ar  
 34  15  48  1   
 35  16  19  1   
 36  16  49  1   
 37  16  50  1   
 38  17  18  ar  
 39  17  51  1   
 40  18  52  1   
 41  19  20  1   
 42  19  21  1   
 43  19  53  1   
 44  20  22  1   
 45  20  23  1   
 46  20  54  1   
 47  21  24  1   
 48  21  55  1   
 49  21  56  1   
 50  22  25  ar  
 51  22  26  ar  
 52  23  27  1   
 53  23  28  1   
 54  23  57  1   
 55  24  27  1   
 56  24  58  1   
 57  24  59  1   
 58  25  29  ar  
 59  25  60  1   
 60  26  30  ar  
 61  26  61  1   
 62  28  31  1   
 63  28  62  1   
 64  28  63  1   
 65  29  32  ar  
 66  29  64  1   
 67  30  32  ar  
 68  30  65  1   
 69  31  66  1   
 70  32  67  1   
@<TRIPOS>SUBSTRUCTURE
  1 ****  16 GROUP 4 **** **** 0

# MOE 2024.06 (io_trps.svl 2023.06)
