@<TRIPOS>MOLECULE
NONAME
46 49 1 0 0 
SMALL
USER_CHARGES


@<TRIPOS>ATOM
  1 S       -0.9570     1.9710     0.4640 S.3   1 <1>  -0.0800 
  2 C        0.4650     2.1070    -0.5610 C.2   1 <1>  -0.0450 
  3 C       -1.9960     2.5670    -0.8180 C.2   1 <1>  -0.1100 
  4 C        0.1210     2.5740    -1.7760 C.2   1 <1>  -0.1500 
  5 C        1.8020     1.7010     0.0460 C.3   1 <1>   0.0850 
  6 C       -1.2780     2.8370    -1.9230 C.2   1 <1>  -0.1500 
  7 C        2.2150     2.6820     1.1560 C.2   1 <1>   0.6300 
  8 C        2.2130     0.2480     0.0370 C.3   1 <1>  -0.1900 
  9 C        2.8790     1.2030    -0.8960 C.3   1 <1>  -0.2000 
 10 O        2.2300     2.3250     2.3140 O.2   1 <1>  -0.5700 
 11 N        2.5480     3.9590     0.8180 N.am  1 <1>  -0.5100 
 12 C        3.0640    -0.3480     1.1670 C.3   1 <1>  -0.1450 
 13 C        1.2690    -0.8080    -0.5570 C.3   1 <1>  -0.1450 
 14 C        3.4150     4.8990     1.5900 C.3   1 <1>   0.2250 
 15 C        3.0170     4.5290    -0.4810 C.3   1 <1>   0.2250 
 16 C        3.5520     5.7580     0.3030 C.3   1 <1>   0.2100 
 17 N        4.9410     6.1360    -0.0410 N.3   1 <1>  -0.7500 
 18 C        5.4850     7.0950     0.9410 C.3   1 <1>   0.1100 
 19 C        5.0080     6.7310    -1.3900 C.3   1 <1>   0.1100 
 20 C        6.8990     7.5540     0.5440 C.3   1 <1>   0.1200 
 21 C        6.4360     7.1990    -1.7190 C.3   1 <1>   0.1200 
 22 O        6.8920     8.0940    -0.7460 O.3   1 <1>  -0.5600 
 23 H       -3.0460     2.6530    -0.6020 H     1 <1>   0.1500 
 24 H        0.8010     2.7500    -2.5900 H     1 <1>   0.1500 
 25 H       -1.6760     3.2130    -2.8500 H     1 <1>   0.1500 
 26 H        3.9010     1.4790    -0.7050 H     1 <1>   0.1000 
 27 H        2.6650     1.1310    -1.9470 H     1 <1>   0.1000 
 28 H        3.8040     0.3530     1.5130 H     1 <1>   0.0800 
 29 H        3.5740    -1.2320     0.8290 H     1 <1>   0.0800 
 30 H        2.4350    -0.6080     2.0000 H     1 <1>   0.0800 
 31 H        0.7420    -0.4290    -1.4140 H     1 <1>   0.0800 
 32 H        0.5450    -1.1060     0.1810 H     1 <1>   0.0800 
 33 H        1.8260    -1.6750    -0.8650 H     1 <1>   0.0800 
 34 H        4.3250     4.4170     1.9020 H     1 <1>   0.0000 
 35 H        2.8670     5.3820     2.3790 H     1 <1>   0.0000 
 36 H        2.1940     4.7550    -1.1330 H     1 <1>   0.0000 
 37 H        3.7870     3.9190    -0.9200 H     1 <1>   0.0000 
 38 H        2.8780     6.5970     0.2840 H     1 <1>   0.0000 
 39 H        5.5310     6.6330     1.9120 H     1 <1>   0.0800 
 40 H        4.8440     7.9590     1.0090 H     1 <1>   0.0800 
 41 H        4.3420     7.5750    -1.4560 H     1 <1>   0.0800 
 42 H        4.7040     6.0040    -2.1220 H     1 <1>   0.0800 
 43 H        7.5860     6.7260     0.5680 H     1 <1>   0.0800 
 44 H        7.2480     8.3160     1.2170 H     1 <1>   0.0800 
 45 H        6.4550     7.7060    -2.6670 H     1 <1>   0.0800 
 46 H        7.1090     6.3600    -1.7590 H     1 <1>   0.0800 
@<TRIPOS>BOND
  1   1   2  1   
  2   1   3  1   
  3   2   4  2   
  4   2   5  1   
  5   3   6  2   
  6   3  23  1   
  7   4   6  1   
  8   4  24  1   
  9   5   7  1   
 10   5   8  1   
 11   5   9  1   
 12   6  25  1   
 13   7  10  2   
 14   7  11  am  
 15   8   9  1   
 16   8  12  1   
 17   8  13  1   
 18   9  26  1   
 19   9  27  1   
 20  11  14  1   
 21  11  15  1   
 22  12  28  1   
 23  12  29  1   
 24  12  30  1   
 25  13  31  1   
 26  13  32  1   
 27  13  33  1   
 28  14  16  1   
 29  14  34  1   
 30  14  35  1   
 31  15  16  1   
 32  15  36  1   
 33  15  37  1   
 34  16  17  1   
 35  16  38  1   
 36  17  18  1   
 37  17  19  1   
 38  18  20  1   
 39  18  39  1   
 40  18  40  1   
 41  19  21  1   
 42  19  41  1   
 43  19  42  1   
 44  20  22  1   
 45  20  43  1   
 46  20  44  1   
 47  21  22  1   
 48  21  45  1   
 49  21  46  1   
@<TRIPOS>SUBSTRUCTURE
  1 ****  11 GROUP 4 **** **** 0

# MOE 2024.06 (io_trps.svl 2023.06)
