@<TRIPOS>MOLECULE
NONAME
47 50 1 0 0 
SMALL
USER_CHARGES


@<TRIPOS>ATOM
  1 O        3.2440    -0.7620     1.4930 O.2   1 <1>  -0.5700 
  2 C        2.2780    -1.1710     0.8710 C.2   1 <1>   0.7160 
  3 N        1.8040    -0.4810    -0.2170 N.am  1 <1>  -0.4940 
  4 C        1.6160    -2.3790     1.2530 C.2   1 <1>  -0.0860 
  5 C        2.0630     0.8090    -0.7450 C.2   1 <1>  -0.0880 
  6 C        0.5290    -2.9870     0.6810 C.2   1 <1>  -0.0260 
  7 C        1.9410    -3.2140     2.3200 C.2   1 <1>   0.1390 
  8 N        3.2480     1.4820    -0.8410 N.pl3 1 <1>   0.3140 
  9 C        1.1250     1.6250    -1.2790 C.2   1 <1>  -0.1500 
 10 N       -0.2270    -2.6150    -0.4090 N.2   1 <1>  -0.5760 
 11 N        0.2830    -4.1170     1.4200 N.pl3 1 <1>   0.6010 
 12 N        1.1620    -4.2490     2.4320 N.2   1 <1>  -0.7070 
 13 N        3.0710     2.7050    -1.4040 N.2   1 <1>  -0.7070 
 14 C        4.6130     1.0330    -0.4590 C.3   1 <1>   0.1760 
 15 C        1.8030     2.7730    -1.6600 C.2   1 <1>   0.1390 
 16 C       -1.2080    -3.4070    -0.7160 C.2   1 <1>   0.3760 
 17 C       -0.7620    -4.9410     1.0760 C.2   1 <1>  -0.1810 
 18 C        5.0610     1.7710     0.8120 C.3   1 <1>  -0.1600 
 19 C        5.6230     1.2670    -1.5960 C.3   1 <1>  -0.1600 
 20 C       -1.5240    -4.5980     0.0020 C.2   1 <1>  -0.1240 
 21 C        6.4740     1.3650     1.2040 C.3   1 <1>   0.3430 
 22 C        7.0330     0.8840    -1.1580 C.3   1 <1>   0.3430 
 23 C       -2.7000    -5.4480    -0.4520 C.3   1 <1>  -0.1020 
 24 N        7.4040     1.6480     0.0700 N.4   1 <1>  -0.9590 
 25 C        8.8210     1.3820     0.4620 C.3   1 <1>   0.2630 
 26 H        0.9590    -0.9420    -0.5870 H     1 <1>   0.3700 
 27 H        2.7610    -3.0230     2.9950 H     1 <1>   0.1500 
 28 H        0.0710     1.4510    -1.3900 H     1 <1>   0.1500 
 29 H        4.5790    -0.0230    -0.2770 H     1 <1>   0.0800 
 30 H        1.3370     3.6310    -2.1180 H     1 <1>   0.1500 
 31 H       -1.8260    -3.1580    -1.5610 H     1 <1>   0.0600 
 32 H       -0.9040    -5.8100     1.6900 H     1 <1>   0.1500 
 33 H        4.3930     1.5340     1.6210 H     1 <1>   0.0800 
 34 H        5.0220     2.8360     0.6560 H     1 <1>   0.0800 
 35 H        5.6210     2.3000    -1.9000 H     1 <1>   0.0800 
 36 H        5.3440     0.6720    -2.4470 H     1 <1>   0.0800 
 37 H        6.4930     0.3130     1.4460 H     1 <1>   0.0800 
 38 H        6.7750     1.9190     2.0790 H     1 <1>   0.0800 
 39 H        7.7270     1.1050    -1.9540 H     1 <1>   0.0800 
 40 H        7.0740    -0.1750    -0.9560 H     1 <1>   0.0800 
 41 H       -3.6090    -4.8740    -0.4140 H     1 <1>   0.0800 
 42 H       -2.8140    -6.3100     0.1810 H     1 <1>   0.0800 
 43 H       -2.5440    -5.7860    -1.4620 H     1 <1>   0.0800 
 44 H        7.3090     2.6500    -0.1550 H     1 <1>   0.4500 
 45 H        8.9530     0.3400     0.7070 H     1 <1>   0.0800 
 46 H        9.0890     1.9760     1.3210 H     1 <1>   0.0800 
 47 H        9.4860     1.6330    -0.3490 H     1 <1>   0.0800 
@<TRIPOS>BOND
  1   1   2  2   
  2   2   3  am  
  3   2   4  1   
  4   3   5  1   
  5   3  26  1   
  6   4   6  2   
  7   4   7  1   
  8   5   8  1   
  9   5   9  2   
 10   6  10  1   
 11   6  11  1   
 12   7  12  2   
 13   7  27  1   
 14   8  13  1   
 15   8  14  1   
 16   9  15  1   
 17   9  28  1   
 18  10  16  2   
 19  11  12  1   
 20  11  17  1   
 21  13  15  2   
 22  14  18  1   
 23  14  19  1   
 24  14  29  1   
 25  15  30  1   
 26  16  20  1   
 27  16  31  1   
 28  17  20  2   
 29  17  32  1   
 30  18  21  1   
 31  18  33  1   
 32  18  34  1   
 33  19  22  1   
 34  19  35  1   
 35  19  36  1   
 36  20  23  1   
 37  21  24  1   
 38  21  37  1   
 39  21  38  1   
 40  22  24  1   
 41  22  39  1   
 42  22  40  1   
 43  23  41  1   
 44  23  42  1   
 45  23  43  1   
 46  24  25  1   
 47  24  44  1   
 48  25  45  1   
 49  25  46  1   
 50  25  47  1   
@<TRIPOS>SUBSTRUCTURE
  1 ****   2 GROUP 4 **** **** 0

# MOE 2024.06 (io_trps.svl 2023.06)
