@<TRIPOS>MOLECULE
NONAME
46 49 1 0 0 
SMALL
USER_CHARGES


@<TRIPOS>ATOM
  1 O        4.2310    -1.9140     2.1240 O.2   1 <1>  -0.5700 
  2 C        3.3670    -1.7430     1.2850 C.2   1 <1>   0.5440 
  3 N        3.3440    -0.5210     0.6530 N.am  1 <1>  -0.6600 
  4 C        2.4580    -2.8140     0.9160 C.ar  1 <1>   0.0860 
  5 C        3.8100     0.7020     1.4140 C.3   1 <1>   0.2200 
  6 C        3.3340    -0.4830    -0.8400 C.3   1 <1>   0.1400 
  7 C        1.1680    -2.5610     0.4690 C.ar  1 <1>  -0.1500 
  8 C        2.8740    -4.1600     1.0010 C.ar  1 <1>  -0.1500 
  9 C        3.1460     1.9920     0.9090 C.3   1 <1>   0.1200 
 10 C        5.3530     0.8360     1.4170 C.3   1 <1>   0.3430 
 11 C        4.2920     0.5520    -1.4600 C.3   1 <1>  -0.0800 
 12 C        0.3310    -3.6120     0.0980 C.ar  1 <1>  -0.1520 
 13 C        2.0550    -5.2010     0.6370 C.ar  1 <1>  -0.1500 
 14 O        3.8680     2.5540    -0.1450 O.3   1 <1>  -0.5600 
 15 N        5.9900    -0.0400     0.3820 N.4   1 <1>  -0.9590 
 16 C        3.7160     1.9770    -1.3970 C.3   1 <1>   0.1200 
 17 C        5.7670     0.4840    -1.0040 C.3   1 <1>   0.3430 
 18 N       -0.9620    -3.6140    -0.3680 N.pl3 1 <1>   0.0330 
 19 C        0.7650    -4.9310     0.1730 C.ar  1 <1>   0.0000 
 20 C        7.4830    -0.1070     0.6590 C.3   1 <1>   0.2370 
 21 C       -1.3320    -4.9090    -0.5900 C.2   1 <1>  -0.3020 
 22 C       -0.3050    -5.7330    -0.2710 C.2   1 <1>  -0.1500 
 23 C        8.2180     1.2310     0.5190 C.2   1 <1>   0.9060 
 24 O        8.2770     1.9650     1.5090 O.co2 1 <1>  -0.9000 
 25 O        8.6010     1.5600    -0.6070 O.co2 1 <1>  -0.9000 
 26 H        3.4980     0.5830     2.4370 H     1 <1>   0.0800 
 27 H        3.6030    -1.4570    -1.2130 H     1 <1>   0.0800 
 28 H        2.3300    -0.2820    -1.1730 H     1 <1>   0.0800 
 29 H        0.8030    -1.5520     0.4120 H     1 <1>   0.1500 
 30 H        3.8660    -4.3660     1.3670 H     1 <1>   0.1500 
 31 H        3.1550     2.7210     1.7010 H     1 <1>   0.0800 
 32 H        2.1240     1.8290     0.6110 H     1 <1>   0.0800 
 33 H        5.7120     0.5440     2.3900 H     1 <1>   0.0800 
 34 H        5.6440     1.8640     1.2670 H     1 <1>   0.0800 
 35 H        4.3110     0.3280    -2.5110 H     1 <1>   0.0800 
 36 H        2.3800    -6.2240     0.7040 H     1 <1>   0.1500 
 37 H        5.5490    -0.9620     0.5100 H     1 <1>   0.4500 
 38 H        2.6720     1.9960    -1.6620 H     1 <1>   0.0800 
 39 H        4.2460     2.6090    -2.0890 H     1 <1>   0.0800 
 40 H        6.2030     1.4690    -1.0860 H     1 <1>   0.0800 
 41 H        6.3050    -0.1490    -1.6900 H     1 <1>   0.0800 
 42 H       -1.5470    -2.7850    -0.5110 H     1 <1>   0.2700 
 43 H        7.6510    -0.4580     1.6610 H     1 <1>   0.0800 
 44 H        7.9490    -0.7940    -0.0230 H     1 <1>   0.0800 
 45 H       -2.3080    -5.1690    -0.9610 H     1 <1>   0.1500 
 46 H       -0.2710    -6.8070    -0.3290 H     1 <1>   0.1500 
@<TRIPOS>BOND
  1   1   2  2   
  2   2   3  am  
  3   2   4  1   
  4   3   5  1   
  5   3   6  1   
  6   4   7  ar  
  7   4   8  ar  
  8   5   9  1   
  9   5  10  1   
 10   5  26  1   
 11   6  11  1   
 12   6  27  1   
 13   6  28  1   
 14   7  12  ar  
 15   7  29  1   
 16   8  13  ar  
 17   8  30  1   
 18   9  14  1   
 19   9  31  1   
 20   9  32  1   
 21  10  15  1   
 22  10  33  1   
 23  10  34  1   
 24  11  16  1   
 25  11  17  1   
 26  11  35  1   
 27  12  18  1   
 28  12  19  ar  
 29  13  19  ar  
 30  13  36  1   
 31  14  16  1   
 32  15  17  1   
 33  15  20  1   
 34  15  37  1   
 35  16  38  1   
 36  16  39  1   
 37  17  40  1   
 38  17  41  1   
 39  18  21  1   
 40  18  42  1   
 41  19  22  1   
 42  20  23  1   
 43  20  43  1   
 44  20  44  1   
 45  21  22  2   
 46  21  45  1   
 47  22  46  1   
 48  23  24  ar  
 49  23  25  ar  
@<TRIPOS>SUBSTRUCTURE
  1 ****   3 GROUP 4 **** **** 0

# MOE 2024.06 (io_trps.svl 2023.06)
