@<TRIPOS>MOLECULE
Untitled Document
53 56 1 0 0 
SMALL
USER_CHARGES


@<TRIPOS>ATOM
  1 O       -0.2750     0.6200     0.0530 O.3   1 <1>  -0.5600 
  2 C       -1.3180     1.2340     0.7600 C.3   1 <1>   0.3380 
  3 C        0.9740     0.6270     0.6820 C.3   1 <1>   0.1200 
  4 C       -2.5910     0.4270     0.4890 C.2   1 <1>  -0.1380 
  5 C       -1.4670     2.7050     0.3090 C.3   1 <1>   0.2000 
  6 C        1.9820    -0.0640    -0.2290 C.3   1 <1>   0.1200 
  7 C       -3.8240     1.0410     0.4090 C.2   1 <1>   0.1090 
  8 C       -2.5120    -0.9760     0.3200 C.2   1 <1>  -0.1500 
  9 O       -0.3660     3.4900     0.6950 O.3   1 <1>  -0.6800 
 10 C       -2.7820     3.3080     0.8500 C.3   1 <1>   0.4330 
 11 O        3.1890    -0.1640     0.4590 O.3   1 <1>  -0.5600 
 12 N       -3.9530     2.4350     0.5920 N.pl3 1 <1>  -0.8690 
 13 C       -4.9600     0.2070     0.1530 C.cat 1 <1>   0.7910 
 14 C       -3.6180    -1.7310     0.0640 C.2   1 <1>   0.2290 
 15 C       -3.1230     4.6660     0.2450 C.ar  1 <1>  -0.1440 
 16 C        4.2130    -0.7440    -0.2820 C.3   1 <1>   0.0400 
 17 N       -6.2590     0.5480     0.0620 N.pl3 1 <1>  -0.7000 
 18 N       -4.8530    -1.1300    -0.0240 N.pl3 1 <1>  -0.6290 
 19 C       -3.3480     5.7550     1.0760 C.ar  1 <1>  -0.1500 
 20 C       -3.2320     4.8340    -1.1310 C.ar  1 <1>  -0.1500 
 21 C       -6.9880    -0.5770    -0.1860 C.2   1 <1>   0.1820 
 22 C       -6.1260    -1.6180    -0.2430 C.2   1 <1>   0.1820 
 23 C       -3.6740     6.9900     0.5430 C.ar  1 <1>  -0.1500 
 24 C       -3.5580     6.0690    -1.6630 C.ar  1 <1>  -0.1500 
 25 C       -8.4950    -0.5070    -0.3420 C.3   1 <1>  -0.0720 
 26 C       -6.3760    -3.0950    -0.4880 C.3   1 <1>  -0.0720 
 27 C       -3.7790     7.1480    -0.8270 C.ar  1 <1>  -0.1500 
 28 H       -1.1100     1.1870     1.8160 H     1 <1>   0.0800 
 29 H        1.2850     1.6410     0.8540 H     1 <1>   0.0800 
 30 H        0.8960     0.0920     1.6120 H     1 <1>   0.0800 
 31 H       -1.4970     2.7200    -0.7640 H     1 <1>   0.0800 
 32 H        2.1370     0.5190    -1.1210 H     1 <1>   0.0800 
 33 H        1.6460    -1.0560    -0.4770 H     1 <1>   0.0800 
 34 H       -1.5500    -1.4550     0.3900 H     1 <1>   0.1500 
 35 H       -0.2950     3.5880     1.6640 H     1 <1>   0.4000 
 36 H       -2.6890     3.4090     1.9180 H     1 <1>   0.0800 
 37 H       -4.6080     2.9480    -0.0140 H     1 <1>   0.4000 
 38 H       -3.5570    -2.8000    -0.0710 H     1 <1>   0.1500 
 39 H        5.0940    -0.7790     0.3340 H     1 <1>   0.0800 
 40 H        4.4050    -0.1420    -1.1540 H     1 <1>   0.0800 
 41 H        3.9270    -1.7420    -0.5650 H     1 <1>   0.0800 
 42 H       -6.5990     1.4990     0.2090 H     1 <1>   0.4500 
 43 H       -3.2740     5.6550     2.1450 H     1 <1>   0.1500 
 44 H       -3.0620     4.0110    -1.8020 H     1 <1>   0.1500 
 45 H       -3.8460     7.8300     1.1940 H     1 <1>   0.1500 
 46 H       -3.6360     6.1940    -2.7300 H     1 <1>   0.1500 
 47 H       -8.9090    -1.4800    -0.5310 H     1 <1>   0.0800 
 48 H       -8.7490     0.1380    -1.1640 H     1 <1>   0.0800 
 49 H       -8.9390    -0.1160     0.5570 H     1 <1>   0.0800 
 50 H       -7.4210    -3.2890    -0.6420 H     1 <1>   0.0800 
 51 H       -6.0440    -3.6690     0.3580 H     1 <1>   0.0800 
 52 H       -5.8380    -3.4180    -1.3620 H     1 <1>   0.0800 
 53 H       -4.0300     8.1090    -1.2410 H     1 <1>   0.1500 
@<TRIPOS>BOND
  1   1   2  1   
  2   1   3  1   
  3   2   4  1   
  4   2   5  1   
  5   2  28  1   
  6   3   6  1   
  7   3  29  1   
  8   3  30  1   
  9   4   7  2   
 10   4   8  1   
 11   5   9  1   
 12   5  10  1   
 13   5  31  1   
 14   6  11  1   
 15   6  32  1   
 16   6  33  1   
 17   7  12  1   
 18   7  13  1   
 19   8  14  2   
 20   8  34  1   
 21   9  35  1   
 22  10  12  1   
 23  10  15  1   
 24  10  36  1   
 25  11  16  1   
 26  12  37  1   
 27  13  17  ar  
 28  13  18  ar  
 29  14  18  1   
 30  14  38  1   
 31  15  19  ar  
 32  15  20  ar  
 33  16  39  1   
 34  16  40  1   
 35  16  41  1   
 36  17  21  1   
 37  17  42  1   
 38  18  22  1   
 39  19  23  ar  
 40  19  43  1   
 41  20  24  ar  
 42  20  44  1   
 43  21  22  2   
 44  21  25  1   
 45  22  26  1   
 46  23  27  ar  
 47  23  45  1   
 48  24  27  ar  
 49  24  46  1   
 50  25  47  1   
 51  25  48  1   
 52  25  49  1   
 53  26  50  1   
 54  26  51  1   
 55  26  52  1   
 56  27  53  1   
@<TRIPOS>SUBSTRUCTURE
  1 ****   7 GROUP 4 **** **** 0

# MOE 2024.06 (io_trps.svl 2023.06)
