@<TRIPOS>MOLECULE
NONAME
45 48 1 0 0 
SMALL
USER_CHARGES


@<TRIPOS>ATOM
  1 O        1.1900     0.1310    -0.2200 O.2   1 <1>  -0.5700 
  2 C        1.7940    -0.8570     0.1040 C.2   1 <1>   0.5690 
  3 N        1.3670    -1.6550     1.1040 N.am  1 <1>  -0.7300 
  4 C        3.0710    -1.2540    -0.6020 C.3   1 <1>  -0.0990 
  5 C        2.1200    -2.8380     1.5640 C.3   1 <1>   0.1400 
  6 C        3.0810    -2.7740    -0.8710 C.3   1 <1>  -0.0800 
  7 C        2.6420    -3.6310     0.3440 C.3   1 <1>  -0.0800 
  8 C        4.4580    -3.2870    -1.3160 C.3   1 <1>  -0.1600 
  9 C        3.8340    -4.5340     0.6880 C.3   1 <1>  -0.1600 
 10 C        4.6390    -4.6270    -0.6100 C.3   1 <1>   0.4230 
 11 N        6.0800    -5.0240    -0.4720 N.4   1 <1>  -0.9590 
 12 C        6.8360    -4.5100     0.7330 C.3   1 <1>   0.5240 
 13 C        6.1940    -6.5130    -0.5340 C.3   1 <1>   0.2630 
 14 C        6.9880    -2.9960     0.7540 C.2   1 <1>   0.1080 
 15 N        6.2430    -2.2240     1.4620 N.2   1 <1>  -0.4100 
 16 C        7.9130    -2.2520     0.0220 C.2   1 <1>  -0.1500 
 17 O        6.6380    -1.0100     1.2110 O.3   1 <1>  -0.0190 
 18 C        7.6290    -0.9850     0.3590 C.2   1 <1>   0.0550 
 19 C        8.2440     0.3340    -0.0780 C.3   1 <1>  -0.0150 
 20 C        8.3510     1.4850     0.8700 C.3   1 <1>  -0.2000 
 21 C        7.3930     1.5450    -0.2870 C.3   1 <1>  -0.2000 
 22 H        0.5390    -1.3570     1.6240 H     1 <1>   0.3700 
 23 H        3.1530    -0.7090    -1.5250 H     1 <1>   0.0800 
 24 H        3.8920    -0.9730     0.0320 H     1 <1>   0.0800 
 25 H        2.9410    -2.4930     2.1710 H     1 <1>   0.0800 
 26 H        1.4850    -3.4620     2.1710 H     1 <1>   0.0800 
 27 H        2.3720    -2.9580    -1.6620 H     1 <1>   0.0800 
 28 H        1.8350    -4.2620     0.0100 H     1 <1>   0.0800 
 29 H        5.2110    -2.5800    -1.0350 H     1 <1>   0.0800 
 30 H        4.4820    -3.4100    -2.3840 H     1 <1>   0.0800 
 31 H        3.4990    -5.5030     1.0140 H     1 <1>   0.0800 
 32 H        4.3920    -4.0700     1.4760 H     1 <1>   0.0800 
 33 H        4.1410    -5.3550    -1.2310 H     1 <1>   0.0800 
 34 H        6.5520    -4.6310    -1.2970 H     1 <1>   0.4500 
 35 H        6.3360    -4.8170     1.6360 H     1 <1>   0.0800 
 36 H        7.8230    -4.9410     0.7480 H     1 <1>   0.0800 
 37 H        5.6990    -6.9620     0.3130 H     1 <1>   0.0800 
 38 H        7.2290    -6.8140    -0.5290 H     1 <1>   0.0800 
 39 H        5.7360    -6.8860    -1.4360 H     1 <1>   0.0800 
 40 H        8.6710    -2.6120    -0.6500 H     1 <1>   0.1500 
 41 H        9.0640     0.1930    -0.7610 H     1 <1>   0.1000 
 42 H        7.9500     1.3840     1.8640 H     1 <1>   0.1000 
 43 H        9.2350     2.0980     0.8430 H     1 <1>   0.1000 
 44 H        7.6170     2.2020    -1.1100 H     1 <1>   0.1000 
 45 H        6.3380     1.4900    -0.0790 H     1 <1>   0.1000 
@<TRIPOS>BOND
  1   1   2  2   
  2   2   3  am  
  3   2   4  1   
  4   3   5  1   
  5   3  22  1   
  6   4   6  1   
  7   4  23  1   
  8   4  24  1   
  9   5   7  1   
 10   5  25  1   
 11   5  26  1   
 12   6   7  1   
 13   6   8  1   
 14   6  27  1   
 15   7   9  1   
 16   7  28  1   
 17   8  10  1   
 18   8  29  1   
 19   8  30  1   
 20   9  10  1   
 21   9  31  1   
 22   9  32  1   
 23  10  11  1   
 24  10  33  1   
 25  11  12  1   
 26  11  13  1   
 27  11  34  1   
 28  12  14  1   
 29  12  35  1   
 30  12  36  1   
 31  13  37  1   
 32  13  38  1   
 33  13  39  1   
 34  14  15  2   
 35  14  16  1   
 36  15  17  1   
 37  16  18  2   
 38  16  40  1   
 39  17  18  1   
 40  18  19  1   
 41  19  20  1   
 42  19  21  1   
 43  19  41  1   
 44  20  21  1   
 45  20  42  1   
 46  20  43  1   
 47  21  44  1   
 48  21  45  1   
@<TRIPOS>SUBSTRUCTURE
  1 ****  15 GROUP 4 **** **** 0

# MOE 2024.06 (io_trps.svl 2023.06)
