@<TRIPOS>MOLECULE
NONAME
52 54 1 0 0 
SMALL
USER_CHARGES


@<TRIPOS>ATOM
  1 O       -2.1310     0.6600     2.1120 O.2   1 <1>  -0.5700 
  2 C       -2.3880     1.5330     1.3010 C.2   1 <1>   0.6160 
  3 N       -3.6080     2.1710     1.3840 N.am  1 <1>  -0.6600 
  4 C       -1.4120     1.8650     0.2950 C.2   1 <1>   0.0140 
  5 C       -4.7180     1.5830     2.1880 C.3   1 <1>   0.1400 
  6 C       -3.9590     3.4230     0.6590 C.3   1 <1>   0.1400 
  7 C       -0.1630     2.3330     0.6180 C.2   1 <1>  -0.0410 
  8 C       -1.7110     1.6940    -1.0930 C.2   1 <1>  -0.1500 
  9 C       -5.4670     0.5060     1.3870 C.3   1 <1>   0.1400 
 10 C       -4.8830     3.1850    -0.5470 C.3   1 <1>  -0.1600 
 11 N        0.7540     2.6600    -0.3480 N.am  1 <1>  -0.5390 
 12 C       -0.7930     2.0180    -2.0430 C.2   1 <1>  -0.1360 
 13 N       -5.6530     0.8600    -0.0610 N.am  1 <1>  -0.6600 
 14 C       -6.0910     2.2640    -0.3110 C.3   1 <1>   0.1400 
 15 C        0.4850     2.5260    -1.6820 C.2   1 <1>   0.6160 
 16 C       -5.3640     0.0390    -1.1320 C.2   1 <1>   0.5690 
 17 O        1.3410     2.8450    -2.4890 O.2   1 <1>  -0.5700 
 18 O       -5.3770     0.4830    -2.2590 O.2   1 <1>  -0.5700 
 19 C       -5.0080    -1.4540    -1.0090 C.3   1 <1>  -0.0190 
 20 C       -6.0690    -2.2660    -0.2260 C.3   1 <1>  -0.1600 
 21 C       -3.5330    -1.6500    -0.5880 C.3   1 <1>  -0.1600 
 22 C       -5.9900    -3.7770    -0.4900 C.3   1 <1>  -0.1600 
 23 C       -3.0610    -3.1080    -0.4730 C.3   1 <1>  -0.1600 
 24 C       -5.0170    -4.5320     0.4280 C.3   1 <1>  -0.1600 
 25 C       -3.6830    -3.8320     0.7290 C.3   1 <1>  -0.1600 
 26 H       -5.4040     2.3570     2.4830 H     1 <1>   0.0800 
 27 H       -4.3270     1.1460     3.0910 H     1 <1>   0.0800 
 28 H       -3.0620     3.9170     0.3260 H     1 <1>   0.0800 
 29 H       -4.4470     4.0890     1.3500 H     1 <1>   0.0800 
 30 H        0.1270     2.4540     1.6510 H     1 <1>   0.1500 
 31 H       -2.6750     1.2930    -1.3560 H     1 <1>   0.1500 
 32 H       -6.4290     0.3360     1.8350 H     1 <1>   0.0800 
 33 H       -4.9040    -0.3990     1.4840 H     1 <1>   0.0800 
 34 H       -4.3140     2.8050    -1.3730 H     1 <1>   0.0800 
 35 H       -5.2560     4.1420    -0.8610 H     1 <1>   0.0800 
 36 H        1.6920     3.0070    -0.1380 H     1 <1>   0.3700 
 37 H       -0.9830     1.9030    -3.0930 H     1 <1>   0.1500 
 38 H       -6.7170     2.2820    -1.1870 H     1 <1>   0.0800 
 39 H       -6.6830     2.6220     0.5130 H     1 <1>   0.0800 
 40 H       -5.0620    -1.8240    -2.0180 H     1 <1>   0.0800 
 41 H       -7.0370    -1.9300    -0.5560 H     1 <1>   0.0800 
 42 H       -6.0170    -2.0890     0.8310 H     1 <1>   0.0800 
 43 H       -3.3310    -1.1500     0.3400 H     1 <1>   0.0800 
 44 H       -2.9210    -1.1680    -1.3300 H     1 <1>   0.0800 
 45 H       -5.7240    -3.9530    -1.5190 H     1 <1>   0.0800 
 46 H       -6.9680    -4.2040    -0.3500 H     1 <1>   0.0800 
 47 H       -1.9940    -3.0880    -0.3290 H     1 <1>   0.0800 
 48 H       -3.2490    -3.6460    -1.3860 H     1 <1>   0.0800 
 49 H       -4.8110    -5.4880    -0.0230 H     1 <1>   0.0800 
 50 H       -5.5060    -4.7290     1.3660 H     1 <1>   0.0800 
 51 H       -3.8150    -3.1350     1.5390 H     1 <1>   0.0800 
 52 H       -2.9910    -4.5790     1.0760 H     1 <1>   0.0800 
@<TRIPOS>BOND
  1   1   2  2   
  2   2   3  am  
  3   2   4  1   
  4   3   5  1   
  5   3   6  1   
  6   4   7  2   
  7   4   8  1   
  8   5   9  1   
  9   5  26  1   
 10   5  27  1   
 11   6  10  1   
 12   6  28  1   
 13   6  29  1   
 14   7  11  1   
 15   7  30  1   
 16   8  12  2   
 17   8  31  1   
 18   9  13  1   
 19   9  32  1   
 20   9  33  1   
 21  10  14  1   
 22  10  34  1   
 23  10  35  1   
 24  11  15  am  
 25  11  36  1   
 26  12  15  1   
 27  12  37  1   
 28  13  14  1   
 29  13  16  am  
 30  14  38  1   
 31  14  39  1   
 32  15  17  2   
 33  16  18  2   
 34  16  19  1   
 35  19  20  1   
 36  19  21  1   
 37  19  40  1   
 38  20  22  1   
 39  20  41  1   
 40  20  42  1   
 41  21  23  1   
 42  21  43  1   
 43  21  44  1   
 44  22  24  1   
 45  22  45  1   
 46  22  46  1   
 47  23  25  1   
 48  23  47  1   
 49  23  48  1   
 50  24  25  1   
 51  24  49  1   
 52  24  50  1   
 53  25  51  1   
 54  25  52  1   
@<TRIPOS>SUBSTRUCTURE
  1 ****   2 GROUP 4 **** **** 0

# MOE 2024.06 (io_trps.svl 2023.06)
