@<TRIPOS>MOLECULE
NONAME
55 59 1 0 0 
SMALL
USER_CHARGES


@<TRIPOS>ATOM
  1 O        0.0120     0.4780    -0.6340 O.3   1 <1>  -0.3630 
  2 C        1.1980     0.6860    -0.0020 C.ar  1 <1>   0.0830 
  3 C       -0.0560    -0.4100    -1.7360 C.3   1 <1>   0.2580 
  4 C        2.2000    -0.2870    -0.0280 C.ar  1 <1>   0.0280 
  5 C        1.3830     1.8750     0.6810 C.ar  1 <1>  -0.1500 
  6 C        0.8500    -1.6220    -1.5150 C.2   1 <1>  -0.2760 
  7 C        1.9290    -1.5160    -0.7240 C.2   1 <1>  -0.1780 
  8 C        3.3970    -0.0350     0.6350 C.ar  1 <1>  -0.1500 
  9 C        2.5770     2.1110     1.3370 C.ar  1 <1>  -0.1500 
 10 C        0.4340    -2.8740    -2.2490 C.3   1 <1>   0.4810 
 11 C        3.5880     1.1630     1.3160 C.ar  1 <1>   0.0830 
 12 N       -0.0820    -3.8270    -1.2370 N.4   1 <1>  -0.9590 
 13 O        4.7280     1.4810     1.9830 O.3   1 <1>  -0.3620 
 14 C       -1.2580    -3.2820    -0.4630 C.3   1 <1>   0.3430 
 15 C       -0.4130    -5.1620    -1.8430 C.3   1 <1>   0.3430 
 16 C        5.8460     0.6220     1.9770 C.3   1 <1>   0.0400 
 17 C       -1.8000    -4.2960     0.5650 C.3   1 <1>   0.1900 
 18 C       -0.9820    -6.1470    -0.8020 C.3   1 <1>   0.1100 
 19 N       -2.1520    -5.5770    -0.1000 N.3   1 <1>  -0.8100 
 20 C       -3.0200    -3.7050     1.2950 C.3   1 <1>   0.1200 
 21 C       -2.7560    -6.5140     0.8860 C.3   1 <1>   0.2850 
 22 O       -3.4960    -4.6230     2.2290 O.3   1 <1>  -0.5600 
 23 C       -3.2980    -7.7630     0.1750 C.3   1 <1>  -0.1950 
 24 C       -3.9100    -5.8330     1.6570 C.3   1 <1>   0.1200 
 25 C       -3.6310    -8.9970     0.9570 C.3   1 <1>  -0.2000 
 26 C       -2.4800    -9.0070    -0.0040 C.3   1 <1>  -0.2000 
 27 H       -1.0870    -0.6960    -1.8400 H     1 <1>   0.0800 
 28 H        0.2480     0.1350    -2.6140 H     1 <1>   0.0800 
 29 H        0.5960     2.6080     0.6970 H     1 <1>   0.1500 
 30 H        2.6300    -2.3160    -0.5570 H     1 <1>   0.1500 
 31 H        4.1650    -0.7820     0.6100 H     1 <1>   0.1500 
 32 H        2.7340     3.0320     1.8690 H     1 <1>   0.1500 
 33 H        1.2910    -3.2980    -2.7470 H     1 <1>   0.0800 
 34 H       -0.3210    -2.6530    -2.9870 H     1 <1>   0.0800 
 35 H        0.6720    -3.9630    -0.5540 H     1 <1>   0.4500 
 36 H       -0.9670    -2.3830     0.0580 H     1 <1>   0.0800 
 37 H       -2.0560    -3.0310    -1.1410 H     1 <1>   0.0800 
 38 H       -1.1510    -5.0350    -2.6180 H     1 <1>   0.0800 
 39 H        0.4670    -5.5930    -2.2910 H     1 <1>   0.0800 
 40 H        6.6300     1.0930     2.5420 H     1 <1>   0.0800 
 41 H        6.1680     0.4730     0.9620 H     1 <1>   0.0800 
 42 H        5.5740    -0.3100     2.4400 H     1 <1>   0.0800 
 43 H       -1.0370    -4.4720     1.3050 H     1 <1>   0.0800 
 44 H       -0.2190    -6.4170    -0.0920 H     1 <1>   0.0800 
 45 H       -1.2750    -7.0400    -1.3270 H     1 <1>   0.0800 
 46 H       -3.8140    -3.4720     0.6060 H     1 <1>   0.0800 
 47 H       -2.7490    -2.8130     1.8320 H     1 <1>   0.0800 
 48 H       -2.0120    -6.8140     1.6050 H     1 <1>   0.0800 
 49 H       -3.9910    -7.5050    -0.6080 H     1 <1>   0.1000 
 50 H       -4.2500    -6.4720     2.4520 H     1 <1>   0.0800 
 51 H       -4.7390    -5.6370     0.9990 H     1 <1>   0.0800 
 52 H       -3.4150    -9.0370     2.0110 H     1 <1>   0.1000 
 53 H       -4.5200    -9.5480     0.7010 H     1 <1>   0.1000 
 54 H       -2.5810    -9.5710    -0.9150 H     1 <1>   0.1000 
 55 H       -1.4860    -9.0620     0.4060 H     1 <1>   0.1000 
@<TRIPOS>BOND
  1   1   2  1   
  2   1   3  1   
  3   2   4  ar  
  4   2   5  ar  
  5   3   6  1   
  6   3  27  1   
  7   3  28  1   
  8   4   7  1   
  9   4   8  ar  
 10   5   9  ar  
 11   5  29  1   
 12   6   7  2   
 13   6  10  1   
 14   7  30  1   
 15   8  11  ar  
 16   8  31  1   
 17   9  11  ar  
 18   9  32  1   
 19  10  12  1   
 20  10  33  1   
 21  10  34  1   
 22  11  13  1   
 23  12  14  1   
 24  12  15  1   
 25  12  35  1   
 26  13  16  1   
 27  14  17  1   
 28  14  36  1   
 29  14  37  1   
 30  15  18  1   
 31  15  38  1   
 32  15  39  1   
 33  16  40  1   
 34  16  41  1   
 35  16  42  1   
 36  17  19  1   
 37  17  20  1   
 38  17  43  1   
 39  18  19  1   
 40  18  44  1   
 41  18  45  1   
 42  19  21  1   
 43  20  22  1   
 44  20  46  1   
 45  20  47  1   
 46  21  23  1   
 47  21  24  1   
 48  21  48  1   
 49  22  24  1   
 50  23  25  1   
 51  23  26  1   
 52  23  49  1   
 53  24  50  1   
 54  24  51  1   
 55  25  26  1   
 56  25  52  1   
 57  25  53  1   
 58  26  54  1   
 59  26  55  1   
@<TRIPOS>SUBSTRUCTURE
  1 ****  14 GROUP 4 **** **** 0

# MOE 2024.06 (io_trps.svl 2023.06)
