@<TRIPOS>MOLECULE
NONAME
55 58 1 0 0 
SMALL
USER_CHARGES


@<TRIPOS>ATOM
  1 F       -0.7960    -1.0370     1.7820 F     1 <1>  -0.1900 
  2 C       -1.9440    -1.3650     1.2260 C.ar  1 <1>   0.1900 
  3 C       -2.8130    -0.4010     0.7250 C.ar  1 <1>   0.4100 
  4 C       -2.2900    -2.6840     1.1450 C.ar  1 <1>   0.1600 
  5 N       -3.9550    -0.7780     0.1830 N.ar  1 <1>  -0.6200 
  6 N       -2.5430     0.9610     0.7510 N.pl3 1 <1>  -0.8380 
  7 N       -3.4290    -3.0710     0.5980 N.ar  1 <1>  -0.6200 
  8 C       -4.1970    -2.0790     0.1360 C.ar  1 <1>   0.7200 
  9 C       -1.3460     1.4690     0.0160 C.3   1 <1>   0.2090 
 10 C       -3.6610     1.9570     0.7520 C.3   1 <1>   0.2090 
 11 N       -5.3930    -2.4440    -0.4370 N.pl3 1 <1>  -0.8380 
 12 C       -1.7450     2.0240    -1.3660 C.3   1 <1>   0.1200 
 13 C       -3.9350     2.4770    -0.6710 C.3   1 <1>   0.1200 
 14 C       -5.5580    -3.7870    -1.0420 C.3   1 <1>   0.2090 
 15 C       -6.6500    -1.8760     0.1300 C.3   1 <1>   0.2090 
 16 O       -2.7620     2.9800    -1.2520 O.3   1 <1>  -0.5600 
 17 C       -6.2720    -4.6210     0.0320 C.3   1 <1>   0.4230 
 18 C       -7.4300    -2.9430     0.9420 C.3   1 <1>  -0.1600 
 19 N       -5.8740    -6.0700     0.1750 N.4   1 <1>  -0.9590 
 20 C       -7.8270    -4.2500     0.0660 C.3   1 <1>   0.0000 
 21 C       -6.0660    -6.8570    -1.0510 C.3   1 <1>   0.3430 
 22 C       -4.4790    -6.1910     0.7010 C.3   1 <1>   0.2630 
 23 C       -8.2520    -5.5010    -0.8670 C.3   1 <1>  -0.1600 
 24 C       -9.3770    -3.8610     0.1990 C.3   1 <1>   0.1200 
 25 C       -7.2850    -6.3120    -1.7680 C.3   1 <1>  -0.1600 
 26 O       -9.8030    -4.2450     1.4690 O.3   1 <1>  -0.6800 
 27 H       -1.6200    -3.4300     1.5360 H     1 <1>   0.1500 
 28 H       -0.8810     2.2500     0.5920 H     1 <1>   0.0800 
 29 H       -0.6250     0.6830    -0.1170 H     1 <1>   0.0800 
 30 H       -4.5550     1.5130     1.1540 H     1 <1>   0.0800 
 31 H       -3.3950     2.7850     1.3850 H     1 <1>   0.0800 
 32 H       -2.0920     1.2280    -2.0010 H     1 <1>   0.0800 
 33 H       -0.9000     2.4970    -1.8330 H     1 <1>   0.0800 
 34 H       -4.6560     3.2730    -0.6420 H     1 <1>   0.0800 
 35 H       -4.3160     1.6840    -1.2900 H     1 <1>   0.0800 
 36 H       -6.1530    -3.6980    -1.9320 H     1 <1>   0.0800 
 37 H       -4.6010    -4.2030    -1.3020 H     1 <1>   0.0800 
 38 H       -6.4220    -1.0380     0.7700 H     1 <1>   0.0800 
 39 H       -7.2600    -1.5080    -0.6780 H     1 <1>   0.0800 
 40 H       -5.8090    -4.2360     0.9200 H     1 <1>   0.0800 
 41 H       -6.8830    -3.1930     1.8380 H     1 <1>   0.0800 
 42 H       -8.2180    -2.3650     1.3980 H     1 <1>   0.0800 
 43 H       -6.5230    -6.4440     0.8820 H     1 <1>   0.4500 
 44 H       -5.2040    -6.7790    -1.6940 H     1 <1>   0.0800 
 45 H       -6.2160    -7.8950    -0.7980 H     1 <1>   0.0800 
 46 H       -3.7740    -5.7830    -0.0050 H     1 <1>   0.0800 
 47 H       -4.2320    -7.2240     0.8830 H     1 <1>   0.0800 
 48 H       -4.3820    -5.6450     1.6260 H     1 <1>   0.0800 
 49 H       -8.7740    -6.2170    -0.2500 H     1 <1>   0.0800 
 50 H       -8.9310    -5.1840    -1.6430 H     1 <1>   0.0800 
 51 H      -10.1060    -4.3070    -0.4570 H     1 <1>   0.0800 
 52 H       -9.5740    -2.8090     0.0600 H     1 <1>   0.0800 
 53 H       -6.9550    -5.7020    -2.5900 H     1 <1>   0.0800 
 54 H       -7.8150    -7.1390    -2.2100 H     1 <1>   0.0800 
 55 H      -10.7450    -4.0170     1.6120 H     1 <1>   0.4000 
@<TRIPOS>BOND
  1   1   2  1   
  2   2   3  ar  
  3   2   4  ar  
  4   3   5  ar  
  5   3   6  1   
  6   4   7  ar  
  7   4  27  1   
  8   5   8  ar  
  9   6   9  1   
 10   6  10  1   
 11   7   8  ar  
 12   8  11  1   
 13   9  12  1   
 14   9  28  1   
 15   9  29  1   
 16  10  13  1   
 17  10  30  1   
 18  10  31  1   
 19  11  14  1   
 20  11  15  1   
 21  12  16  1   
 22  12  32  1   
 23  12  33  1   
 24  13  16  1   
 25  13  34  1   
 26  13  35  1   
 27  14  17  1   
 28  14  36  1   
 29  14  37  1   
 30  15  18  1   
 31  15  38  1   
 32  15  39  1   
 33  17  19  1   
 34  17  20  1   
 35  17  40  1   
 36  18  20  1   
 37  18  41  1   
 38  18  42  1   
 39  19  21  1   
 40  19  22  1   
 41  19  43  1   
 42  20  23  1   
 43  20  24  1   
 44  21  25  1   
 45  21  44  1   
 46  21  45  1   
 47  22  46  1   
 48  22  47  1   
 49  22  48  1   
 50  23  25  1   
 51  23  49  1   
 52  23  50  1   
 53  24  26  1   
 54  24  51  1   
 55  24  52  1   
 56  25  53  1   
 57  25  54  1   
 58  26  55  1   
@<TRIPOS>SUBSTRUCTURE
  1 ****   8 GROUP 4 **** **** 0

# MOE 2024.06 (io_trps.svl 2023.06)
