@<TRIPOS>MOLECULE
NONAME
49 51 1 0 0 
SMALL
USER_CHARGES


@<TRIPOS>ATOM
  1 F       -3.2750    -0.5830     2.2060 F     1 <1>  -0.1900 
  2 C       -3.1560     0.3760     1.3280 C.ar  1 <1>   0.1900 
  3 C       -3.0670     0.0550    -0.0250 C.ar  1 <1>   0.0860 
  4 C       -3.1380     1.6730     1.8020 C.ar  1 <1>  -0.1500 
  5 C       -2.9560     1.1240    -0.9230 C.ar  1 <1>  -0.1440 
  6 C       -3.0980    -1.3260    -0.4570 C.2   1 <1>   0.5440 
  7 C       -3.0290     2.7100     0.8960 C.ar  1 <1>  -0.1500 
  8 C       -2.9390     2.4320    -0.4590 C.ar  1 <1>  -0.1500 
  9 C       -2.8490     0.8610    -2.4200 C.3   1 <1>  -0.0960 
 10 O       -2.0650    -1.8590    -0.8170 O.2   1 <1>  -0.5700 
 11 N       -4.2720    -2.0490    -0.4930 N.am  1 <1>  -0.6600 
 12 C       -5.6070    -1.5220    -0.0780 C.3   1 <1>   0.1400 
 13 C       -4.2970    -3.5170    -0.7750 C.3   1 <1>   0.1400 
 14 C       -6.2040    -2.3830     1.0510 C.3   1 <1>   0.2950 
 15 C       -4.9820    -4.2840     0.3780 C.3   1 <1>   0.2000 
 16 O       -6.2370    -3.7270     0.6510 O.3   1 <1>  -0.5600 
 17 C       -7.6260    -1.9130     1.4070 C.3   1 <1>  -0.1950 
 18 C       -5.2180    -5.7660     0.0610 C.3   1 <1>  -0.1600 
 19 C       -8.6350    -2.8160     2.0460 C.3   1 <1>  -0.2000 
 20 C       -8.8330    -2.3460     0.6320 C.3   1 <1>  -0.2000 
 21 C       -3.9130    -6.5590    -0.1180 C.3   1 <1>  -0.1600 
 22 C       -4.2010    -8.0490    -0.3380 C.3   1 <1>  -0.1600 
 23 C       -2.9020    -8.8400    -0.5180 C.3   1 <1>  -0.2400 
 24 H       -3.2080     1.8630     2.8580 H     1 <1>   0.1500 
 25 H       -3.0120     3.7310     1.2400 H     1 <1>   0.1500 
 26 H       -2.8510     3.2510    -1.1530 H     1 <1>   0.1500 
 27 H       -2.8100     1.7800    -2.9760 H     1 <1>   0.0800 
 28 H       -3.6970     0.2930    -2.7590 H     1 <1>   0.0800 
 29 H       -1.9540     0.3000    -2.6290 H     1 <1>   0.0800 
 30 H       -5.5370    -0.5030     0.2540 H     1 <1>   0.0800 
 31 H       -6.2730    -1.5460    -0.9220 H     1 <1>   0.0800 
 32 H       -4.8350    -3.6910    -1.6900 H     1 <1>   0.0800 
 33 H       -3.2970    -3.8900    -0.9040 H     1 <1>   0.0800 
 34 H       -5.5840    -2.3110     1.9280 H     1 <1>   0.0800 
 35 H       -4.3820    -4.2030     1.2690 H     1 <1>   0.0800 
 36 H       -7.6210    -0.8960     1.7570 H     1 <1>   0.1000 
 37 H       -5.7760    -6.1960     0.8740 H     1 <1>   0.0800 
 38 H       -5.8120    -5.8450    -0.8330 H     1 <1>   0.0800 
 39 H       -8.3830    -3.8510     2.2090 H     1 <1>   0.1000 
 40 H       -9.2710    -2.4210     2.8190 H     1 <1>   0.1000 
 41 H       -9.6090    -1.6290     0.4290 H     1 <1>   0.1000 
 42 H       -8.7180    -3.0670    -0.1600 H     1 <1>   0.1000 
 43 H       -3.3640    -6.1820    -0.9630 H     1 <1>   0.0800 
 44 H       -3.2990    -6.4420     0.7600 H     1 <1>   0.0800 
 45 H       -4.7400    -8.4430     0.5070 H     1 <1>   0.0800 
 46 H       -4.8160    -8.1730    -1.2130 H     1 <1>   0.0800 
 47 H       -2.2810    -8.7470     0.3550 H     1 <1>   0.0800 
 48 H       -2.3570    -8.4790    -1.3720 H     1 <1>   0.0800 
 49 H       -3.1240    -9.8820    -0.6700 H     1 <1>   0.0800 
@<TRIPOS>BOND
  1   1   2  1   
  2   2   3  ar  
  3   2   4  ar  
  4   3   5  ar  
  5   3   6  1   
  6   4   7  ar  
  7   4  24  1   
  8   5   8  ar  
  9   5   9  1   
 10   6  10  2   
 11   6  11  am  
 12   7   8  ar  
 13   7  25  1   
 14   8  26  1   
 15   9  27  1   
 16   9  28  1   
 17   9  29  1   
 18  11  12  1   
 19  11  13  1   
 20  12  14  1   
 21  12  30  1   
 22  12  31  1   
 23  13  15  1   
 24  13  32  1   
 25  13  33  1   
 26  14  16  1   
 27  14  17  1   
 28  14  34  1   
 29  15  16  1   
 30  15  18  1   
 31  15  35  1   
 32  17  19  1   
 33  17  20  1   
 34  17  36  1   
 35  18  21  1   
 36  18  37  1   
 37  18  38  1   
 38  19  20  1   
 39  19  39  1   
 40  19  40  1   
 41  20  41  1   
 42  20  42  1   
 43  21  22  1   
 44  21  43  1   
 45  21  44  1   
 46  22  23  1   
 47  22  45  1   
 48  22  46  1   
 49  23  47  1   
 50  23  48  1   
 51  23  49  1   
@<TRIPOS>SUBSTRUCTURE
  1 ****  11 GROUP 4 **** **** 0

# MOE 2024.06 (io_trps.svl 2023.06)
