@<TRIPOS>MOLECULE
NONAME
52 55 1 0 0 
SMALL
USER_CHARGES


@<TRIPOS>ATOM
  1 O        0.5000    -1.0710    -2.0650 O.3   1 <1>  -0.0190 
  2 N        0.2060    -2.3340    -1.9590 N.2   1 <1>  -0.4100 
  3 C        1.1350    -0.6240    -1.0130 C.2   1 <1>  -0.0400 
  4 C        0.6600    -2.7100    -0.8140 C.2   1 <1>   0.1080 
  5 C        1.2710    -1.6460    -0.1530 C.2   1 <1>  -0.1500 
  6 C        1.5600     0.8380    -0.9630 C.3   1 <1>   0.1000 
  7 C        0.5230    -4.1300    -0.2810 C.3   1 <1>   0.5240 
  8 C        2.6250     1.1150    -2.0280 C.3   1 <1>  -0.2400 
  9 C        2.0910     1.2230     0.4230 C.3   1 <1>  -0.2400 
 10 N       -0.6990    -4.7660    -0.8640 N.4   1 <1>  -0.9590 
 11 C       -1.9290    -4.1800    -0.2450 C.3   1 <1>   0.3430 
 12 C       -0.7380    -6.2380    -0.6160 C.3   1 <1>   0.3430 
 13 C       -2.3450    -5.1730     0.8420 C.3   1 <1>   0.2000 
 14 C       -2.0130    -6.5150     0.1890 C.3   1 <1>  -0.0800 
 15 O       -1.5250    -4.9740     1.9520 O.3   1 <1>  -0.6800 
 16 C       -1.8850    -7.7310     1.1320 C.3   1 <1>  -0.0170 
 17 C       -1.3520    -8.9390     0.3690 C.ar  1 <1>  -0.1440 
 18 C       -2.1400    -9.6620    -0.5590 C.ar  1 <1>   0.0000 
 19 C       -0.0620    -9.3450     0.5530 C.ar  1 <1>  -0.1500 
 20 C       -1.5110   -10.7060    -1.2800 C.ar  1 <1>   0.3100 
 21 C       -3.5110    -9.4190    -0.8110 C.ar  1 <1>  -0.1500 
 22 C        0.4550   -10.4110    -0.1930 C.ar  1 <1>   0.1600 
 23 N       -0.2170   -11.0610    -1.0870 N.ar  1 <1>  -0.6200 
 24 C       -2.2520   -11.4150    -2.2390 C.ar  1 <1>  -0.1500 
 25 C       -4.2070   -10.1320    -1.7480 C.ar  1 <1>  -0.1500 
 26 C       -3.5700   -11.1380    -2.4780 C.ar  1 <1>  -0.1500 
 27 H        1.7380    -1.6590     0.8160 H     1 <1>   0.1500 
 28 H        0.6950     1.4450    -1.1750 H     1 <1>   0.0800 
 29 H        0.4590    -4.1150     0.7940 H     1 <1>   0.0800 
 30 H        1.3990    -4.6870    -0.5680 H     1 <1>   0.0800 
 31 H        3.4970     0.5100    -1.8540 H     1 <1>   0.0800 
 32 H        2.9120     2.1510    -2.0130 H     1 <1>   0.0800 
 33 H        2.2400     0.8850    -3.0060 H     1 <1>   0.0800 
 34 H        2.9700     0.6510     0.6650 H     1 <1>   0.0800 
 35 H        1.3400     1.0430     1.1710 H     1 <1>   0.0800 
 36 H        2.3460     2.2670     0.4450 H     1 <1>   0.0800 
 37 H       -0.6800    -4.5260    -1.8680 H     1 <1>   0.4500 
 38 H       -1.7590    -3.1950     0.1600 H     1 <1>   0.0800 
 39 H       -2.7080    -4.1220    -0.9880 H     1 <1>   0.0800 
 40 H       -0.7450    -6.7930    -1.5410 H     1 <1>   0.0800 
 41 H        0.1210    -6.5380    -0.0380 H     1 <1>   0.0800 
 42 H       -3.3760    -5.0640     1.1350 H     1 <1>   0.0800 
 43 H       -2.7860    -6.7260    -0.5290 H     1 <1>   0.0800 
 44 H       -1.9280    -5.3590     2.7610 H     1 <1>   0.4000 
 45 H       -2.8360    -7.9660     1.5790 H     1 <1>   0.0800 
 46 H       -1.2070    -7.5070     1.9370 H     1 <1>   0.0800 
 47 H        0.5930    -8.8690     1.2600 H     1 <1>   0.1500 
 48 H       -4.0310    -8.6660    -0.2510 H     1 <1>   0.1500 
 49 H        1.4770   -10.7050    -0.0170 H     1 <1>   0.1500 
 50 H       -1.7450   -12.1920    -2.7810 H     1 <1>   0.1500 
 51 H       -5.2500    -9.9380    -1.9340 H     1 <1>   0.1500 
 52 H       -4.1270   -11.6910    -3.2150 H     1 <1>   0.1500 
@<TRIPOS>BOND
  1   1   2  1   
  2   1   3  1   
  3   2   4  2   
  4   3   5  2   
  5   3   6  1   
  6   4   5  1   
  7   4   7  1   
  8   5  27  1   
  9   6   8  1   
 10   6   9  1   
 11   6  28  1   
 12   7  10  1   
 13   7  29  1   
 14   7  30  1   
 15   8  31  1   
 16   8  32  1   
 17   8  33  1   
 18   9  34  1   
 19   9  35  1   
 20   9  36  1   
 21  10  11  1   
 22  10  12  1   
 23  10  37  1   
 24  11  13  1   
 25  11  38  1   
 26  11  39  1   
 27  12  14  1   
 28  12  40  1   
 29  12  41  1   
 30  13  14  1   
 31  13  15  1   
 32  13  42  1   
 33  14  16  1   
 34  14  43  1   
 35  15  44  1   
 36  16  17  1   
 37  16  45  1   
 38  16  46  1   
 39  17  18  ar  
 40  17  19  ar  
 41  18  20  ar  
 42  18  21  ar  
 43  19  22  ar  
 44  19  47  1   
 45  20  23  ar  
 46  20  24  ar  
 47  21  25  ar  
 48  21  48  1   
 49  22  23  ar  
 50  22  49  1   
 51  24  26  ar  
 52  24  50  1   
 53  25  26  ar  
 54  25  51  1   
 55  26  52  1   
@<TRIPOS>SUBSTRUCTURE
  1 ****  12 GROUP 4 **** **** 0

# MOE 2024.06 (io_trps.svl 2023.06)
