@<TRIPOS>MOLECULE
NONAME
44 46 1 0 0 
SMALL
USER_CHARGES


@<TRIPOS>ATOM
  1 CL       0.7780    -0.1450    -0.6040 Cl    1 <1>  -0.1770 
  2 C        1.3830     1.1610     0.3840 C.ar  1 <1>   0.1770 
  3 C        1.2720     2.4980     0.0130 C.ar  1 <1>  -0.0090 
  4 C        1.9810     0.7700     1.5710 C.ar  1 <1>  -0.1500 
  5 S        0.4920     3.0600    -1.5160 S.o2  1 <1>   1.4470 
  6 C        1.8020     3.4250     0.9050 C.ar  1 <1>   0.1770 
  7 C        2.4950     1.7170     2.4350 C.ar  1 <1>  -0.1500 
  8 O       -0.1320     2.0000    -2.2760 O.2   1 <1>  -0.6500 
  9 O        1.4180     3.9220    -2.2190 O.2   1 <1>  -0.6500 
 10 N       -0.7810     4.0240    -0.9460 N.am  1 <1>  -0.8490 
 11 CL       1.7480     5.1440     0.5900 Cl    1 <1>  -0.1770 
 12 C        2.4030     3.0530     2.0960 C.ar  1 <1>  -0.1500 
 13 C       -1.9470     3.2540    -0.4360 C.3   1 <1>   0.1960 
 14 C       -1.2500     4.9900    -1.9200 C.3   1 <1>   0.1960 
 15 C       -3.3070     3.9370     0.1020 C.3   1 <1>   0.0000 
 16 C       -2.2200     5.9350    -1.2100 C.3   1 <1>  -0.1600 
 17 C       -4.7090     4.5460     0.5810 C.3   1 <1>   0.2000 
 18 C       -2.6470     5.3930     0.1690 C.3   1 <1>  -0.1600 
 19 C       -3.9920     2.4930     0.1220 C.3   1 <1>  -0.1600 
 20 O       -4.6990     4.6320     1.9830 O.3   1 <1>  -0.5600 
 21 C       -5.9400     3.7380     0.1550 C.3   1 <1>  -0.1600 
 22 C       -5.3580     2.5420    -0.5220 C.3   1 <1>  -0.1600 
 23 C       -5.5070     5.6270     2.5310 C.3   1 <1>   0.0400 
 24 H        2.0420    -0.2770     1.8140 H     1 <1>   0.1500 
 25 H        2.9610     1.4190     3.3600 H     1 <1>   0.1500 
 26 H        2.7960     3.8110     2.7510 H     1 <1>   0.1500 
 27 H       -2.2070     2.6510    -1.2920 H     1 <1>   0.0800 
 28 H       -1.5780     2.5980     0.3360 H     1 <1>   0.0800 
 29 H       -0.4250     5.5590    -2.3160 H     1 <1>   0.0800 
 30 H       -1.7400     4.4820    -2.7350 H     1 <1>   0.0800 
 31 H       -1.7310     6.8830    -1.0740 H     1 <1>   0.0800 
 32 H       -3.0810     6.0990    -1.8330 H     1 <1>   0.0800 
 33 H       -4.9160     5.5220     0.1710 H     1 <1>   0.0800 
 34 H       -3.1720     6.1990     0.6550 H     1 <1>   0.0800 
 35 H       -1.7840     5.3370     0.8160 H     1 <1>   0.0800 
 36 H       -3.5120     1.6240    -0.3010 H     1 <1>   0.0800 
 37 H       -4.1190     2.2170     1.1590 H     1 <1>   0.0800 
 38 H       -6.5220     3.4350     1.0080 H     1 <1>   0.0800 
 39 H       -6.5590     4.2900    -0.5300 H     1 <1>   0.0800 
 40 H       -5.9330     1.6510    -0.3350 H     1 <1>   0.0800 
 41 H       -5.2620     2.7060    -1.5830 H     1 <1>   0.0800 
 42 H       -5.4230     5.5720     3.6020 H     1 <1>   0.0800 
 43 H       -6.5300     5.4630     2.2400 H     1 <1>   0.0800 
 44 H       -5.1650     6.5880     2.1910 H     1 <1>   0.0800 
@<TRIPOS>BOND
  1   1   2  1   
  2   2   3  ar  
  3   2   4  ar  
  4   3   5  1   
  5   3   6  ar  
  6   4   7  ar  
  7   4  24  1   
  8   5   8  2   
  9   5   9  2   
 10   5  10  am  
 11   6  11  1   
 12   6  12  ar  
 13   7  12  ar  
 14   7  25  1   
 15  10  13  1   
 16  10  14  1   
 17  12  26  1   
 18  13  15  1   
 19  13  27  1   
 20  13  28  1   
 21  14  16  1   
 22  14  29  1   
 23  14  30  1   
 24  15  17  1   
 25  15  18  1   
 26  15  19  1   
 27  16  18  1   
 28  16  31  1   
 29  16  32  1   
 30  17  20  1   
 31  17  21  1   
 32  17  33  1   
 33  18  34  1   
 34  18  35  1   
 35  19  22  1   
 36  19  36  1   
 37  19  37  1   
 38  20  23  1   
 39  21  22  1   
 40  21  38  1   
 41  21  39  1   
 42  22  40  1   
 43  22  41  1   
 44  23  42  1   
 45  23  43  1   
 46  23  44  1   
@<TRIPOS>SUBSTRUCTURE
  1 ****  13 GROUP 4 **** **** 0

# MOE 2024.06 (io_trps.svl 2023.06)
