@<TRIPOS>MOLECULE
NONAME
44 45 1 0 0 
SMALL
USER_CHARGES


@<TRIPOS>ATOM
  1 O       -0.1560     1.6200     1.8550 O.2   1 <1>  -0.5700 
  2 C       -0.2110     2.6310     1.2020 C.2   1 <1>   0.5690 
  3 N       -1.0330     3.6410     1.5560 N.am  1 <1>  -0.7300 
  4 C        0.6240     2.7770    -0.0670 C.3   1 <1>   0.1810 
  5 C       -1.2350     4.8670     0.7430 C.3   1 <1>   0.3640 
  6 O        0.8510     4.1290    -0.3950 O.3   1 <1>  -0.5600 
  7 C       -2.7140     4.9370     0.3630 C.ar  1 <1>  -0.1440 
  8 C       -0.3280     4.9260    -0.5210 C.3   1 <1>   0.2610 
  9 C       -3.3930     3.8210    -0.1140 C.ar  1 <1>  -0.1500 
 10 C       -3.4040     6.1350     0.4880 C.ar  1 <1>  -0.1500 
 11 C        0.0610     6.3810    -0.8170 C.2   1 <1>   0.5690 
 12 C       -4.7320     3.9020    -0.4550 C.ar  1 <1>  -0.1500 
 13 C       -4.7430     6.2180     0.1480 C.ar  1 <1>  -0.1500 
 14 O       -0.7790     7.2490    -0.7910 O.2   1 <1>  -0.5700 
 15 N        1.3640     6.6660    -1.0810 N.am  1 <1>  -0.7300 
 16 C       -5.4080     5.1010    -0.3240 C.ar  1 <1>  -0.1500 
 17 C        1.9430     8.0210    -1.3220 C.3   1 <1>   0.1400 
 18 C        2.7840     8.5530    -0.1370 C.3   1 <1>   0.2800 
 19 O        3.3170     9.7670    -0.5920 O.3   1 <1>  -0.5600 
 20 C        3.9370     7.5910     0.1930 C.3   1 <1>  -0.2400 
 21 C        1.8910     8.7950     1.0910 C.3   1 <1>  -0.2400 
 22 C        4.0610    10.5810     0.2680 C.3   1 <1>   0.0400 
 23 H       -1.6430     3.5160     2.3650 H     1 <1>   0.3700 
 24 H        0.1220     2.3030    -0.8910 H     1 <1>   0.0800 
 25 H        1.5800     2.3080     0.0790 H     1 <1>   0.0800 
 26 H       -0.9990     5.7110     1.3690 H     1 <1>   0.0800 
 27 H       -0.8760     4.5550    -1.3680 H     1 <1>   0.0800 
 28 H       -2.8870     2.8770    -0.2210 H     1 <1>   0.1500 
 29 H       -2.9010     7.0190     0.8450 H     1 <1>   0.1500 
 30 H       -5.2480     3.0320    -0.8210 H     1 <1>   0.1500 
 31 H       -5.2640     7.1540     0.2470 H     1 <1>   0.1500 
 32 H        2.0260     5.8850    -1.0390 H     1 <1>   0.3700 
 33 H       -6.4490     5.1660    -0.5890 H     1 <1>   0.1500 
 34 H        2.5650     7.9740    -2.1980 H     1 <1>   0.0800 
 35 H        1.1450     8.7170    -1.5190 H     1 <1>   0.0800 
 36 H        3.5530     6.6210     0.4480 H     1 <1>   0.0800 
 37 H        4.5040     7.9370     1.0370 H     1 <1>   0.0800 
 38 H        4.5880     7.4890    -0.6560 H     1 <1>   0.0800 
 39 H        1.3910     7.8850     1.3670 H     1 <1>   0.0800 
 40 H        1.1410     9.5310     0.8610 H     1 <1>   0.0800 
 41 H        2.4660     9.1150     1.9390 H     1 <1>   0.0800 
 42 H        4.4080    11.4260    -0.3010 H     1 <1>   0.0800 
 43 H        4.9090    10.0430     0.6480 H     1 <1>   0.0800 
 44 H        3.4360    10.9330     1.0690 H     1 <1>   0.0800 
@<TRIPOS>BOND
  1   1   2  2   
  2   2   3  am  
  3   2   4  1   
  4   3   5  1   
  5   3  23  1   
  6   4   6  1   
  7   4  24  1   
  8   4  25  1   
  9   5   7  1   
 10   5   8  1   
 11   5  26  1   
 12   6   8  1   
 13   7   9  ar  
 14   7  10  ar  
 15   8  11  1   
 16   8  27  1   
 17   9  12  ar  
 18   9  28  1   
 19  10  13  ar  
 20  10  29  1   
 21  11  14  2   
 22  11  15  am  
 23  12  16  ar  
 24  12  30  1   
 25  13  16  ar  
 26  13  31  1   
 27  15  17  1   
 28  15  32  1   
 29  16  33  1   
 30  17  18  1   
 31  17  34  1   
 32  17  35  1   
 33  18  19  1   
 34  18  20  1   
 35  18  21  1   
 36  19  22  1   
 37  20  36  1   
 38  20  37  1   
 39  20  38  1   
 40  21  39  1   
 41  21  40  1   
 42  21  41  1   
 43  22  42  1   
 44  22  43  1   
 45  22  44  1   
@<TRIPOS>SUBSTRUCTURE
  1 ****   8 GROUP 4 **** **** 0

# MOE 2024.06 (io_trps.svl 2023.06)
