@<TRIPOS>MOLECULE
NONAME
43 44 1 0 0 
SMALL
USER_CHARGES


@<TRIPOS>ATOM
  1 S        3.8890    -0.8090    -1.6570 S.3   1 <1>  -0.0800 
  2 C        2.6270    -0.4190    -0.4890 C.2   1 <1>  -0.1400 
  3 C        2.7160    -0.9440    -2.9520 C.2   1 <1>  -0.1100 
  4 C        1.4220    -0.4130    -1.0930 C.2   1 <1>  -0.1500 
  5 C        3.0200    -0.1330     0.9570 C.3   1 <1>   0.4690 
  6 C        1.4740    -0.7080    -2.4920 C.2   1 <1>  -0.1500 
  7 N        3.6930     1.1810     1.0790 N.pl3 1 <1>  -0.8690 
  8 C        3.9350    -1.2060     1.5610 C.3   1 <1>  -0.1600 
  9 C        3.8460     2.2490     0.2880 C.ar  1 <1>   0.7710 
 10 C        3.3000    -2.6070     1.5570 C.3   1 <1>  -0.1600 
 11 N        4.4540     3.2730     0.8430 N.ar  1 <1>  -0.6200 
 12 N        3.4050     2.2700    -0.9800 N.ar  1 <1>  -0.1790 
 13 C        4.2280    -3.6300     2.2150 C.3   1 <1>  -0.2400 
 14 C        4.6460     4.3540     0.1090 C.ar  1 <1>   0.4100 
 15 C        3.5480     3.3670    -1.7560 C.ar  1 <1>   0.2110 
 16 N        5.3230     5.3680     0.7050 N.pl3 1 <1>  -0.8380 
 17 C        4.1690     4.4500    -1.2250 C.ar  1 <1>  -0.1430 
 18 C        5.0810     5.7310     2.1310 C.3   1 <1>   0.1290 
 19 C        6.5870     5.9260     0.1490 C.3   1 <1>   0.1290 
 20 C        4.3070     5.7340    -2.0420 C.3   1 <1>  -0.0970 
 21 H        3.0830    -1.1990    -3.9320 H     1 <1>   0.1500 
 22 H        0.4750    -0.2170    -0.6140 H     1 <1>   0.1500 
 23 H        2.1190    -0.0970     1.5470 H     1 <1>   0.0800 
 24 H        0.5740    -0.7410    -3.0850 H     1 <1>   0.1500 
 25 H        4.1080     1.3180     2.0050 H     1 <1>   0.4000 
 26 H        4.1550    -0.9370     2.5790 H     1 <1>   0.0800 
 27 H        4.8640    -1.2380     1.0190 H     1 <1>   0.0800 
 28 H        3.1000    -2.9230     0.5460 H     1 <1>   0.0800 
 29 H        2.3640    -2.5880     2.0910 H     1 <1>   0.0800 
 30 H        2.9870     1.4010    -1.3160 H     1 <1>   0.4570 
 31 H        5.1640    -3.6880     1.6860 H     1 <1>   0.0800 
 32 H        3.7710    -4.6040     2.2000 H     1 <1>   0.0800 
 33 H        4.4250    -3.3640     3.2390 H     1 <1>   0.0800 
 34 H        3.1600     3.3460    -2.7620 H     1 <1>   0.1500 
 35 H        4.1190     5.3690     2.4510 H     1 <1>   0.0800 
 36 H        5.1010     6.8000     2.2470 H     1 <1>   0.0800 
 37 H        5.8410     5.2910     2.7540 H     1 <1>   0.0800 
 38 H        6.8860     5.3810    -0.7290 H     1 <1>   0.0800 
 39 H        7.3750     5.8470     0.8780 H     1 <1>   0.0800 
 40 H        6.4480     6.9630    -0.1050 H     1 <1>   0.0800 
 41 H        4.0530     6.5860    -1.4350 H     1 <1>   0.0800 
 42 H        3.6520     5.7270    -2.8950 H     1 <1>   0.0800 
 43 H        5.3160     5.8500    -2.3940 H     1 <1>   0.0800 
@<TRIPOS>BOND
  1   1   2  1   
  2   1   3  1   
  3   2   4  2   
  4   2   5  1   
  5   3   6  2   
  6   3  21  1   
  7   4   6  1   
  8   4  22  1   
  9   5   7  1   
 10   5   8  1   
 11   5  23  1   
 12   6  24  1   
 13   7   9  1   
 14   7  25  1   
 15   8  10  1   
 16   8  26  1   
 17   8  27  1   
 18   9  11  ar  
 19   9  12  ar  
 20  10  13  1   
 21  10  28  1   
 22  10  29  1   
 23  11  14  ar  
 24  12  15  ar  
 25  12  30  1   
 26  13  31  1   
 27  13  32  1   
 28  13  33  1   
 29  14  16  1   
 30  14  17  ar  
 31  15  17  ar  
 32  15  34  1   
 33  16  18  1   
 34  16  19  1   
 35  17  20  1   
 36  18  35  1   
 37  18  36  1   
 38  18  37  1   
 39  19  38  1   
 40  19  39  1   
 41  19  40  1   
 42  20  41  1   
 43  20  42  1   
 44  20  43  1   
@<TRIPOS>SUBSTRUCTURE
  1 ****   9 GROUP 4 **** **** 0

# MOE 2024.06 (io_trps.svl 2023.06)
