@<TRIPOS>MOLECULE
NONAME
45 47 1 0 0 
SMALL
USER_CHARGES


@<TRIPOS>ATOM
  1 S        0.5420    -0.2520     0.3920 S.3   1 <1>   0.1810 
  2 N        1.0380     0.9620    -0.6800 N.2   1 <1>  -0.2210 
  3 C       -1.0500     0.4040     0.5300 C.2   1 <1>  -0.1400 
  4 N        0.1000     1.7700    -0.9060 N.2   1 <1>  -0.2270 
  5 C       -1.0850     1.4900    -0.2510 C.2   1 <1>   0.0460 
  6 C       -2.0220    -0.3140     1.4380 C.3   1 <1>   0.3200 
  7 C       -2.2510     2.4430    -0.5050 C.3   1 <1>   0.1010 
  8 N       -2.4910    -1.5320     0.7550 N.am  1 <1>  -0.7300 
  9 C       -2.5550     3.2840     0.7400 C.3   1 <1>  -0.2400 
 10 C       -3.5060     1.7020    -0.9840 C.3   1 <1>  -0.2400 
 11 C       -3.7860    -1.8940     0.5750 C.2   1 <1>   0.5690 
 12 O       -4.6810    -1.2550     1.0750 O.2   1 <1>  -0.5700 
 13 C       -4.0960    -3.1310    -0.2810 C.3   1 <1>   0.2610 
 14 O       -2.8880    -3.8360    -0.5580 O.3   1 <1>  -0.5600 
 15 C       -5.1630    -4.0230     0.4190 C.3   1 <1>   0.3640 
 16 C       -3.0450    -5.0030    -1.3320 C.3   1 <1>   0.1810 
 17 N       -5.0110    -5.4660     0.1030 N.am  1 <1>  -0.7300 
 18 C       -6.5780    -3.6050     0.0200 C.ar  1 <1>  -0.1440 
 19 C       -4.0700    -5.9620    -0.7270 C.2   1 <1>   0.5690 
 20 C       -7.1180    -3.9650    -1.2090 C.ar  1 <1>  -0.1500 
 21 C       -7.3470    -2.8470     0.8920 C.ar  1 <1>  -0.1500 
 22 O       -4.0510    -7.1310    -1.0130 O.2   1 <1>  -0.5700 
 23 C       -8.4000    -3.5760    -1.5570 C.ar  1 <1>  -0.1500 
 24 C       -8.6290    -2.4570     0.5450 C.ar  1 <1>  -0.1500 
 25 C       -9.1570    -2.8220    -0.6800 C.ar  1 <1>  -0.1500 
 26 H       -2.8570     0.3240     1.6680 H     1 <1>   0.0800 
 27 H       -1.5390    -0.5800     2.3620 H     1 <1>   0.0800 
 28 H       -1.9590     3.1170    -1.2940 H     1 <1>   0.0800 
 29 H       -1.7740    -2.1130     0.3090 H     1 <1>   0.3700 
 30 H       -2.8860     2.6640     1.5520 H     1 <1>   0.0800 
 31 H       -3.3220     4.0050     0.5220 H     1 <1>   0.0800 
 32 H       -1.6690     3.8120     1.0480 H     1 <1>   0.0800 
 33 H       -3.9150     1.0820    -0.2090 H     1 <1>   0.0800 
 34 H       -3.2650     1.0830    -1.8300 H     1 <1>   0.0800 
 35 H       -4.2590     2.4080    -1.2840 H     1 <1>   0.0800 
 36 H       -4.4870    -2.7860    -1.2200 H     1 <1>   0.0800 
 37 H       -5.0540    -3.9100     1.4840 H     1 <1>   0.0800 
 38 H       -3.3530    -4.7210    -2.3220 H     1 <1>   0.0800 
 39 H       -2.0900    -5.4930    -1.3890 H     1 <1>   0.0800 
 40 H       -5.7360    -6.0950     0.4530 H     1 <1>   0.3700 
 41 H       -6.5480    -4.5550    -1.9060 H     1 <1>   0.1500 
 42 H       -6.9510    -2.5450     1.8470 H     1 <1>   0.1500 
 43 H       -8.8100    -3.8620    -2.5100 H     1 <1>   0.1500 
 44 H       -9.2140    -1.8660     1.2290 H     1 <1>   0.1500 
 45 H      -10.1540    -2.5180    -0.9490 H     1 <1>   0.1500 
@<TRIPOS>BOND
  1   1   2  1   
  2   1   3  1   
  3   2   4  2   
  4   3   5  2   
  5   3   6  1   
  6   4   5  1   
  7   5   7  1   
  8   6   8  1   
  9   6  26  1   
 10   6  27  1   
 11   7   9  1   
 12   7  10  1   
 13   7  28  1   
 14   8  11  am  
 15   8  29  1   
 16   9  30  1   
 17   9  31  1   
 18   9  32  1   
 19  10  33  1   
 20  10  34  1   
 21  10  35  1   
 22  11  12  2   
 23  11  13  1   
 24  13  14  1   
 25  13  15  1   
 26  13  36  1   
 27  14  16  1   
 28  15  17  1   
 29  15  18  1   
 30  15  37  1   
 31  16  19  1   
 32  16  38  1   
 33  16  39  1   
 34  17  19  am  
 35  17  40  1   
 36  18  20  ar  
 37  18  21  ar  
 38  19  22  2   
 39  20  23  ar  
 40  20  41  1   
 41  21  24  ar  
 42  21  42  1   
 43  23  25  ar  
 44  23  43  1   
 45  24  25  ar  
 46  24  44  1   
 47  25  45  1   
@<TRIPOS>SUBSTRUCTURE
  1 ****  11 GROUP 4 **** **** 0

# MOE 2024.06 (io_trps.svl 2023.06)
