@<TRIPOS>MOLECULE
NONAME
47 49 1 0 0 
SMALL
USER_CHARGES


@<TRIPOS>ATOM
  1 O       -1.7810     1.2320    -1.8000 O.2   1 <1>  -0.5700 
  2 C       -1.2010     2.1210    -1.1970 C.2   1 <1>   0.5440 
  3 N       -0.3110     1.7250    -0.2110 N.am  1 <1>  -0.6600 
  4 C       -1.4570     3.5160    -1.5720 C.ar  1 <1>   0.3960 
  5 C       -0.0850     0.3050     0.1390 C.3   1 <1>   0.1400 
  6 C        0.5680     2.6080     0.5910 C.3   1 <1>   0.1400 
  7 N       -1.2250     4.5200    -0.7120 N.ar  1 <1>  -0.6200 
  8 C       -1.9420     3.7730    -2.8600 C.ar  1 <1>   0.1600 
  9 C        0.8370     0.3380     1.3530 C.3   1 <1>  -0.1600 
 10 C        1.5740     1.6700     1.2450 C.3   1 <1>  -0.1600 
 11 C       -1.4540     5.7250    -1.2010 C.ar  1 <1>   0.4100 
 12 N       -2.1990     4.9720    -3.3690 N.ar  1 <1>  -0.6200 
 13 N       -1.1470     6.7950    -0.3780 N.pl3 1 <1>  -0.8380 
 14 C       -1.9450     5.9280    -2.4990 C.ar  1 <1>   0.1600 
 15 C        0.1270     7.5240    -0.6860 C.3   1 <1>   0.3530 
 16 C       -1.3880     6.6490     1.0870 C.3   1 <1>   0.1290 
 17 C        1.3800     6.7450    -0.2770 C.ar  1 <1>   0.1670 
 18 N        1.9400     7.0600     0.8850 N.ar  1 <1>  -0.6200 
 19 C        1.8750     5.7670    -1.1280 C.ar  1 <1>  -0.1500 
 20 C        3.0220     6.3760     1.2120 C.ar  1 <1>   0.1670 
 21 C        3.0020     5.0550    -0.7810 C.ar  1 <1>  -0.1430 
 22 C        3.5820     5.3810     0.4260 C.ar  1 <1>  -0.1500 
 23 C        3.6530     6.7400     2.5390 C.3   1 <1>  -0.0970 
 24 C        3.5620     3.9710    -1.6830 C.3   1 <1>  -0.0970 
 25 H        0.3930    -0.1880    -0.6900 H     1 <1>   0.0800 
 26 H       -1.0180    -0.1860     0.3600 H     1 <1>   0.0800 
 27 H       -0.0230     3.1090     1.3390 H     1 <1>   0.0800 
 28 H        1.0580     3.3380    -0.0280 H     1 <1>   0.0800 
 29 H       -2.1230     2.9320    -3.5070 H     1 <1>   0.1500 
 30 H        1.5070    -0.5040     1.3680 H     1 <1>   0.0800 
 31 H        0.2370     0.3240     2.2460 H     1 <1>   0.0800 
 32 H        1.9000     2.0410     2.2000 H     1 <1>   0.0800 
 33 H        2.4260     1.5670     0.5970 H     1 <1>   0.0800 
 34 H       -2.1230     6.9420    -2.8030 H     1 <1>   0.1500 
 35 H        0.1230     8.4720    -0.1770 H     1 <1>   0.0800 
 36 H        0.1730     7.7260    -1.7410 H     1 <1>   0.0800 
 37 H       -2.3280     6.1530     1.2560 H     1 <1>   0.0800 
 38 H       -1.4150     7.6170     1.5560 H     1 <1>   0.0800 
 39 H       -0.6030     6.0630     1.5350 H     1 <1>   0.0800 
 40 H        1.3710     5.5600    -2.0540 H     1 <1>   0.1500 
 41 H        4.4650     4.8660     0.7570 H     1 <1>   0.1500 
 42 H        3.9340     7.7770     2.5290 H     1 <1>   0.0800 
 43 H        4.5250     6.1440     2.7330 H     1 <1>   0.0800 
 44 H        2.9410     6.5820     3.3290 H     1 <1>   0.0800 
 45 H        2.7620     3.3740    -2.0860 H     1 <1>   0.0800 
 46 H        4.2240     3.3250    -1.1350 H     1 <1>   0.0800 
 47 H        4.1070     4.4170    -2.4960 H     1 <1>   0.0800 
@<TRIPOS>BOND
  1   1   2  2   
  2   2   3  am  
  3   2   4  1   
  4   3   5  1   
  5   3   6  1   
  6   4   7  ar  
  7   4   8  ar  
  8   5   9  1   
  9   5  25  1   
 10   5  26  1   
 11   6  10  1   
 12   6  27  1   
 13   6  28  1   
 14   7  11  ar  
 15   8  12  ar  
 16   8  29  1   
 17   9  10  1   
 18   9  30  1   
 19   9  31  1   
 20  10  32  1   
 21  10  33  1   
 22  11  13  1   
 23  11  14  ar  
 24  12  14  ar  
 25  13  15  1   
 26  13  16  1   
 27  14  34  1   
 28  15  17  1   
 29  15  35  1   
 30  15  36  1   
 31  16  37  1   
 32  16  38  1   
 33  16  39  1   
 34  17  18  ar  
 35  17  19  ar  
 36  18  20  ar  
 37  19  21  ar  
 38  19  40  1   
 39  20  22  ar  
 40  20  23  1   
 41  21  22  ar  
 42  21  24  1   
 43  22  41  1   
 44  23  42  1   
 45  23  43  1   
 46  23  44  1   
 47  24  45  1   
 48  24  46  1   
 49  24  47  1   
@<TRIPOS>SUBSTRUCTURE
  1 ****   7 GROUP 4 **** **** 0

# MOE 2024.06 (io_trps.svl 2023.06)
