@<TRIPOS>MOLECULE
NONAME
41 43 1 0 0 
SMALL
USER_CHARGES


@<TRIPOS>ATOM
  1 O        2.0300     1.7020     1.0740 O.3   1 <1>  -0.0190 
  2 N        2.7580     0.6390     0.9220 N.2   1 <1>  -0.4100 
  3 C        0.8990     1.6180     0.4260 C.2   1 <1>  -0.0400 
  4 C        2.0760    -0.1570     0.1780 C.2   1 <1>   0.1080 
  5 C        0.8610     0.4210    -0.1780 C.2   1 <1>  -0.1500 
  6 C       -0.0800     2.7760     0.4610 C.3   1 <1>   0.0200 
  7 C        2.5410    -1.5330    -0.2470 C.3   1 <1>  -0.0590 
  8 C        0.5200     4.0190    -0.2280 C.3   1 <1>  -0.0800 
  9 C       -0.4020     5.2390    -0.3370 C.3   1 <1>   0.2000 
 10 C        1.7890     4.5470     0.4630 C.3   1 <1>   0.3430 
 11 O       -1.0930     5.4110     0.8600 O.3   1 <1>  -0.6800 
 12 C        0.5950     6.3890    -0.4590 C.3   1 <1>   0.3430 
 13 N        1.6540     6.0290     0.5240 N.4   1 <1>  -0.9590 
 14 C        2.9260     6.7850     0.3640 C.3   1 <1>   0.5230 
 15 C        2.6950     8.2690     0.5840 C.2   1 <1>  -0.0400 
 16 O        3.5640     9.0980     0.0420 O.3   1 <1>  -0.2800 
 17 C        1.7400     8.9590     1.2500 C.2   1 <1>  -0.1500 
 18 C        3.1920    10.3260     0.3410 C.2   1 <1>  -0.0400 
 19 C        2.0690    10.3100     1.0870 C.2   1 <1>  -0.1500 
 20 C        4.0270    11.4830    -0.1630 C.3   1 <1>  -0.0600 
 21 H        0.1020    -0.0240    -0.7950 H     1 <1>   0.1500 
 22 H       -0.9830     2.4820    -0.0450 H     1 <1>   0.0800 
 23 H       -0.3250     2.9860     1.4880 H     1 <1>   0.0800 
 24 H        1.8490    -2.2760     0.1030 H     1 <1>   0.0800 
 25 H        3.5110    -1.7390     0.1700 H     1 <1>   0.0800 
 26 H        2.6050    -1.5840    -1.3180 H     1 <1>   0.0800 
 27 H        0.8030     3.7320    -1.2270 H     1 <1>   0.0800 
 28 H       -1.1030     5.1990    -1.1540 H     1 <1>   0.0800 
 29 H        2.6600     4.2550    -0.1040 H     1 <1>   0.0800 
 30 H        1.8730     4.1430     1.4600 H     1 <1>   0.0800 
 31 H       -1.9240     4.8900     0.8740 H     1 <1>   0.4000 
 32 H        0.1340     7.3370    -0.2330 H     1 <1>   0.0800 
 33 H        1.0060     6.4140    -1.4550 H     1 <1>   0.0800 
 34 H        1.2520     6.2550     1.4450 H     1 <1>   0.4500 
 35 H        3.6630     6.4370     1.0680 H     1 <1>   0.0800 
 36 H        3.3120     6.6380    -0.6310 H     1 <1>   0.0800 
 37 H        0.8890     8.6090     1.8080 H     1 <1>   0.1500 
 38 H        1.5190    11.1430     1.4910 H     1 <1>   0.1500 
 39 H        3.6030    12.4160     0.1600 H     1 <1>   0.0800 
 40 H        4.0620    11.4670    -1.2370 H     1 <1>   0.0800 
 41 H        5.0280    11.4030     0.2200 H     1 <1>   0.0800 
@<TRIPOS>BOND
  1   1   2  1   
  2   1   3  1   
  3   2   4  2   
  4   3   5  2   
  5   3   6  1   
  6   4   5  1   
  7   4   7  1   
  8   5  21  1   
  9   6   8  1   
 10   6  22  1   
 11   6  23  1   
 12   7  24  1   
 13   7  25  1   
 14   7  26  1   
 15   8   9  1   
 16   8  10  1   
 17   8  27  1   
 18   9  11  1   
 19   9  12  1   
 20   9  28  1   
 21  10  13  1   
 22  10  29  1   
 23  10  30  1   
 24  11  31  1   
 25  12  13  1   
 26  12  32  1   
 27  12  33  1   
 28  13  14  1   
 29  13  34  1   
 30  14  15  1   
 31  14  35  1   
 32  14  36  1   
 33  15  16  1   
 34  15  17  2   
 35  16  18  1   
 36  17  19  1   
 37  17  37  1   
 38  18  19  2   
 39  18  20  1   
 40  19  38  1   
 41  20  39  1   
 42  20  40  1   
 43  20  41  1   
@<TRIPOS>SUBSTRUCTURE
  1 ****  10 GROUP 4 **** **** 0

# MOE 2024.06 (io_trps.svl 2023.06)
