@<TRIPOS>MOLECULE
NONAME
38 40 1 0 0 
SMALL
USER_CHARGES


@<TRIPOS>ATOM
  1 S        0.7190    -2.1830     1.4770 S.3   1 <1>  -0.0800 
  2 C        0.1020    -2.1240    -0.1680 C.2   1 <1>  -0.1400 
  3 C        2.3630    -1.9420     0.9160 C.2   1 <1>  -0.1100 
  4 C        1.1080    -1.9320    -1.0430 C.2   1 <1>  -0.1500 
  5 C       -1.3910    -2.2930    -0.3440 C.3   1 <1>   0.5230 
  6 C        2.3950    -1.8300    -0.4240 C.2   1 <1>  -0.1500 
  7 N       -1.7810    -3.6150     0.2190 N.4   1 <1>  -0.9590 
  8 C       -1.1590    -4.7390    -0.5440 C.3   1 <1>   0.3430 
  9 C       -3.2600    -3.7420     0.3500 C.3   1 <1>   0.3430 
 10 C       -1.4820    -6.0630     0.1390 C.3   1 <1>  -0.1600 
 11 C       -3.6050    -5.0590     1.0380 C.3   1 <1>  -0.1600 
 12 C       -2.9910    -6.2370     0.2890 C.3   1 <1>   0.2890 
 13 N       -3.2530    -7.4580     1.0500 N.pl3 1 <1>  -0.8690 
 14 C       -3.4880    -8.6150     0.3590 C.ar  1 <1>   0.4100 
 15 N       -2.4980    -9.4810     0.4410 N.ar  1 <1>  -0.6200 
 16 C       -4.6610    -8.8510    -0.3780 C.ar  1 <1>   0.1600 
 17 C       -2.7440   -10.5840    -0.2510 C.ar  1 <1>   0.1600 
 18 N       -4.8990    -9.9410    -1.0820 N.ar  1 <1>  -0.6200 
 19 C       -3.8990   -10.8070    -0.9900 C.ar  1 <1>   0.1600 
 20 H        3.1430    -1.9080     1.6570 H     1 <1>   0.1500 
 21 H        1.0210    -1.8520    -2.1150 H     1 <1>   0.1500 
 22 H       -1.6490    -2.2370    -1.3890 H     1 <1>   0.0800 
 23 H       -1.8970    -1.5000     0.1820 H     1 <1>   0.0800 
 24 H        3.2840    -1.6730    -1.0140 H     1 <1>   0.1500 
 25 H       -1.3680    -3.6340     1.1630 H     1 <1>   0.4500 
 26 H       -0.0880    -4.6130    -0.5860 H     1 <1>   0.0800 
 27 H       -1.5370    -4.7520    -1.5540 H     1 <1>   0.0800 
 28 H       -3.7170    -3.7170    -0.6270 H     1 <1>   0.0800 
 29 H       -3.6540    -2.9230     0.9300 H     1 <1>   0.0800 
 30 H       -1.0010    -6.0940     1.1010 H     1 <1>   0.0800 
 31 H       -1.0890    -6.8690    -0.4560 H     1 <1>   0.0800 
 32 H       -4.6750    -5.1750     1.0600 H     1 <1>   0.0800 
 33 H       -3.2520    -5.0380     2.0530 H     1 <1>   0.0800 
 34 H       -3.4420    -6.3170    -0.6890 H     1 <1>   0.0800 
 35 H       -2.5160    -7.6450     1.7370 H     1 <1>   0.4000 
 36 H       -5.4190    -8.0920    -0.3650 H     1 <1>   0.1500 
 37 H       -1.9900   -11.3510    -0.2340 H     1 <1>   0.1500 
 38 H       -4.0050   -11.7360    -1.5230 H     1 <1>   0.1500 
@<TRIPOS>BOND
  1   1   2  1   
  2   1   3  1   
  3   2   4  2   
  4   2   5  1   
  5   3   6  2   
  6   3  20  1   
  7   4   6  1   
  8   4  21  1   
  9   5   7  1   
 10   5  22  1   
 11   5  23  1   
 12   6  24  1   
 13   7   8  1   
 14   7   9  1   
 15   7  25  1   
 16   8  10  1   
 17   8  26  1   
 18   8  27  1   
 19   9  11  1   
 20   9  28  1   
 21   9  29  1   
 22  10  12  1   
 23  10  30  1   
 24  10  31  1   
 25  11  12  1   
 26  11  32  1   
 27  11  33  1   
 28  12  13  1   
 29  12  34  1   
 30  13  14  1   
 31  13  35  1   
 32  14  15  ar  
 33  14  16  ar  
 34  15  17  ar  
 35  16  18  ar  
 36  16  36  1   
 37  17  19  ar  
 38  17  37  1   
 39  18  19  ar  
 40  19  38  1   
@<TRIPOS>SUBSTRUCTURE
  1 ****  10 GROUP 4 **** **** 0

# MOE 2024.06 (io_trps.svl 2023.06)
