@<TRIPOS>MOLECULE
NONAME
52 54 1 0 0 
SMALL
USER_CHARGES


@<TRIPOS>ATOM
  1 O        0.8880     3.0560    -1.2280 O.2   1 <1>  -0.5700 
  2 C        1.9900     2.9100    -0.7120 C.2   1 <1>   0.4690 
  3 C        2.9480     1.9620    -1.2090 C.ar  1 <1>   0.0860 
  4 C        2.3580     3.7050     0.3950 C.2   1 <1>  -0.1360 
  5 C        4.1870     1.8260    -0.5510 C.ar  1 <1>   0.1000 
  6 C        2.6850     1.1860    -2.3440 C.ar  1 <1>  -0.1500 
  7 C        3.5440     3.5540     1.0320 C.2   1 <1>  -0.0380 
  8 N        4.4460     2.5860     0.6120 N.pl3 1 <1>  -0.5690 
  9 C        5.1280     0.9410    -1.1000 C.ar  1 <1>  -0.1500 
 10 C        3.6190     0.3110    -2.8470 C.ar  1 <1>  -0.1500 
 11 C        3.8810     4.4580     2.2120 C.3   1 <1>  -0.1020 
 12 C        5.6940     2.3060     1.4300 C.3   1 <1>   0.2700 
 13 C        4.8500     0.1940    -2.2230 C.ar  1 <1>  -0.1500 
 14 C        6.9130     3.1070     0.9650 C.2   1 <1>   0.5690 
 15 O        7.8900     3.1480     1.6730 O.2   1 <1>  -0.5700 
 16 N        6.8630     3.7600    -0.2280 N.am  1 <1>  -0.7300 
 17 C        7.9010     4.6570    -0.7770 C.3   1 <1>   0.1400 
 18 C        7.2960     6.0390    -1.0470 C.3   1 <1>  -0.0800 
 19 C        8.3410     7.0500    -1.5510 C.3   1 <1>   0.1400 
 20 C        6.6560     6.6870     0.1990 C.3   1 <1>  -0.0990 
 21 N        7.9600     8.3080    -0.8910 N.am  1 <1>  -0.6600 
 22 C        7.0280     8.1350     0.0720 C.2   1 <1>   0.5690 
 23 C        8.5590     9.6070    -1.2900 C.3   1 <1>   0.1400 
 24 O        6.5510     9.0030     0.7610 O.2   1 <1>  -0.5700 
 25 C        9.4960    10.1220    -0.1970 C.3   1 <1>   0.1200 
 26 O       10.1920    11.2230    -0.6920 O.3   1 <1>  -0.5600 
 27 C       11.0130    11.8340     0.2490 C.3   1 <1>   0.0400 
 28 H        1.6350     4.4370     0.7000 H     1 <1>   0.1500 
 29 H        1.7290     1.2850    -2.8310 H     1 <1>   0.1500 
 30 H        6.1000     0.8240    -0.6630 H     1 <1>   0.1500 
 31 H        3.4010    -0.2780    -3.7220 H     1 <1>   0.1500 
 32 H        4.8370     4.9270     2.0690 H     1 <1>   0.0800 
 33 H        3.8930     3.8920     3.1260 H     1 <1>   0.0800 
 34 H        3.1460     5.2350     2.3170 H     1 <1>   0.0800 
 35 H        5.9290     1.2600     1.3960 H     1 <1>   0.0800 
 36 H        5.5210     2.5310     2.4640 H     1 <1>   0.0800 
 37 H        5.5850    -0.4840    -2.6230 H     1 <1>   0.1500 
 38 H        5.9760     3.7030    -0.7430 H     1 <1>   0.3700 
 39 H        8.2860     4.2350    -1.6890 H     1 <1>   0.0800 
 40 H        8.7140     4.7420    -0.0740 H     1 <1>   0.0800 
 41 H        6.5450     5.9460    -1.8130 H     1 <1>   0.0800 
 42 H        8.3010     7.1520    -2.6220 H     1 <1>   0.0800 
 43 H        9.3370     6.7790    -1.2430 H     1 <1>   0.0800 
 44 H        7.0790     6.3050     1.1100 H     1 <1>   0.0800 
 45 H        5.5890     6.5670     0.2080 H     1 <1>   0.0800 
 46 H        7.7720    10.3250    -1.4440 H     1 <1>   0.0800 
 47 H        9.1080     9.4850    -2.2070 H     1 <1>   0.0800 
 48 H       10.2090     9.3630     0.0730 H     1 <1>   0.0800 
 49 H        8.9240    10.4250     0.6640 H     1 <1>   0.0800 
 50 H       11.5110    12.6600    -0.2270 H     1 <1>   0.0800 
 51 H       11.7410    11.1240     0.6010 H     1 <1>   0.0800 
 52 H       10.4100    12.1950     1.0640 H     1 <1>   0.0800 
@<TRIPOS>BOND
  1   1   2  2   
  2   2   3  1   
  3   2   4  1   
  4   3   5  ar  
  5   3   6  ar  
  6   4   7  2   
  7   4  28  1   
  8   5   8  1   
  9   5   9  ar  
 10   6  10  ar  
 11   6  29  1   
 12   7   8  1   
 13   7  11  1   
 14   8  12  1   
 15   9  13  ar  
 16   9  30  1   
 17  10  13  ar  
 18  10  31  1   
 19  11  32  1   
 20  11  33  1   
 21  11  34  1   
 22  12  14  1   
 23  12  35  1   
 24  12  36  1   
 25  13  37  1   
 26  14  15  2   
 27  14  16  am  
 28  16  17  1   
 29  16  38  1   
 30  17  18  1   
 31  17  39  1   
 32  17  40  1   
 33  18  19  1   
 34  18  20  1   
 35  18  41  1   
 36  19  21  1   
 37  19  42  1   
 38  19  43  1   
 39  20  22  1   
 40  20  44  1   
 41  20  45  1   
 42  21  22  am  
 43  21  23  1   
 44  22  24  2   
 45  23  25  1   
 46  23  46  1   
 47  23  47  1   
 48  25  26  1   
 49  25  48  1   
 50  25  49  1   
 51  26  27  1   
 52  27  50  1   
 53  27  51  1   
 54  27  52  1   
@<TRIPOS>SUBSTRUCTURE
  1 ****  16 GROUP 4 **** **** 0

# MOE 2024.06 (io_trps.svl 2023.06)
