@<TRIPOS>MOLECULE
NONAME
54 57 1 0 0 
SMALL
USER_CHARGES


@<TRIPOS>ATOM
  1 O        2.0740    -0.1410     2.4480 O.3   1 <1>  -0.6800 
  2 C        1.5680    -0.3240     1.1630 C.3   1 <1>   0.2000 
  3 C        2.0720    -1.6470     0.5890 C.3   1 <1>  -0.0800 
  4 C        2.2340     0.6950     0.2360 C.3   1 <1>   0.3430 
  5 C        3.5080    -1.3410     0.1480 C.3   1 <1>   0.3430 
  6 C        1.9670    -2.8840     1.5060 C.3   1 <1>  -0.0170 
  7 N        3.5970     0.1390    -0.0650 N.4   1 <1>  -0.9590 
  8 C        2.7050    -4.0660     0.8850 C.ar  1 <1>  -0.1440 
  9 C        4.6270     0.7350     0.8360 C.3   1 <1>   0.4860 
 10 C        2.2110    -4.7670    -0.2410 C.ar  1 <1>   0.0000 
 11 C        3.9040    -4.4660     1.4020 C.ar  1 <1>  -0.1500 
 12 C        4.7310     2.2200     0.5670 C.ar  1 <1>  -0.1440 
 13 C        3.0310    -5.7810    -0.7950 C.ar  1 <1>   0.3100 
 14 C        0.9540    -4.5310    -0.8460 C.ar  1 <1>  -0.1500 
 15 C        4.6220    -5.5030     0.7950 C.ar  1 <1>   0.1600 
 16 C        5.3760     2.6870    -0.5660 C.ar  1 <1>   0.1600 
 17 C        4.1850     3.1380     1.4460 C.ar  1 <1>  -0.1500 
 18 N        4.2310    -6.1280    -0.2680 N.ar  1 <1>  -0.6200 
 19 C        2.5910    -6.4630    -1.9400 C.ar  1 <1>  -0.1500 
 20 C        0.5520    -5.2200    -1.9580 C.ar  1 <1>  -0.1500 
 21 N        5.4910     3.9550    -0.9010 N.ar  1 <1>  -0.6200 
 22 C        4.3110     4.4650     1.1120 C.ar  1 <1>  -0.1500 
 23 C        1.3820    -6.1930    -2.5180 C.ar  1 <1>  -0.1500 
 24 C        4.9590     4.8380    -0.0630 C.ar  1 <1>   0.4100 
 25 N        5.0650     6.1770    -0.3930 N.pl3 1 <1>  -0.8380 
 26 C        6.2330     6.6380    -1.1940 C.3   1 <1>   0.1290 
 27 C        3.8260     6.9700    -0.6020 C.3   1 <1>   0.1290 
 28 H        1.4840    -0.5440     3.1210 H     1 <1>   0.4000 
 29 H        0.4950    -0.2280     1.1850 H     1 <1>   0.0800 
 30 H        1.5130    -1.8440    -0.3080 H     1 <1>   0.0800 
 31 H        2.2730     1.6710     0.6910 H     1 <1>   0.0800 
 32 H        1.6660     0.7600    -0.6770 H     1 <1>   0.0800 
 33 H        3.7520    -1.8860    -0.7510 H     1 <1>   0.0800 
 34 H        4.1890    -1.6420     0.9290 H     1 <1>   0.0800 
 35 H        0.9360    -3.1420     1.6780 H     1 <1>   0.0800 
 36 H        2.4020    -2.6740     2.4670 H     1 <1>   0.0800 
 37 H        3.8470     0.3610    -1.0360 H     1 <1>   0.4500 
 38 H        4.3530     0.5720     1.8670 H     1 <1>   0.0800 
 39 H        5.5850     0.2720     0.6620 H     1 <1>   0.0800 
 40 H        4.3340    -4.0070     2.2730 H     1 <1>   0.1500 
 41 H        0.2860    -3.8060    -0.4240 H     1 <1>   0.1500 
 42 H        5.5620    -5.7950     1.2340 H     1 <1>   0.1500 
 43 H        5.8260     1.9850    -1.2480 H     1 <1>   0.1500 
 44 H        3.6860     2.8440     2.3550 H     1 <1>   0.1500 
 45 H        3.2410    -7.2160    -2.3470 H     1 <1>   0.1500 
 46 H       -0.4060    -5.0310    -2.4140 H     1 <1>   0.1500 
 47 H        3.9240     5.2370     1.7500 H     1 <1>   0.1500 
 48 H        1.0570    -6.7260    -3.3960 H     1 <1>   0.1500 
 49 H        6.4120     7.6830    -1.0150 H     1 <1>   0.0800 
 50 H        6.0430     6.4790    -2.2410 H     1 <1>   0.0800 
 51 H        7.1120     6.0830    -0.9120 H     1 <1>   0.0800 
 52 H        3.9240     7.9260    -0.1170 H     1 <1>   0.0800 
 53 H        2.9730     6.4580    -0.1940 H     1 <1>   0.0800 
 54 H        3.6630     7.1230    -1.6550 H     1 <1>   0.0800 
@<TRIPOS>BOND
  1   1   2  1   
  2   1  28  1   
  3   2   3  1   
  4   2   4  1   
  5   2  29  1   
  6   3   5  1   
  7   3   6  1   
  8   3  30  1   
  9   4   7  1   
 10   4  31  1   
 11   4  32  1   
 12   5   7  1   
 13   5  33  1   
 14   5  34  1   
 15   6   8  1   
 16   6  35  1   
 17   6  36  1   
 18   7   9  1   
 19   7  37  1   
 20   8  10  ar  
 21   8  11  ar  
 22   9  12  1   
 23   9  38  1   
 24   9  39  1   
 25  10  13  ar  
 26  10  14  ar  
 27  11  15  ar  
 28  11  40  1   
 29  12  16  ar  
 30  12  17  ar  
 31  13  18  ar  
 32  13  19  ar  
 33  14  20  ar  
 34  14  41  1   
 35  15  18  ar  
 36  15  42  1   
 37  16  21  ar  
 38  16  43  1   
 39  17  22  ar  
 40  17  44  1   
 41  19  23  ar  
 42  19  45  1   
 43  20  23  ar  
 44  20  46  1   
 45  21  24  ar  
 46  22  24  ar  
 47  22  47  1   
 48  23  48  1   
 49  24  25  1   
 50  25  26  1   
 51  25  27  1   
 52  26  49  1   
 53  26  50  1   
 54  26  51  1   
 55  27  52  1   
 56  27  53  1   
 57  27  54  1   
@<TRIPOS>SUBSTRUCTURE
  1 ****   5 GROUP 4 **** **** 0

# MOE 2024.06 (io_trps.svl 2023.06)
