@<TRIPOS>MOLECULE
NONAME
55 58 1 0 0 
SMALL
USER_CHARGES


@<TRIPOS>ATOM
  1 CL       0.0540    -0.6810     2.5270 Cl    1 <1>  -0.1770 
  2 C        1.4760    -1.2710     1.7050 C.ar  1 <1>   0.1770 
  3 C        1.9000    -2.5650     1.9250 C.ar  1 <1>  -0.1500 
  4 C        2.1580    -0.4380     0.8430 C.ar  1 <1>  -0.1500 
  5 C        3.0290    -3.0260     1.2700 C.ar  1 <1>  -0.1500 
  6 C        3.2860    -0.9080     0.1920 C.ar  1 <1>  -0.1500 
  7 C        3.7470    -2.2100     0.3970 C.ar  1 <1>  -0.1430 
  8 C        5.0030    -2.7890    -0.3060 C.3   1 <1>   0.2040 
  9 C        4.5500    -4.0280    -1.1260 C.2   1 <1>   0.5690 
 10 C        5.6880    -1.7590    -1.2490 C.3   1 <1>  -0.1600 
 11 C        6.0460    -3.1380     0.7970 C.3   1 <1>  -0.1600 
 12 O        4.0400    -3.8790    -2.2140 O.2   1 <1>  -0.5700 
 13 N        4.6850    -5.2840    -0.6150 N.am  1 <1>  -0.7300 
 14 C        7.0050    -2.2760    -1.8500 C.3   1 <1>  -0.1600 
 15 C        7.3940    -3.6380     0.2450 C.3   1 <1>  -0.1600 
 16 C        4.1880    -6.5180    -1.2580 C.3   1 <1>   0.2200 
 17 C        8.0010    -2.6350    -0.7420 C.3   1 <1>  -0.1600 
 18 C        2.8500    -6.8850    -0.6400 C.3   1 <1>  -0.0800 
 19 C        5.0570    -7.6940    -0.8350 C.3   1 <1>   0.1200 
 20 C        3.2620    -7.6900     0.6000 C.3   1 <1>   0.1200 
 21 C        1.9840    -7.7060    -1.6130 C.3   1 <1>  -0.0170 
 22 O        4.6030    -8.0530     0.4340 O.3   1 <1>  -0.5600 
 23 C        0.6330    -8.0430    -1.0000 C.ar  1 <1>  -0.1430 
 24 C        0.3180    -9.3150    -0.5660 C.ar  1 <1>  -0.1500 
 25 C       -0.3500    -7.0870    -0.8490 C.ar  1 <1>  -0.1500 
 26 C       -0.9270    -9.5600    -0.0110 C.ar  1 <1>   0.1600 
 27 C       -1.5640    -7.4360    -0.2810 C.ar  1 <1>   0.1600 
 28 N       -1.8760    -8.6500     0.1440 N.ar  1 <1>  -0.6200 
 29 H        1.3520    -3.1990     2.5980 H     1 <1>   0.1500 
 30 H        1.8080     0.5660     0.6830 H     1 <1>   0.1500 
 31 H        3.3390    -4.0400     1.4520 H     1 <1>   0.1500 
 32 H        3.7840    -0.2300    -0.4770 H     1 <1>   0.1500 
 33 H        5.0180    -1.4990    -2.0510 H     1 <1>   0.0800 
 34 H        5.9090    -0.8620    -0.6990 H     1 <1>   0.0800 
 35 H        6.2280    -2.2510     1.3780 H     1 <1>   0.0800 
 36 H        5.6530    -3.8730     1.4750 H     1 <1>   0.0800 
 37 H        5.1100    -5.4310     0.3020 H     1 <1>   0.3700 
 38 H        6.8150    -3.1400    -2.4640 H     1 <1>   0.0800 
 39 H        7.4330    -1.5160    -2.4820 H     1 <1>   0.0800 
 40 H        8.0800    -3.7920     1.0600 H     1 <1>   0.0800 
 41 H        7.2670    -4.5840    -0.2520 H     1 <1>   0.0800 
 42 H        4.1500    -6.3950    -2.3280 H     1 <1>   0.0800 
 43 H        8.2800    -1.7400    -0.2120 H     1 <1>   0.0800 
 44 H        8.8930    -3.0500    -1.1780 H     1 <1>   0.0800 
 45 H        2.3010    -6.0030    -0.3590 H     1 <1>   0.0800 
 46 H        6.1030    -7.4460    -0.7920 H     1 <1>   0.0800 
 47 H        4.9080    -8.5360    -1.4890 H     1 <1>   0.0800 
 48 H        2.6770    -8.5830     0.7330 H     1 <1>   0.0800 
 49 H        3.1960    -7.0870     1.4890 H     1 <1>   0.0800 
 50 H        2.4920    -8.6120    -1.8930 H     1 <1>   0.0800 
 51 H        1.8200    -7.1350    -2.5110 H     1 <1>   0.0800 
 52 H        1.0260   -10.1190    -0.6510 H     1 <1>   0.1500 
 53 H       -0.1850    -6.0730    -1.1670 H     1 <1>   0.1500 
 54 H       -1.1560   -10.5570     0.3230 H     1 <1>   0.1500 
 55 H       -2.3190    -6.6760    -0.1710 H     1 <1>   0.1500 
@<TRIPOS>BOND
  1   1   2  1   
  2   2   3  ar  
  3   2   4  ar  
  4   3   5  ar  
  5   3  29  1   
  6   4   6  ar  
  7   4  30  1   
  8   5   7  ar  
  9   5  31  1   
 10   6   7  ar  
 11   6  32  1   
 12   7   8  1   
 13   8   9  1   
 14   8  10  1   
 15   8  11  1   
 16   9  12  2   
 17   9  13  am  
 18  10  14  1   
 19  10  33  1   
 20  10  34  1   
 21  11  15  1   
 22  11  35  1   
 23  11  36  1   
 24  13  16  1   
 25  13  37  1   
 26  14  17  1   
 27  14  38  1   
 28  14  39  1   
 29  15  17  1   
 30  15  40  1   
 31  15  41  1   
 32  16  18  1   
 33  16  19  1   
 34  16  42  1   
 35  17  43  1   
 36  17  44  1   
 37  18  20  1   
 38  18  21  1   
 39  18  45  1   
 40  19  22  1   
 41  19  46  1   
 42  19  47  1   
 43  20  22  1   
 44  20  48  1   
 45  20  49  1   
 46  21  23  1   
 47  21  50  1   
 48  21  51  1   
 49  23  24  ar  
 50  23  25  ar  
 51  24  26  ar  
 52  24  52  1   
 53  25  27  ar  
 54  25  53  1   
 55  26  28  ar  
 56  26  54  1   
 57  27  28  ar  
 58  27  55  1   
@<TRIPOS>SUBSTRUCTURE
  1 ****  13 GROUP 4 **** **** 0

# MOE 2024.06 (io_trps.svl 2023.06)
