@<TRIPOS>MOLECULE
NONAME
41 43 1 0 0 
SMALL
USER_CHARGES


@<TRIPOS>ATOM
  1 O       -0.6450    -0.2300    -0.0340 O.2   1 <1>  -0.5700 
  2 C       -1.6750     0.4140     0.0140 C.2   1 <1>   0.5440 
  3 N       -1.6470     1.7350    -0.3820 N.am  1 <1>  -0.6600 
  4 C       -2.8800    -0.2340     0.4700 C.ar  1 <1>   0.0860 
  5 C       -0.3580     2.4540    -0.6150 C.3   1 <1>   0.1400 
  6 C       -2.8350     2.5230    -0.8250 C.3   1 <1>   0.1400 
  7 C       -3.2450    -1.4740    -0.0470 C.ar  1 <1>   0.1600 
  8 C       -3.7180     0.3140     1.4370 C.ar  1 <1>  -0.1500 
  9 C       -0.4340     3.8900    -0.0710 C.3   1 <1>   0.1200 
 10 C       -2.7760     3.9510    -0.2560 C.3   1 <1>   0.1200 
 11 N       -4.3260    -2.1630     0.2760 N.ar  1 <1>  -0.6200 
 12 C       -4.8430    -0.3920     1.7910 C.ar  1 <1>  -0.1500 
 13 O       -1.5570     4.5590    -0.5770 O.3   1 <1>  -0.5600 
 14 C       -5.1160    -1.6190     1.1940 C.ar  1 <1>   0.4100 
 15 N       -6.2420    -2.3140     1.5510 N.pl3 1 <1>  -0.8690 
 16 C       -6.4390    -3.7570     1.2370 C.3   1 <1>   0.2090 
 17 C       -6.9880    -3.9170    -0.1780 C.3   1 <1>   0.0960 
 18 N       -7.1060    -5.3460    -0.4940 N.pl3 1 <1>   0.3140 
 19 N       -8.0070    -6.1390     0.1190 N.2   1 <1>  -0.7070 
 20 C       -6.3660    -6.0430    -1.3790 C.2   1 <1>  -0.3020 
 21 C       -7.8190    -7.3160    -0.3970 C.2   1 <1>   0.1390 
 22 C       -6.8020    -7.3190    -1.3420 C.2   1 <1>  -0.1500 
 23 H       -0.1530     2.4810    -1.6700 H     1 <1>   0.0800 
 24 H        0.4530     1.9370    -0.1320 H     1 <1>   0.0800 
 25 H       -3.7520     2.0510    -0.5230 H     1 <1>   0.0800 
 26 H       -2.8350     2.5800    -1.9000 H     1 <1>   0.0800 
 27 H       -2.5890    -1.9150    -0.7780 H     1 <1>   0.1500 
 28 H       -3.4790     1.2590     1.8910 H     1 <1>   0.1500 
 29 H        0.4390     4.4450    -0.3650 H     1 <1>   0.0800 
 30 H       -0.4920     3.8830     1.0040 H     1 <1>   0.0800 
 31 H       -2.8850     3.9400     0.8140 H     1 <1>   0.0800 
 32 H       -3.5620     4.5520    -0.6780 H     1 <1>   0.0800 
 33 H       -5.5200    -0.0080     2.5290 H     1 <1>   0.1500 
 34 H       -6.7470    -1.9900     2.3780 H     1 <1>   0.4000 
 35 H       -7.1300    -4.1850     1.9430 H     1 <1>   0.0800 
 36 H       -5.4970    -4.2730     1.3210 H     1 <1>   0.0800 
 37 H       -6.3260    -3.4590    -0.8880 H     1 <1>   0.0800 
 38 H       -7.9600    -3.4700    -0.2490 H     1 <1>   0.0800 
 39 H       -5.5860    -5.5980    -1.9700 H     1 <1>   0.1500 
 40 H       -8.3920    -8.1830    -0.1150 H     1 <1>   0.1500 
 41 H       -6.4590    -8.1700    -1.9040 H     1 <1>   0.1500 
@<TRIPOS>BOND
  1   1   2  2   
  2   2   3  am  
  3   2   4  1   
  4   3   5  1   
  5   3   6  1   
  6   4   7  ar  
  7   4   8  ar  
  8   5   9  1   
  9   5  23  1   
 10   5  24  1   
 11   6  10  1   
 12   6  25  1   
 13   6  26  1   
 14   7  11  ar  
 15   7  27  1   
 16   8  12  ar  
 17   8  28  1   
 18   9  13  1   
 19   9  29  1   
 20   9  30  1   
 21  10  13  1   
 22  10  31  1   
 23  10  32  1   
 24  11  14  ar  
 25  12  14  ar  
 26  12  33  1   
 27  14  15  1   
 28  15  16  1   
 29  15  34  1   
 30  16  17  1   
 31  16  35  1   
 32  16  36  1   
 33  17  18  1   
 34  17  37  1   
 35  17  38  1   
 36  18  19  1   
 37  18  20  1   
 38  19  21  2   
 39  20  22  2   
 40  20  39  1   
 41  21  22  1   
 42  21  40  1   
 43  22  41  1   
@<TRIPOS>SUBSTRUCTURE
  1 ****  11 GROUP 4 **** **** 0

# MOE 2024.06 (io_trps.svl 2023.06)
