@<TRIPOS>MOLECULE
NONAME
54 57 1 0 0 
SMALL
USER_CHARGES


@<TRIPOS>ATOM
  1 N       -2.6180     0.8310     0.8520 N.ar  1 <1>  -0.6200 
  2 C       -2.3220     1.1440    -0.3930 C.ar  1 <1>   0.4100 
  3 C       -1.8290     1.3790     1.7610 C.ar  1 <1>   0.4700 
  4 N       -3.1140     0.6000    -1.3730 N.pl3 1 <1>  -0.8380 
  5 C       -1.2690     1.9770    -0.7060 C.ar  1 <1>  -0.1500 
  6 N       -0.8000     2.1840     1.5770 N.ar  1 <1>  -0.6200 
  7 C       -2.9920    -0.8720    -1.5760 C.3   1 <1>   0.2090 
  8 C       -4.5140     1.1050    -1.4430 C.3   1 <1>   0.2090 
  9 C       -0.5190     2.4860     0.3200 C.ar  1 <1>   0.1670 
 10 C       -3.9460    -1.6460    -0.6400 C.3   1 <1>   0.3430 
 11 C       -5.4470     0.3000    -0.5090 C.3   1 <1>   0.3430 
 12 C        0.6640     3.4170     0.0360 C.3   1 <1>   0.0640 
 13 N       -5.3910    -1.1970    -0.7480 N.4   1 <1>  -0.9590 
 14 C        1.9820     2.8080     0.5320 C.3   1 <1>  -0.2400 
 15 C        0.4460     4.8000     0.6670 C.3   1 <1>  -0.2400 
 16 C       -6.3030    -1.9490     0.1820 C.3   1 <1>   0.4230 
 17 C       -6.1190    -3.4730     0.0510 C.3   1 <1>  -0.0170 
 18 C       -7.7670    -1.5880    -0.1090 C.3   1 <1>  -0.1600 
 19 C       -7.1960    -4.2680     0.7720 C.ar  1 <1>  -0.1430 
 20 C       -8.6880    -2.2120     0.9460 C.3   1 <1>  -0.0170 
 21 C       -8.3900    -3.6840     1.1770 C.ar  1 <1>  -0.1430 
 22 C       -6.9760    -5.6160     1.0160 C.ar  1 <1>  -0.1500 
 23 C       -9.3440    -4.4550     1.8240 C.ar  1 <1>  -0.1500 
 24 C       -7.9320    -6.3790     1.6600 C.ar  1 <1>  -0.1500 
 25 C       -9.1180    -5.7970     2.0650 C.ar  1 <1>  -0.1500 
 26 H       -2.0500     1.1390     2.7880 H     1 <1>   0.1500 
 27 H       -1.0630     2.2050    -1.7330 H     1 <1>   0.1500 
 28 H       -1.9780    -1.1750    -1.3740 H     1 <1>   0.0800 
 29 H       -3.2050    -1.1110    -2.6030 H     1 <1>   0.0800 
 30 H       -4.8670     1.0460    -2.4580 H     1 <1>   0.0800 
 31 H       -4.5330     2.1410    -1.1500 H     1 <1>   0.0800 
 32 H       -3.6020    -1.5030     0.3720 H     1 <1>   0.0800 
 33 H       -3.8660    -2.6950    -0.8700 H     1 <1>   0.0800 
 34 H       -6.4500     0.6640    -0.6450 H     1 <1>   0.0800 
 35 H       -5.1550     0.5100     0.5070 H     1 <1>   0.0800 
 36 H        0.7450     3.5520    -1.0280 H     1 <1>   0.0800 
 37 H       -5.7050    -1.3740    -1.7090 H     1 <1>   0.4500 
 38 H        1.9560     2.6790     1.6000 H     1 <1>   0.0800 
 39 H        2.8100     3.4460     0.2810 H     1 <1>   0.0800 
 40 H        2.1380     1.8460     0.0770 H     1 <1>   0.0800 
 41 H        0.3850     4.7160     1.7380 H     1 <1>   0.0800 
 42 H       -0.4710     5.2290     0.3060 H     1 <1>   0.0800 
 43 H        1.2580     5.4590     0.4170 H     1 <1>   0.0800 
 44 H       -6.0790    -1.6710     1.2000 H     1 <1>   0.0800 
 45 H       -5.1710    -3.7600     0.4690 H     1 <1>   0.0800 
 46 H       -6.1450    -3.7570    -0.9860 H     1 <1>   0.0800 
 47 H       -8.0490    -1.9650    -1.0770 H     1 <1>   0.0800 
 48 H       -7.9360    -0.5290    -0.0890 H     1 <1>   0.0800 
 49 H       -9.7120    -2.0970     0.6340 H     1 <1>   0.0800 
 50 H       -8.5710    -1.6930     1.8820 H     1 <1>   0.0800 
 51 H       -6.0600    -6.0880     0.7050 H     1 <1>   0.1500 
 52 H      -10.2730    -4.0150     2.1460 H     1 <1>   0.1500 
 53 H       -7.7560    -7.4250     1.8470 H     1 <1>   0.1500 
 54 H       -9.8650    -6.3890     2.5670 H     1 <1>   0.1500 
@<TRIPOS>BOND
  1   1   2  ar  
  2   1   3  ar  
  3   2   4  1   
  4   2   5  ar  
  5   3   6  ar  
  6   3  26  1   
  7   4   7  1   
  8   4   8  1   
  9   5   9  ar  
 10   5  27  1   
 11   6   9  ar  
 12   7  10  1   
 13   7  28  1   
 14   7  29  1   
 15   8  11  1   
 16   8  30  1   
 17   8  31  1   
 18   9  12  1   
 19  10  13  1   
 20  10  32  1   
 21  10  33  1   
 22  11  13  1   
 23  11  34  1   
 24  11  35  1   
 25  12  14  1   
 26  12  15  1   
 27  12  36  1   
 28  13  16  1   
 29  13  37  1   
 30  14  38  1   
 31  14  39  1   
 32  14  40  1   
 33  15  41  1   
 34  15  42  1   
 35  15  43  1   
 36  16  17  1   
 37  16  18  1   
 38  16  44  1   
 39  17  19  1   
 40  17  45  1   
 41  17  46  1   
 42  18  20  1   
 43  18  47  1   
 44  18  48  1   
 45  19  21  ar  
 46  19  22  ar  
 47  20  21  1   
 48  20  49  1   
 49  20  50  1   
 50  21  23  ar  
 51  22  24  ar  
 52  22  51  1   
 53  23  25  ar  
 54  23  52  1   
 55  24  25  ar  
 56  24  53  1   
 57  25  54  1   
@<TRIPOS>SUBSTRUCTURE
  1 ****  10 GROUP 4 **** **** 0

# MOE 2024.06 (io_trps.svl 2023.06)
