@<TRIPOS>MOLECULE
NONAME
47 51 1 0 0 
SMALL
USER_CHARGES


@<TRIPOS>ATOM
  1 O        1.6230    -0.3720    -0.6050 O.3   1 <1>  -0.5600 
  2 C        2.4610    -1.3520    -0.0230 C.3   1 <1>   0.4600 
  3 C        0.2720    -0.3280    -0.1980 C.3   1 <1>   0.1200 
  4 C        1.6930    -2.6560     0.1380 C.2   1 <1>  -0.3320 
  5 C        2.9810    -0.8200     1.3150 C.3   1 <1>  -0.1600 
  6 C        3.6360    -1.5250    -0.9930 C.3   1 <1>  -0.1600 
  7 C       -0.4640    -1.6220    -0.5780 C.3   1 <1>   0.0210 
  8 N        2.1870    -3.8640     0.5560 N.pl3 1 <1>   0.0330 
  9 C        0.3760    -2.7860    -0.1180 C.2   1 <1>  -0.1810 
 10 C        3.6860     0.5330     1.1670 C.3   1 <1>   0.3430 
 11 C        4.6590    -0.3840    -0.9290 C.3   1 <1>   0.3430 
 12 C        1.1560    -4.7710     0.5500 C.ar  1 <1>  -0.1520 
 13 C        0.0000    -4.1230     0.1270 C.ar  1 <1>   0.0000 
 14 N        4.0760     0.8000    -0.2530 N.4   1 <1>  -0.9590 
 15 C        1.1360    -6.1270     0.8850 C.ar  1 <1>  -0.1500 
 16 C       -1.1990    -4.8360     0.0320 C.ar  1 <1>  -0.1500 
 17 C        4.8980     2.0400    -0.4010 C.3   1 <1>   0.5240 
 18 C       -0.0510    -6.8170     0.7890 C.ar  1 <1>  -0.1500 
 19 C       -1.2180    -6.1720     0.3620 C.ar  1 <1>  -0.1500 
 20 C        4.1180     3.2730     0.0480 C.2   1 <1>   0.0460 
 21 N        3.8840     3.5180     1.3550 N.2   1 <1>  -0.5650 
 22 C        3.5860     4.2490    -0.7220 C.2   1 <1>  -0.3020 
 23 C        3.2240     4.6310     1.3510 C.2   1 <1>   0.0360 
 24 N        3.0080     5.1300     0.1170 N.pl3 1 <1>   0.0330 
 25 H       -0.1930     0.5160    -0.6770 H     1 <1>   0.0800 
 26 H        0.2390    -0.1820     0.8680 H     1 <1>   0.0800 
 27 H        3.6750    -1.5270     1.7270 H     1 <1>   0.0800 
 28 H        2.1750    -0.7360     2.0210 H     1 <1>   0.0800 
 29 H        3.2500    -1.6200    -1.9920 H     1 <1>   0.0800 
 30 H        4.1560    -2.4390    -0.7760 H     1 <1>   0.0800 
 31 H       -0.6070    -1.6710    -1.6420 H     1 <1>   0.0800 
 32 H       -1.4260    -1.6470    -0.0990 H     1 <1>   0.0800 
 33 H        3.1470    -4.0920     0.8300 H     1 <1>   0.2700 
 34 H        4.5520     0.5670     1.8080 H     1 <1>   0.0800 
 35 H        3.0080     1.3070     1.4920 H     1 <1>   0.0800 
 36 H        4.9670    -0.1300    -1.9310 H     1 <1>   0.0800 
 37 H        5.5280    -0.7130    -0.3830 H     1 <1>   0.0800 
 38 H        3.1680     0.9750    -0.7230 H     1 <1>   0.4500 
 39 H        2.0350    -6.6180     1.2120 H     1 <1>   0.1500 
 40 H       -2.0870    -4.3300    -0.2980 H     1 <1>   0.1500 
 41 H        5.1750     2.1690    -1.4330 H     1 <1>   0.0800 
 42 H        5.7970     1.9620     0.1870 H     1 <1>   0.0800 
 43 H       -0.0940    -7.8620     1.0410 H     1 <1>   0.1500 
 44 H       -2.1320    -6.7350     0.2940 H     1 <1>   0.1500 
 45 H        3.5840     4.3760    -1.7910 H     1 <1>   0.1500 
 46 H        2.8730     5.1320     2.2380 H     1 <1>   0.1500 
 47 H        2.5150     5.9980    -0.1190 H     1 <1>   0.2700 
@<TRIPOS>BOND
  1   1   2  1   
  2   1   3  1   
  3   2   4  1   
  4   2   5  1   
  5   2   6  1   
  6   3   7  1   
  7   3  25  1   
  8   3  26  1   
  9   4   8  1   
 10   4   9  2   
 11   5  10  1   
 12   5  27  1   
 13   5  28  1   
 14   6  11  1   
 15   6  29  1   
 16   6  30  1   
 17   7   9  1   
 18   7  31  1   
 19   7  32  1   
 20   8  12  1   
 21   8  33  1   
 22   9  13  1   
 23  10  14  1   
 24  10  34  1   
 25  10  35  1   
 26  11  14  1   
 27  11  36  1   
 28  11  37  1   
 29  12  13  ar  
 30  12  15  ar  
 31  13  16  ar  
 32  14  17  1   
 33  14  38  1   
 34  15  18  ar  
 35  15  39  1   
 36  16  19  ar  
 37  16  40  1   
 38  17  20  1   
 39  17  41  1   
 40  17  42  1   
 41  18  19  ar  
 42  18  43  1   
 43  19  44  1   
 44  20  21  1   
 45  20  22  2   
 46  21  23  2   
 47  22  24  1   
 48  22  45  1   
 49  23  24  1   
 50  23  46  1   
 51  24  47  1   
@<TRIPOS>SUBSTRUCTURE
  1 ****   2 GROUP 4 **** **** 0

# MOE 2024.06 (io_trps.svl 2023.06)
