@<TRIPOS>MOLECULE
NONAME
46 47 1 0 0 
SMALL
USER_CHARGES


@<TRIPOS>ATOM
  1 O       -2.9040     0.8220    -1.6180 O.2   1 <1>  -0.5700 
  2 C       -2.6300     0.9760    -0.4520 C.2   1 <1>   0.5690 
  3 N       -3.0780     0.1130     0.4990 N.am  1 <1>  -0.6600 
  4 C       -1.8330     2.1950    -0.0270 C.3   1 <1>  -0.0990 
  5 C       -2.5800    -1.2970     0.5160 C.3   1 <1>   0.3640 
  6 C       -4.5280     0.1770     0.8350 C.3   1 <1>   0.1400 
  7 C       -0.3320     2.0470    -0.3340 C.3   1 <1>  -0.1600 
  8 C       -1.0870    -1.3940     0.1810 C.ar  1 <1>  -0.1440 
  9 C       -3.4770    -2.2010    -0.3640 C.3   1 <1>   0.2000 
 10 C       -5.3380    -0.7960    -0.0420 C.3   1 <1>   0.1200 
 11 C        0.5200     3.2390     0.1360 C.3   1 <1>  -0.0800 
 12 C       -0.1690    -1.5140     1.2160 C.ar  1 <1>  -0.1500 
 13 C       -0.6190    -1.3680    -1.1280 C.ar  1 <1>  -0.1500 
 14 O       -4.8240    -2.0950     0.0550 O.3   1 <1>  -0.5600 
 15 C       -3.0550    -3.6770    -0.2870 C.3   1 <1>   0.1200 
 16 C        0.1760     4.5300    -0.6180 C.3   1 <1>  -0.2400 
 17 C        2.0050     2.9130    -0.0600 C.3   1 <1>  -0.2400 
 18 C        1.1860    -1.6110     0.9510 C.ar  1 <1>  -0.1500 
 19 C        0.7350    -1.4640    -1.3940 C.ar  1 <1>  -0.1500 
 20 O       -4.0440    -4.4670    -0.8500 O.3   1 <1>  -0.6800 
 21 C        1.6390    -1.5870    -0.3550 C.ar  1 <1>  -0.1500 
 22 H       -2.2350     3.0420    -0.5510 H     1 <1>   0.0800 
 23 H       -1.9720     2.3550     1.0260 H     1 <1>   0.0800 
 24 H       -2.6920    -1.6560     1.5240 H     1 <1>   0.0800 
 25 H       -4.6690    -0.0710     1.8730 H     1 <1>   0.0800 
 26 H       -4.8910     1.1790     0.6810 H     1 <1>   0.0800 
 27 H       -0.2000     1.8980    -1.3930 H     1 <1>   0.0800 
 28 H        0.0240     1.1610     0.1600 H     1 <1>   0.0800 
 29 H       -3.4200    -1.8780    -1.3890 H     1 <1>   0.0800 
 30 H       -5.3070    -0.4880    -1.0740 H     1 <1>   0.0800 
 31 H       -6.3640    -0.8230     0.2790 H     1 <1>   0.0800 
 32 H        0.3480     3.3960     1.1880 H     1 <1>   0.0800 
 33 H       -0.5020    -1.5300     2.2400 H     1 <1>   0.1500 
 34 H       -1.3030    -1.2600    -1.9530 H     1 <1>   0.1500 
 35 H       -2.9320    -3.9790     0.7380 H     1 <1>   0.0800 
 36 H       -2.1350    -3.8500    -0.8180 H     1 <1>   0.0800 
 37 H        0.2760     4.3860    -1.6790 H     1 <1>   0.0800 
 38 H        0.8380     5.3230    -0.3170 H     1 <1>   0.0800 
 39 H       -0.8290     4.8440    -0.4050 H     1 <1>   0.0800 
 40 H        2.2220     2.7500    -1.1020 H     1 <1>   0.0800 
 41 H        2.2680     2.0250     0.4860 H     1 <1>   0.0800 
 42 H        2.6170     3.7220     0.2970 H     1 <1>   0.0800 
 43 H        1.8890    -1.7030     1.7610 H     1 <1>   0.1500 
 44 H        1.0840    -1.4400    -2.4120 H     1 <1>   0.1500 
 45 H       -4.9090    -4.0650    -0.6120 H     1 <1>   0.4000 
 46 H        2.6920    -1.6610    -0.5630 H     1 <1>   0.1500 
@<TRIPOS>BOND
  1   1   2  2   
  2   2   3  am  
  3   2   4  1   
  4   3   5  1   
  5   3   6  1   
  6   4   7  1   
  7   4  22  1   
  8   4  23  1   
  9   5   8  1   
 10   5   9  1   
 11   5  24  1   
 12   6  10  1   
 13   6  25  1   
 14   6  26  1   
 15   7  11  1   
 16   7  27  1   
 17   7  28  1   
 18   8  12  ar  
 19   8  13  ar  
 20   9  14  1   
 21   9  15  1   
 22   9  29  1   
 23  10  14  1   
 24  10  30  1   
 25  10  31  1   
 26  11  16  1   
 27  11  17  1   
 28  11  32  1   
 29  12  18  ar  
 30  12  33  1   
 31  13  19  ar  
 32  13  34  1   
 33  15  20  1   
 34  15  35  1   
 35  15  36  1   
 36  16  37  1   
 37  16  38  1   
 38  16  39  1   
 39  17  40  1   
 40  17  41  1   
 41  17  42  1   
 42  18  21  ar  
 43  18  43  1   
 44  19  21  ar  
 45  19  44  1   
 46  20  45  1   
 47  21  46  1   
@<TRIPOS>SUBSTRUCTURE
  1 ****   8 GROUP 4 **** **** 0

# MOE 2024.06 (io_trps.svl 2023.06)
