@<TRIPOS>MOLECULE
NONAME
44 46 1 0 0 
SMALL
USER_CHARGES


@<TRIPOS>ATOM
  1 S        2.5380     0.0380    -1.5480 S.3   1 <1>  -0.0800 
  2 C        1.9430    -0.2080     0.0880 C.2   1 <1>  -0.1400 
  3 C        0.9650    -0.3370    -2.2280 C.2   1 <1>  -0.1100 
  4 C        0.6410    -0.5500     0.0640 C.2   1 <1>  -0.1500 
  5 C        2.9090    -0.0230     1.2500 C.3   1 <1>   0.0810 
  6 C        0.0840    -0.6240    -1.2530 C.2   1 <1>  -0.1500 
  7 C        3.1750     1.4430     1.5800 C.2   1 <1>   0.5690 
  8 O        2.4890     1.9230     2.4540 O.2   1 <1>  -0.5700 
  9 N        4.1570     2.1870     0.9600 N.am  1 <1>  -0.6600 
 10 C        5.1430     1.6700    -0.0410 C.3   1 <1>   0.1400 
 11 C        4.2830     3.6420     1.2540 C.3   1 <1>   0.1400 
 12 C        6.5930     1.8220     0.4450 C.3   1 <1>   0.1400 
 13 C        5.4210     3.8680     2.2550 C.3   1 <1>  -0.1600 
 14 N        7.0420     3.2480     0.3960 N.am  1 <1>  -0.6600 
 15 C        6.8000     4.0810     1.6140 C.3   1 <1>   0.1400 
 16 C        7.5360     3.7690    -0.7850 C.2   1 <1>   0.5440 
 17 O        7.3780     3.1350    -1.8120 O.2   1 <1>  -0.5700 
 18 C        8.2230     5.0360    -0.8430 C.ar  1 <1>   0.0860 
 19 C        9.2720     5.3310     0.0270 C.ar  1 <1>   0.1600 
 20 C        7.8790     6.0180    -1.7660 C.ar  1 <1>  -0.1500 
 21 N        9.9470     6.4650     0.0780 N.ar  1 <1>  -0.6200 
 22 C        8.5740     7.2030    -1.7360 C.ar  1 <1>  -0.1500 
 23 C        9.5880     7.3840    -0.8000 C.ar  1 <1>   0.4100 
 24 N       10.2960     8.5320    -0.7330 N.pl3 1 <1>  -0.9000 
 25 H        0.8670    -0.3020    -3.2980 H     1 <1>   0.1500 
 26 H        0.0340    -0.7540     0.9290 H     1 <1>   0.1500 
 27 H        3.8220    -0.5520     1.0680 H     1 <1>   0.0800 
 28 H        2.4660    -0.4710     2.1210 H     1 <1>   0.0800 
 29 H       -0.9490    -0.8850    -1.4000 H     1 <1>   0.1500 
 30 H        5.0200     2.1960    -0.9720 H     1 <1>   0.0800 
 31 H        4.9720     0.6320    -0.2430 H     1 <1>   0.0800 
 32 H        3.3620     4.0060     1.6790 H     1 <1>   0.0800 
 33 H        4.4550     4.1910     0.3440 H     1 <1>   0.0800 
 34 H        7.2300     1.2400    -0.1990 H     1 <1>   0.0800 
 35 H        6.6940     1.4300     1.4410 H     1 <1>   0.0800 
 36 H        5.4560     3.0510     2.9530 H     1 <1>   0.0800 
 37 H        5.1940     4.7490     2.8290 H     1 <1>   0.0800 
 38 H        7.5650     3.8720     2.3420 H     1 <1>   0.0800 
 39 H        6.8760     5.1220     1.3510 H     1 <1>   0.0800 
 40 H        9.5650     4.5670     0.7260 H     1 <1>   0.1500 
 41 H        7.0910     5.8390    -2.4770 H     1 <1>   0.1500 
 42 H        8.3450     7.9960    -2.4220 H     1 <1>   0.1500 
 43 H       10.4450     9.0840    -1.5770 H     1 <1>   0.4000 
 44 H       11.0990     8.4950    -0.1040 H     1 <1>   0.4000 
@<TRIPOS>BOND
  1   1   2  1   
  2   1   3  1   
  3   2   4  2   
  4   2   5  1   
  5   3   6  2   
  6   3  25  1   
  7   4   6  1   
  8   4  26  1   
  9   5   7  1   
 10   5  27  1   
 11   5  28  1   
 12   6  29  1   
 13   7   8  2   
 14   7   9  am  
 15   9  10  1   
 16   9  11  1   
 17  10  12  1   
 18  10  30  1   
 19  10  31  1   
 20  11  13  1   
 21  11  32  1   
 22  11  33  1   
 23  12  14  1   
 24  12  34  1   
 25  12  35  1   
 26  13  15  1   
 27  13  36  1   
 28  13  37  1   
 29  14  15  1   
 30  14  16  am  
 31  15  38  1   
 32  15  39  1   
 33  16  17  2   
 34  16  18  1   
 35  18  19  ar  
 36  18  20  ar  
 37  19  21  ar  
 38  19  40  1   
 39  20  22  ar  
 40  20  41  1   
 41  21  23  ar  
 42  22  23  ar  
 43  22  42  1   
 44  23  24  1   
 45  24  43  1   
 46  24  44  1   
@<TRIPOS>SUBSTRUCTURE
  1 ****  10 GROUP 4 **** **** 0

# MOE 2024.06 (io_trps.svl 2023.06)
