@<TRIPOS>MOLECULE
NONAME
58 62 1 0 0 
SMALL
USER_CHARGES


@<TRIPOS>ATOM
  1 O        0.6790    -0.0380    -1.2290 O.2   1 <1>  -0.5700 
  2 C        1.6460    -0.4360    -0.6050 C.2   1 <1>   0.7160 
  3 N        2.4050     0.5080     0.0820 N.am  1 <1>  -0.6600 
  4 C        1.9580    -1.8660    -0.6320 C.2   1 <1>   0.1410 
  5 C        3.3340     0.1440     1.1940 C.3   1 <1>   0.1400 
  6 C        2.2000     1.9660    -0.1470 C.3   1 <1>   0.1400 
  7 N        3.1720    -2.4030    -0.3230 N.2   1 <1>  -0.5650 
  8 C        1.1060    -2.8720    -0.9920 C.2   1 <1>  -0.3020 
  9 C        4.7760    -0.0560     0.6840 C.3   1 <1>   0.3430 
 10 C        3.5280     2.7250    -0.2430 C.3   1 <1>  -0.1600 
 11 C        3.0290    -3.6830    -0.4940 C.2   1 <1>   0.3120 
 12 N        1.7650    -4.0340    -0.9110 N.pl3 1 <1>   0.3340 
 13 N        5.4390     1.1850     0.1550 N.4   1 <1>  -0.9590 
 14 C        4.6520     1.9120    -0.8890 C.3   1 <1>   0.3430 
 15 N        4.0250    -4.6060    -0.2840 N.2   1 <1>  -0.5760 
 16 C        1.4550    -5.3610    -1.1420 C.2   1 <1>  -0.1810 
 17 C        6.7790     0.8320    -0.3690 C.3   1 <1>   0.4810 
 18 C        3.7220    -5.8420    -0.5030 C.2   1 <1>   0.3760 
 19 C        2.4360    -6.2750    -0.9380 C.2   1 <1>  -0.1360 
 20 C        7.5510     2.1170    -0.5730 C.2   1 <1>  -0.2540 
 21 C        7.9230     2.6390    -1.7500 C.2   1 <1>  -0.2880 
 22 C        7.9340     2.8850     0.6980 C.3   1 <1>   0.1160 
 23 C        8.7170     3.9490    -1.7740 C.3   1 <1>  -0.0220 
 24 C        9.4330     3.3600     0.6900 C.3   1 <1>   0.0000 
 25 C        7.5740     4.3880     0.4640 C.3   1 <1>   0.0000 
 26 C        8.9270     4.4550    -0.3210 C.3   1 <1>   0.0000 
 27 C        9.9530     3.9150     2.0380 C.3   1 <1>  -0.2400 
 28 C       10.4760     2.3500     0.1610 C.3   1 <1>  -0.2400 
 29 H        3.3130     0.9010     1.9580 H     1 <1>   0.0800 
 30 H        2.9970    -0.7690     1.6530 H     1 <1>   0.0800 
 31 H        1.6600     2.1130    -1.0680 H     1 <1>   0.0800 
 32 H        1.5940     2.3720     0.6460 H     1 <1>   0.0800 
 33 H        0.0790    -2.7970    -1.3020 H     1 <1>   0.1500 
 34 H        4.7650    -0.8030    -0.0910 H     1 <1>   0.0800 
 35 H        5.3650    -0.4520     1.4950 H     1 <1>   0.0800 
 36 H        3.8250     3.0860     0.7250 H     1 <1>   0.0800 
 37 H        3.3500     3.5940    -0.8510 H     1 <1>   0.0800 
 38 H        5.5980     1.8400     0.9270 H     1 <1>   0.4500 
 39 H        5.3020     2.5980    -1.4100 H     1 <1>   0.0800 
 40 H        4.2480     1.2200    -1.6120 H     1 <1>   0.0800 
 41 H        0.4560    -5.5870    -1.4690 H     1 <1>   0.1500 
 42 H        7.3080     0.2040     0.3300 H     1 <1>   0.0800 
 43 H        6.6840     0.3040    -1.3040 H     1 <1>   0.0800 
 44 H        4.4720    -6.5980    -0.3520 H     1 <1>   0.0600 
 45 H        2.2860    -7.3290    -1.0920 H     1 <1>   0.1500 
 46 H        7.7270     2.2160    -2.7230 H     1 <1>   0.1500 
 47 H        7.5780     2.4780     1.6280 H     1 <1>   0.0000 
 48 H        8.1790     4.6910    -2.3380 H     1 <1>   0.0800 
 49 H        9.6710     3.7970    -2.2480 H     1 <1>   0.0800 
 50 H        6.7000     4.5440    -0.1450 H     1 <1>   0.0000 
 51 H        7.5410     4.9850     1.3570 H     1 <1>   0.0000 
 52 H        9.4320     5.4030    -0.2480 H     1 <1>   0.0000 
 53 H       10.9070     4.3890     1.8900 H     1 <1>   0.0800 
 54 H       10.0850     3.1100     2.7390 H     1 <1>   0.0800 
 55 H        9.3030     4.6380     2.4900 H     1 <1>   0.0800 
 56 H       11.4180     2.8480     0.0110 H     1 <1>   0.0800 
 57 H       10.2010     1.8900    -0.7680 H     1 <1>   0.0800 
 58 H       10.6240     1.5650     0.8810 H     1 <1>   0.0800 
@<TRIPOS>BOND
  1   1   2  2   
  2   2   3  am  
  3   2   4  1   
  4   3   5  1   
  5   3   6  1   
  6   4   7  1   
  7   4   8  2   
  8   5   9  1   
  9   5  29  1   
 10   5  30  1   
 11   6  10  1   
 12   6  31  1   
 13   6  32  1   
 14   7  11  2   
 15   8  12  1   
 16   8  33  1   
 17   9  13  1   
 18   9  34  1   
 19   9  35  1   
 20  10  14  1   
 21  10  36  1   
 22  10  37  1   
 23  11  12  1   
 24  11  15  1   
 25  12  16  1   
 26  13  14  1   
 27  13  17  1   
 28  13  38  1   
 29  14  39  1   
 30  14  40  1   
 31  15  18  2   
 32  16  19  2   
 33  16  41  1   
 34  17  20  1   
 35  17  42  1   
 36  17  43  1   
 37  18  19  1   
 38  18  44  1   
 39  19  45  1   
 40  20  21  2   
 41  20  22  1   
 42  21  23  1   
 43  21  46  1   
 44  22  24  1   
 45  22  25  1   
 46  22  47  1   
 47  23  26  1   
 48  23  48  1   
 49  23  49  1   
 50  24  26  1   
 51  24  27  1   
 52  24  28  1   
 53  25  26  1   
 54  25  50  1   
 55  25  51  1   
 56  26  52  1   
 57  27  53  1   
 58  27  54  1   
 59  27  55  1   
 60  28  56  1   
 61  28  57  1   
 62  28  58  1   
@<TRIPOS>SUBSTRUCTURE
  1 ****   9 GROUP 4 **** **** 0

# MOE 2024.06 (io_trps.svl 2023.06)
