@<TRIPOS>MOLECULE
NONAME
36 37 1 0 0 
SMALL
USER_CHARGES


@<TRIPOS>ATOM
  1 S       -2.2500    -0.2190     0.7030 S.3   1 <1>  -0.0800 
  2 C       -1.8820    -1.2100    -0.6700 C.2   1 <1>   0.4420 
  3 C       -1.2940     1.0240    -0.0270 C.2   1 <1>   0.1980 
  4 N       -1.1330    -0.6040    -1.5180 N.2   1 <1>  -0.3380 
  5 N       -2.4230    -2.4770    -0.6770 N.am  1 <1>  -0.4940 
  6 N       -0.8010     0.6690    -1.1450 N.2   1 <1>  -0.3380 
  7 C       -1.1590     2.3370     0.7190 C.3   1 <1>   0.0200 
  8 C       -2.3030    -3.4770    -1.6020 C.2   1 <1>   0.5690 
  9 C       -0.2980     3.3330    -0.0550 C.3   1 <1>   0.1200 
 10 O       -1.6590    -3.3780    -2.6130 O.2   1 <1>  -0.5700 
 11 C       -3.0190    -4.7940    -1.3470 C.3   1 <1>   0.0450 
 12 O       -0.2240     4.5060     0.6890 O.3   1 <1>  -0.5600 
 13 C       -3.7590    -4.8160    -0.0140 C.ar  1 <1>  -0.1440 
 14 C        0.5370     5.5010     0.0900 C.3   1 <1>   0.1200 
 15 C       -3.0970    -5.1700     1.1540 C.ar  1 <1>   0.1600 
 16 C       -5.0910    -4.4580     0.0580 C.ar  1 <1>  -0.1500 
 17 C        0.5210     6.7090     1.0170 C.3   1 <1>  -0.2400 
 18 N       -3.6430    -5.1740     2.3580 N.ar  1 <1>  -0.6200 
 19 C       -5.6770    -4.4710     1.3060 C.ar  1 <1>  -0.1500 
 20 C       -4.9190    -4.8310     2.4070 C.ar  1 <1>   0.1600 
 21 H       -2.9960    -2.7040     0.1350 H     1 <1>   0.3700 
 22 H       -0.7090     2.1500     1.6760 H     1 <1>   0.0800 
 23 H       -2.1380     2.7560     0.8660 H     1 <1>   0.0800 
 24 H       -0.7430     3.5520    -1.0110 H     1 <1>   0.0800 
 25 H        0.6960     2.9430    -0.1940 H     1 <1>   0.0800 
 26 H       -2.2920    -5.5850    -1.3750 H     1 <1>   0.0800 
 27 H       -3.7090    -4.9640    -2.1530 H     1 <1>   0.0800 
 28 H        0.1010     5.7470    -0.8630 H     1 <1>   0.0800 
 29 H        1.5420     5.1380    -0.0450 H     1 <1>   0.0800 
 30 H       -2.0600    -5.4590     1.1000 H     1 <1>   0.1500 
 31 H       -5.6570    -4.1780    -0.8160 H     1 <1>   0.1500 
 32 H       -0.4870     7.0550     1.1560 H     1 <1>   0.0800 
 33 H        1.1020     7.5050     0.5880 H     1 <1>   0.0800 
 34 H        0.9460     6.4480     1.9700 H     1 <1>   0.0800 
 35 H       -6.7120    -4.2070     1.4280 H     1 <1>   0.1500 
 36 H       -5.3870    -4.8380     3.3770 H     1 <1>   0.1500 
@<TRIPOS>BOND
  1   1   2  1   
  2   1   3  1   
  3   2   4  2   
  4   2   5  1   
  5   3   6  2   
  6   3   7  1   
  7   4   6  1   
  8   5   8  am  
  9   5  21  1   
 10   7   9  1   
 11   7  22  1   
 12   7  23  1   
 13   8  10  2   
 14   8  11  1   
 15   9  12  1   
 16   9  24  1   
 17   9  25  1   
 18  11  13  1   
 19  11  26  1   
 20  11  27  1   
 21  12  14  1   
 22  13  15  ar  
 23  13  16  ar  
 24  14  17  1   
 25  14  28  1   
 26  14  29  1   
 27  15  18  ar  
 28  15  30  1   
 29  16  19  ar  
 30  16  31  1   
 31  17  32  1   
 32  17  33  1   
 33  17  34  1   
 34  18  20  ar  
 35  19  20  ar  
 36  19  35  1   
 37  20  36  1   
@<TRIPOS>SUBSTRUCTURE
  1 ****   2 GROUP 4 **** **** 0

# MOE 2024.06 (io_trps.svl 2023.06)
