@<TRIPOS>MOLECULE
NONAME
43 44 1 0 0 
SMALL
USER_CHARGES


@<TRIPOS>ATOM
  1 S        0.4410     0.0690     0.7340 S.o2  1 <1>   1.3330 
  2 O       -0.5090     0.0530     1.8230 O.2   1 <1>  -0.6500 
  3 O        1.8530     0.2050     1.0160 O.2   1 <1>  -0.6500 
  4 N        0.2410    -1.3650    -0.1550 N.am  1 <1>  -0.8490 
  5 C       -0.0670     1.3220    -0.4410 C.3   1 <1>  -0.0550 
  6 C        1.3810    -1.6780    -1.0230 C.3   1 <1>   0.1160 
  7 C       -0.0600    -2.5140     0.7050 C.3   1 <1>   0.1160 
  8 C       -0.0040     2.7520     0.1150 C.3   1 <1>  -0.0800 
  9 C       -0.5390     3.7710    -0.8850 C.3   1 <1>   0.2000 
 10 C        1.4100     3.2470     0.4200 C.3   1 <1>   0.2090 
 11 O       -1.9250     3.8140    -0.8120 O.3   1 <1>  -0.6800 
 12 C        0.1100     5.0960    -0.4940 C.3   1 <1>   0.2090 
 13 N        1.3470     4.7150     0.2380 N.pl3 1 <1>  -0.8380 
 14 C        2.4820     5.5160     0.2120 C.ar  1 <1>   0.4100 
 15 N        3.6210     4.8550    -0.0090 N.ar  1 <1>  -0.6200 
 16 C        2.4350     6.9080     0.4070 C.ar  1 <1>  -0.1790 
 17 C        4.7330     5.5570    -0.0390 C.ar  1 <1>   0.1670 
 18 C        1.2100     7.6180     0.6560 C.2   1 <1>   0.9790 
 19 C        3.6250     7.6180     0.3690 C.ar  1 <1>  -0.1500 
 20 C        4.7910     6.9270     0.1410 C.ar  1 <1>  -0.1500 
 21 C        6.0010     4.7700    -0.2870 C.3   1 <1>  -0.0960 
 22 O        0.5020     8.0110    -0.2920 O.co2 1 <1>  -0.9000 
 23 O        0.8610     7.9140     1.8130 O.co2 1 <1>  -0.9000 
 24 H        0.5470     1.2600    -1.3170 H     1 <1>   0.0800 
 25 H       -1.0780     1.1190    -0.7360 H     1 <1>   0.0800 
 26 H        1.1600    -2.5410    -1.6260 H     1 <1>   0.0800 
 27 H        2.2610    -1.8790    -0.4320 H     1 <1>   0.0800 
 28 H        1.5890    -0.8500    -1.6780 H     1 <1>   0.0800 
 29 H       -0.1930    -3.4010     0.1100 H     1 <1>   0.0800 
 30 H       -0.9720    -2.3370     1.2510 H     1 <1>   0.0800 
 31 H        0.7390    -2.6730     1.4100 H     1 <1>   0.0800 
 32 H       -0.5710     2.8170     1.0290 H     1 <1>   0.0800 
 33 H       -0.2570     3.5180    -1.8920 H     1 <1>   0.0800 
 34 H        2.1180     2.8290    -0.2750 H     1 <1>   0.0800 
 35 H        1.7120     3.0070     1.4250 H     1 <1>   0.0800 
 36 H       -2.1880     4.2960    -0.0020 H     1 <1>   0.4000 
 37 H       -0.5290     5.6580     0.1660 H     1 <1>   0.0800 
 38 H        0.3500     5.6860    -1.3630 H     1 <1>   0.0800 
 39 H        3.6160     8.6830     0.5190 H     1 <1>   0.1500 
 40 H        5.7270     7.4490     0.1070 H     1 <1>   0.1500 
 41 H        6.8610     5.4120    -0.3010 H     1 <1>   0.0800 
 42 H        5.9250     4.2620    -1.2310 H     1 <1>   0.0800 
 43 H        6.1220     4.0380     0.4910 H     1 <1>   0.0800 
@<TRIPOS>BOND
  1   1   2  2   
  2   1   3  2   
  3   1   4  am  
  4   1   5  1   
  5   4   6  1   
  6   4   7  1   
  7   5   8  1   
  8   5  24  1   
  9   5  25  1   
 10   6  26  1   
 11   6  27  1   
 12   6  28  1   
 13   7  29  1   
 14   7  30  1   
 15   7  31  1   
 16   8   9  1   
 17   8  10  1   
 18   8  32  1   
 19   9  11  1   
 20   9  12  1   
 21   9  33  1   
 22  10  13  1   
 23  10  34  1   
 24  10  35  1   
 25  11  36  1   
 26  12  13  1   
 27  12  37  1   
 28  12  38  1   
 29  13  14  1   
 30  14  15  ar  
 31  14  16  ar  
 32  15  17  ar  
 33  16  18  1   
 34  16  19  ar  
 35  17  20  ar  
 36  17  21  1   
 37  18  22  ar  
 38  18  23  ar  
 39  19  20  ar  
 40  19  39  1   
 41  20  40  1   
 42  21  41  1   
 43  21  42  1   
 44  21  43  1   
@<TRIPOS>SUBSTRUCTURE
  1 ****  10 GROUP 4 **** **** 0

# MOE 2024.06 (io_trps.svl 2023.06)
