@<TRIPOS>MOLECULE
C6H12O6
24 24 1 0 0 
SMALL
USER_CHARGES


@<TRIPOS>ATOM
  1 O        0.2150    -0.1160    -0.1700 O.3   1 <1>  -0.5600 
  2 C        0.2850    -1.4020     0.3390 C.3   1 <1>   0.4800 
  3 C        1.1710     0.7820     0.3670 C.3   1 <1>   0.2000 
  4 O       -0.8300    -2.0220    -0.1470 O.3   1 <1>  -0.6800 
  5 C        1.5700    -2.1250    -0.1390 C.3   1 <1>   0.2000 
  6 C        2.5660     0.1080     0.5150 C.3   1 <1>   0.2000 
  7 C        1.1830     2.0420    -0.5190 C.3   1 <1>   0.1200 
  8 O        1.9810    -3.0570     0.8310 O.3   1 <1>  -0.6800 
  9 C        2.6940    -1.1050    -0.4200 C.3   1 <1>   0.2000 
 10 O        3.6130     0.9860     0.2610 O.3   1 <1>  -0.6800 
 11 O       -0.1200     2.4510    -0.7660 O.3   1 <1>  -0.6800 
 12 O        3.9450    -1.6980    -0.2550 O.3   1 <1>  -0.6800 
 13 H        0.2270    -1.3550     1.4150 H     1 <1>   0.0800 
 14 H        0.8290     1.0650     1.3480 H     1 <1>   0.0800 
 15 H       -1.5610    -1.3780    -0.0900 H     1 <1>   0.4000 
 16 H        1.3600    -2.6650    -1.0450 H     1 <1>   0.0800 
 17 H        2.6790    -0.2260     1.5320 H     1 <1>   0.0800 
 18 H        1.6560     1.8320    -1.4630 H     1 <1>   0.0800 
 19 H        1.7090     2.8480    -0.0380 H     1 <1>   0.0800 
 20 H        1.3080    -3.7670     0.9050 H     1 <1>   0.4000 
 21 H        2.6140    -0.7620    -1.4370 H     1 <1>   0.0800 
 22 H        4.4190     0.4440     0.1060 H     1 <1>   0.4000 
 23 H       -0.6460     1.6550    -0.9950 H     1 <1>   0.4000 
 24 H        3.8130    -2.4720     0.3420 H     1 <1>   0.4000 
@<TRIPOS>BOND
  1   1   2  1   
  2   1   3  1   
  3   2   4  1   
  4   2   5  1   
  5   2  13  1   
  6   3   6  1   
  7   3   7  1   
  8   3  14  1   
  9   4  15  1   
 10   5   8  1   
 11   5   9  1   
 12   5  16  1   
 13   6   9  1   
 14   6  10  1   
 15   6  17  1   
 16   7  11  1   
 17   7  18  1   
 18   7  19  1   
 19   8  20  1   
 20   9  12  1   
 21   9  21  1   
 22  10  22  1   
 23  11  23  1   
 24  12  24  1   
@<TRIPOS>SUBSTRUCTURE
  1 ****   6 GROUP 4 **** **** 0

# MOE 2024.06 (io_trps.svl 2023.06)
