@<TRIPOS>MOLECULE
NONAME
64 67 1 0 0 
SMALL
USER_CHARGES


@<TRIPOS>ATOM
  1 O        0.5180     1.3920    -1.5920 O.3   1 <1>  -0.6800 
  2 C        0.7370     2.3390    -0.6140 C.3   1 <1>   0.2000 
  3 C       -0.6120     2.9290    -0.2000 C.3   1 <1>  -0.1600 
  4 C        1.6660     3.4060    -1.1890 C.3   1 <1>  -0.1600 
  5 C       -0.4030     4.0860     0.7760 C.3   1 <1>   0.2090 
  6 C        1.8340     4.5700    -0.2120 C.3   1 <1>   0.2090 
  7 N        0.4850     5.1070     0.1490 N.pl3 1 <1>  -0.8380 
  8 C        0.1470     6.4070    -0.0450 C.ar  1 <1>   0.4100 
  9 N        1.1110     7.3090     0.0100 N.ar  1 <1>  -0.6200 
 10 C       -1.1850     6.7840    -0.3030 C.ar  1 <1>  -0.1500 
 11 C        0.7930     8.5720    -0.1540 C.ar  1 <1>   0.7710 
 12 C       -1.4830     8.0930    -0.4750 C.ar  1 <1>   0.2110 
 13 N       -0.4660     8.9870    -0.3920 N.ar  1 <1>  -0.1790 
 14 N        1.8280     9.4210    -0.0720 N.pl3 1 <1>  -0.8690 
 15 C        2.0350    10.9100    -0.1110 C.3   1 <1>   0.2090 
 16 C        3.3010    11.3590     0.6920 C.3   1 <1>   0.5660 
 17 N        3.7870    12.7420     0.3610 N.4   1 <1>  -0.9590 
 18 C        4.4380    10.3770     0.4320 C.ar  1 <1>  -0.1430 
 19 C        5.0200    13.0960     1.1320 C.3   1 <1>   0.3430 
 20 C        2.7830    13.8230     0.5400 C.3   1 <1>   0.3430 
 21 C        5.0010    10.2320    -0.8320 C.ar  1 <1>  -0.1500 
 22 C        4.9170     9.6020     1.4800 C.ar  1 <1>  -0.1500 
 23 C        5.9030    14.0540     0.3260 C.3   1 <1>  -0.1600 
 24 C        2.7820    14.7380    -0.6850 C.3   1 <1>  -0.1600 
 25 C        6.0290     9.3290    -1.0380 C.ar  1 <1>  -0.1500 
 26 C        5.9440     8.7000     1.2700 C.ar  1 <1>  -0.1500 
 27 C        5.2360    15.3560    -0.1590 C.3   1 <1>  -0.1600 
 28 C        4.1660    15.1260    -1.2380 C.3   1 <1>  -0.1600 
 29 C        6.5010     8.5640     0.0120 C.ar  1 <1>  -0.1500 
 30 H       -0.0570     0.6780    -1.2570 H     1 <1>   0.4000 
 31 H        1.2090     1.8530     0.2240 H     1 <1>   0.0800 
 32 H       -1.2120     2.1730     0.2730 H     1 <1>   0.0800 
 33 H       -1.1330     3.2950    -1.0670 H     1 <1>   0.0800 
 34 H        1.2610     3.7850    -2.1110 H     1 <1>   0.0800 
 35 H        2.6290     2.9720    -1.3930 H     1 <1>   0.0800 
 36 H        0.0680     3.7200     1.6740 H     1 <1>   0.0800 
 37 H       -1.3490     4.5100     1.0590 H     1 <1>   0.0800 
 38 H        2.4430     5.3280    -0.6740 H     1 <1>   0.0800 
 39 H        2.3360     4.2380     0.6810 H     1 <1>   0.0800 
 40 H       -1.9400     6.0230    -0.3760 H     1 <1>   0.1500 
 41 H       -2.4830     8.4420    -0.6800 H     1 <1>   0.1500 
 42 H       -0.6160     9.9780    -0.5340 H     1 <1>   0.4570 
 43 H        2.7160     8.8960     0.0200 H     1 <1>   0.4000 
 44 H        1.1670    11.4060     0.2860 H     1 <1>   0.0800 
 45 H        2.1640    11.1990    -1.1400 H     1 <1>   0.0800 
 46 H        3.0570    11.3220     1.7410 H     1 <1>   0.0800 
 47 H        4.0840    12.7450    -0.6220 H     1 <1>   0.4500 
 48 H        5.6020    12.2140     1.3460 H     1 <1>   0.0800 
 49 H        4.7530    13.5500     2.0730 H     1 <1>   0.0800 
 50 H        3.0300    14.4060     1.4140 H     1 <1>   0.0800 
 51 H        1.7950    13.4200     0.6840 H     1 <1>   0.0800 
 52 H        4.6570    10.8060    -1.6750 H     1 <1>   0.1500 
 53 H        4.5030     9.6820     2.4720 H     1 <1>   0.1500 
 54 H        6.3200    13.5260    -0.5140 H     1 <1>   0.0800 
 55 H        6.7350    14.3240     0.9540 H     1 <1>   0.0800 
 56 H        2.2660    15.6410    -0.4040 H     1 <1>   0.0800 
 57 H        2.2020    14.2890    -1.4720 H     1 <1>   0.0800 
 58 H        6.4660     9.2150    -2.0170 H     1 <1>   0.1500 
 59 H        6.3150     8.1000     2.0850 H     1 <1>   0.1500 
 60 H        6.0100    15.9700    -0.5930 H     1 <1>   0.0800 
 61 H        4.8300    15.9130     0.6690 H     1 <1>   0.0800 
 62 H        4.0510    16.0390    -1.8010 H     1 <1>   0.0800 
 63 H        4.5140    14.3840    -1.9370 H     1 <1>   0.0800 
 64 H        7.3010     7.8610    -0.1500 H     1 <1>   0.1500 
@<TRIPOS>BOND
  1   1   2  1   
  2   1  30  1   
  3   2   3  1   
  4   2   4  1   
  5   2  31  1   
  6   3   5  1   
  7   3  32  1   
  8   3  33  1   
  9   4   6  1   
 10   4  34  1   
 11   4  35  1   
 12   5   7  1   
 13   5  36  1   
 14   5  37  1   
 15   6   7  1   
 16   6  38  1   
 17   6  39  1   
 18   7   8  1   
 19   8   9  ar  
 20   8  10  ar  
 21   9  11  ar  
 22  10  12  ar  
 23  10  40  1   
 24  11  13  ar  
 25  11  14  1   
 26  12  13  ar  
 27  12  41  1   
 28  13  42  1   
 29  14  15  1   
 30  14  43  1   
 31  15  16  1   
 32  15  44  1   
 33  15  45  1   
 34  16  17  1   
 35  16  18  1   
 36  16  46  1   
 37  17  19  1   
 38  17  20  1   
 39  17  47  1   
 40  18  21  ar  
 41  18  22  ar  
 42  19  23  1   
 43  19  48  1   
 44  19  49  1   
 45  20  24  1   
 46  20  50  1   
 47  20  51  1   
 48  21  25  ar  
 49  21  52  1   
 50  22  26  ar  
 51  22  53  1   
 52  23  27  1   
 53  23  54  1   
 54  23  55  1   
 55  24  28  1   
 56  24  56  1   
 57  24  57  1   
 58  25  29  ar  
 59  25  58  1   
 60  26  29  ar  
 61  26  59  1   
 62  27  28  1   
 63  27  60  1   
 64  27  61  1   
 65  28  62  1   
 66  28  63  1   
 67  29  64  1   
@<TRIPOS>SUBSTRUCTURE
  1 ****  14 GROUP 4 **** **** 0

# MOE 2024.06 (io_trps.svl 2023.06)
