@<TRIPOS>MOLECULE
NONAME
53 55 1 0 0 
SMALL
USER_CHARGES


@<TRIPOS>ATOM
  1 O       -1.2690     1.3050    -0.7960 O.2   1 <1>  -0.5700 
  2 C       -0.6990     2.1590    -0.1370 C.2   1 <1>   0.5440 
  3 N        0.5080     1.8200     0.4620 N.am  1 <1>  -0.6600 
  4 C       -1.3280     3.4750     0.0070 C.ar  1 <1>   0.3960 
  5 C        1.2150     0.5490     0.1400 C.3   1 <1>   0.0600 
  6 C        1.1560     2.6340     1.5250 C.3   1 <1>   0.0600 
  7 N       -0.5980     4.5960    -0.1520 N.ar  1 <1>  -0.6200 
  8 C       -2.6910     3.5260     0.2990 C.ar  1 <1>  -0.1500 
  9 C       -1.2340     5.7370    -0.0220 C.ar  1 <1>   0.4100 
 10 C       -3.3430     4.7320     0.4490 C.ar  1 <1>  -0.1500 
 11 N       -0.4170     6.8020    -0.2400 N.pl3 1 <1>  -0.8690 
 12 C       -2.5840     5.8630     0.2850 C.ar  1 <1>  -0.1500 
 13 C       -0.7150     7.6620    -1.4170 C.3   1 <1>   0.2890 
 14 C        0.6240     8.0830    -2.0590 C.3   1 <1>   0.3430 
 15 C       -1.5020     8.9010    -0.9260 C.3   1 <1>  -0.1600 
 16 N        1.3410     8.9610    -1.0810 N.4   1 <1>  -0.9590 
 17 C       -0.8180    10.2420    -1.2700 C.3   1 <1>  -0.1600 
 18 C        0.6750    10.2920    -0.9010 C.3   1 <1>   0.3430 
 19 C        2.8020     9.0740    -1.3270 C.3   1 <1>   0.4860 
 20 C        3.4330     9.7600    -0.1330 C.ar  1 <1>  -0.1430 
 21 C        3.7770    11.1010    -0.2070 C.ar  1 <1>  -0.1500 
 22 C        3.6640     9.0610     1.0460 C.ar  1 <1>  -0.1500 
 23 C        4.3300    11.7350     0.8900 C.ar  1 <1>   0.0820 
 24 C        4.2230     9.7010     2.1400 C.ar  1 <1>  -0.1500 
 25 O        4.6400    13.0340     0.7930 O.3   1 <1>  -0.5330 
 26 C        4.5560    11.0420     2.0660 C.ar  1 <1>  -0.1500 
 27 H        0.8300     0.1160    -0.7670 H     1 <1>   0.0800 
 28 H        1.0790    -0.1550     0.9430 H     1 <1>   0.0800 
 29 H        2.2660     0.7380     0.0060 H     1 <1>   0.0800 
 30 H        0.4540     3.3200     1.9650 H     1 <1>   0.0800 
 31 H        1.9740     3.1910     1.1040 H     1 <1>   0.0800 
 32 H        1.5300     1.9900     2.3020 H     1 <1>   0.0800 
 33 H       -3.2340     2.6030     0.4060 H     1 <1>   0.1500 
 34 H       -4.3940     4.7780     0.6830 H     1 <1>   0.1500 
 35 H        0.5160     6.3850    -0.2980 H     1 <1>   0.4000 
 36 H       -3.0220     6.8360     0.3950 H     1 <1>   0.1500 
 37 H       -1.2980     7.1080    -2.1360 H     1 <1>   0.0800 
 38 H        0.4420     8.6180    -2.9760 H     1 <1>   0.0800 
 39 H        1.2010     7.2010    -2.2830 H     1 <1>   0.0800 
 40 H       -1.6340     8.8530     0.1420 H     1 <1>   0.0800 
 41 H       -2.4840     8.8880    -1.3680 H     1 <1>   0.0800 
 42 H        1.2250     8.4890    -0.1690 H     1 <1>   0.4500 
 43 H       -1.3280    11.0480    -0.7690 H     1 <1>   0.0800 
 44 H       -0.9150    10.4300    -2.3250 H     1 <1>   0.0800 
 45 H        1.1600    11.0370    -1.5110 H     1 <1>   0.0800 
 46 H        0.7810    10.5980     0.1290 H     1 <1>   0.0800 
 47 H        2.9880     9.6470    -2.2220 H     1 <1>   0.0800 
 48 H        3.2390     8.0960    -1.4480 H     1 <1>   0.0800 
 49 H        3.6280    11.6760    -1.1040 H     1 <1>   0.1500 
 50 H        3.4170     8.0160     1.1300 H     1 <1>   0.1500 
 51 H        4.4010     9.1550     3.0520 H     1 <1>   0.1500 
 52 H        5.0560    13.3950     1.5980 H     1 <1>   0.4500 
 53 H        4.9890    11.5350     2.9190 H     1 <1>   0.1500 
@<TRIPOS>BOND
  1   1   2  2   
  2   2   3  am  
  3   2   4  1   
  4   3   5  1   
  5   3   6  1   
  6   4   7  ar  
  7   4   8  ar  
  8   5  27  1   
  9   5  28  1   
 10   5  29  1   
 11   6  30  1   
 12   6  31  1   
 13   6  32  1   
 14   7   9  ar  
 15   8  10  ar  
 16   8  33  1   
 17   9  11  1   
 18   9  12  ar  
 19  10  12  ar  
 20  10  34  1   
 21  11  13  1   
 22  11  35  1   
 23  12  36  1   
 24  13  14  1   
 25  13  15  1   
 26  13  37  1   
 27  14  16  1   
 28  14  38  1   
 29  14  39  1   
 30  15  17  1   
 31  15  40  1   
 32  15  41  1   
 33  16  18  1   
 34  16  19  1   
 35  16  42  1   
 36  17  18  1   
 37  17  43  1   
 38  17  44  1   
 39  18  45  1   
 40  18  46  1   
 41  19  20  1   
 42  19  47  1   
 43  19  48  1   
 44  20  21  ar  
 45  20  22  ar  
 46  21  23  ar  
 47  21  49  1   
 48  22  24  ar  
 49  22  50  1   
 50  23  25  1   
 51  23  26  ar  
 52  24  26  ar  
 53  24  51  1   
 54  25  52  1   
 55  26  53  1   
@<TRIPOS>SUBSTRUCTURE
  1 ****  11 GROUP 4 **** **** 0

# MOE 2024.06 (io_trps.svl 2023.06)
