@<TRIPOS>MOLECULE
NONAME
49 51 1 0 0 
SMALL
USER_CHARGES


@<TRIPOS>ATOM
  1 S       -3.1370    -0.7550     0.5390 S.3   1 <1>  -0.0800 
  2 C       -1.9250    -1.7990    -0.1760 C.2   1 <1>   0.1980 
  3 C       -3.0960    -1.7310     1.9760 C.2   1 <1>  -0.1100 
  4 N       -1.5300    -2.7380     0.5900 N.2   1 <1>  -0.5650 
  5 C       -1.4960    -1.4760    -1.6040 C.3   1 <1>   0.1000 
  6 C       -2.1980    -2.7140     1.8100 C.2   1 <1>   0.0460 
  7 C       -1.0890    -2.7430    -2.3680 C.3   1 <1>  -0.2400 
  8 C       -0.3450    -0.4630    -1.6020 C.3   1 <1>  -0.2400 
  9 C       -1.8790    -3.7920     2.8390 C.3   1 <1>   0.3210 
 10 N       -2.2910    -5.1310     2.3300 N.am  1 <1>  -0.6600 
 11 C       -3.6250    -5.4540     2.3110 C.2   1 <1>   0.5690 
 12 C       -1.2210    -5.8910     1.6250 C.3   1 <1>   0.0600 
 13 O       -4.4210    -4.8200     2.9720 O.2   1 <1>  -0.5700 
 14 C       -4.1440    -6.6030     1.4290 C.3   1 <1>   0.2610 
 15 O       -4.1630    -7.8290     2.1440 O.3   1 <1>  -0.5600 
 16 C       -5.5360    -6.2590     0.8430 C.3   1 <1>   0.3640 
 17 C       -4.5400    -8.9540     1.3790 C.3   1 <1>   0.1810 
 18 N       -6.2160    -7.4620     0.3020 N.am  1 <1>  -0.7300 
 19 C       -5.3980    -5.2220    -0.2700 C.ar  1 <1>  -0.1440 
 20 C       -5.8060    -8.7250     0.5460 C.2   1 <1>   0.5690 
 21 C       -5.0140    -5.5810    -1.5560 C.ar  1 <1>  -0.1500 
 22 C       -5.6440    -3.8840     0.0070 C.ar  1 <1>  -0.1500 
 23 O       -6.4070    -9.6650     0.0920 O.2   1 <1>  -0.5700 
 24 C       -4.8820    -4.6220    -2.5460 C.ar  1 <1>  -0.1500 
 25 C       -5.5150    -2.9250    -0.9820 C.ar  1 <1>  -0.1500 
 26 C       -5.1330    -3.2930    -2.2590 C.ar  1 <1>  -0.1500 
 27 H       -3.7520    -1.4730     2.7860 H     1 <1>   0.1500 
 28 H       -2.3390    -1.0400    -2.1120 H     1 <1>   0.0800 
 29 H       -0.2360    -3.2020    -1.9010 H     1 <1>   0.0800 
 30 H       -0.8450    -2.5080    -3.3880 H     1 <1>   0.0800 
 31 H       -1.9020    -3.4490    -2.3590 H     1 <1>   0.0800 
 32 H        0.5070    -0.8730    -1.0880 H     1 <1>   0.0800 
 33 H       -0.6450     0.4390    -1.1000 H     1 <1>   0.0800 
 34 H       -0.0580    -0.2170    -2.6090 H     1 <1>   0.0800 
 35 H       -2.4030    -3.5820     3.7550 H     1 <1>   0.0800 
 36 H       -0.8250    -3.7830     3.0510 H     1 <1>   0.0800 
 37 H       -0.2910    -5.7980     2.1600 H     1 <1>   0.0800 
 38 H       -1.0920    -5.4950     0.6320 H     1 <1>   0.0800 
 39 H       -1.4710    -6.9350     1.5680 H     1 <1>   0.0800 
 40 H       -3.4690    -6.7250     0.6040 H     1 <1>   0.0800 
 41 H       -6.1600    -5.8590     1.6240 H     1 <1>   0.0800 
 42 H       -3.7250    -9.2080     0.7270 H     1 <1>   0.0800 
 43 H       -4.7060    -9.7700     2.0590 H     1 <1>   0.0800 
 44 H       -7.0600    -7.3100    -0.2520 H     1 <1>   0.3700 
 45 H       -4.8150    -6.6110    -1.8000 H     1 <1>   0.1500 
 46 H       -5.9300    -3.5780     1.0000 H     1 <1>   0.1500 
 47 H       -4.5860    -4.9110    -3.5390 H     1 <1>   0.1500 
 48 H       -5.7090    -1.8920    -0.7540 H     1 <1>   0.1500 
 49 H       -5.0330    -2.5460    -3.0270 H     1 <1>   0.1500 
@<TRIPOS>BOND
  1   1   2  1   
  2   1   3  1   
  3   2   4  2   
  4   2   5  1   
  5   3   6  2   
  6   3  27  1   
  7   4   6  1   
  8   5   7  1   
  9   5   8  1   
 10   5  28  1   
 11   6   9  1   
 12   7  29  1   
 13   7  30  1   
 14   7  31  1   
 15   8  32  1   
 16   8  33  1   
 17   8  34  1   
 18   9  10  1   
 19   9  35  1   
 20   9  36  1   
 21  10  11  am  
 22  10  12  1   
 23  11  13  2   
 24  11  14  1   
 25  12  37  1   
 26  12  38  1   
 27  12  39  1   
 28  14  15  1   
 29  14  16  1   
 30  14  40  1   
 31  15  17  1   
 32  16  18  1   
 33  16  19  1   
 34  16  41  1   
 35  17  20  1   
 36  17  42  1   
 37  17  43  1   
 38  18  20  am  
 39  18  44  1   
 40  19  21  ar  
 41  19  22  ar  
 42  20  23  2   
 43  21  24  ar  
 44  21  45  1   
 45  22  25  ar  
 46  22  46  1   
 47  24  26  ar  
 48  24  47  1   
 49  25  26  ar  
 50  25  48  1   
 51  26  49  1   
@<TRIPOS>SUBSTRUCTURE
  1 ****  19 GROUP 4 **** **** 0

# MOE 2024.06 (io_trps.svl 2023.06)
