@<TRIPOS>MOLECULE
NONAME
52 55 1 0 0 
SMALL
USER_CHARGES


@<TRIPOS>ATOM
  1 O       -2.7930     2.5070    -1.1550 O.2   1 <1>  -0.5700 
  2 C       -2.4010     2.0670    -0.1010 C.2   1 <1>   0.5690 
  3 N       -2.4010     0.7320     0.1510 N.am  1 <1>  -0.7300 
  4 C       -1.8810     3.0320     0.9750 C.3   1 <1>   0.1710 
  5 C       -2.7720    -0.3200    -0.8200 C.3   1 <1>   0.2200 
  6 N       -0.4360     3.3770     0.8910 N.3   1 <1>  -0.8100 
  7 C       -3.8410    -1.2120    -0.2080 C.3   1 <1>  -0.0800 
  8 C       -1.6100    -1.2930    -0.9650 C.3   1 <1>   0.1200 
  9 C       -0.0990     4.0490    -0.3740 C.3   1 <1>   0.2530 
 10 C        0.4550     2.2410     1.1950 C.3   1 <1>   0.1100 
 11 C       -3.0140    -2.2340     0.5880 C.3   1 <1>   0.1200 
 12 C       -4.7060    -1.8810    -1.2950 C.3   1 <1>  -0.0160 
 13 O       -1.6900    -2.1270     0.1490 O.3   1 <1>  -0.5600 
 14 C        1.0290     5.0610    -0.1830 C.ar  1 <1>  -0.1440 
 15 C        1.9390     2.5040     0.8960 C.3   1 <1>   0.1200 
 16 C       -5.7800    -2.7710    -0.6870 C.ar  1 <1>  -0.1440 
 17 C        2.1270     4.8760     0.6650 C.ar  1 <1>   0.0820 
 18 C        0.9340     6.2520    -0.8930 C.ar  1 <1>  -0.1500 
 19 O        2.3570     3.7550     1.3910 O.3   1 <1>  -0.3630 
 20 C       -5.6890    -4.1480    -0.7060 C.ar  1 <1>  -0.1500 
 21 C       -6.9060    -2.2430    -0.0870 C.ar  1 <1>  -0.1500 
 22 C        3.0750     5.8790     0.8010 C.ar  1 <1>  -0.1500 
 23 C        1.8910     7.2430    -0.7630 C.ar  1 <1>  -0.1500 
 24 C       -6.6960    -4.9090    -0.1340 C.ar  1 <1>   0.1600 
 25 C       -7.8550    -3.0930     0.4550 C.ar  1 <1>   0.1600 
 26 C        2.9640     7.0590     0.0900 C.ar  1 <1>  -0.1500 
 27 N       -7.7760    -4.4140     0.4490 N.ar  1 <1>  -0.6200 
 28 H       -2.0050     0.3690     1.0210 H     1 <1>   0.3700 
 29 H       -2.0810     2.6120     1.9440 H     1 <1>   0.0800 
 30 H       -2.4530     3.9400     0.9050 H     1 <1>   0.0800 
 31 H       -3.0630     0.1140    -1.7620 H     1 <1>   0.0800 
 32 H       -4.4870    -0.6510     0.4440 H     1 <1>   0.0800 
 33 H       -0.6540    -0.8000    -0.9840 H     1 <1>   0.0800 
 34 H       -1.7250    -1.9020    -1.8440 H     1 <1>   0.0800 
 35 H        0.1670     3.3270    -1.1270 H     1 <1>   0.0800 
 36 H       -0.9660     4.5790    -0.7310 H     1 <1>   0.0800 
 37 H        0.3560     1.9980     2.2390 H     1 <1>   0.0800 
 38 H        0.1580     1.3770     0.6270 H     1 <1>   0.0800 
 39 H       -3.3430    -3.2470     0.4380 H     1 <1>   0.0800 
 40 H       -3.0290    -2.0080     1.6400 H     1 <1>   0.0800 
 41 H       -4.0890    -2.4630    -1.9570 H     1 <1>   0.0800 
 42 H       -5.1860    -1.1200    -1.8860 H     1 <1>   0.0800 
 43 H        2.1380     2.4720    -0.1610 H     1 <1>   0.0800 
 44 H        2.5420     1.7530     1.3730 H     1 <1>   0.0800 
 45 H        0.1030     6.4200    -1.5560 H     1 <1>   0.1500 
 46 H       -4.8480    -4.6400    -1.1580 H     1 <1>   0.1500 
 47 H       -7.0550    -1.1800    -0.0370 H     1 <1>   0.1500 
 48 H        3.9030     5.7240     1.4670 H     1 <1>   0.1500 
 49 H        1.7980     8.1580    -1.3210 H     1 <1>   0.1500 
 50 H       -6.6070    -5.9820    -0.1560 H     1 <1>   0.1500 
 51 H       -8.7270    -2.6640     0.9190 H     1 <1>   0.1500 
 52 H        3.7070     7.8280     0.2010 H     1 <1>   0.1500 
@<TRIPOS>BOND
  1   1   2  2   
  2   2   3  am  
  3   2   4  1   
  4   3   5  1   
  5   3  28  1   
  6   4   6  1   
  7   4  29  1   
  8   4  30  1   
  9   5   7  1   
 10   5   8  1   
 11   5  31  1   
 12   6   9  1   
 13   6  10  1   
 14   7  11  1   
 15   7  12  1   
 16   7  32  1   
 17   8  13  1   
 18   8  33  1   
 19   8  34  1   
 20   9  14  1   
 21   9  35  1   
 22   9  36  1   
 23  10  15  1   
 24  10  37  1   
 25  10  38  1   
 26  11  13  1   
 27  11  39  1   
 28  11  40  1   
 29  12  16  1   
 30  12  41  1   
 31  12  42  1   
 32  14  17  ar  
 33  14  18  ar  
 34  15  19  1   
 35  15  43  1   
 36  15  44  1   
 37  16  20  ar  
 38  16  21  ar  
 39  17  19  1   
 40  17  22  ar  
 41  18  23  ar  
 42  18  45  1   
 43  20  24  ar  
 44  20  46  1   
 45  21  25  ar  
 46  21  47  1   
 47  22  26  ar  
 48  22  48  1   
 49  23  26  ar  
 50  23  49  1   
 51  24  27  ar  
 52  24  50  1   
 53  25  27  ar  
 54  25  51  1   
 55  26  52  1   
@<TRIPOS>SUBSTRUCTURE
  1 ****   3 GROUP 4 **** **** 0

# MOE 2024.06 (io_trps.svl 2023.06)
