@<TRIPOS>MOLECULE
NONAME
45 47 1 0 0 
SMALL
USER_CHARGES


@<TRIPOS>ATOM
  1 S       -1.4230    -0.4810    -0.8510 S.3   1 <1>  -0.3320 
  2 C       -2.1090     0.6550     0.3610 C.ar  1 <1>   0.4120 
  3 C       -0.5010     0.5880    -2.0450 C.3   1 <1>  -0.0100 
  4 N       -1.8910     1.9370     0.1020 N.ar  1 <1>  -0.6200 
  5 C       -2.8090     0.1420     1.4540 C.ar  1 <1>   0.0860 
  6 C       -2.3800     2.7800     0.9960 C.ar  1 <1>   0.1600 
  7 C       -3.0240    -1.2690     1.6470 C.2   1 <1>   0.5440 
  8 C       -3.3030     1.0620     2.3690 C.ar  1 <1>  -0.1500 
  9 C       -3.0810     2.4010     2.1280 C.ar  1 <1>  -0.1500 
 10 O       -2.3630    -1.8710     2.4720 O.2   1 <1>  -0.5700 
 11 N       -4.0000    -1.9440     0.9560 N.am  1 <1>  -0.6600 
 12 C       -4.8530    -1.3830    -0.1230 C.3   1 <1>   0.1400 
 13 C       -4.2330    -3.3980     1.0850 C.3   1 <1>   0.1400 
 14 C       -5.7060    -2.5560    -0.6290 C.3   1 <1>   0.2000 
 15 C       -4.9000    -3.7980    -0.2320 C.3   1 <1>  -0.0800 
 16 O       -6.9330    -2.5780     0.0450 O.3   1 <1>  -0.5600 
 17 C       -5.7250    -5.0940    -0.1360 C.3   1 <1>   0.0200 
 18 C       -7.9300    -1.7800    -0.5110 C.3   1 <1>   0.0400 
 19 C       -4.8720    -6.3340     0.0780 C.2   1 <1>  -0.0400 
 20 O       -5.4680    -7.4850     0.2460 O.3   1 <1>  -0.0190 
 21 C       -3.5480    -6.5500     0.1360 C.2   1 <1>  -0.1500 
 22 N       -4.6170    -8.4560     0.4150 N.2   1 <1>  -0.4100 
 23 C       -3.4520    -7.9210     0.3550 C.2   1 <1>   0.1080 
 24 C       -2.1550    -8.6850     0.5040 C.3   1 <1>  -0.0590 
 25 H       -0.0540    -0.0520    -2.7830 H     1 <1>   0.0800 
 26 H        0.2490     1.1240    -1.4930 H     1 <1>   0.0800 
 27 H       -1.2050     1.2650    -2.4940 H     1 <1>   0.0800 
 28 H       -2.2140     3.8300     0.8180 H     1 <1>   0.1500 
 29 H       -3.8400     0.7250     3.2400 H     1 <1>   0.1500 
 30 H       -3.4450     3.1470     2.8120 H     1 <1>   0.1500 
 31 H       -5.4610    -0.5780     0.2490 H     1 <1>   0.0800 
 32 H       -4.2240    -1.0280    -0.9190 H     1 <1>   0.0800 
 33 H       -3.3080    -3.9230     1.2500 H     1 <1>   0.0800 
 34 H       -4.8970    -3.5680     1.9160 H     1 <1>   0.0800 
 35 H       -5.8820    -2.5140    -1.6900 H     1 <1>   0.0800 
 36 H       -4.1240    -3.9320    -0.9650 H     1 <1>   0.0800 
 37 H       -6.2870    -5.2240    -1.0430 H     1 <1>   0.0800 
 38 H       -6.4290    -5.0180     0.6740 H     1 <1>   0.0800 
 39 H       -8.8100    -1.8720     0.1010 H     1 <1>   0.0800 
 40 H       -8.1470    -2.1250    -1.5070 H     1 <1>   0.0800 
 41 H       -7.6080    -0.7540    -0.5260 H     1 <1>   0.0800 
 42 H       -2.7250    -5.8670     0.0420 H     1 <1>   0.1500 
 43 H       -1.5600    -8.5680    -0.3820 H     1 <1>   0.0800 
 44 H       -2.3600    -9.7290     0.6530 H     1 <1>   0.0800 
 45 H       -1.6090    -8.3120     1.3510 H     1 <1>   0.0800 
@<TRIPOS>BOND
  1   1   2  1   
  2   1   3  1   
  3   2   4  ar  
  4   2   5  ar  
  5   3  25  1   
  6   3  26  1   
  7   3  27  1   
  8   4   6  ar  
  9   5   7  1   
 10   5   8  ar  
 11   6   9  ar  
 12   6  28  1   
 13   7  10  2   
 14   7  11  am  
 15   8   9  ar  
 16   8  29  1   
 17   9  30  1   
 18  11  12  1   
 19  11  13  1   
 20  12  14  1   
 21  12  31  1   
 22  12  32  1   
 23  13  15  1   
 24  13  33  1   
 25  13  34  1   
 26  14  15  1   
 27  14  16  1   
 28  14  35  1   
 29  15  17  1   
 30  15  36  1   
 31  16  18  1   
 32  17  19  1   
 33  17  37  1   
 34  17  38  1   
 35  18  39  1   
 36  18  40  1   
 37  18  41  1   
 38  19  20  1   
 39  19  21  2   
 40  20  22  1   
 41  21  23  1   
 42  21  42  1   
 43  22  23  2   
 44  23  24  1   
 45  24  43  1   
 46  24  44  1   
 47  24  45  1   
@<TRIPOS>SUBSTRUCTURE
  1 ****  11 GROUP 4 **** **** 0

# MOE 2024.06 (io_trps.svl 2023.06)
