@<TRIPOS>MOLECULE
NONAME
52 54 1 0 0 
SMALL
USER_CHARGES


@<TRIPOS>ATOM
  1 CL      -0.3170    -1.4220     1.8530 Cl    1 <1>  -0.1770 
  2 C       -1.5550    -1.5610     0.6260 C.ar  1 <1>   0.1770 
  3 C       -2.2190    -0.4400     0.1410 C.ar  1 <1>   0.0820 
  4 C       -1.8670    -2.8260     0.1620 C.ar  1 <1>  -0.1500 
  5 O       -1.9570     0.8060     0.5910 O.3   1 <1>  -0.3630 
  6 C       -3.2070    -0.6020    -0.8160 C.ar  1 <1>  -0.1500 
  7 C       -2.8670    -2.9870    -0.7890 C.ar  1 <1>  -0.1430 
  8 C       -0.7870     1.4270     0.1060 C.3   1 <1>   0.0400 
  9 C       -3.5260    -1.8660    -1.2820 C.ar  1 <1>  -0.1500 
 10 C       -3.2520    -4.3730    -1.2710 C.3   1 <1>   0.4870 
 11 N       -4.0380    -5.0430    -0.1870 N.4   1 <1>  -0.9590 
 12 C       -4.3110    -6.4950    -0.4900 C.3   1 <1>   0.3430 
 13 C       -5.2830    -4.2630     0.1380 C.3   1 <1>   0.3430 
 14 C       -5.3530    -7.0540     0.5160 C.3   1 <1>   0.4230 
 15 C       -6.2610    -5.0760     1.0120 C.3   1 <1>  -0.1600 
 16 N       -5.3210    -8.5350     0.8500 N.4   1 <1>  -0.9590 
 17 C       -6.7830    -6.3910     0.2250 C.3   1 <1>   0.0000 
 18 C       -5.4980    -9.4330    -0.3070 C.3   1 <1>   0.3430 
 19 C       -4.1600    -8.9670     1.6950 C.3   1 <1>   0.2630 
 20 C       -7.3180    -7.6530    -0.6330 C.3   1 <1>  -0.1600 
 21 C       -8.2190    -5.6990     0.0320 C.3   1 <1>   0.1200 
 22 C       -6.4100    -8.7270    -1.2860 C.3   1 <1>  -0.1600 
 23 O       -8.8900    -5.8270     1.2430 O.3   1 <1>  -0.6800 
 24 H       -1.3150    -3.6590     0.5600 H     1 <1>   0.1500 
 25 H       -3.7200     0.2690    -1.1880 H     1 <1>   0.1500 
 26 H       -0.7380     2.4180     0.5190 H     1 <1>   0.0800 
 27 H       -0.8380     1.4780    -0.9670 H     1 <1>   0.0800 
 28 H        0.0730     0.8610     0.4150 H     1 <1>   0.0800 
 29 H       -4.2950    -1.9550    -2.0320 H     1 <1>   0.1500 
 30 H       -2.3570    -4.9330    -1.4900 H     1 <1>   0.0800 
 31 H       -3.8380    -4.2980    -2.1730 H     1 <1>   0.0800 
 32 H       -3.4380    -4.9690     0.6490 H     1 <1>   0.4500 
 33 H       -4.7020    -6.5880    -1.4890 H     1 <1>   0.0800 
 34 H       -3.3950    -7.0580    -0.4190 H     1 <1>   0.0800 
 35 H       -5.0150    -3.3500     0.6490 H     1 <1>   0.0800 
 36 H       -5.7850    -3.9870    -0.7760 H     1 <1>   0.0800 
 37 H       -4.9770    -6.6720     1.4440 H     1 <1>   0.0800 
 38 H       -5.8400    -5.2640     1.9870 H     1 <1>   0.0800 
 39 H       -6.9880    -4.3360     1.3110 H     1 <1>   0.0800 
 40 H       -6.1710    -8.6810     1.4240 H     1 <1>   0.4500 
 41 H       -4.5540    -9.6570    -0.7780 H     1 <1>   0.0800 
 42 H       -5.9490   -10.3590     0.0160 H     1 <1>   0.0800 
 43 H       -3.2340    -8.8660     1.1530 H     1 <1>   0.0800 
 44 H       -4.2730   -10.0010     1.9820 H     1 <1>   0.0800 
 45 H       -4.1060    -8.3750     2.5940 H     1 <1>   0.0800 
 46 H       -8.0540    -8.1800    -0.0420 H     1 <1>   0.0800 
 47 H       -7.8100    -7.3310    -1.5390 H     1 <1>   0.0800 
 48 H       -8.9250    -6.0810    -0.6870 H     1 <1>   0.0800 
 49 H       -8.1740    -4.6540    -0.2350 H     1 <1>   0.0800 
 50 H       -5.8180    -8.2900    -2.0710 H     1 <1>   0.0800 
 51 H       -7.0250    -9.4720    -1.7630 H     1 <1>   0.0800 
 52 H       -9.8050    -5.4740     1.1900 H     1 <1>   0.4000 
@<TRIPOS>BOND
  1   1   2  1   
  2   2   3  ar  
  3   2   4  ar  
  4   3   5  1   
  5   3   6  ar  
  6   4   7  ar  
  7   4  24  1   
  8   5   8  1   
  9   6   9  ar  
 10   6  25  1   
 11   7   9  ar  
 12   7  10  1   
 13   8  26  1   
 14   8  27  1   
 15   8  28  1   
 16   9  29  1   
 17  10  11  1   
 18  10  30  1   
 19  10  31  1   
 20  11  12  1   
 21  11  13  1   
 22  11  32  1   
 23  12  14  1   
 24  12  33  1   
 25  12  34  1   
 26  13  15  1   
 27  13  35  1   
 28  13  36  1   
 29  14  16  1   
 30  14  17  1   
 31  14  37  1   
 32  15  17  1   
 33  15  38  1   
 34  15  39  1   
 35  16  18  1   
 36  16  19  1   
 37  16  40  1   
 38  17  20  1   
 39  17  21  1   
 40  18  22  1   
 41  18  41  1   
 42  18  42  1   
 43  19  43  1   
 44  19  44  1   
 45  19  45  1   
 46  20  22  1   
 47  20  46  1   
 48  20  47  1   
 49  21  23  1   
 50  21  48  1   
 51  21  49  1   
 52  22  50  1   
 53  22  51  1   
 54  23  52  1   
@<TRIPOS>SUBSTRUCTURE
  1 ****  11 GROUP 4 **** **** 0

# MOE 2024.06 (io_trps.svl 2023.06)
