@<TRIPOS>MOLECULE
NONAME
36 36 1 0 0 
SMALL
USER_CHARGES


@<TRIPOS>ATOM
  1 O       -1.2370    -0.3900    -0.8980 O.2   1 <1>  -0.5700 
  2 C       -1.8450     0.4890    -0.3230 C.2   1 <1>   0.5690 
  3 N       -2.7750     0.1580     0.6390 N.am  1 <1>  -0.6600 
  4 C       -1.5140     1.9410    -0.7460 C.3   1 <1>   0.2610 
  5 C       -2.8990    -1.2580     1.0980 C.3   1 <1>   0.3200 
  6 C       -3.7450     1.1090     1.2670 C.3   1 <1>   0.1400 
  7 O       -1.2770     2.7970     0.3470 O.3   1 <1>  -0.5600 
  8 C       -2.5980     2.5710    -1.6410 C.3   1 <1>  -0.1600 
  9 C       -3.7850    -2.0540     0.1550 C.2   1 <1>   0.0060 
 10 C       -5.1510     0.9250     0.6820 C.3   1 <1>   0.1200 
 11 C       -0.1050     2.5340     1.0530 C.3   1 <1>   0.0400 
 12 C       -2.1930     3.9430    -2.1980 C.3   1 <1>  -0.2400 
 13 N       -4.9110    -2.6080     0.4770 N.2   1 <1>  -0.5650 
 14 N       -3.4390    -2.2410    -1.1350 N.pl3 1 <1>   0.0330 
 15 O       -5.9920     1.9050     1.1920 O.3   1 <1>  -0.6800 
 16 C       -5.3210    -3.1870    -0.6690 C.2   1 <1>   0.0770 
 17 C       -4.4350    -2.9720    -1.6660 C.2   1 <1>  -0.3020 
 18 H       -0.6050     1.9070    -1.3220 H     1 <1>   0.0800 
 19 H       -3.3150    -1.2910     2.0890 H     1 <1>   0.0800 
 20 H       -1.9250    -1.7150     1.1370 H     1 <1>   0.0800 
 21 H       -3.4370     2.1250     1.1100 H     1 <1>   0.0800 
 22 H       -3.7700     0.9360     2.3290 H     1 <1>   0.0800 
 23 H       -3.5150     2.6710    -1.0910 H     1 <1>   0.0800 
 24 H       -2.7870     1.9060    -2.4660 H     1 <1>   0.0800 
 25 H       -5.5640    -0.0360     0.9330 H     1 <1>   0.0800 
 26 H       -5.1300     1.0380    -0.3880 H     1 <1>   0.0800 
 27 H       -0.0180     3.2640     1.8390 H     1 <1>   0.0800 
 28 H        0.7380     2.6180     0.3890 H     1 <1>   0.0800 
 29 H       -0.1540     1.5480     1.4800 H     1 <1>   0.0800 
 30 H       -2.0370     4.6420    -1.3950 H     1 <1>   0.0800 
 31 H       -2.9700     4.3270    -2.8350 H     1 <1>   0.0800 
 32 H       -1.2850     3.8670    -2.7700 H     1 <1>   0.0800 
 33 H       -2.5880    -1.8620    -1.5740 H     1 <1>   0.2700 
 34 H       -6.2400     1.7020     2.1150 H     1 <1>   0.4000 
 35 H       -6.2470    -3.7350    -0.7170 H     1 <1>   0.1500 
 36 H       -4.4560    -3.2890    -2.6920 H     1 <1>   0.1500 
@<TRIPOS>BOND
  1   1   2  2   
  2   2   3  am  
  3   2   4  1   
  4   3   5  1   
  5   3   6  1   
  6   4   7  1   
  7   4   8  1   
  8   4  18  1   
  9   5   9  1   
 10   5  19  1   
 11   5  20  1   
 12   6  10  1   
 13   6  21  1   
 14   6  22  1   
 15   7  11  1   
 16   8  12  1   
 17   8  23  1   
 18   8  24  1   
 19   9  13  2   
 20   9  14  1   
 21  10  15  1   
 22  10  25  1   
 23  10  26  1   
 24  11  27  1   
 25  11  28  1   
 26  11  29  1   
 27  12  30  1   
 28  12  31  1   
 29  12  32  1   
 30  13  16  1   
 31  14  17  1   
 32  14  33  1   
 33  15  34  1   
 34  16  17  2   
 35  16  35  1   
 36  17  36  1   
@<TRIPOS>SUBSTRUCTURE
  1 ****   3 GROUP 4 **** **** 0

# MOE 2024.06 (io_trps.svl 2023.06)
