@<TRIPOS>MOLECULE
NONAME
56 57 1 0 0 
SMALL
USER_CHARGES


@<TRIPOS>ATOM
  1 O       -1.2900    -0.3240     1.3080 O.2   1 <1>  -0.5700 
  2 C       -1.7390     0.3570     0.4150 C.2   1 <1>   0.5690 
  3 N       -2.5080    -0.2160    -0.5770 N.am  1 <1>  -0.6600 
  4 C       -1.3980     1.8530     0.4860 C.3   1 <1>  -0.0190 
  5 C       -2.6880    -1.7030    -0.5920 C.3   1 <1>   0.1400 
  6 C       -3.1270     0.4860    -1.7360 C.3   1 <1>   0.1400 
  7 C       -2.6250     2.7680     0.6930 C.3   1 <1>  -0.1600 
  8 C       -0.4630     2.3260    -0.6550 C.3   1 <1>  -0.1600 
  9 C       -3.6630    -2.1500     0.4980 C.3   1 <1>   0.1200 
 10 C       -4.6450     0.5330    -1.5740 C.3   1 <1>  -0.2400 
 11 C       -2.2220     4.2320     0.9660 C.3   1 <1>   0.2000 
 12 C       -0.6100     3.8240    -0.9820 C.3   1 <1>  -0.1600 
 13 O       -4.0420    -3.4840     0.2350 O.3   1 <1>  -0.3630 
 14 O       -3.2550     5.0570     0.4850 O.3   1 <1>  -0.5600 
 15 C       -0.8840     4.6340     0.2870 C.3   1 <1>   0.2000 
 16 C       -4.9410    -4.1380     1.0190 C.ar  1 <1>   0.0820 
 17 C       -4.3350     5.2210     1.3510 C.3   1 <1>   0.0400 
 18 O       -0.9330     5.9680    -0.0620 O.3   1 <1>  -0.6800 
 19 C       -5.3340    -5.4180     0.6310 C.ar  1 <1>  -0.1440 
 20 C       -5.4700    -3.5770     2.1800 C.ar  1 <1>  -0.1500 
 21 C       -6.2480    -6.1150     1.4070 C.ar  1 <1>  -0.1500 
 22 C       -4.7800    -6.0740    -0.6280 C.3   1 <1>  -0.0170 
 23 C       -6.3830    -4.2820     2.9430 C.ar  1 <1>  -0.1500 
 24 C       -6.7730    -5.5510     2.5570 C.ar  1 <1>  -0.1500 
 25 C       -3.4480    -6.7690    -0.3330 C.3   1 <1>  -0.2400 
 26 H       -0.8210     1.9640     1.3900 H     1 <1>   0.0800 
 27 H       -3.0610    -2.0160    -1.5510 H     1 <1>   0.0800 
 28 H       -1.7360    -2.1780    -0.4270 H     1 <1>   0.0800 
 29 H       -2.7510     1.4870    -1.8300 H     1 <1>   0.0800 
 30 H       -2.8740    -0.0330    -2.6450 H     1 <1>   0.0800 
 31 H       -3.2020     2.3990     1.5220 H     1 <1>   0.0800 
 32 H       -3.2450     2.7460    -0.1810 H     1 <1>   0.0800 
 33 H        0.5530     2.1330    -0.3520 H     1 <1>   0.0800 
 34 H       -0.6230     1.7580    -1.5530 H     1 <1>   0.0800 
 35 H       -4.5500    -1.5430     0.4840 H     1 <1>   0.0800 
 36 H       -3.1890    -2.1120     1.4620 H     1 <1>   0.0800 
 37 H       -4.9100     0.9900    -0.6370 H     1 <1>   0.0800 
 38 H       -5.0640    -0.4560    -1.6200 H     1 <1>   0.0800 
 39 H       -5.0740     1.1150    -2.3690 H     1 <1>   0.0800 
 40 H       -2.1110     4.3930     2.0250 H     1 <1>   0.0800 
 41 H       -1.4310     3.9610    -1.6640 H     1 <1>   0.0800 
 42 H        0.2890     4.1790    -1.4550 H     1 <1>   0.0800 
 43 H       -0.0650     4.5030     0.9740 H     1 <1>   0.0800 
 44 H       -5.0490     5.8710     0.8760 H     1 <1>   0.0800 
 45 H       -3.9920     5.6710     2.2670 H     1 <1>   0.0800 
 46 H       -4.7910     4.2650     1.5450 H     1 <1>   0.0800 
 47 H       -1.8880     6.1730    -0.1890 H     1 <1>   0.4000 
 48 H       -5.1840    -2.5970     2.5100 H     1 <1>   0.1500 
 49 H       -6.5560    -7.1040     1.1180 H     1 <1>   0.1500 
 50 H       -5.4840    -6.7960    -1.0020 H     1 <1>   0.0800 
 51 H       -4.6410    -5.3350    -1.3970 H     1 <1>   0.0800 
 52 H       -6.7890    -3.8460     3.8390 H     1 <1>   0.1500 
 53 H       -7.4810    -6.1010     3.1500 H     1 <1>   0.1500 
 54 H       -3.5820    -7.5200     0.4240 H     1 <1>   0.0800 
 55 H       -2.7300    -6.0490     0.0180 H     1 <1>   0.0800 
 56 H       -3.0660    -7.2340    -1.2240 H     1 <1>   0.0800 
@<TRIPOS>BOND
  1   1   2  2   
  2   2   3  am  
  3   2   4  1   
  4   3   5  1   
  5   3   6  1   
  6   4   7  1   
  7   4   8  1   
  8   4  26  1   
  9   5   9  1   
 10   5  27  1   
 11   5  28  1   
 12   6  10  1   
 13   6  29  1   
 14   6  30  1   
 15   7  11  1   
 16   7  31  1   
 17   7  32  1   
 18   8  12  1   
 19   8  33  1   
 20   8  34  1   
 21   9  13  1   
 22   9  35  1   
 23   9  36  1   
 24  10  37  1   
 25  10  38  1   
 26  10  39  1   
 27  11  14  1   
 28  11  15  1   
 29  11  40  1   
 30  12  15  1   
 31  12  41  1   
 32  12  42  1   
 33  13  16  1   
 34  14  17  1   
 35  15  18  1   
 36  15  43  1   
 37  16  19  ar  
 38  16  20  ar  
 39  17  44  1   
 40  17  45  1   
 41  17  46  1   
 42  18  47  1   
 43  19  21  ar  
 44  19  22  1   
 45  20  23  ar  
 46  20  48  1   
 47  21  24  ar  
 48  21  49  1   
 49  22  25  1   
 50  22  50  1   
 51  22  51  1   
 52  23  24  ar  
 53  23  52  1   
 54  24  53  1   
 55  25  54  1   
 56  25  55  1   
 57  25  56  1   
@<TRIPOS>SUBSTRUCTURE
  1 ****   3 GROUP 4 **** **** 0

# MOE 2024.06 (io_trps.svl 2023.06)
