@<TRIPOS>MOLECULE
NONAME
48 49 1 0 0 
SMALL
USER_CHARGES


@<TRIPOS>ATOM
  1 S       -0.7330    -0.3870    -0.7680 S.3   1 <1>  -0.0800 
  2 C       -1.5670     0.6580     0.3610 C.2   1 <1>   0.1980 
  3 C       -0.2530     1.0190    -1.6710 C.2   1 <1>  -0.1100 
  4 N       -1.4830     1.8990     0.0900 N.2   1 <1>  -0.5650 
  5 C       -2.2860    -0.0020     1.5130 C.3   1 <1>  -0.0600 
  6 C       -0.7380     2.1140    -1.0650 C.2   1 <1>   0.0460 
  7 C       -0.5550     3.5490    -1.5490 C.3   1 <1>   0.2910 
  8 N        0.6390     4.2100    -0.9590 N.3   1 <1>  -0.8100 
  9 C        0.8540     5.5570    -1.5570 C.3   1 <1>   0.1100 
 10 C        0.5510     4.2970     0.5270 C.3   1 <1>   0.1100 
 11 C        1.9880     6.3690    -0.8610 C.3   1 <1>   0.4230 
 12 C        1.8210     4.9240     1.1500 C.3   1 <1>   0.3430 
 13 N        2.7180     5.4360     0.0650 N.4   1 <1>  -0.9590 
 14 C        1.3960     7.6140    -0.1680 C.3   1 <1>  -0.1600 
 15 C        4.1000     5.7690     0.5130 C.3   1 <1>   0.3430 
 16 C        2.4190     8.5410     0.4860 C.3   1 <1>   0.1200 
 17 C        5.0530     5.9980    -0.6740 C.3   1 <1>  -0.0800 
 18 O        1.7420     9.6290     0.9910 O.3   1 <1>  -0.6800 
 19 C        5.0950     4.7990    -1.6370 C.3   1 <1>  -0.2400 
 20 C        6.4670     6.2740    -0.1480 C.3   1 <1>  -0.2400 
 21 H        0.3380     0.8720    -2.5560 H     1 <1>   0.1500 
 22 H       -1.5870    -0.5580     2.1100 H     1 <1>   0.0800 
 23 H       -3.0390    -0.6690     1.1370 H     1 <1>   0.0800 
 24 H       -2.7560     0.7460     2.1260 H     1 <1>   0.0800 
 25 H       -1.4460     4.1100    -1.3200 H     1 <1>   0.0800 
 26 H       -0.4440     3.5260    -2.6190 H     1 <1>   0.0800 
 27 H       -0.0670     6.1160    -1.5260 H     1 <1>   0.0800 
 28 H        1.1110     5.4360    -2.5960 H     1 <1>   0.0800 
 29 H        0.4360     3.3150     0.9500 H     1 <1>   0.0800 
 30 H       -0.3140     4.8720     0.8120 H     1 <1>   0.0800 
 31 H        2.6630     6.7070    -1.6300 H     1 <1>   0.0800 
 32 H        2.3340     4.1680     1.7210 H     1 <1>   0.0800 
 33 H        1.5460     5.7180     1.8240 H     1 <1>   0.0800 
 34 H        2.7970     4.5940    -0.5300 H     1 <1>   0.4500 
 35 H        0.6640     7.3210     0.5620 H     1 <1>   0.0800 
 36 H        0.8820     8.1840    -0.9220 H     1 <1>   0.0800 
 37 H        4.4850     4.9500     1.0990 H     1 <1>   0.0800 
 38 H        4.0950     6.6390     1.1440 H     1 <1>   0.0800 
 39 H        3.1610     8.8930    -0.2120 H     1 <1>   0.0800 
 40 H        2.8970     8.0690     1.3240 H     1 <1>   0.0800 
 41 H        4.7400     6.8740    -1.2160 H     1 <1>   0.0800 
 42 H        1.4380    10.2350     0.2850 H     1 <1>   0.4000 
 43 H        5.3820     3.9000    -1.1180 H     1 <1>   0.0800 
 44 H        5.8160     4.9770    -2.4170 H     1 <1>   0.0800 
 45 H        4.1430     4.6350    -2.1100 H     1 <1>   0.0800 
 46 H        6.8500     5.4260     0.3940 H     1 <1>   0.0800 
 47 H        6.4720     7.1300     0.5060 H     1 <1>   0.0800 
 48 H        7.1370     6.4800    -0.9650 H     1 <1>   0.0800 
@<TRIPOS>BOND
  1   1   2  1   
  2   1   3  1   
  3   2   4  2   
  4   2   5  1   
  5   3   6  2   
  6   3  21  1   
  7   4   6  1   
  8   5  22  1   
  9   5  23  1   
 10   5  24  1   
 11   6   7  1   
 12   7   8  1   
 13   7  25  1   
 14   7  26  1   
 15   8   9  1   
 16   8  10  1   
 17   9  11  1   
 18   9  27  1   
 19   9  28  1   
 20  10  12  1   
 21  10  29  1   
 22  10  30  1   
 23  11  13  1   
 24  11  14  1   
 25  11  31  1   
 26  12  13  1   
 27  12  32  1   
 28  12  33  1   
 29  13  15  1   
 30  13  34  1   
 31  14  16  1   
 32  14  35  1   
 33  14  36  1   
 34  15  17  1   
 35  15  37  1   
 36  15  38  1   
 37  16  18  1   
 38  16  39  1   
 39  16  40  1   
 40  17  19  1   
 41  17  20  1   
 42  17  41  1   
 43  18  42  1   
 44  19  43  1   
 45  19  44  1   
 46  19  45  1   
 47  20  46  1   
 48  20  47  1   
 49  20  48  1   
@<TRIPOS>SUBSTRUCTURE
  1 ****   8 GROUP 4 **** **** 0

# MOE 2024.06 (io_trps.svl 2023.06)
