@<TRIPOS>MOLECULE
NONAME
53 55 1 0 0 
SMALL
USER_CHARGES


@<TRIPOS>ATOM
  1 F       -0.1310    -0.2470     0.8670 F     1 <1>  -0.1900 
  2 C       -1.3370     0.2250     0.7010 C.ar  1 <1>   0.1900 
  3 C       -2.3890    -0.3940     1.3450 C.ar  1 <1>  -0.1500 
  4 C       -1.5170     1.3240    -0.1130 C.ar  1 <1>  -0.1500 
  5 C       -3.6750     0.0990     1.1720 C.ar  1 <1>  -0.1440 
  6 C       -2.8000     1.8130    -0.2850 C.ar  1 <1>  -0.1500 
  7 C       -3.8790     1.2080     0.3490 C.ar  1 <1>  -0.1430 
  8 C       -4.8200    -0.6020     1.8870 C.3   1 <1>   0.2840 
  9 C       -5.2720     1.7810     0.1220 C.3   1 <1>  -0.0960 
 10 N       -5.3760    -1.6200     0.9800 N.am  1 <1>  -0.7300 
 11 C       -6.6860    -1.7860     0.6690 C.2   1 <1>   0.5690 
 12 O       -7.5440    -1.1340     1.2160 O.2   1 <1>  -0.5700 
 13 C       -7.0740    -2.8230    -0.3930 C.3   1 <1>   0.2610 
 14 O       -5.9150    -3.4940    -0.8670 O.3   1 <1>  -0.5600 
 15 C       -8.1530    -3.7830     0.1840 C.3   1 <1>   0.3640 
 16 C       -6.1860    -4.5430    -1.7580 C.3   1 <1>   0.1810 
 17 N       -7.9900    -5.2320    -0.1810 N.am  1 <1>  -0.6600 
 18 C       -9.5430    -3.3090    -0.2490 C.ar  1 <1>  -0.1430 
 19 C       -7.0580    -5.6150    -1.1120 C.2   1 <1>   0.5690 
 20 C       -8.8470    -6.1700     0.5980 C.3   1 <1>   0.2200 
 21 C      -10.3250    -2.5700     0.6280 C.ar  1 <1>  -0.1500 
 22 C      -10.0410    -3.5940    -1.5140 C.ar  1 <1>  -0.1500 
 23 O       -6.8880    -6.7590    -1.4630 O.2   1 <1>  -0.5700 
 24 C       -7.9790    -7.0520     1.4940 C.3   1 <1>  -0.2400 
 25 C       -9.7480    -6.9980    -0.3190 C.3   1 <1>  -0.2400 
 26 C      -11.5810    -2.1280     0.2510 C.ar  1 <1>  -0.1500 
 27 C      -11.2970    -3.1540    -1.8930 C.ar  1 <1>  -0.1500 
 28 C      -12.0690    -2.4200    -1.0100 C.ar  1 <1>  -0.1500 
 29 H       -2.1940    -1.2490     1.9680 H     1 <1>   0.1500 
 30 H       -0.6740     1.7820    -0.5990 H     1 <1>   0.1500 
 31 H       -2.9520     2.6700    -0.9180 H     1 <1>   0.1500 
 32 H       -5.5820     0.1010     2.1760 H     1 <1>   0.0800 
 33 H       -4.4610    -1.0850     2.7790 H     1 <1>   0.0800 
 34 H       -5.2570     2.5530    -0.6260 H     1 <1>   0.0800 
 35 H       -5.6520     2.2040     1.0350 H     1 <1>   0.0800 
 36 H       -5.9440     1.0100    -0.2100 H     1 <1>   0.0800 
 37 H       -4.6910    -2.1570     0.4390 H     1 <1>   0.3700 
 38 H       -7.4900    -2.2870    -1.2270 H     1 <1>   0.0800 
 39 H       -8.0980    -3.7240     1.2580 H     1 <1>   0.0800 
 40 H       -6.6730    -4.1450    -2.6290 H     1 <1>   0.0800 
 41 H       -5.2460    -4.9770    -2.0480 H     1 <1>   0.0800 
 42 H       -9.4940    -5.5930     1.2390 H     1 <1>   0.0800 
 43 H       -9.9590    -2.3240     1.6110 H     1 <1>   0.1500 
 44 H       -9.4580    -4.1680    -2.2120 H     1 <1>   0.1500 
 45 H       -7.3610    -7.7050     0.9050 H     1 <1>   0.0800 
 46 H       -8.6050    -7.6590     2.1220 H     1 <1>   0.0800 
 47 H       -7.3550    -6.4430     2.1220 H     1 <1>   0.0800 
 48 H       -9.1730    -7.6650    -0.9340 H     1 <1>   0.0800 
 49 H      -10.3350    -6.3520    -0.9470 H     1 <1>   0.0800 
 50 H      -10.4210    -7.5890     0.2740 H     1 <1>   0.0800 
 51 H      -12.1780    -1.5550     0.9390 H     1 <1>   0.1500 
 52 H      -11.6760    -3.3830    -2.8740 H     1 <1>   0.1500 
 53 H      -13.0460    -2.0770    -1.3030 H     1 <1>   0.1500 
@<TRIPOS>BOND
  1   1   2  1   
  2   2   3  ar  
  3   2   4  ar  
  4   3   5  ar  
  5   3  29  1   
  6   4   6  ar  
  7   4  30  1   
  8   5   7  ar  
  9   5   8  1   
 10   6   7  ar  
 11   6  31  1   
 12   7   9  1   
 13   8  10  1   
 14   8  32  1   
 15   8  33  1   
 16   9  34  1   
 17   9  35  1   
 18   9  36  1   
 19  10  11  am  
 20  10  37  1   
 21  11  12  2   
 22  11  13  1   
 23  13  14  1   
 24  13  15  1   
 25  13  38  1   
 26  14  16  1   
 27  15  17  1   
 28  15  18  1   
 29  15  39  1   
 30  16  19  1   
 31  16  40  1   
 32  16  41  1   
 33  17  19  am  
 34  17  20  1   
 35  18  21  ar  
 36  18  22  ar  
 37  19  23  2   
 38  20  24  1   
 39  20  25  1   
 40  20  42  1   
 41  21  26  ar  
 42  21  43  1   
 43  22  27  ar  
 44  22  44  1   
 45  24  45  1   
 46  24  46  1   
 47  24  47  1   
 48  25  48  1   
 49  25  49  1   
 50  25  50  1   
 51  26  28  ar  
 52  26  51  1   
 53  27  28  ar  
 54  27  52  1   
 55  28  53  1   
@<TRIPOS>SUBSTRUCTURE
  1 ****  13 GROUP 4 **** **** 0

# MOE 2024.06 (io_trps.svl 2023.06)
