@<TRIPOS>MOLECULE
NONAME
30 31 1 0 0 
SMALL
USER_CHARGES


@<TRIPOS>ATOM
  1 CL       1.0970    -0.3260    -1.6140 Cl    1 <1>  -0.1770 
  2 C        2.1920     0.7930    -0.8360 C.ar  1 <1>   0.1770 
  3 C        1.9800     2.1590    -0.9430 C.ar  1 <1>   0.1600 
  4 C        3.2630     0.3030    -0.1200 C.ar  1 <1>  -0.1500 
  5 N        2.7540     3.0900    -0.3910 N.ar  1 <1>  -0.6200 
  6 C        4.0590     1.2650     0.4510 C.ar  1 <1>   0.1900 
  7 C        3.7920     2.6380     0.3110 C.ar  1 <1>   0.4100 
  8 F        5.1020     0.8740     1.1460 F     1 <1>  -0.1900 
  9 N        4.5930     3.5920     0.9040 N.pl3 1 <1>  -0.8690 
 10 C        4.7320     4.9600     0.3210 C.3   1 <1>   0.3900 
 11 C        6.1490     5.5190     0.4780 C.2   1 <1>   0.3350 
 12 N        7.1530     4.8820     0.9430 N.2   1 <1>  -0.4100 
 13 N        6.4410     6.7640     0.1180 N.2   1 <1>  -0.5650 
 14 O        8.1680     5.6900     0.9130 O.3   1 <1>  -0.0190 
 15 C        7.6820     6.7990     0.4110 C.2   1 <1>   0.2980 
 16 C        8.6360     7.9820     0.2360 C.3   1 <1>   0.1000 
 17 C        7.8960     9.3060    -0.0110 C.3   1 <1>  -0.2400 
 18 C        9.6220     7.7170    -0.9110 C.3   1 <1>  -0.2400 
 19 H        1.1320     2.4990    -1.5110 H     1 <1>   0.1500 
 20 H        3.4580    -0.7480    -0.0180 H     1 <1>   0.1500 
 21 H        5.4970     3.2490     1.2510 H     1 <1>   0.4000 
 22 H        4.0400     5.6200     0.8140 H     1 <1>   0.0800 
 23 H        4.4910     4.9430    -0.7270 H     1 <1>   0.0800 
 24 H        9.1950     8.0810     1.1500 H     1 <1>   0.0800 
 25 H        7.3310     9.2560    -0.9260 H     1 <1>   0.0800 
 26 H        8.5930    10.1220    -0.0780 H     1 <1>   0.0800 
 27 H        7.2140     9.5030     0.7980 H     1 <1>   0.0800 
 28 H        9.0910     7.6000    -1.8390 H     1 <1>   0.0800 
 29 H       10.1800     6.8170    -0.7210 H     1 <1>   0.0800 
 30 H       10.3150     8.5330    -1.0080 H     1 <1>   0.0800 
@<TRIPOS>BOND
  1   1   2  1   
  2   2   3  ar  
  3   2   4  ar  
  4   3   5  ar  
  5   3  19  1   
  6   4   6  ar  
  7   4  20  1   
  8   5   7  ar  
  9   6   7  ar  
 10   6   8  1   
 11   7   9  1   
 12   9  10  1   
 13   9  21  1   
 14  10  11  1   
 15  10  22  1   
 16  10  23  1   
 17  11  12  2   
 18  11  13  1   
 19  12  14  1   
 20  13  15  2   
 21  14  15  1   
 22  15  16  1   
 23  16  17  1   
 24  16  18  1   
 25  16  24  1   
 26  17  25  1   
 27  17  26  1   
 28  17  27  1   
 29  18  28  1   
 30  18  29  1   
 31  18  30  1   
@<TRIPOS>SUBSTRUCTURE
  1 ****  10 GROUP 4 **** **** 0

# MOE 2024.06 (io_trps.svl 2023.06)
