@<TRIPOS>MOLECULE
NONAME
36 38 1 0 0 
SMALL
USER_CHARGES


@<TRIPOS>ATOM
  1 CL       0.0760     0.1990    -0.0690 Cl    1 <1>  -0.1770 
  2 C        0.1440     1.9290     0.1420 C.ar  1 <1>   0.1770 
  3 C       -0.7880     2.7240    -0.4950 C.ar  1 <1>  -0.1500 
  4 C        1.1320     2.4750     0.9430 C.ar  1 <1>  -0.1500 
  5 C       -0.7030     4.0910    -0.3090 C.ar  1 <1>   0.1900 
  6 C        1.1950     3.8510     1.1130 C.ar  1 <1>  -0.1500 
  7 F       -1.5850     4.8420    -0.9120 F     1 <1>  -0.1900 
  8 C        0.2740     4.6800     0.4840 C.ar  1 <1>  -0.1440 
  9 C        0.3500     6.1920     0.6700 C.3   1 <1>   0.2540 
 10 N        1.7100     6.6840     0.3840 N.3   1 <1>  -0.8100 
 11 C        1.8800     8.0650     0.8930 C.3   1 <1>   0.1100 
 12 C        2.0260     6.5530    -1.0560 C.3   1 <1>   0.1100 
 13 C        3.3330     8.5910     0.8720 C.3   1 <1>   0.2200 
 14 C        3.5130     6.7560    -1.3910 C.3   1 <1>  -0.0190 
 15 N        3.6920     9.0560    -0.4920 N.am  1 <1>  -0.7300 
 16 C        4.3380     7.5510     1.4370 C.3   1 <1>   0.1200 
 17 C        3.8260     8.2310    -1.5500 C.2   1 <1>   0.5690 
 18 C        4.4630     6.0370    -0.4110 C.3   1 <1>   0.1200 
 19 O        5.1210     6.9120     0.4620 O.3   1 <1>  -0.5600 
 20 O        4.1630     8.6640    -2.6240 O.2   1 <1>  -0.5700 
 21 H       -1.5520     2.2960    -1.1150 H     1 <1>   0.1500 
 22 H        1.8430     1.8300     1.4260 H     1 <1>   0.1500 
 23 H        1.9650     4.2810     1.7310 H     1 <1>   0.1500 
 24 H        0.0950     6.4090     1.6930 H     1 <1>   0.0800 
 25 H       -0.3580     6.7010     0.0380 H     1 <1>   0.0800 
 26 H        1.2470     8.7420     0.3450 H     1 <1>   0.0800 
 27 H        1.5580     8.0820     1.9200 H     1 <1>   0.0800 
 28 H        1.7680     5.5590    -1.3800 H     1 <1>   0.0800 
 29 H        1.4270     7.2420    -1.6290 H     1 <1>   0.0800 
 30 H        3.3560     9.4490     1.5200 H     1 <1>   0.0800 
 31 H        3.6600     6.3080    -2.3560 H     1 <1>   0.0800 
 32 H        4.0300    10.0110    -0.6090 H     1 <1>   0.3700 
 33 H        3.8330     6.7990     2.0180 H     1 <1>   0.0800 
 34 H        5.0240     8.0590     2.0900 H     1 <1>   0.0800 
 35 H        5.2350     5.5440    -0.9750 H     1 <1>   0.0800 
 36 H        3.9450     5.2920     0.1690 H     1 <1>   0.0800 
@<TRIPOS>BOND
  1   1   2  1   
  2   2   3  ar  
  3   2   4  ar  
  4   3   5  ar  
  5   3  21  1   
  6   4   6  ar  
  7   4  22  1   
  8   5   7  1   
  9   5   8  ar  
 10   6   8  ar  
 11   6  23  1   
 12   8   9  1   
 13   9  10  1   
 14   9  24  1   
 15   9  25  1   
 16  10  11  1   
 17  10  12  1   
 18  11  13  1   
 19  11  26  1   
 20  11  27  1   
 21  12  14  1   
 22  12  28  1   
 23  12  29  1   
 24  13  15  1   
 25  13  16  1   
 26  13  30  1   
 27  14  17  1   
 28  14  18  1   
 29  14  31  1   
 30  15  17  am  
 31  15  32  1   
 32  16  19  1   
 33  16  33  1   
 34  16  34  1   
 35  17  20  2   
 36  18  19  1   
 37  18  35  1   
 38  18  36  1   
@<TRIPOS>SUBSTRUCTURE
  1 ****  10 GROUP 4 **** **** 0

# MOE 2024.06 (io_trps.svl 2023.06)
