@<TRIPOS>MOLECULE
NONAME
56 58 1 0 0 
SMALL
USER_CHARGES


@<TRIPOS>ATOM
  1 O        0.0340     0.9800     0.5940 O.2   1 <1>  -0.5700 
  2 C        0.0470     2.1700     0.4140 C.2   1 <1>   0.5690 
  3 N       -0.8510     2.9740     1.0220 N.am  1 <1>  -0.7300 
  4 C        1.0720     2.7930    -0.5350 C.3   1 <1>   0.1810 
  5 C       -0.9350     4.4380     0.8060 C.3   1 <1>   0.3640 
  6 O        1.2690     4.1720    -0.2900 O.3   1 <1>  -0.5600 
  7 C       -2.3690     4.7960     0.4300 C.ar  1 <1>  -0.1440 
  8 C        0.0650     4.9380    -0.2700 C.3   1 <1>   0.2610 
  9 C       -2.9780     5.9020     1.0070 C.ar  1 <1>  -0.1500 
 10 C       -3.0840     4.0400    -0.4920 C.ar  1 <1>  -0.1500 
 11 C        0.4030     6.4070    -0.0080 C.2   1 <1>   0.5690 
 12 C       -4.2750     6.2460     0.6710 C.ar  1 <1>  -0.1500 
 13 C       -4.3820     4.3840    -0.8270 C.ar  1 <1>  -0.1500 
 14 O       -0.3610     7.2770    -0.3420 O.2   1 <1>  -0.5700 
 15 N        1.5890     6.7110     0.5870 N.am  1 <1>  -0.7300 
 16 C       -4.9790     5.4870    -0.2460 C.ar  1 <1>  -0.1500 
 17 C        2.0440     8.0870     0.9600 C.3   1 <1>   0.1400 
 18 C        2.8590     8.8700    -0.1290 C.3   1 <1>   0.5030 
 19 N        3.9910     8.0610    -0.7360 N.4   1 <1>  -0.9590 
 20 C        3.5140    10.1080     0.5350 C.3   1 <1>  -0.1600 
 21 C        1.9510     9.3740    -1.2810 C.3   1 <1>  -0.1600 
 22 C        3.5660     6.9960    -1.7100 C.3   1 <1>   0.2630 
 23 C        4.9250     7.4590     0.2700 C.3   1 <1>   0.2630 
 24 C        2.5090    11.1860     0.9780 C.3   1 <1>  -0.1600 
 25 C        0.9410    10.4580    -0.8660 C.3   1 <1>  -0.1600 
 26 C        1.6380    11.6440    -0.1950 C.3   1 <1>  -0.1600 
 27 H       -1.5730     2.5480     1.6070 H     1 <1>   0.3700 
 28 H        0.7430     2.6670    -1.5500 H     1 <1>   0.0800 
 29 H        2.0170     2.2960    -0.4110 H     1 <1>   0.0800 
 30 H       -0.6960     4.9160     1.7410 H     1 <1>   0.0800 
 31 H       -0.3880     4.8640    -1.2430 H     1 <1>   0.0800 
 32 H       -2.4470     6.5120     1.7170 H     1 <1>   0.1500 
 33 H       -2.6410     3.1760    -0.9560 H     1 <1>   0.1500 
 34 H       -4.7370     7.1080     1.1220 H     1 <1>   0.1500 
 35 H       -4.9290     3.7920    -1.5410 H     1 <1>   0.1500 
 36 H        2.1760     5.9160     0.8630 H     1 <1>   0.3700 
 37 H       -5.9870     5.7560    -0.5080 H     1 <1>   0.1500 
 38 H        1.1750     8.6630     1.2250 H     1 <1>   0.0800 
 39 H        2.6330     8.0120     1.8560 H     1 <1>   0.0800 
 40 H        4.5290     8.7490    -1.2800 H     1 <1>   0.4500 
 41 H        4.0800     9.8170     1.4010 H     1 <1>   0.0800 
 42 H        4.1910    10.5690    -0.1640 H     1 <1>   0.0800 
 43 H        2.5650     9.7910    -2.0590 H     1 <1>   0.0800 
 44 H        1.3910     8.5610    -1.7030 H     1 <1>   0.0800 
 45 H        2.9960     6.2270    -1.2160 H     1 <1>   0.0800 
 46 H        4.4310     6.5380    -2.1600 H     1 <1>   0.0800 
 47 H        2.9630     7.4170    -2.4970 H     1 <1>   0.0800 
 48 H        4.4030     6.7450     0.8860 H     1 <1>   0.0800 
 49 H        5.3450     8.2220     0.9040 H     1 <1>   0.0800 
 50 H        5.7340     6.9520    -0.2300 H     1 <1>   0.0800 
 51 H        1.8790    10.8140     1.7680 H     1 <1>   0.0800 
 52 H        3.0430    12.0360     1.3710 H     1 <1>   0.0800 
 53 H        0.4130    10.8050    -1.7380 H     1 <1>   0.0800 
 54 H        0.2020    10.0450    -0.1990 H     1 <1>   0.0800 
 55 H        2.2500    12.1560    -0.9190 H     1 <1>   0.0800 
 56 H        0.8980    12.3440     0.1560 H     1 <1>   0.0800 
@<TRIPOS>BOND
  1   1   2  2   
  2   2   3  am  
  3   2   4  1   
  4   3   5  1   
  5   3  27  1   
  6   4   6  1   
  7   4  28  1   
  8   4  29  1   
  9   5   7  1   
 10   5   8  1   
 11   5  30  1   
 12   6   8  1   
 13   7   9  ar  
 14   7  10  ar  
 15   8  11  1   
 16   8  31  1   
 17   9  12  ar  
 18   9  32  1   
 19  10  13  ar  
 20  10  33  1   
 21  11  14  2   
 22  11  15  am  
 23  12  16  ar  
 24  12  34  1   
 25  13  16  ar  
 26  13  35  1   
 27  15  17  1   
 28  15  36  1   
 29  16  37  1   
 30  17  18  1   
 31  17  38  1   
 32  17  39  1   
 33  18  19  1   
 34  18  20  1   
 35  18  21  1   
 36  19  22  1   
 37  19  23  1   
 38  19  40  1   
 39  20  24  1   
 40  20  41  1   
 41  20  42  1   
 42  21  25  1   
 43  21  43  1   
 44  21  44  1   
 45  22  45  1   
 46  22  46  1   
 47  22  47  1   
 48  23  48  1   
 49  23  49  1   
 50  23  50  1   
 51  24  26  1   
 52  24  51  1   
 53  24  52  1   
 54  25  26  1   
 55  25  53  1   
 56  25  54  1   
 57  26  55  1   
 58  26  56  1   
@<TRIPOS>SUBSTRUCTURE
  1 ****  11 GROUP 4 **** **** 0

# MOE 2024.06 (io_trps.svl 2023.06)
