@<TRIPOS>MOLECULE
NONAME
50 54 1 0 0 
SMALL
USER_CHARGES


@<TRIPOS>ATOM
  1 S        0.3090     0.8440    -0.6100 S.3   1 <1>  -0.0800 
  2 C        2.0120     1.2100    -0.4290 C.2   1 <1>  -0.1400 
  3 C        0.3200    -0.0650     0.8940 C.2   1 <1>  -0.1100 
  4 C        2.5120     0.6790     0.6950 C.2   1 <1>  -0.1810 
  5 C        2.7560     2.0290    -1.4540 C.3   1 <1>   0.0200 
  6 C        1.5460    -0.0560     1.4540 C.2   1 <1>  -0.1500 
  7 C        3.9660     0.8600     1.0990 C.3   1 <1>   0.3210 
  8 C        4.2670     1.9030    -1.1820 C.3   1 <1>   0.1400 
  9 N        4.5900     1.9650     0.2890 N.am  1 <1>  -0.6600 
 10 C        5.5120     2.7780     0.8980 C.2   1 <1>   0.5690 
 11 O        6.0170     2.4490     1.9450 O.2   1 <1>  -0.5700 
 12 C        6.0020     4.1110     0.3110 C.3   1 <1>   0.0610 
 13 C        6.3730     5.0910     1.4600 C.3   1 <1>   0.4230 
 14 C        4.9300     4.9690    -0.4230 C.3   1 <1>  -0.1600 
 15 C        7.2390     3.7780    -0.5780 C.3   1 <1>  -0.0160 
 16 N        6.3330     6.3900     0.7730 N.4   1 <1>  -0.9060 
 17 C        5.2240     5.3250     2.4620 C.3   1 <1>  -0.1600 
 18 C        4.9530     6.3180     0.3120 C.3   1 <1>   0.4230 
 19 C        8.0570     4.9830    -1.0270 C.ar  1 <1>  -0.1440 
 20 C        4.2290     6.1660     1.6490 C.3   1 <1>  -0.1600 
 21 C        7.7430     5.6640    -2.1940 C.ar  1 <1>  -0.1500 
 22 C        9.1200     5.4220    -0.2510 C.ar  1 <1>  -0.1500 
 23 C        8.4530     6.7950    -2.5560 C.ar  1 <1>  -0.1500 
 24 C        9.8310     6.5520    -0.6130 C.ar  1 <1>  -0.1500 
 25 C        9.4930     7.2430    -1.7620 C.ar  1 <1>  -0.1500 
 26 H       -0.6060    -0.5160     1.2040 H     1 <1>   0.1500 
 27 H        2.5360     1.6670    -2.4420 H     1 <1>   0.0800 
 28 H        2.4390     3.0530    -1.3900 H     1 <1>   0.0800 
 29 H        1.8110    -0.5410     2.3780 H     1 <1>   0.1500 
 30 H        4.5070    -0.0560     0.9360 H     1 <1>   0.0800 
 31 H        4.0080     1.0980     2.1480 H     1 <1>   0.0800 
 32 H        4.7960     2.6540    -1.7370 H     1 <1>   0.0800 
 33 H        4.5940     0.9440    -1.5490 H     1 <1>   0.0800 
 34 H        7.3170     4.8640     1.9300 H     1 <1>   0.0800 
 35 H        3.9460     4.5430    -0.3530 H     1 <1>   0.0800 
 36 H        5.1550     5.1070    -1.4630 H     1 <1>   0.0800 
 37 H        7.8930     3.1200    -0.0280 H     1 <1>   0.0800 
 38 H        6.9300     3.2270    -1.4470 H     1 <1>   0.0800 
 39 H        6.4940     7.1690     1.4160 H     1 <1>   0.4500 
 40 H        7.0160     6.4130    -0.0040 H     1 <1>   0.4500 
 41 H        4.7760     4.4200     2.8320 H     1 <1>   0.0800 
 42 H        5.5880     5.8790     3.3110 H     1 <1>   0.0800 
 43 H        4.6290     7.1610    -0.2790 H     1 <1>   0.0800 
 44 H        4.0710     7.1290     2.1050 H     1 <1>   0.0800 
 45 H        3.2750     5.6780     1.5400 H     1 <1>   0.0800 
 46 H        6.9530     5.3220    -2.8410 H     1 <1>   0.1500 
 47 H        9.4110     4.8890     0.6400 H     1 <1>   0.1500 
 48 H        8.2080     7.3230    -3.4630 H     1 <1>   0.1500 
 49 H       10.6560     6.8910    -0.0090 H     1 <1>   0.1500 
 50 H       10.0490     8.1210    -2.0470 H     1 <1>   0.1500 
@<TRIPOS>BOND
  1   1   2  1   
  2   1   3  1   
  3   2   4  2   
  4   2   5  1   
  5   3   6  2   
  6   3  26  1   
  7   4   6  1   
  8   4   7  1   
  9   5   8  1   
 10   5  27  1   
 11   5  28  1   
 12   6  29  1   
 13   7   9  1   
 14   7  30  1   
 15   7  31  1   
 16   8   9  1   
 17   8  32  1   
 18   8  33  1   
 19   9  10  am  
 20  10  11  2   
 21  10  12  1   
 22  12  13  1   
 23  12  14  1   
 24  12  15  1   
 25  13  16  1   
 26  13  17  1   
 27  13  34  1   
 28  14  18  1   
 29  14  35  1   
 30  14  36  1   
 31  15  19  1   
 32  15  37  1   
 33  15  38  1   
 34  16  18  1   
 35  16  39  1   
 36  16  40  1   
 37  17  20  1   
 38  17  41  1   
 39  17  42  1   
 40  18  20  1   
 41  18  43  1   
 42  19  21  ar  
 43  19  22  ar  
 44  20  44  1   
 45  20  45  1   
 46  21  23  ar  
 47  21  46  1   
 48  22  24  ar  
 49  22  47  1   
 50  23  25  ar  
 51  23  48  1   
 52  24  25  ar  
 53  24  49  1   
 54  25  50  1   
@<TRIPOS>SUBSTRUCTURE
  1 ****  12 GROUP 4 **** **** 0

# MOE 2024.06 (io_trps.svl 2023.06)
