@<TRIPOS>MOLECULE
NONAME
46 48 1 0 0 
SMALL
USER_CHARGES


@<TRIPOS>ATOM
  1 S        1.1210    -0.4240    -1.8460 S.3   1 <1>  -0.0800 
  2 C        1.5760    -1.5030    -0.5540 C.2   1 <1>  -0.1400 
  3 C        2.0400     0.8440    -1.0680 C.2   1 <1>   0.2280 
  4 C        2.3500    -0.8340     0.3160 C.2   1 <1>   0.0460 
  5 C        1.0570    -2.9200    -0.6110 C.3   1 <1>   0.5230 
  6 N        2.6040     0.4910     0.0170 N.2   1 <1>  -0.5650 
  7 C        2.9740    -1.3590     1.5930 C.3   1 <1>  -0.0590 
  8 N       -0.4050    -2.9100    -0.4030 N.4   1 <1>  -0.9590 
  9 C       -0.9990    -4.2680    -0.6430 C.3   1 <1>   0.3430 
 10 C       -0.7720    -2.3650     0.9450 C.3   1 <1>   0.3430 
 11 C       -2.5330    -4.1780    -0.5540 C.3   1 <1>   0.2000 
 12 C       -2.2980    -2.3180     1.1120 C.3   1 <1>  -0.1600 
 13 O       -2.9480    -3.2430    -1.5090 O.3   1 <1>  -0.6800 
 14 C       -2.9240    -3.7230     0.8720 C.3   1 <1>  -0.1060 
 15 C       -2.2890    -4.7450     1.8250 C.2   1 <1>   0.9060 
 16 C       -4.4510    -3.7480     1.1370 C.3   1 <1>  -0.0160 
 17 O       -1.7170    -4.3510     2.8440 O.co2 1 <1>  -0.9000 
 18 O       -2.2340    -5.9230     1.4630 O.co2 1 <1>  -0.9000 
 19 C       -5.2920    -2.9280     0.1650 C.ar  1 <1>  -0.1440 
 20 C       -5.4710    -1.5670     0.3580 C.ar  1 <1>  -0.1500 
 21 C       -5.8900    -3.5430    -0.9260 C.ar  1 <1>  -0.1500 
 22 C       -6.2180    -0.8250    -0.5400 C.ar  1 <1>  -0.1500 
 23 C       -6.6370    -2.8020    -1.8250 C.ar  1 <1>  -0.1500 
 24 C       -6.7990    -1.4410    -1.6340 C.ar  1 <1>  -0.1500 
 25 H        2.0610     1.8070    -1.5500 H     1 <1>   0.1500 
 26 H        1.5270    -3.5140     0.1550 H     1 <1>   0.0800 
 27 H        1.2910    -3.3480    -1.5720 H     1 <1>   0.0800 
 28 H        2.7190    -2.3880     1.7610 H     1 <1>   0.0800 
 29 H        2.6300    -0.7750     2.4280 H     1 <1>   0.0800 
 30 H        4.0440    -1.2700     1.5340 H     1 <1>   0.0800 
 31 H       -0.8580    -2.3020    -1.1010 H     1 <1>   0.4500 
 32 H       -0.7340    -4.6290    -1.6220 H     1 <1>   0.0800 
 33 H       -0.6310    -4.9740     0.0850 H     1 <1>   0.0800 
 34 H       -0.3480    -2.9870     1.7180 H     1 <1>   0.0800 
 35 H       -0.3750    -1.3700     1.0630 H     1 <1>   0.0800 
 36 H       -2.9800    -5.1300    -0.7900 H     1 <1>   0.0800 
 37 H       -2.5160    -1.9960     2.1160 H     1 <1>   0.0800 
 38 H       -2.7050    -1.5830     0.4440 H     1 <1>   0.0800 
 39 H       -3.8990    -3.0290    -1.3470 H     1 <1>   0.4000 
 40 H       -4.7880    -4.7710     1.1050 H     1 <1>   0.0800 
 41 H       -4.6360    -3.4030     2.1400 H     1 <1>   0.0800 
 42 H       -5.0300    -1.0800     1.2100 H     1 <1>   0.1500 
 43 H       -5.7770    -4.6030    -1.0810 H     1 <1>   0.1500 
 44 H       -6.3510     0.2320    -0.3850 H     1 <1>   0.1500 
 45 H       -7.0950    -3.2840    -2.6710 H     1 <1>   0.1500 
 46 H       -7.3790    -0.8640    -2.3320 H     1 <1>   0.1500 
@<TRIPOS>BOND
  1   1   2  1   
  2   1   3  1   
  3   2   4  2   
  4   2   5  1   
  5   3   6  2   
  6   3  25  1   
  7   4   6  1   
  8   4   7  1   
  9   5   8  1   
 10   5  26  1   
 11   5  27  1   
 12   7  28  1   
 13   7  29  1   
 14   7  30  1   
 15   8   9  1   
 16   8  10  1   
 17   8  31  1   
 18   9  11  1   
 19   9  32  1   
 20   9  33  1   
 21  10  12  1   
 22  10  34  1   
 23  10  35  1   
 24  11  13  1   
 25  11  14  1   
 26  11  36  1   
 27  12  14  1   
 28  12  37  1   
 29  12  38  1   
 30  13  39  1   
 31  14  15  1   
 32  14  16  1   
 33  15  17  ar  
 34  15  18  ar  
 35  16  19  1   
 36  16  40  1   
 37  16  41  1   
 38  19  20  ar  
 39  19  21  ar  
 40  20  22  ar  
 41  20  42  1   
 42  21  23  ar  
 43  21  43  1   
 44  22  24  ar  
 45  22  44  1   
 46  23  24  ar  
 47  23  45  1   
 48  24  46  1   
@<TRIPOS>SUBSTRUCTURE
  1 ****  12 GROUP 4 **** **** 0

# MOE 2024.06 (io_trps.svl 2023.06)
