@<TRIPOS>MOLECULE
NONAME
55 57 1 0 0 
SMALL
USER_CHARGES


@<TRIPOS>ATOM
  1 O       -0.0800    -1.0160     1.5630 O.2   1 <1>  -0.5700 
  2 C        0.7000    -1.7410     0.9940 C.2   1 <1>   0.5690 
  3 N        0.5700    -2.1070    -0.3180 N.am  1 <1>  -0.6600 
  4 C        1.8880    -2.2870     1.7590 C.3   1 <1>  -0.0990 
  5 C        1.5720    -3.0020    -0.9490 C.3   1 <1>   0.1400 
  6 C       -0.5790    -1.6800    -1.1600 C.3   1 <1>   0.0600 
  7 C        3.1750    -2.1620     0.9230 C.3   1 <1>  -0.0800 
  8 C        2.9940    -2.5510    -0.5630 C.3   1 <1>  -0.0800 
  9 C        4.3300    -3.0150     1.4620 C.3   1 <1>  -0.1600 
 10 C        4.0570    -3.6190    -0.8580 C.3   1 <1>  -0.1600 
 11 C        5.1190    -3.4040     0.2140 C.3   1 <1>   0.2200 
 12 N        6.0120    -4.5920     0.3840 N.am  1 <1>  -0.6600 
 13 C        7.3210    -4.6490    -0.0500 C.2   1 <1>   0.5690 
 14 C        5.4310    -5.7920     1.0670 C.3   1 <1>   0.0600 
 15 O        7.9860    -5.6450     0.1140 O.2   1 <1>  -0.5700 
 16 C        8.0020    -3.5000    -0.7860 C.3   1 <1>  -0.0990 
 17 C        8.8760    -2.5670     0.0890 C.3   1 <1>   0.1430 
 18 C        9.3980    -1.4280    -0.8190 C.ar  1 <1>  -0.1440 
 19 C       10.0250    -3.3810     0.7200 C.3   1 <1>  -0.2400 
 20 C        8.0920    -1.9560     1.2670 C.3   1 <1>  -0.2400 
 21 C       10.7390    -1.2950    -1.1750 C.ar  1 <1>  -0.1500 
 22 C        8.5040    -0.4890    -1.3290 C.ar  1 <1>  -0.1500 
 23 C       11.1670    -0.2650    -1.9950 C.ar  1 <1>  -0.1500 
 24 C        8.9270     0.5420    -2.1490 C.ar  1 <1>  -0.1500 
 25 C       10.2620     0.6570    -2.4830 C.ar  1 <1>  -0.1500 
 26 H        1.9950    -1.7530     2.6860 H     1 <1>   0.0800 
 27 H        1.6800    -3.3160     1.9850 H     1 <1>   0.0800 
 28 H        1.3920    -4.0060    -0.6050 H     1 <1>   0.0800 
 29 H        1.4640    -2.9860    -2.0200 H     1 <1>   0.0800 
 30 H       -0.2220    -1.1140    -2.0030 H     1 <1>   0.0800 
 31 H       -1.2540    -1.0620    -0.5930 H     1 <1>   0.0800 
 32 H       -1.1150    -2.5440    -1.5110 H     1 <1>   0.0800 
 33 H        3.4780    -1.1270     0.9460 H     1 <1>   0.0800 
 34 H        3.2260    -1.6820    -1.1560 H     1 <1>   0.0800 
 35 H        3.9310    -3.8820     1.9530 H     1 <1>   0.0800 
 36 H        4.9390    -2.4630     2.1550 H     1 <1>   0.0800 
 37 H        4.4690    -3.5060    -1.8450 H     1 <1>   0.0800 
 38 H        3.6290    -4.6000    -0.7620 H     1 <1>   0.0800 
 39 H        5.6890    -2.5410    -0.0680 H     1 <1>   0.0800 
 40 H        4.3840    -5.8930     0.8460 H     1 <1>   0.0800 
 41 H        5.5610    -5.6980     2.1300 H     1 <1>   0.0800 
 42 H        5.9250    -6.6920     0.7410 H     1 <1>   0.0800 
 43 H        8.6400    -3.9410    -1.5300 H     1 <1>   0.0800 
 44 H        7.2780    -2.9370    -1.3370 H     1 <1>   0.0800 
 45 H        9.6470    -4.1050     1.4190 H     1 <1>   0.0800 
 46 H       10.6990    -2.7340     1.2520 H     1 <1>   0.0800 
 47 H       10.5740    -3.9150    -0.0350 H     1 <1>   0.0800 
 48 H        7.7400    -2.7240     1.9330 H     1 <1>   0.0800 
 49 H        7.2480    -1.3840     0.9370 H     1 <1>   0.0800 
 50 H        8.7340    -1.2980     1.8250 H     1 <1>   0.0800 
 51 H       11.4840    -1.9870    -0.8280 H     1 <1>   0.1500 
 52 H        7.4570    -0.5480    -1.0970 H     1 <1>   0.1500 
 53 H       12.2080    -0.1840    -2.2530 H     1 <1>   0.1500 
 54 H        8.2170     1.2560    -2.5270 H     1 <1>   0.1500 
 55 H       10.5950     1.4580    -3.1200 H     1 <1>   0.1500 
@<TRIPOS>BOND
  1   1   2  2   
  2   2   3  am  
  3   2   4  1   
  4   3   5  1   
  5   3   6  1   
  6   4   7  1   
  7   4  26  1   
  8   4  27  1   
  9   5   8  1   
 10   5  28  1   
 11   5  29  1   
 12   6  30  1   
 13   6  31  1   
 14   6  32  1   
 15   7   8  1   
 16   7   9  1   
 17   7  33  1   
 18   8  10  1   
 19   8  34  1   
 20   9  11  1   
 21   9  35  1   
 22   9  36  1   
 23  10  11  1   
 24  10  37  1   
 25  10  38  1   
 26  11  12  1   
 27  11  39  1   
 28  12  13  am  
 29  12  14  1   
 30  13  15  2   
 31  13  16  1   
 32  14  40  1   
 33  14  41  1   
 34  14  42  1   
 35  16  17  1   
 36  16  43  1   
 37  16  44  1   
 38  17  18  1   
 39  17  19  1   
 40  17  20  1   
 41  18  21  ar  
 42  18  22  ar  
 43  19  45  1   
 44  19  46  1   
 45  19  47  1   
 46  20  48  1   
 47  20  49  1   
 48  20  50  1   
 49  21  23  ar  
 50  21  51  1   
 51  22  24  ar  
 52  22  52  1   
 53  23  25  ar  
 54  23  53  1   
 55  24  25  ar  
 56  24  54  1   
 57  25  55  1   
@<TRIPOS>SUBSTRUCTURE
  1 ****  11 GROUP 4 **** **** 0

# MOE 2024.06 (io_trps.svl 2023.06)
