@<TRIPOS>MOLECULE
NONAME
56 58 1 0 0 
SMALL
USER_CHARGES


@<TRIPOS>ATOM
  1 O       -2.9010    -0.4700     2.3560 O.2   1 <1>  -0.5700 
  2 C       -2.6180     0.3020     1.4700 C.2   1 <1>   0.5690 
  3 N       -2.6940    -0.0550     0.1480 N.am  1 <1>  -0.6600 
  4 C       -2.1760     1.7050     1.8740 C.3   1 <1>   0.1810 
  5 C       -2.8230    -1.5000    -0.2380 C.3   1 <1>   0.3640 
  6 C       -2.5360     0.9190    -0.9810 C.3   1 <1>   0.1400 
  7 O       -0.8620     1.9600     1.4040 O.3   1 <1>  -0.3630 
  8 C       -1.4430    -2.1500    -0.4530 C.ar  1 <1>  -0.1440 
  9 C       -3.7390    -1.6810    -1.4920 C.3   1 <1>   0.2000 
 10 C       -2.6540     0.2460    -2.3560 C.3   1 <1>   0.1200 
 11 C       -0.2910     3.1880     1.4820 C.ar  1 <1>   0.0830 
 12 C       -0.2460    -1.4360    -0.4480 C.ar  1 <1>  -0.1500 
 13 C       -1.3840    -3.5260    -0.6390 C.ar  1 <1>  -0.1500 
 14 O       -3.7770    -0.5770    -2.3720 O.3   1 <1>  -0.5600 
 15 C       -5.1880    -1.9600    -1.0790 C.3   1 <1>   0.1200 
 16 C        0.9340     3.3650     0.8450 C.ar  1 <1>  -0.1430 
 17 C       -0.8790     4.2520     2.1620 C.ar  1 <1>  -0.1500 
 18 C        0.9680    -2.0680    -0.6490 C.ar  1 <1>   0.0830 
 19 C       -0.1750    -4.1670    -0.8520 C.ar  1 <1>  -0.1500 
 20 O       -5.2970    -3.2450    -0.5530 O.3   1 <1>  -0.6800 
 21 C        1.5510     4.6050     0.8850 C.ar  1 <1>  -0.1500 
 22 C        1.6030     2.2120     0.1080 C.3   1 <1>  -0.0970 
 23 C       -0.2530     5.4850     2.1950 C.ar  1 <1>  -0.1500 
 24 O        2.0860    -1.3030    -0.5960 O.3   1 <1>  -0.3620 
 25 C        1.0050    -3.4460    -0.8800 C.ar  1 <1>   0.0830 
 26 C        0.9610     5.6620     1.5560 C.ar  1 <1>  -0.1500 
 27 C        2.9030    -1.5020     0.5360 C.3   1 <1>   0.0400 
 28 O        2.1510    -4.1280    -1.1280 O.3   1 <1>  -0.3630 
 29 C        2.8650    -3.7700    -2.2910 C.3   1 <1>   0.0400 
 30 H       -2.1710     1.7890     2.9460 H     1 <1>   0.0800 
 31 H       -2.8440     2.4300     1.4500 H     1 <1>   0.0800 
 32 H       -3.2770    -2.0380     0.5770 H     1 <1>   0.0800 
 33 H       -3.2980     1.6740    -0.9020 H     1 <1>   0.0800 
 34 H       -1.5790     1.4060    -0.9180 H     1 <1>   0.0800 
 35 H       -3.3910    -2.5140    -2.0740 H     1 <1>   0.0800 
 36 H       -1.7820    -0.3440    -2.5830 H     1 <1>   0.0800 
 37 H       -2.7750     0.9890    -3.1250 H     1 <1>   0.0800 
 38 H       -0.2240    -0.3780    -0.2720 H     1 <1>   0.1500 
 39 H       -2.2860    -4.1140    -0.6140 H     1 <1>   0.1500 
 40 H       -5.8470    -1.8900    -1.9270 H     1 <1>   0.0800 
 41 H       -5.4990    -1.2620    -0.3210 H     1 <1>   0.0800 
 42 H       -1.8160     4.1420     2.6720 H     1 <1>   0.1500 
 43 H       -0.1420    -5.2310    -1.0010 H     1 <1>   0.1500 
 44 H       -5.3700    -3.9070    -1.2680 H     1 <1>   0.4000 
 45 H        2.4970     4.7570     0.3950 H     1 <1>   0.1500 
 46 H        2.5900     2.4790    -0.2210 H     1 <1>   0.0800 
 47 H        1.0170     1.9370    -0.7500 H     1 <1>   0.0800 
 48 H        1.6810     1.3590     0.7570 H     1 <1>   0.0800 
 49 H       -0.7070     6.3070     2.7200 H     1 <1>   0.1500 
 50 H        1.4480     6.6210     1.5830 H     1 <1>   0.1500 
 51 H        3.7220    -0.8080     0.4870 H     1 <1>   0.0800 
 52 H        3.2740    -2.5110     0.5320 H     1 <1>   0.0800 
 53 H        2.3180    -1.3240     1.4210 H     1 <1>   0.0800 
 54 H        3.6380    -4.5000    -2.4470 H     1 <1>   0.0800 
 55 H        3.3020    -2.7980    -2.1560 H     1 <1>   0.0800 
 56 H        2.1880    -3.7640    -3.1270 H     1 <1>   0.0800 
@<TRIPOS>BOND
  1   1   2  2   
  2   2   3  am  
  3   2   4  1   
  4   3   5  1   
  5   3   6  1   
  6   4   7  1   
  7   4  30  1   
  8   4  31  1   
  9   5   8  1   
 10   5   9  1   
 11   5  32  1   
 12   6  10  1   
 13   6  33  1   
 14   6  34  1   
 15   7  11  1   
 16   8  12  ar  
 17   8  13  ar  
 18   9  14  1   
 19   9  15  1   
 20   9  35  1   
 21  10  14  1   
 22  10  36  1   
 23  10  37  1   
 24  11  16  ar  
 25  11  17  ar  
 26  12  18  ar  
 27  12  38  1   
 28  13  19  ar  
 29  13  39  1   
 30  15  20  1   
 31  15  40  1   
 32  15  41  1   
 33  16  21  ar  
 34  16  22  1   
 35  17  23  ar  
 36  17  42  1   
 37  18  24  1   
 38  18  25  ar  
 39  19  25  ar  
 40  19  43  1   
 41  20  44  1   
 42  21  26  ar  
 43  21  45  1   
 44  22  46  1   
 45  22  47  1   
 46  22  48  1   
 47  23  26  ar  
 48  23  49  1   
 49  24  27  1   
 50  25  28  1   
 51  26  50  1   
 52  27  51  1   
 53  27  52  1   
 54  27  53  1   
 55  28  29  1   
 56  29  54  1   
 57  29  55  1   
 58  29  56  1   
@<TRIPOS>SUBSTRUCTURE
  1 ****  12 GROUP 4 **** **** 0

# MOE 2024.06 (io_trps.svl 2023.06)
