@<TRIPOS>MOLECULE
NONAME
46 48 1 0 0 
SMALL
USER_CHARGES


@<TRIPOS>ATOM
  1 S       -1.6430    -0.4600     2.2280 S.3   1 <1>  -0.0800 
  2 C       -2.0560    -1.0930     0.6410 C.2   1 <1>  -0.1400 
  3 C       -0.6030    -1.8340     2.5550 C.2   1 <1>  -0.1100 
  4 C       -1.4240    -2.2620     0.4220 C.2   1 <1>  -0.1500 
  5 C       -3.0130    -0.2800    -0.2040 C.3   1 <1>   0.3200 
  6 C       -0.5970    -2.6830     1.5120 C.2   1 <1>  -0.1500 
  7 N       -4.2990    -0.2170     0.5180 N.am  1 <1>  -0.7300 
  8 C       -5.5150    -0.2220    -0.0830 C.2   1 <1>   0.5690 
  9 O       -5.6280    -0.1860    -1.2860 O.2   1 <1>  -0.5700 
 10 C       -6.8050    -0.2610     0.7570 C.3   1 <1>   0.4040 
 11 N       -8.0060     0.2850     0.0250 N.4   1 <1>  -0.9590 
 12 C       -9.2910    -0.1000     0.6870 C.3   1 <1>   0.3430 
 13 C       -7.9000     1.7560    -0.1950 C.3   1 <1>   0.3430 
 14 C      -10.5170     0.3440    -0.1420 C.3   1 <1>   0.0000 
 15 C       -9.0740     2.2380    -1.0490 C.3   1 <1>  -0.1600 
 16 C      -11.8110    -0.0180     0.6070 C.3   1 <1>   0.2000 
 17 C      -10.4290     1.8580    -0.4300 C.3   1 <1>  -0.1600 
 18 C      -10.6360    -0.4940    -1.4270 C.3   1 <1>  -0.1600 
 19 O      -11.6380     0.0830     1.9770 O.3   1 <1>  -0.6800 
 20 C      -12.1510    -1.4620     0.2280 C.3   1 <1>  -0.1600 
 21 C      -11.2760    -1.8100    -0.9830 C.3   1 <1>  -0.1600 
 22 H       -0.0980    -1.8590     3.5040 H     1 <1>   0.1500 
 23 H       -1.5000    -2.8620    -0.4690 H     1 <1>   0.1500 
 24 H       -3.1440    -0.7430    -1.1670 H     1 <1>   0.0800 
 25 H       -2.6230     0.7140    -0.3450 H     1 <1>   0.0800 
 26 H       -0.0400    -3.6020     1.4580 H     1 <1>   0.1500 
 27 H       -4.1710    -0.2850     1.5310 H     1 <1>   0.3700 
 28 H       -6.6480     0.2950     1.6650 H     1 <1>   0.0800 
 29 H       -6.9870    -1.2880     1.0210 H     1 <1>   0.0800 
 30 H       -7.9760    -0.1430    -0.9150 H     1 <1>   0.4500 
 31 H       -9.3330    -1.1670     0.8290 H     1 <1>   0.0800 
 32 H       -9.3440     0.3650     1.6580 H     1 <1>   0.0800 
 33 H       -7.9130     2.2690     0.7540 H     1 <1>   0.0800 
 34 H       -6.9740     1.9890    -0.6980 H     1 <1>   0.0800 
 35 H       -9.0180     3.3090    -1.1440 H     1 <1>   0.0800 
 36 H       -8.9870     1.8270    -2.0390 H     1 <1>   0.0800 
 37 H      -12.6140     0.6390     0.3120 H     1 <1>   0.0800 
 38 H      -11.2260     2.1600    -1.0890 H     1 <1>   0.0800 
 39 H      -10.5550     2.3970     0.4940 H     1 <1>   0.0800 
 40 H      -11.3070    -0.0050    -2.1140 H     1 <1>   0.0800 
 41 H       -9.7000    -0.6560    -1.9310 H     1 <1>   0.0800 
 42 H      -12.4830    -0.1060     2.4360 H     1 <1>   0.4000 
 43 H      -11.9520    -2.1480     1.0340 H     1 <1>   0.0800 
 44 H      -13.1910    -1.5280    -0.0410 H     1 <1>   0.0800 
 45 H      -10.5140    -2.5110    -0.6890 H     1 <1>   0.0800 
 46 H      -11.8560    -2.2510    -1.7780 H     1 <1>   0.0800 
@<TRIPOS>BOND
  1   1   2  1   
  2   1   3  1   
  3   2   4  2   
  4   2   5  1   
  5   3   6  2   
  6   3  22  1   
  7   4   6  1   
  8   4  23  1   
  9   5   7  1   
 10   5  24  1   
 11   5  25  1   
 12   6  26  1   
 13   7   8  am  
 14   7  27  1   
 15   8   9  2   
 16   8  10  1   
 17  10  11  1   
 18  10  28  1   
 19  10  29  1   
 20  11  12  1   
 21  11  13  1   
 22  11  30  1   
 23  12  14  1   
 24  12  31  1   
 25  12  32  1   
 26  13  15  1   
 27  13  33  1   
 28  13  34  1   
 29  14  16  1   
 30  14  17  1   
 31  14  18  1   
 32  15  17  1   
 33  15  35  1   
 34  15  36  1   
 35  16  19  1   
 36  16  20  1   
 37  16  37  1   
 38  17  38  1   
 39  17  39  1   
 40  18  21  1   
 41  18  40  1   
 42  18  41  1   
 43  19  42  1   
 44  20  21  1   
 45  20  43  1   
 46  20  44  1   
 47  21  45  1   
 48  21  46  1   
@<TRIPOS>SUBSTRUCTURE
  1 ****  10 GROUP 4 **** **** 0

# MOE 2024.06 (io_trps.svl 2023.06)
