@<TRIPOS>MOLECULE
NONAME
59 63 1 0 0 
SMALL
USER_CHARGES


@<TRIPOS>ATOM
  1 S       -2.7280    -1.4810    -2.1510 S.3   1 <1>  -0.0800 
  2 C       -2.4770    -0.9000    -0.5040 C.2   1 <1>   0.0410 
  3 C       -1.3190    -2.5220    -2.0690 C.2   1 <1>  -0.1100 
  4 C       -3.4160     0.0460     0.0330 C.2   1 <1>   0.2880 
  5 C       -1.3740    -1.4940     0.0120 C.2   1 <1>  -0.1500 
  6 C       -0.7240    -2.4110    -0.8670 C.2   1 <1>  -0.1500 
  7 N       -3.2790     1.3380    -0.0510 N.2   1 <1>  -0.7070 
  8 C       -4.5930    -0.2860     0.7090 C.2   1 <1>  -0.1810 
  9 N       -4.3520     1.8850     0.5650 N.pl3 1 <1>   0.5930 
 10 C       -5.1530     0.8960     1.0370 C.2   1 <1>  -0.3020 
 11 C       -5.0720    -1.6930     0.9980 C.3   1 <1>   0.5240 
 12 C       -4.5730     3.2880     0.6800 C.ar  1 <1>  -0.0230 
 13 N       -5.3050    -2.4030    -0.2940 N.4   1 <1>  -0.9590 
 14 C       -5.8620     3.8190     0.6860 C.ar  1 <1>  -0.1500 
 15 C       -3.4970     4.1660     0.7880 C.ar  1 <1>  -0.1500 
 16 C       -6.7070    -2.4500    -0.8030 C.3   1 <1>   0.4230 
 17 C       -4.6940    -3.7670    -0.2660 C.3   1 <1>   0.2630 
 18 C       -6.0670     5.1810     0.8100 C.ar  1 <1>  -0.1500 
 19 C       -3.7010     5.5290     0.9110 C.ar  1 <1>  -0.1500 
 20 C       -7.7010    -3.1450     0.1260 C.3   1 <1>  -0.1600 
 21 C       -7.3220    -1.0780    -1.0490 C.3   1 <1>  -0.1600 
 22 C       -4.9870     6.0380     0.9240 C.ar  1 <1>  -0.1500 
 23 C       -9.0760    -2.6830    -0.3810 C.3   1 <1>  -0.0800 
 24 C       -8.8300    -1.3470    -1.1220 C.3   1 <1>  -0.0800 
 25 C      -10.1490    -2.6310     0.7260 C.3   1 <1>   0.1400 
 26 C       -9.6790    -0.1760    -0.5910 C.3   1 <1>  -0.0990 
 27 N      -11.3010    -1.8150     0.2770 N.am  1 <1>  -0.6600 
 28 C      -11.1080    -0.6180    -0.3570 C.2   1 <1>   0.5690 
 29 C      -12.6580    -2.3330     0.6010 C.3   1 <1>   0.0600 
 30 O      -12.0060     0.0960    -0.7280 O.2   1 <1>  -0.5700 
 31 H       -1.0740    -3.1060    -2.9400 H     1 <1>   0.1500 
 32 H       -0.9840    -1.3040     0.9970 H     1 <1>   0.1500 
 33 H        0.1670    -2.9360    -0.5630 H     1 <1>   0.1500 
 34 H       -6.0560     1.1150     1.5780 H     1 <1>   0.1500 
 35 H       -5.9730    -1.6590     1.5860 H     1 <1>   0.0800 
 36 H       -4.3130    -2.2020     1.5690 H     1 <1>   0.0800 
 37 H       -4.7750    -1.8530    -0.9880 H     1 <1>   0.4500 
 38 H       -6.7180     3.1750     0.5900 H     1 <1>   0.1500 
 39 H       -2.4910     3.7810     0.7740 H     1 <1>   0.1500 
 40 H       -6.7190    -2.9760    -1.7450 H     1 <1>   0.0800 
 41 H       -5.1830    -4.3860     0.4690 H     1 <1>   0.0800 
 42 H       -3.6440    -3.7020    -0.0230 H     1 <1>   0.0800 
 43 H       -4.7880    -4.2390    -1.2310 H     1 <1>   0.0800 
 44 H       -7.0680     5.5790     0.8150 H     1 <1>   0.1500 
 45 H       -2.8580     6.1930     0.9950 H     1 <1>   0.1500 
 46 H       -7.6160    -4.2160     0.0730 H     1 <1>   0.0800 
 47 H       -7.5710    -2.8210     1.1420 H     1 <1>   0.0800 
 48 H       -7.1330    -0.4190    -0.2260 H     1 <1>   0.0800 
 49 H       -6.9610    -0.6330    -1.9590 H     1 <1>   0.0800 
 50 H       -5.1460     7.0980     1.0200 H     1 <1>   0.1500 
 51 H       -9.4180    -3.3960    -1.1140 H     1 <1>   0.0800 
 52 H       -9.1030    -1.4990    -2.1550 H     1 <1>   0.0800 
 53 H       -9.7500    -2.1830     1.6200 H     1 <1>   0.0800 
 54 H      -10.4740    -3.6300     0.9650 H     1 <1>   0.0800 
 55 H       -9.6680     0.6380    -1.2940 H     1 <1>   0.0800 
 56 H       -9.2980     0.1840     0.3460 H     1 <1>   0.0800 
 57 H      -12.8100    -3.2840     0.1210 H     1 <1>   0.0800 
 58 H      -13.4170    -1.6510     0.2570 H     1 <1>   0.0800 
 59 H      -12.7610    -2.4500     1.6660 H     1 <1>   0.0800 
@<TRIPOS>BOND
  1   1   2  1   
  2   1   3  1   
  3   2   4  1   
  4   2   5  2   
  5   3   6  2   
  6   3  31  1   
  7   4   7  2   
  8   4   8  1   
  9   5   6  1   
 10   5  32  1   
 11   6  33  1   
 12   7   9  1   
 13   8  10  2   
 14   8  11  1   
 15   9  10  1   
 16   9  12  1   
 17  10  34  1   
 18  11  13  1   
 19  11  35  1   
 20  11  36  1   
 21  12  14  ar  
 22  12  15  ar  
 23  13  16  1   
 24  13  17  1   
 25  13  37  1   
 26  14  18  ar  
 27  14  38  1   
 28  15  19  ar  
 29  15  39  1   
 30  16  20  1   
 31  16  21  1   
 32  16  40  1   
 33  17  41  1   
 34  17  42  1   
 35  17  43  1   
 36  18  22  ar  
 37  18  44  1   
 38  19  22  ar  
 39  19  45  1   
 40  20  23  1   
 41  20  46  1   
 42  20  47  1   
 43  21  24  1   
 44  21  48  1   
 45  21  49  1   
 46  22  50  1   
 47  23  24  1   
 48  23  25  1   
 49  23  51  1   
 50  24  26  1   
 51  24  52  1   
 52  25  27  1   
 53  25  53  1   
 54  25  54  1   
 55  26  28  1   
 56  26  55  1   
 57  26  56  1   
 58  27  28  am  
 59  27  29  1   
 60  28  30  2   
 61  29  57  1   
 62  29  58  1   
 63  29  59  1   
@<TRIPOS>SUBSTRUCTURE
  1 ****   8 GROUP 4 **** **** 0

# MOE 2024.06 (io_trps.svl 2023.06)
