@<TRIPOS>MOLECULE
NONAME
48 50 1 0 0 
SMALL
USER_CHARGES


@<TRIPOS>ATOM
  1 O       -1.1830     0.7290     0.0850 O.2   1 <1>  -0.5700 
  2 C       -0.9390     1.9110     0.1390 C.2   1 <1>   0.5690 
  3 N       -1.7850     2.8410     0.6920 N.am  1 <1>  -0.6600 
  4 C        0.3870     2.3790    -0.4540 C.3   1 <1>   0.1810 
  5 C       -1.4160     4.2980     0.7090 C.3   1 <1>   0.3640 
  6 C       -3.0550     2.5110     1.3990 C.3   1 <1>   0.2200 
  7 O        0.8830     3.5140     0.2060 O.3   1 <1>  -0.5600 
  8 C       -2.4580     5.0900    -0.0830 C.ar  1 <1>  -0.1440 
  9 C        0.0040     4.6260     0.1670 C.3   1 <1>   0.2610 
 10 C       -2.7640     1.6760     2.6460 C.3   1 <1>  -0.2400 
 11 C       -4.0500     1.8180     0.4660 C.3   1 <1>  -0.2400 
 12 C       -2.8330     4.7020    -1.3630 C.ar  1 <1>  -0.1500 
 13 C       -3.0410     6.2210     0.4730 C.ar  1 <1>  -0.1500 
 14 C        0.6090     5.7980     0.9530 C.2   1 <1>   0.5690 
 15 C       -3.7720     5.4280    -2.0730 C.ar  1 <1>  -0.1500 
 16 C       -3.9810     6.9490    -0.2360 C.ar  1 <1>  -0.1500 
 17 O       -0.0010     6.8370     1.0660 O.2   1 <1>  -0.5700 
 18 N        1.8450     5.6630     1.4970 N.am  1 <1>  -0.7300 
 19 C       -4.3470     6.5530    -1.5100 C.ar  1 <1>  -0.1500 
 20 C        2.5850     6.7030     2.2500 C.3   1 <1>   0.3200 
 21 C        3.0980     7.7790     1.3120 C.2   1 <1>   0.0060 
 22 N        4.3260     8.1290     1.1580 N.2   1 <1>  -0.3380 
 23 N        2.2870     8.4970     0.5280 N.pl3 1 <1>   0.0330 
 24 N        4.3440     9.1070     0.2380 N.2   1 <1>  -0.3380 
 25 C        3.1200     9.3080    -0.1230 C.2   1 <1>   0.2700 
 26 N        2.7370    10.2440    -1.0580 N.pl3 1 <1>  -0.8840 
 27 H        0.2620     2.6070    -1.4970 H     1 <1>   0.0800 
 28 H        1.1160     1.5960    -0.3530 H     1 <1>   0.0800 
 29 H       -1.4520     4.6190     1.7360 H     1 <1>   0.0800 
 30 H       -3.5170     3.4280     1.7270 H     1 <1>   0.0800 
 31 H       -0.0720     4.9330    -0.8600 H     1 <1>   0.0800 
 32 H       -2.3730     0.7110     2.3790 H     1 <1>   0.0800 
 33 H       -3.6710     1.5260     3.2020 H     1 <1>   0.0800 
 34 H       -2.0580     2.1840     3.2770 H     1 <1>   0.0800 
 35 H       -3.6950     0.8500     0.1660 H     1 <1>   0.0800 
 36 H       -4.2230     2.4200    -0.4060 H     1 <1>   0.0800 
 37 H       -4.9870     1.6850     0.9730 H     1 <1>   0.0800 
 38 H       -2.4010     3.8240    -1.8130 H     1 <1>   0.1500 
 39 H       -2.7630     6.5500     1.4600 H     1 <1>   0.1500 
 40 H       -4.0580     5.1180    -3.0630 H     1 <1>   0.1500 
 41 H       -4.4260     7.8240     0.2030 H     1 <1>   0.1500 
 42 H        2.3560     4.7960     1.2960 H     1 <1>   0.3700 
 43 H       -5.0780     7.1190    -2.0610 H     1 <1>   0.1500 
 44 H        1.9310     7.1490     2.9800 H     1 <1>   0.0800 
 45 H        3.4130     6.2510     2.7670 H     1 <1>   0.0800 
 46 H        1.2750     8.3860     0.4220 H     1 <1>   0.2700 
 47 H        3.5520    10.7490    -1.4200 H     1 <1>   0.4000 
 48 H        2.0300    10.9070    -0.7370 H     1 <1>   0.4000 
@<TRIPOS>BOND
  1   1   2  2   
  2   2   3  am  
  3   2   4  1   
  4   3   5  1   
  5   3   6  1   
  6   4   7  1   
  7   4  27  1   
  8   4  28  1   
  9   5   8  1   
 10   5   9  1   
 11   5  29  1   
 12   6  10  1   
 13   6  11  1   
 14   6  30  1   
 15   7   9  1   
 16   8  12  ar  
 17   8  13  ar  
 18   9  14  1   
 19   9  31  1   
 20  10  32  1   
 21  10  33  1   
 22  10  34  1   
 23  11  35  1   
 24  11  36  1   
 25  11  37  1   
 26  12  15  ar  
 27  12  38  1   
 28  13  16  ar  
 29  13  39  1   
 30  14  17  2   
 31  14  18  am  
 32  15  19  ar  
 33  15  40  1   
 34  16  19  ar  
 35  16  41  1   
 36  18  20  1   
 37  18  42  1   
 38  19  43  1   
 39  20  21  1   
 40  20  44  1   
 41  20  45  1   
 42  21  22  2   
 43  21  23  1   
 44  22  24  1   
 45  23  25  1   
 46  23  46  1   
 47  24  25  2   
 48  25  26  1   
 49  26  47  1   
 50  26  48  1   
@<TRIPOS>SUBSTRUCTURE
  1 ****   9 GROUP 4 **** **** 0

# MOE 2024.06 (io_trps.svl 2023.06)
