@<TRIPOS>MOLECULE
NONAME
45 48 1 0 0 
SMALL
USER_CHARGES


@<TRIPOS>ATOM
  1 O       -0.2000     0.8890     1.4210 O.2   1 <1>  -0.5700 
  2 C       -1.2830     0.9610     0.8470 C.2   1 <1>   0.5440 
  3 N       -2.1370    -0.0900     1.0970 N.am  1 <1>  -0.6600 
  4 C       -1.6570     2.1320     0.0920 C.ar  1 <1>   0.0860 
  5 C       -3.2340     0.0610     2.0840 C.3   1 <1>   0.1400 
  6 C       -2.2010    -1.2140     0.1270 C.3   1 <1>   0.1400 
  7 C       -2.4940     2.0970    -1.0620 C.ar  1 <1>  -0.1710 
  8 C       -1.2150     3.4040     0.5050 C.ar  1 <1>   0.0820 
  9 C       -4.6380    -0.2550     1.5200 C.3   1 <1>   0.4230 
 10 C       -3.6270    -1.4560    -0.4050 C.3   1 <1>   0.3430 
 11 O       -2.8980     1.0320    -1.5820 O.3   1 <1>  -0.8290 
 12 C       -2.8890     3.2940    -1.6760 C.ar  1 <1>  -0.1500 
 13 O       -0.3650     3.5130     1.5440 O.3   1 <1>  -0.5320 
 14 C       -1.6130     4.5690    -0.1150 C.ar  1 <1>  -0.1500 
 15 N       -4.6690    -1.5220     0.6850 N.4   1 <1>  -0.9590 
 16 C       -5.2630     0.9490     0.7760 C.3   1 <1>   0.1200 
 17 C       -2.4640     4.5120    -1.2130 C.ar  1 <1>  -0.1500 
 18 C       -6.0480    -1.7170     0.1310 C.3   1 <1>   0.5180 
 19 O       -6.5660     0.6240     0.3680 O.3   1 <1>  -0.5600 
 20 C       -6.0780    -2.9310    -0.8080 C.3   1 <1>  -0.1950 
 21 C       -6.5960    -0.4390    -0.5430 C.3   1 <1>   0.1200 
 22 C       -7.2560    -3.8560    -0.8080 C.3   1 <1>  -0.2000 
 23 C       -5.9280    -4.3310    -0.2940 C.3   1 <1>  -0.2000 
 24 H       -3.0330    -0.6020     2.9060 H     1 <1>   0.0800 
 25 H       -3.2230     1.0640     2.4760 H     1 <1>   0.0800 
 26 H       -1.5590    -0.9920    -0.7100 H     1 <1>   0.0800 
 27 H       -1.8300    -2.1050     0.5980 H     1 <1>   0.0800 
 28 H       -5.2710    -0.4080     2.3770 H     1 <1>   0.0800 
 29 H       -3.6190    -2.3760    -0.9630 H     1 <1>   0.0800 
 30 H       -3.8940    -0.6810    -1.0970 H     1 <1>   0.0800 
 31 H       -3.5330     3.2170    -2.5320 H     1 <1>   0.1500 
 32 H       -0.0180     2.6150     1.7770 H     1 <1>   0.4500 
 33 H       -1.2590     5.5170     0.2460 H     1 <1>   0.1500 
 34 H       -4.4380    -2.3190     1.2800 H     1 <1>   0.4500 
 35 H       -4.6920     1.2320    -0.0860 H     1 <1>   0.0800 
 36 H       -5.3270     1.8030     1.4270 H     1 <1>   0.0800 
 37 H       -2.7760     5.4200    -1.6970 H     1 <1>   0.1500 
 38 H       -6.7070    -1.9370     0.9540 H     1 <1>   0.0800 
 39 H       -5.6800    -2.7040    -1.7840 H     1 <1>   0.1000 
 40 H       -7.6190    -0.5860    -0.8410 H     1 <1>   0.0800 
 41 H       -6.0180    -0.1700    -1.4120 H     1 <1>   0.0800 
 42 H       -8.0560    -3.7170    -0.0990 H     1 <1>   0.1000 
 43 H       -7.6110    -4.2510    -1.7460 H     1 <1>   0.1000 
 44 H       -5.3830    -5.0490    -0.8840 H     1 <1>   0.1000 
 45 H       -5.8430    -4.5230     0.7620 H     1 <1>   0.1000 
@<TRIPOS>BOND
  1   1   2  2   
  2   2   3  am  
  3   2   4  1   
  4   3   5  1   
  5   3   6  1   
  6   4   7  ar  
  7   4   8  ar  
  8   5   9  1   
  9   5  24  1   
 10   5  25  1   
 11   6  10  1   
 12   6  26  1   
 13   6  27  1   
 14   7  11  1   
 15   7  12  ar  
 16   8  13  1   
 17   8  14  ar  
 18   9  15  1   
 19   9  16  1   
 20   9  28  1   
 21  10  15  1   
 22  10  29  1   
 23  10  30  1   
 24  12  17  ar  
 25  12  31  1   
 26  13  32  1   
 27  14  17  ar  
 28  14  33  1   
 29  15  18  1   
 30  15  34  1   
 31  16  19  1   
 32  16  35  1   
 33  16  36  1   
 34  17  37  1   
 35  18  20  1   
 36  18  21  1   
 37  18  38  1   
 38  19  21  1   
 39  20  22  1   
 40  20  23  1   
 41  20  39  1   
 42  21  40  1   
 43  21  41  1   
 44  22  23  1   
 45  22  42  1   
 46  22  43  1   
 47  23  44  1   
 48  23  45  1   
@<TRIPOS>SUBSTRUCTURE
  1 ****   3 GROUP 4 **** **** 0

# MOE 2024.06 (io_trps.svl 2023.06)
