@<TRIPOS>MOLECULE
NONAME
44 46 1 0 0 
SMALL
USER_CHARGES


@<TRIPOS>ATOM
  1 O        0.0540    -0.5010    -0.2280 O.3   1 <1>  -0.5600 
  2 C        1.1540    -1.3340     0.0130 C.3   1 <1>   0.1200 
  3 C       -1.1780    -1.0840     0.0910 C.3   1 <1>   0.1200 
  4 C        1.0570    -2.6360    -0.8040 C.3   1 <1>   0.2090 
  5 C       -1.4090    -2.3580    -0.7410 C.3   1 <1>   0.2090 
  6 N       -0.2650    -3.3140    -0.5810 N.pl3 1 <1>  -0.8380 
  7 C       -0.3850    -4.6660    -0.4470 C.ar  1 <1>   0.4100 
  8 N        0.5900    -5.4080    -0.9730 N.ar  1 <1>  -0.6200 
  9 C       -1.4640    -5.2500     0.2060 C.ar  1 <1>  -0.1500 
 10 C        0.4720    -6.7010    -0.8780 C.ar  1 <1>   0.7710 
 11 C       -1.5600    -6.6180     0.2990 C.ar  1 <1>   0.4610 
 12 N       -0.5610    -7.3090    -0.2710 N.ar  1 <1>  -0.1790 
 13 N        1.4450    -7.4350    -1.4270 N.pl3 1 <1>  -0.9000 
 14 N       -2.5820    -7.3130     0.8950 N.pl3 1 <1>  -0.8380 
 15 C       -3.9180    -6.6980     1.1560 C.3   1 <1>   0.2090 
 16 C       -2.5540    -8.7610     1.2680 C.3   1 <1>   0.2090 
 17 C       -4.7560    -6.6670    -0.1270 C.3   1 <1>  -0.1600 
 18 C       -3.1510    -9.6280     0.1520 C.3   1 <1>  -0.1600 
 19 C       -4.6580    -7.9110    -1.0320 C.3   1 <1>  -0.1600 
 20 C       -4.5820    -9.2520    -0.2820 C.3   1 <1>  -0.1600 
 21 H        1.1940    -1.5540     1.0660 H     1 <1>   0.0800 
 22 H        2.0420    -0.7920    -0.2600 H     1 <1>   0.0800 
 23 H       -1.9450    -0.3600    -0.1180 H     1 <1>   0.0800 
 24 H       -1.1900    -1.3090     1.1430 H     1 <1>   0.0800 
 25 H        1.8660    -3.2840    -0.5160 H     1 <1>   0.0800 
 26 H        1.1680    -2.4080    -1.8490 H     1 <1>   0.0800 
 27 H       -1.4890    -2.0800    -1.7780 H     1 <1>   0.0800 
 28 H       -2.3400    -2.8080    -0.4540 H     1 <1>   0.0800 
 29 H       -2.2060    -4.6230     0.6490 H     1 <1>   0.1500 
 30 H       -0.6220    -8.3120    -0.2820 H     1 <1>   0.4570 
 31 H        1.5440    -8.4500    -1.4530 H     1 <1>   0.4000 
 32 H        2.2060    -6.9270    -1.8900 H     1 <1>   0.4000 
 33 H       -3.8150    -5.7040     1.5550 H     1 <1>   0.0800 
 34 H       -4.4460    -7.2720     1.9000 H     1 <1>   0.0800 
 35 H       -3.1180    -8.9120     2.1750 H     1 <1>   0.0800 
 36 H       -1.5460    -9.0750     1.4800 H     1 <1>   0.0800 
 37 H       -4.4830    -5.8000    -0.7030 H     1 <1>   0.0800 
 38 H       -5.7830    -6.5320     0.1630 H     1 <1>   0.0800 
 39 H       -3.1710   -10.6440     0.5080 H     1 <1>   0.0800 
 40 H       -2.5050    -9.6140    -0.7070 H     1 <1>   0.0800 
 41 H       -3.8040    -7.8170    -1.6800 H     1 <1>   0.0800 
 42 H       -5.5270    -7.9230    -1.6690 H     1 <1>   0.0800 
 43 H       -5.2490    -9.2490     0.5640 H     1 <1>   0.0800 
 44 H       -4.9300   -10.0220    -0.9510 H     1 <1>   0.0800 
@<TRIPOS>BOND
  1   1   2  1   
  2   1   3  1   
  3   2   4  1   
  4   2  21  1   
  5   2  22  1   
  6   3   5  1   
  7   3  23  1   
  8   3  24  1   
  9   4   6  1   
 10   4  25  1   
 11   4  26  1   
 12   5   6  1   
 13   5  27  1   
 14   5  28  1   
 15   6   7  1   
 16   7   8  ar  
 17   7   9  ar  
 18   8  10  ar  
 19   9  11  ar  
 20   9  29  1   
 21  10  12  ar  
 22  10  13  1   
 23  11  12  ar  
 24  11  14  1   
 25  12  30  1   
 26  13  31  1   
 27  13  32  1   
 28  14  15  1   
 29  14  16  1   
 30  15  17  1   
 31  15  33  1   
 32  15  34  1   
 33  16  18  1   
 34  16  35  1   
 35  16  36  1   
 36  17  19  1   
 37  17  37  1   
 38  17  38  1   
 39  18  20  1   
 40  18  39  1   
 41  18  40  1   
 42  19  20  1   
 43  19  41  1   
 44  19  42  1   
 45  20  43  1   
 46  20  44  1   
@<TRIPOS>SUBSTRUCTURE
  1 ****   9 GROUP 4 **** **** 0

# MOE 2024.06 (io_trps.svl 2023.06)
