@<TRIPOS>MOLECULE
NONAME
45 48 1 0 0 
SMALL
USER_CHARGES


@<TRIPOS>ATOM
  1 S       -0.7250     0.4030     0.2320 S.o2  1 <1>   1.0900 
  2 O       -1.0260     1.5510     1.0540 O.2   1 <1>  -0.6500 
  3 O        0.6180     0.1140    -0.2140 O.2   1 <1>  -0.6500 
  4 C       -1.3730    -1.0740     0.9580 C.3   1 <1>  -0.0550 
  5 C       -1.8010     0.3470    -1.1930 C.3   1 <1>  -0.0550 
  6 C       -1.7190    -1.9550    -0.2400 C.3   1 <1>   0.1760 
  7 C       -2.4250    -1.0580    -1.2780 C.3   1 <1>  -0.1600 
  8 N       -2.5690    -3.1070     0.1510 N.pl3 1 <1>   0.3140 
  9 N       -3.6480    -2.9360     0.9360 N.2   1 <1>  -0.7070 
 10 C       -2.4380    -4.4010    -0.2390 C.2   1 <1>  -0.3320 
 11 C       -4.1880    -4.1110     1.0260 C.2   1 <1>   0.1080 
 12 C       -3.4740    -5.0750     0.3070 C.2   1 <1>   0.0630 
 13 C       -1.3250    -4.9220    -1.1390 C.3   1 <1>  -0.0600 
 14 C       -5.4410    -4.3450     1.8400 C.3   1 <1>  -0.0590 
 15 N       -3.7290    -6.4640     0.1720 N.am  1 <1>  -0.4930 
 16 C       -4.9050    -7.1000    -0.1310 C.2   1 <1>   0.5440 
 17 O       -5.9180    -6.4500    -0.3040 O.2   1 <1>  -0.5700 
 18 C       -4.9400    -8.5460    -0.2330 C.ar  1 <1>   0.0860 
 19 C       -6.0780    -9.2540     0.1710 C.ar  1 <1>  -0.1500 
 20 C       -3.8490    -9.2800    -0.7310 C.ar  1 <1>  -0.1500 
 21 C       -6.0840   -10.6290     0.0840 C.ar  1 <1>   0.0820 
 22 C       -3.8700   -10.6650    -0.8130 C.ar  1 <1>  -0.1500 
 23 O       -7.0600   -11.4790     0.4210 O.3   1 <1>  -0.3620 
 24 C       -5.0090   -11.3200    -0.3930 C.ar  1 <1>   0.0820 
 25 C       -6.5790   -12.7910     0.1350 C.3   1 <1>   0.4000 
 26 O       -5.2580   -12.6290    -0.3770 O.3   1 <1>  -0.3620 
 27 H       -2.2630    -0.8400     1.5120 H     1 <1>   0.0800 
 28 H       -0.6560    -1.5450     1.6020 H     1 <1>   0.0800 
 29 H       -1.2400     0.5650    -2.0820 H     1 <1>   0.0800 
 30 H       -2.5810     1.0800    -1.0960 H     1 <1>   0.0800 
 31 H       -0.8020    -2.3260    -0.6620 H     1 <1>   0.0800 
 32 H       -2.3260    -1.4670    -2.2680 H     1 <1>   0.0800 
 33 H       -3.4720    -0.9840    -1.0350 H     1 <1>   0.0800 
 34 H       -1.3290    -4.3940    -2.0760 H     1 <1>   0.0800 
 35 H       -1.4630    -5.9670    -1.3450 H     1 <1>   0.0800 
 36 H       -0.3690    -4.7900    -0.6650 H     1 <1>   0.0800 
 37 H       -5.4930    -3.6340     2.6430 H     1 <1>   0.0800 
 38 H       -5.4390    -5.3370     2.2510 H     1 <1>   0.0800 
 39 H       -6.3020    -4.2270     1.2100 H     1 <1>   0.0800 
 40 H       -2.9130    -7.0540     0.3030 H     1 <1>   0.3700 
 41 H       -6.9420    -8.7330     0.5450 H     1 <1>   0.1500 
 42 H       -2.9710    -8.7600    -1.0730 H     1 <1>   0.1500 
 43 H       -3.0350   -11.2270    -1.1940 H     1 <1>   0.1500 
 44 H       -7.2030   -13.2500    -0.6110 H     1 <1>   0.0800 
 45 H       -6.5480   -13.3710     1.0410 H     1 <1>   0.0800 
@<TRIPOS>BOND
  1   1   2  2   
  2   1   3  2   
  3   1   4  1   
  4   1   5  1   
  5   4   6  1   
  6   4  27  1   
  7   4  28  1   
  8   5   7  1   
  9   5  29  1   
 10   5  30  1   
 11   6   7  1   
 12   6   8  1   
 13   6  31  1   
 14   7  32  1   
 15   7  33  1   
 16   8   9  1   
 17   8  10  1   
 18   9  11  2   
 19  10  12  2   
 20  10  13  1   
 21  11  12  1   
 22  11  14  1   
 23  12  15  1   
 24  13  34  1   
 25  13  35  1   
 26  13  36  1   
 27  14  37  1   
 28  14  38  1   
 29  14  39  1   
 30  15  16  am  
 31  15  40  1   
 32  16  17  2   
 33  16  18  1   
 34  18  19  ar  
 35  18  20  ar  
 36  19  21  ar  
 37  19  41  1   
 38  20  22  ar  
 39  20  42  1   
 40  21  23  1   
 41  21  24  ar  
 42  22  24  ar  
 43  22  43  1   
 44  23  25  1   
 45  24  26  1   
 46  25  26  1   
 47  25  44  1   
 48  25  45  1   
@<TRIPOS>SUBSTRUCTURE
  1 ****  12 GROUP 4 **** **** 0

# MOE 2024.06 (io_trps.svl 2023.06)
