@<TRIPOS>MOLECULE
NONAME
51 53 1 0 0 
SMALL
USER_CHARGES


@<TRIPOS>ATOM
  1 F        2.5160     0.6480     2.1220 F     1 <1>  -0.3400 
  2 C        2.6440     0.3320     0.8400 C.3   1 <1>   1.1640 
  3 F        1.4130     0.2780     0.3450 F     1 <1>  -0.3400 
  4 F        3.2410     1.3620     0.2530 F     1 <1>  -0.3400 
  5 C        3.3860    -1.0030     0.6530 C.ar  1 <1>  -0.1440 
  6 C        2.7760    -2.1950     1.0230 C.ar  1 <1>  -0.1500 
  7 C        4.6670    -1.0590     0.1190 C.ar  1 <1>  -0.1500 
  8 C        3.4040    -3.4220     0.8560 C.ar  1 <1>  -0.1440 
  9 C        5.3120    -2.2720    -0.0280 C.ar  1 <1>  -0.1500 
 10 C        4.7000    -3.4580     0.3440 C.ar  1 <1>  -0.1430 
 11 C        2.6450    -4.6790     1.2550 C.3   1 <1>   0.4870 
 12 C        5.5060    -4.7420     0.1860 C.3   1 <1>  -0.0970 
 13 N        2.3640    -5.4790     0.0240 N.4   1 <1>  -0.9590 
 14 C        0.9770    -5.4280    -0.5290 C.3   1 <1>   0.4230 
 15 C        2.7940    -6.9000     0.2060 C.3   1 <1>   0.2630 
 16 C       -0.1190    -5.8670     0.4410 C.3   1 <1>  -0.1600 
 17 C        0.5350    -4.0460    -0.9900 C.3   1 <1>  -0.1600 
 18 C       -1.4130    -5.3330    -0.1890 C.3   1 <1>  -0.0800 
 19 C       -0.9900    -4.1590    -1.1040 C.3   1 <1>  -0.0800 
 20 C       -2.5020    -4.9930     0.8490 C.3   1 <1>   0.1400 
 21 C       -1.7240    -2.8380    -0.8020 C.3   1 <1>  -0.0990 
 22 N       -3.5450    -4.1450     0.2250 N.am  1 <1>  -0.6600 
 23 C       -3.2010    -3.0930    -0.5800 C.2   1 <1>   0.5690 
 24 C       -4.9600    -4.4650     0.5560 C.3   1 <1>   0.0600 
 25 O       -4.0060    -2.3690    -1.1120 O.2   1 <1>  -0.5700 
 26 H        1.7870    -2.1500     1.4520 H     1 <1>   0.1500 
 27 H        5.1800    -0.1590    -0.1810 H     1 <1>   0.1500 
 28 H        6.3110    -2.2780    -0.4340 H     1 <1>   0.1500 
 29 H        1.7310    -4.4110     1.7560 H     1 <1>   0.0800 
 30 H        3.2520    -5.2460     1.9410 H     1 <1>   0.0800 
 31 H        6.5570    -4.5180     0.1210 H     1 <1>   0.0800 
 32 H        5.2240    -5.2580    -0.7140 H     1 <1>   0.0800 
 33 H        5.3730    -5.3870     1.0350 H     1 <1>   0.0800 
 34 H        2.9720    -5.0430    -0.6850 H     1 <1>   0.4500 
 35 H        0.9250    -6.0760    -1.3910 H     1 <1>   0.0800 
 36 H        2.1920    -7.3810     0.9600 H     1 <1>   0.0800 
 37 H        3.8270    -6.9460     0.5090 H     1 <1>   0.0800 
 38 H        2.6850    -7.4440    -0.7190 H     1 <1>   0.0800 
 39 H       -0.1580    -6.9380     0.5430 H     1 <1>   0.0800 
 40 H        0.0170    -5.4170     1.4060 H     1 <1>   0.0800 
 41 H        0.7700    -3.3050    -0.2540 H     1 <1>   0.0800 
 42 H        0.9780    -3.7740    -1.9320 H     1 <1>   0.0800 
 43 H       -1.8180    -6.1040    -0.8250 H     1 <1>   0.0800 
 44 H       -1.2390    -4.4380    -2.1160 H     1 <1>   0.0800 
 45 H       -2.0810    -4.4490     1.6770 H     1 <1>   0.0800 
 46 H       -2.9420    -5.9000     1.2280 H     1 <1>   0.0800 
 47 H       -1.6000    -2.1490    -1.6180 H     1 <1>   0.0800 
 48 H       -1.3400    -2.3760     0.0880 H     1 <1>   0.0800 
 49 H       -5.1980    -5.4580     0.2180 H     1 <1>   0.0800 
 50 H       -5.6280    -3.7700     0.0760 H     1 <1>   0.0800 
 51 H       -5.1100    -4.4040     1.6200 H     1 <1>   0.0800 
@<TRIPOS>BOND
  1   1   2  1   
  2   2   3  1   
  3   2   4  1   
  4   2   5  1   
  5   5   6  ar  
  6   5   7  ar  
  7   6   8  ar  
  8   6  26  1   
  9   7   9  ar  
 10   7  27  1   
 11   8  10  ar  
 12   8  11  1   
 13   9  10  ar  
 14   9  28  1   
 15  10  12  1   
 16  11  13  1   
 17  11  29  1   
 18  11  30  1   
 19  12  31  1   
 20  12  32  1   
 21  12  33  1   
 22  13  14  1   
 23  13  15  1   
 24  13  34  1   
 25  14  16  1   
 26  14  17  1   
 27  14  35  1   
 28  15  36  1   
 29  15  37  1   
 30  15  38  1   
 31  16  18  1   
 32  16  39  1   
 33  16  40  1   
 34  17  19  1   
 35  17  41  1   
 36  17  42  1   
 37  18  19  1   
 38  18  20  1   
 39  18  43  1   
 40  19  21  1   
 41  19  44  1   
 42  20  22  1   
 43  20  45  1   
 44  20  46  1   
 45  21  23  1   
 46  21  47  1   
 47  21  48  1   
 48  22  23  am  
 49  22  24  1   
 50  23  25  2   
 51  24  49  1   
 52  24  50  1   
 53  24  51  1   
@<TRIPOS>SUBSTRUCTURE
  1 ****  17 GROUP 4 **** **** 0

# MOE 2024.06 (io_trps.svl 2023.06)
