@<TRIPOS>MOLECULE
NONAME
49 51 1 0 0 
SMALL
USER_CHARGES


@<TRIPOS>ATOM
  1 O       -0.4610     0.2960    -0.1660 O.2   1 <1>  -0.5700 
  2 C       -1.5270     0.8860    -0.1890 C.2   1 <1>   0.7160 
  3 N       -2.6820     0.1470    -0.0620 N.am  1 <1>  -0.6600 
  4 C       -1.5680     2.3210    -0.3610 C.2   1 <1>  -0.0860 
  5 C       -4.0280     0.6070    -0.4860 C.3   1 <1>   0.1400 
  6 C       -2.6630    -1.3270     0.1080 C.3   1 <1>   0.1400 
  7 C       -0.6920     3.1000    -1.1270 C.2   1 <1>   0.1080 
  8 C       -2.4230     3.2510     0.1560 C.2   1 <1>  -0.3020 
  9 C       -4.7820    -0.6730    -0.8400 C.3   1 <1>   0.2000 
 10 C       -4.1240    -1.7670    -0.0050 C.3   1 <1>  -0.0800 
 11 N       -0.9800     4.3610    -1.0980 N.2   1 <1>  -0.7070 
 12 C        0.4810     2.5740    -1.9270 C.3   1 <1>  -0.0590 
 13 N       -2.0510     4.4560    -0.2970 N.pl3 1 <1>   0.3140 
 14 O       -6.1290    -0.5740    -0.5290 O.3   1 <1>  -0.6800 
 15 C       -4.2970    -3.1730    -0.6000 C.3   1 <1>   0.0210 
 16 C       -2.6800     5.7550     0.0100 C.3   1 <1>   0.0960 
 17 C       -3.5120    -4.2010     0.1930 C.2   1 <1>   0.1080 
 18 C       -2.1880     6.2960     1.3590 C.3   1 <1>  -0.1600 
 19 N       -3.6630    -4.3720     1.4690 N.2   1 <1>  -0.7070 
 20 C       -2.5520    -5.0540    -0.3420 C.2   1 <1>  -0.1500 
 21 C       -2.8390     7.6420     1.6930 C.3   1 <1>  -0.2400 
 22 N       -2.7950    -5.3510     1.7870 N.pl3 1 <1>   0.3000 
 23 C       -2.1080    -5.7790     0.7070 C.2   1 <1>  -0.3320 
 24 C       -1.0550    -6.8700     0.7430 C.3   1 <1>  -0.0600 
 25 H       -4.5020     1.1100     0.3380 H     1 <1>   0.0800 
 26 H       -3.9600     1.2600    -1.3380 H     1 <1>   0.0800 
 27 H       -2.0660    -1.7650    -0.6740 H     1 <1>   0.0800 
 28 H       -2.2460    -1.5970     1.0640 H     1 <1>   0.0800 
 29 H       -3.2530     3.1060     0.8200 H     1 <1>   0.1500 
 30 H       -4.6890    -0.8680    -1.8940 H     1 <1>   0.0800 
 31 H       -4.5300    -1.7560     0.9910 H     1 <1>   0.0800 
 32 H        0.1650     1.7610    -2.5530 H     1 <1>   0.0800 
 33 H        1.2450     2.2260    -1.2570 H     1 <1>   0.0800 
 34 H        0.8860     3.3550    -2.5440 H     1 <1>   0.0800 
 35 H       -6.2540    -0.5900     0.4400 H     1 <1>   0.4000 
 36 H       -3.9650    -3.1850    -1.6220 H     1 <1>   0.0800 
 37 H       -5.3370    -3.4450    -0.5810 H     1 <1>   0.0800 
 38 H       -2.4280     6.4420    -0.7770 H     1 <1>   0.0800 
 39 H       -3.7460     5.6230     0.0240 H     1 <1>   0.0800 
 40 H       -2.4180     5.5880     2.1380 H     1 <1>   0.0800 
 41 H       -1.1180     6.4200     1.3190 H     1 <1>   0.0800 
 42 H       -2.2470    -5.1030    -1.3710 H     1 <1>   0.1500 
 43 H       -3.9090     7.5410     1.7560 H     1 <1>   0.0800 
 44 H       -2.6020     8.3720     0.9380 H     1 <1>   0.0800 
 45 H       -2.4740     8.0010     2.6390 H     1 <1>   0.0800 
 46 H       -2.6940    -5.7020     2.7470 H     1 <1>   0.2700 
 47 H       -0.6540    -7.0300    -0.2420 H     1 <1>   0.0800 
 48 H       -1.4860    -7.7920     1.0910 H     1 <1>   0.0800 
 49 H       -0.2500    -6.5880     1.3990 H     1 <1>   0.0800 
@<TRIPOS>BOND
  1   1   2  2   
  2   2   3  am  
  3   2   4  1   
  4   3   5  1   
  5   3   6  1   
  6   4   7  1   
  7   4   8  2   
  8   5   9  1   
  9   5  25  1   
 10   5  26  1   
 11   6  10  1   
 12   6  27  1   
 13   6  28  1   
 14   7  11  2   
 15   7  12  1   
 16   8  13  1   
 17   8  29  1   
 18   9  10  1   
 19   9  14  1   
 20   9  30  1   
 21  10  15  1   
 22  10  31  1   
 23  11  13  1   
 24  12  32  1   
 25  12  33  1   
 26  12  34  1   
 27  13  16  1   
 28  14  35  1   
 29  15  17  1   
 30  15  36  1   
 31  15  37  1   
 32  16  18  1   
 33  16  38  1   
 34  16  39  1   
 35  17  19  2   
 36  17  20  1   
 37  18  21  1   
 38  18  40  1   
 39  18  41  1   
 40  19  22  1   
 41  20  23  2   
 42  20  42  1   
 43  21  43  1   
 44  21  44  1   
 45  21  45  1   
 46  22  23  1   
 47  22  46  1   
 48  23  24  1   
 49  24  47  1   
 50  24  48  1   
 51  24  49  1   
@<TRIPOS>SUBSTRUCTURE
  1 ****   3 GROUP 4 **** **** 0

# MOE 2024.06 (io_trps.svl 2023.06)
