@<TRIPOS>MOLECULE
NONAME
51 52 1 0 0 
SMALL
USER_CHARGES


@<TRIPOS>ATOM
  1 O        1.8200     0.3170     1.8750 O.co2 1 <1>  -0.9000 
  2 C        2.0370    -0.1250     0.7410 C.2   1 <1>   0.9060 
  3 O        2.0290    -1.3470     0.5250 O.co2 1 <1>  -0.9000 
  4 C        2.3430     0.8290    -0.4330 C.3   1 <1>  -0.1060 
  5 C        3.6120     0.3310    -1.1720 C.3   1 <1>   0.2000 
  6 C        2.6450     2.2740     0.0630 C.3   1 <1>  -0.1600 
  7 C        1.1470     0.8290    -1.4230 C.3   1 <1>  -0.0160 
  8 O        3.4330    -0.9720    -1.6060 O.3   1 <1>  -0.6800 
  9 C        4.8670     0.4040    -0.2890 C.3   1 <1>   0.1400 
 10 C        3.9070     2.3480     0.9340 C.3   1 <1>   0.1400 
 11 C       -0.0470     1.6870    -1.0070 C.ar  1 <1>  -0.1440 
 12 N        5.0760     1.8130     0.1770 N.am  1 <1>  -0.6600 
 13 C       -0.8270     1.3310     0.0820 C.ar  1 <1>  -0.1500 
 14 C       -0.3670     2.8340    -1.7200 C.ar  1 <1>  -0.1500 
 15 C        6.2340     2.4950    -0.0940 C.2   1 <1>   0.5690 
 16 C       -1.9080     2.1090     0.4570 C.ar  1 <1>  -0.1500 
 17 C       -1.4500     3.6130    -1.3490 C.ar  1 <1>  -0.1500 
 18 O        7.1270     2.0060    -0.7470 O.2   1 <1>  -0.5700 
 19 C        6.4220     3.9150     0.4340 C.3   1 <1>  -0.0990 
 20 C       -2.2220     3.2510    -0.2590 C.ar  1 <1>  -0.1500 
 21 C        7.7880     4.5470     0.1020 C.3   1 <1>  -0.1600 
 22 C        7.9080     5.9550     0.6840 C.3   1 <1>   0.1400 
 23 N        9.2300     6.5110     0.3330 N.am  1 <1>  -0.7300 
 24 C        9.5370     7.6820    -0.2690 C.2   1 <1>   0.5690 
 25 O       10.6870     7.9780    -0.4610 O.2   1 <1>  -0.5700 
 26 C        8.4530     8.6370    -0.7060 C.3   1 <1>  -0.1790 
 27 H        3.7900     0.9270    -2.0490 H     1 <1>   0.0800 
 28 H        1.8170     2.6320     0.6500 H     1 <1>   0.0800 
 29 H        2.7580     2.9360    -0.7760 H     1 <1>   0.0800 
 30 H        1.4900     1.1700    -2.3830 H     1 <1>   0.0800 
 31 H        0.8060    -0.1830    -1.5650 H     1 <1>   0.0800 
 32 H        2.9220    -1.4330    -0.8710 H     1 <1>   0.4000 
 33 H        5.7150     0.0630    -0.8560 H     1 <1>   0.0800 
 34 H        4.7480    -0.2350     0.5690 H     1 <1>   0.0800 
 35 H        3.7740     1.7630     1.8290 H     1 <1>   0.0800 
 36 H        4.0620     3.3660     1.2370 H     1 <1>   0.0800 
 37 H       -0.5880     0.4460     0.6510 H     1 <1>   0.1500 
 38 H        0.2270     3.1240    -2.5670 H     1 <1>   0.1500 
 39 H       -2.4970     1.8200     1.3090 H     1 <1>   0.1500 
 40 H       -1.6910     4.5000    -1.9070 H     1 <1>   0.1500 
 41 H        5.6440     4.5270     0.0170 H     1 <1>   0.0800 
 42 H        6.3020     3.8870     1.5010 H     1 <1>   0.0800 
 43 H       -3.0610     3.8550     0.0340 H     1 <1>   0.1500 
 44 H        7.9050     4.5910    -0.9680 H     1 <1>   0.0800 
 45 H        8.5690     3.9240     0.5030 H     1 <1>   0.0800 
 46 H        7.8180     5.9180     1.7570 H     1 <1>   0.0800 
 47 H        7.1220     6.5790     0.2970 H     1 <1>   0.0800 
 48 H       10.0360     5.9300     0.5730 H     1 <1>   0.3700 
 49 H        7.8270     8.1640    -1.4380 H     1 <1>   0.0800 
 50 H        8.8990     9.5120    -1.1430 H     1 <1>   0.0800 
 51 H        7.8660     8.9340     0.1420 H     1 <1>   0.0800 
@<TRIPOS>BOND
  1   1   2  ar  
  2   2   3  ar  
  3   2   4  1   
  4   4   5  1   
  5   4   6  1   
  6   4   7  1   
  7   5   8  1   
  8   5   9  1   
  9   5  27  1   
 10   6  10  1   
 11   6  28  1   
 12   6  29  1   
 13   7  11  1   
 14   7  30  1   
 15   7  31  1   
 16   8  32  1   
 17   9  12  1   
 18   9  33  1   
 19   9  34  1   
 20  10  12  1   
 21  10  35  1   
 22  10  36  1   
 23  11  13  ar  
 24  11  14  ar  
 25  12  15  am  
 26  13  16  ar  
 27  13  37  1   
 28  14  17  ar  
 29  14  38  1   
 30  15  18  2   
 31  15  19  1   
 32  16  20  ar  
 33  16  39  1   
 34  17  20  ar  
 35  17  40  1   
 36  19  21  1   
 37  19  41  1   
 38  19  42  1   
 39  20  43  1   
 40  21  22  1   
 41  21  44  1   
 42  21  45  1   
 43  22  23  1   
 44  22  46  1   
 45  22  47  1   
 46  23  24  am  
 47  23  48  1   
 48  24  25  2   
 49  24  26  1   
 50  26  49  1   
 51  26  50  1   
 52  26  51  1   
@<TRIPOS>SUBSTRUCTURE
  1 ****  10 GROUP 4 **** **** 0

# MOE 2024.06 (io_trps.svl 2023.06)
