@<TRIPOS>MOLECULE
NONAME
54 56 1 0 0 
SMALL
USER_CHARGES


@<TRIPOS>ATOM
  1 N        0.1670    -0.7260     1.2750 N.ar  1 <1>  -0.6200 
  2 C        1.1460    -0.8760     0.3700 C.ar  1 <1>   0.4100 
  3 C       -0.8320    -1.5450     1.2670 C.ar  1 <1>   0.5280 
  4 N        2.1960    -0.0300     0.5170 N.pl3 1 <1>  -0.8380 
  5 C        1.0370    -1.8750    -0.6300 C.ar  1 <1>  -0.1440 
  6 N       -0.9500    -2.5520     0.3880 N.ar  1 <1>  -0.1790 
  7 C       -1.9200    -1.3600     2.3050 C.3   1 <1>  -0.0970 
  8 C        2.1150     1.2200     1.3330 C.3   1 <1>   0.4330 
  9 C        3.6240    -0.3540     0.2610 C.3   1 <1>   0.2090 
 10 C       -0.0280    -2.7410    -0.5750 C.ar  1 <1>   0.2180 
 11 C        2.0470    -1.9540    -1.7810 C.3   1 <1>  -0.0970 
 12 C        1.2140     2.2720     0.6830 C.ar  1 <1>  -0.1430 
 13 C        3.5540     1.7110     1.4700 C.3   1 <1>  -0.1600 
 14 C        4.4060     0.4640     1.2760 C.3   1 <1>  -0.1600 
 15 C       -0.2680    -3.9040    -1.5320 C.3   1 <1>  -0.0970 
 16 C        1.2590     2.5160    -0.6820 C.ar  1 <1>  -0.1500 
 17 C        0.3320     3.0030     1.4640 C.ar  1 <1>  -0.1500 
 18 C        0.4460     3.4760    -1.2560 C.ar  1 <1>  -0.1500 
 19 C       -0.4840     3.9650     0.8940 C.ar  1 <1>  -0.1500 
 20 C       -0.4270     4.2130    -0.4690 C.ar  1 <1>  -0.1430 
 21 C       -1.3030     5.2820    -1.0910 C.3   1 <1>   0.4860 
 22 N       -0.4560     6.4700    -1.4010 N.4   1 <1>  -0.9590 
 23 C        0.0860     7.1000    -0.1560 C.3   1 <1>   0.2630 
 24 C       -1.1890     7.4620    -2.2410 C.3   1 <1>   0.2630 
 25 H       -1.7600    -3.1660     0.4530 H     1 <1>   0.4570 
 26 H       -1.6880    -0.5180     2.9340 H     1 <1>   0.0800 
 27 H       -1.9970    -2.2320     2.9280 H     1 <1>   0.0800 
 28 H       -2.8640    -1.1710     1.8290 H     1 <1>   0.0800 
 29 H        1.7460     0.9680     2.3130 H     1 <1>   0.0800 
 30 H        3.8910    -0.0410    -0.7330 H     1 <1>   0.0800 
 31 H        3.8180    -1.4060     0.3850 H     1 <1>   0.0800 
 32 H        2.3410    -0.9640    -2.0810 H     1 <1>   0.0800 
 33 H        1.6330    -2.4180    -2.6560 H     1 <1>   0.0800 
 34 H        2.9190    -2.5070    -1.4810 H     1 <1>   0.0800 
 35 H        3.7210     2.1770     2.4240 H     1 <1>   0.0800 
 36 H        3.7710     2.4220     0.6930 H     1 <1>   0.0800 
 37 H        5.3980     0.6930     0.9300 H     1 <1>   0.0800 
 38 H        4.4720    -0.0870     2.1980 H     1 <1>   0.0800 
 39 H        0.6610    -4.3030    -1.8980 H     1 <1>   0.0800 
 40 H       -0.8560    -3.5760    -2.3710 H     1 <1>   0.0800 
 41 H       -0.7850    -4.7090    -1.0400 H     1 <1>   0.0800 
 42 H        1.9340     1.9470    -1.2990 H     1 <1>   0.1500 
 43 H        0.2770     2.8220     2.5240 H     1 <1>   0.1500 
 44 H        0.5040     3.6320    -2.3200 H     1 <1>   0.1500 
 45 H       -1.1600     4.5110     1.5300 H     1 <1>   0.1500 
 46 H       -2.0950     5.5530    -0.4120 H     1 <1>   0.0800 
 47 H       -1.7440     4.8940    -1.9950 H     1 <1>   0.0800 
 48 H        0.3490     6.1040    -1.9320 H     1 <1>   0.4500 
 49 H       -0.7190     7.4600     0.4650 H     1 <1>   0.0800 
 50 H        0.7290     7.9280    -0.4040 H     1 <1>   0.0800 
 51 H        0.6600     6.3800     0.4070 H     1 <1>   0.0800 
 52 H       -2.0420     7.8500    -1.7070 H     1 <1>   0.0800 
 53 H       -1.5330     7.0020    -3.1540 H     1 <1>   0.0800 
 54 H       -0.5420     8.2860    -2.4980 H     1 <1>   0.0800 
@<TRIPOS>BOND
  1   1   2  ar  
  2   1   3  ar  
  3   2   4  1   
  4   2   5  ar  
  5   3   6  ar  
  6   3   7  1   
  7   4   8  1   
  8   4   9  1   
  9   5  10  ar  
 10   5  11  1   
 11   6  10  ar  
 12   6  25  1   
 13   7  26  1   
 14   7  27  1   
 15   7  28  1   
 16   8  12  1   
 17   8  13  1   
 18   8  29  1   
 19   9  14  1   
 20   9  30  1   
 21   9  31  1   
 22  10  15  1   
 23  11  32  1   
 24  11  33  1   
 25  11  34  1   
 26  12  16  ar  
 27  12  17  ar  
 28  13  14  1   
 29  13  35  1   
 30  13  36  1   
 31  14  37  1   
 32  14  38  1   
 33  15  39  1   
 34  15  40  1   
 35  15  41  1   
 36  16  18  ar  
 37  16  42  1   
 38  17  19  ar  
 39  17  43  1   
 40  18  20  ar  
 41  18  44  1   
 42  19  20  ar  
 43  19  45  1   
 44  20  21  1   
 45  21  22  1   
 46  21  46  1   
 47  21  47  1   
 48  22  23  1   
 49  22  24  1   
 50  22  48  1   
 51  23  49  1   
 52  23  50  1   
 53  23  51  1   
 54  24  52  1   
 55  24  53  1   
 56  24  54  1   
@<TRIPOS>SUBSTRUCTURE
  1 ****  12 GROUP 4 **** **** 0

# MOE 2024.06 (io_trps.svl 2023.06)
