@<TRIPOS>MOLECULE
NONAME
49 50 1 0 0 
SMALL
USER_CHARGES


@<TRIPOS>ATOM
  1 S        1.2330     0.0910     0.4070 S.o2  1 <1>   1.3330 
  2 O        1.8980    -0.4280    -0.7640 O.2   1 <1>  -0.6500 
  3 O        2.0020     0.4820     1.5680 O.2   1 <1>  -0.6500 
  4 N        0.0520    -1.0240     0.8960 N.am  1 <1>  -0.8490 
  5 C        0.2710     1.5260    -0.0600 C.3   1 <1>  -0.0550 
  6 C        0.5660    -1.9750     1.8880 C.3   1 <1>   0.1160 
  7 C       -0.5550    -1.7570    -0.2210 C.3   1 <1>   0.1160 
  8 C        1.1320     2.7190    -0.5380 C.3   1 <1>  -0.0800 
  9 C        0.3290     3.9820    -0.8670 C.3   1 <1>   0.2000 
 10 C        2.1760     3.1990     0.4750 C.3   1 <1>   0.3430 
 11 O       -0.6690     4.1650     0.0860 O.3   1 <1>  -0.6800 
 12 C        1.3400     5.1260    -0.7540 C.3   1 <1>   0.3430 
 13 N        2.4300     4.6100     0.1150 N.4   1 <1>  -0.9590 
 14 C        2.9460     5.4700     1.2160 C.3   1 <1>   0.4860 
 15 C        2.7790     6.9700     0.9720 C.ar  1 <1>  -0.1440 
 16 C        3.1710     7.6430    -0.1890 C.ar  1 <1>   0.0820 
 17 C        2.2040     7.7080     1.9990 C.ar  1 <1>  -0.1500 
 18 O        3.6890     7.0180    -1.2690 O.3   1 <1>  -0.3630 
 19 C        2.9810     9.0110    -0.3050 C.ar  1 <1>  -0.1500 
 20 C        2.0180     9.0740     1.8810 C.ar  1 <1>  -0.1500 
 21 C        5.0720     6.6590    -1.2600 C.3   1 <1>   0.0140 
 22 C        2.4070     9.7290     0.7270 C.ar  1 <1>  -0.1500 
 23 C        5.2520     5.2190    -0.8230 C.2   1 <1>   0.9060 
 24 O        5.7970     4.9800     0.2550 O.co2 1 <1>  -0.9000 
 25 O        4.6390     4.3270    -1.4290 O.co2 1 <1>  -0.9000 
 26 H       -0.4070     1.2560    -0.8450 H     1 <1>   0.0800 
 27 H       -0.3190     1.8170     0.7880 H     1 <1>   0.0800 
 28 H       -0.2110    -2.6570     2.1900 H     1 <1>   0.0800 
 29 H        0.9090    -1.4490     2.7630 H     1 <1>   0.0800 
 30 H        1.3900    -2.5360     1.4770 H     1 <1>   0.0800 
 31 H       -1.3500    -2.3880     0.1400 H     1 <1>   0.0800 
 32 H        0.1810    -2.3710    -0.7150 H     1 <1>   0.0800 
 33 H       -0.9690    -1.0700    -0.9380 H     1 <1>   0.0800 
 34 H        1.6710     2.4200    -1.4210 H     1 <1>   0.0800 
 35 H       -0.1370     3.9420    -1.8380 H     1 <1>   0.0800 
 36 H        3.0840     2.6170     0.4170 H     1 <1>   0.0800 
 37 H        1.7770     3.1370     1.4730 H     1 <1>   0.0800 
 38 H       -0.2930     4.4100     0.9540 H     1 <1>   0.4000 
 39 H        0.8790     6.0110    -0.3490 H     1 <1>   0.0800 
 40 H        1.7510     5.3540    -1.7240 H     1 <1>   0.0800 
 41 H        3.2590     4.5390    -0.5300 H     1 <1>   0.4500 
 42 H        2.4180     5.2210     2.1200 H     1 <1>   0.0800 
 43 H        3.9850     5.2490     1.3950 H     1 <1>   0.0800 
 44 H        1.8970     7.2270     2.9120 H     1 <1>   0.1500 
 45 H        3.2820     9.5080    -1.2090 H     1 <1>   0.1500 
 46 H        1.5720     9.6320     2.6870 H     1 <1>   0.1500 
 47 H        5.4480     6.7650    -2.2590 H     1 <1>   0.0800 
 48 H        5.6070     7.3130    -0.5980 H     1 <1>   0.0800 
 49 H        2.2640    10.7920     0.6320 H     1 <1>   0.1500 
@<TRIPOS>BOND
  1   1   2  2   
  2   1   3  2   
  3   1   4  am  
  4   1   5  1   
  5   4   6  1   
  6   4   7  1   
  7   5   8  1   
  8   5  26  1   
  9   5  27  1   
 10   6  28  1   
 11   6  29  1   
 12   6  30  1   
 13   7  31  1   
 14   7  32  1   
 15   7  33  1   
 16   8   9  1   
 17   8  10  1   
 18   8  34  1   
 19   9  11  1   
 20   9  12  1   
 21   9  35  1   
 22  10  13  1   
 23  10  36  1   
 24  10  37  1   
 25  11  38  1   
 26  12  13  1   
 27  12  39  1   
 28  12  40  1   
 29  13  14  1   
 30  13  41  1   
 31  14  15  1   
 32  14  42  1   
 33  14  43  1   
 34  15  16  ar  
 35  15  17  ar  
 36  16  18  1   
 37  16  19  ar  
 38  17  20  ar  
 39  17  44  1   
 40  18  21  1   
 41  19  22  ar  
 42  19  45  1   
 43  20  22  ar  
 44  20  46  1   
 45  21  23  1   
 46  21  47  1   
 47  21  48  1   
 48  22  49  1   
 49  23  24  ar  
 50  23  25  ar  
@<TRIPOS>SUBSTRUCTURE
  1 ****  13 GROUP 4 **** **** 0

# MOE 2024.06 (io_trps.svl 2023.06)
