@<TRIPOS>MOLECULE
NONAME
46 49 1 0 0 
SMALL
USER_CHARGES


@<TRIPOS>ATOM
  1 O       -0.9620    -0.4210    -0.8990 O.2   1 <1>  -0.5700 
  2 C       -1.2900    -1.5520    -0.6560 C.2   1 <1>   0.4230 
  3 C       -2.3540    -2.0000     0.1860 C.ar  1 <1>   0.0860 
  4 C       -0.5850    -2.7520    -1.2520 C.3   1 <1>  -0.0990 
  5 C       -2.4270    -3.3780     0.1900 C.ar  1 <1>  -0.1440 
  6 C       -3.2560    -1.2620     0.9420 C.ar  1 <1>  -0.1500 
  7 C       -1.3430    -3.9750    -0.6930 C.3   1 <1>  -0.0160 
  8 C       -3.3830    -4.0710     0.9260 C.ar  1 <1>   0.0860 
  9 C       -4.2130    -1.9210     1.6940 C.ar  1 <1>  -0.1500 
 10 C       -3.4540    -5.5180     0.9060 C.2   1 <1>   0.5440 
 11 C       -4.2710    -3.3060     1.6870 C.ar  1 <1>  -0.1500 
 12 O       -2.5350    -6.1770     1.3510 O.2   1 <1>  -0.5700 
 13 N       -4.5390    -6.1740     0.3770 N.am  1 <1>  -0.6600 
 14 C       -5.6900    -5.5520    -0.3280 C.3   1 <1>   0.1400 
 15 C       -4.6460    -7.6550     0.3190 C.3   1 <1>   0.1400 
 16 C       -6.7560    -6.6450    -0.3270 C.3   1 <1>   0.2000 
 17 C       -5.9400    -7.9340    -0.4550 C.3   1 <1>  -0.0800 
 18 O       -7.3890    -6.6150     0.9070 O.3   1 <1>  -0.6800 
 19 C       -6.6600    -9.2230    -0.0170 C.3   1 <1>   0.0210 
 20 C       -5.7600   -10.4290    -0.1980 C.2   1 <1>   0.1080 
 21 N       -5.3400   -10.8260    -1.3590 N.2   1 <1>  -0.7070 
 22 C       -5.2780   -11.2250     0.8360 C.2   1 <1>  -0.1500 
 23 N       -4.5730   -11.9000    -1.0940 N.pl3 1 <1>   0.3000 
 24 C       -4.5180   -12.1610     0.2290 C.2   1 <1>  -0.3320 
 25 C       -3.7310   -13.3040     0.8410 C.3   1 <1>  -0.0600 
 26 H       -0.6430    -2.7130    -2.3240 H     1 <1>   0.0800 
 27 H        0.4440    -2.7580    -0.9430 H     1 <1>   0.0800 
 28 H       -3.1950    -0.1870     0.9350 H     1 <1>   0.1500 
 29 H       -0.6880    -4.6010    -0.1100 H     1 <1>   0.0800 
 30 H       -1.7790    -4.5570    -1.4870 H     1 <1>   0.0800 
 31 H       -4.9110    -1.3550     2.2890 H     1 <1>   0.1500 
 32 H       -5.0120    -3.8110     2.2810 H     1 <1>   0.1500 
 33 H       -6.0400    -4.6590     0.1580 H     1 <1>   0.0800 
 34 H       -5.3990    -5.3250    -1.3390 H     1 <1>   0.0800 
 35 H       -3.7920    -8.0820    -0.1790 H     1 <1>   0.0800 
 36 H       -4.6990    -8.0430     1.3220 H     1 <1>   0.0800 
 37 H       -7.4950    -6.5230    -1.1000 H     1 <1>   0.0800 
 38 H       -5.6690    -8.0470    -1.4910 H     1 <1>   0.0800 
 39 H       -6.7020    -6.6250     1.6030 H     1 <1>   0.4000 
 40 H       -7.5440    -9.3610    -0.6140 H     1 <1>   0.0800 
 41 H       -6.9600    -9.1600     1.0130 H     1 <1>   0.0800 
 42 H       -5.4830   -11.0980     1.8840 H     1 <1>   0.1500 
 43 H       -4.1020   -12.4310    -1.8360 H     1 <1>   0.2700 
 44 H       -3.8450   -13.3000     1.9110 H     1 <1>   0.0800 
 45 H       -2.6860   -13.2030     0.6080 H     1 <1>   0.0800 
 46 H       -4.0870   -14.2460     0.4620 H     1 <1>   0.0800 
@<TRIPOS>BOND
  1   1   2  2   
  2   2   3  1   
  3   2   4  1   
  4   3   5  ar  
  5   3   6  ar  
  6   4   7  1   
  7   4  26  1   
  8   4  27  1   
  9   5   7  1   
 10   5   8  ar  
 11   6   9  ar  
 12   6  28  1   
 13   7  29  1   
 14   7  30  1   
 15   8  10  1   
 16   8  11  ar  
 17   9  11  ar  
 18   9  31  1   
 19  10  12  2   
 20  10  13  am  
 21  11  32  1   
 22  13  14  1   
 23  13  15  1   
 24  14  16  1   
 25  14  33  1   
 26  14  34  1   
 27  15  17  1   
 28  15  35  1   
 29  15  36  1   
 30  16  17  1   
 31  16  18  1   
 32  16  37  1   
 33  17  19  1   
 34  17  38  1   
 35  18  39  1   
 36  19  20  1   
 37  19  40  1   
 38  19  41  1   
 39  20  21  2   
 40  20  22  1   
 41  21  23  1   
 42  22  24  2   
 43  22  42  1   
 44  23  24  1   
 45  23  43  1   
 46  24  25  1   
 47  25  44  1   
 48  25  45  1   
 49  25  46  1   
@<TRIPOS>SUBSTRUCTURE
  1 ****  13 GROUP 4 **** **** 0

# MOE 2024.06 (io_trps.svl 2023.06)
