@<TRIPOS>MOLECULE
Untitled Document
57 60 1 0 0 
SMALL
USER_CHARGES


@<TRIPOS>ATOM
  1 O        0.5450    -1.7870    -2.7780 O.2   1 <1>  -0.5700 
  2 C       -0.3370    -1.5430    -1.9910 C.2   1 <1>   0.5690 
  3 N       -1.1620    -0.4740    -2.0310 N.am  1 <1>  -0.5470 
  4 C       -0.6900    -2.4200    -0.7930 C.3   1 <1>   0.2050 
  5 C       -2.0810    -0.5190    -0.9960 C.ar  1 <1>   0.1170 
  6 C       -1.8710    -1.6450    -0.2220 C.ar  1 <1>  -0.1440 
  7 C        0.4800    -2.5850     0.1710 C.3   1 <1>   0.4230 
  8 C       -0.9820    -3.8670    -1.2050 C.3   1 <1>  -0.1600 
  9 C       -3.0950     0.3730    -0.6910 C.ar  1 <1>  -0.1500 
 10 C       -2.6720    -1.9080     0.8750 C.ar  1 <1>  -0.1500 
 11 N        1.2900    -3.6630    -0.4190 N.4   1 <1>  -0.9590 
 12 C        1.4010    -1.3980     0.4770 C.3   1 <1>  -0.1600 
 13 C        0.3740    -4.5800    -1.1490 C.3   1 <1>   0.3430 
 14 C       -3.8990     0.1160     0.4070 C.ar  1 <1>  -0.1500 
 15 C       -3.6890    -1.0160     1.1840 C.ar  1 <1>  -0.1500 
 16 C        2.2810    -4.2810     0.5080 C.3   1 <1>   0.3430 
 17 C        2.6740    -1.8310     1.2520 C.3   1 <1>   0.0580 
 18 C        2.6540    -3.3320     1.6650 C.3   1 <1>  -0.0800 
 19 C        3.9830    -1.4070     0.5430 C.2   1 <1>  -0.1240 
 20 C        3.9630    -3.7790     2.3470 C.3   1 <1>  -0.1600 
 21 C        4.9310    -0.6790     1.3570 C.2   1 <1>   0.7060 
 22 C        4.2480    -1.6960    -0.7570 C.2   1 <1>  -0.0730 
 23 C        3.8720    -5.1870     2.9500 C.3   1 <1>  -0.2400 
 24 O        4.7870    -0.4640     2.5430 O.2   1 <1>  -0.5700 
 25 O        6.0400    -0.2260     0.7620 O.3   1 <1>  -0.4300 
 26 O        3.4570    -2.3700    -1.5960 O.3   1 <1>  -0.3570 
 27 C        7.0310     0.4920     1.4720 C.3   1 <1>   0.0400 
 28 C        3.6720    -2.2260    -2.9850 C.3   1 <1>   0.0400 
 29 H       -1.1300     0.2290    -2.7720 H     1 <1>   0.3700 
 30 H        0.0730    -2.9430     1.1020 H     1 <1>   0.0800 
 31 H       -1.4220    -3.9300    -2.1850 H     1 <1>   0.0800 
 32 H       -1.6500    -4.3290    -0.5000 H     1 <1>   0.0800 
 33 H       -3.2540     1.2470    -1.2980 H     1 <1>   0.1500 
 34 H       -2.5260    -2.7810     1.4860 H     1 <1>   0.1500 
 35 H        1.8680    -3.1700    -1.1340 H     1 <1>   0.4500 
 36 H        1.6750    -0.8800    -0.4240 H     1 <1>   0.0800 
 37 H        0.8480    -0.6920     1.0720 H     1 <1>   0.0800 
 38 H        0.7490    -4.7550    -2.1460 H     1 <1>   0.0800 
 39 H        0.2780    -5.5230    -0.6350 H     1 <1>   0.0800 
 40 H       -4.6930     0.7980     0.6610 H     1 <1>   0.1500 
 41 H       -4.3250    -1.2010     2.0340 H     1 <1>   0.1500 
 42 H        1.8860    -5.1940     0.9210 H     1 <1>   0.0800 
 43 H        3.1720    -4.5240    -0.0480 H     1 <1>   0.0800 
 44 H        2.6100    -1.2890     2.1800 H     1 <1>   0.0800 
 45 H        1.8810    -3.4350     2.4070 H     1 <1>   0.0800 
 46 H        4.7810    -3.7550     1.6450 H     1 <1>   0.0800 
 47 H        4.2000    -3.0900     3.1420 H     1 <1>   0.0800 
 48 H        5.1700    -1.3760    -1.2200 H     1 <1>   0.1500 
 49 H        3.7370    -5.9360     2.1900 H     1 <1>   0.0800 
 50 H        3.0610    -5.2490     3.6550 H     1 <1>   0.0800 
 51 H        4.7850    -5.4120     3.4750 H     1 <1>   0.0800 
 52 H        7.8200     0.7500     0.7890 H     1 <1>   0.0800 
 53 H        7.4140    -0.1310     2.2620 H     1 <1>   0.0800 
 54 H        6.5890     1.3830     1.8820 H     1 <1>   0.0800 
 55 H        2.9440    -2.8190    -3.5090 H     1 <1>   0.0800 
 56 H        4.6650    -2.5640    -3.2250 H     1 <1>   0.0800 
 57 H        3.5520    -1.1900    -3.2490 H     1 <1>   0.0800 
@<TRIPOS>BOND
  1   1   2  2   
  2   2   3  am  
  3   2   4  1   
  4   3   5  1   
  5   3  29  1   
  6   4   6  1   
  7   4   7  1   
  8   4   8  1   
  9   5   6  ar  
 10   5   9  ar  
 11   6  10  ar  
 12   7  11  1   
 13   7  12  1   
 14   7  30  1   
 15   8  13  1   
 16   8  31  1   
 17   8  32  1   
 18   9  14  ar  
 19   9  33  1   
 20  10  15  ar  
 21  10  34  1   
 22  11  13  1   
 23  11  16  1   
 24  11  35  1   
 25  12  17  1   
 26  12  36  1   
 27  12  37  1   
 28  13  38  1   
 29  13  39  1   
 30  14  15  ar  
 31  14  40  1   
 32  15  41  1   
 33  16  18  1   
 34  16  42  1   
 35  16  43  1   
 36  17  18  1   
 37  17  19  1   
 38  17  44  1   
 39  18  20  1   
 40  18  45  1   
 41  19  21  1   
 42  19  22  2   
 43  20  23  1   
 44  20  46  1   
 45  20  47  1   
 46  21  24  2   
 47  21  25  1   
 48  22  26  1   
 49  22  48  1   
 50  23  49  1   
 51  23  50  1   
 52  23  51  1   
 53  25  27  1   
 54  26  28  1   
 55  27  52  1   
 56  27  53  1   
 57  27  54  1   
 58  28  55  1   
 59  28  56  1   
 60  28  57  1   
@<TRIPOS>SUBSTRUCTURE
  1 ****  12 GROUP 4 **** **** 0

# MOE 2024.06 (io_trps.svl 2023.06)
