@<TRIPOS>MOLECULE
NONAME
47 49 1 0 0 
SMALL
USER_CHARGES


@<TRIPOS>ATOM
  1 O       -2.2360    -0.5350    -2.8490 O.2   1 <1>  -0.5700 
  2 C       -2.2860    -0.9850    -1.7380 C.2   1 <1>   0.5690 
  3 N       -2.0200    -0.2050    -0.6770 N.am  1 <1>  -0.7300 
  4 C       -2.6920    -2.4190    -1.5320 C.3   1 <1>  -0.0190 
  5 C       -2.0590    -0.6320     0.7410 C.3   1 <1>   0.2200 
  6 C       -1.5760    -3.2360    -0.8430 C.3   1 <1>   0.1200 
  7 C       -4.0750    -2.4430    -0.8690 C.3   1 <1>   0.3430 
  8 C       -1.0470    -1.7780     0.9870 C.3   1 <1>   0.1200 
  9 C       -3.5150    -0.9830     1.1630 C.3   1 <1>   0.3430 
 10 O       -1.5130    -3.0290     0.5440 O.3   1 <1>  -0.5600 
 11 N       -4.0410    -2.2900     0.6270 N.4   1 <1>  -0.9590 
 12 C       -5.3100    -2.7120     1.2790 C.3   1 <1>   0.4860 
 13 C       -5.5890    -4.1560     0.8980 C.ar  1 <1>  -0.1430 
 14 C       -6.5890    -4.5270    -0.0040 C.ar  1 <1>  -0.1430 
 15 C       -4.7860    -5.1250     1.4780 C.ar  1 <1>  -0.1500 
 16 C       -6.7770    -5.8780    -0.3020 C.ar  1 <1>  -0.1430 
 17 C       -7.4890    -3.4760    -0.6650 C.3   1 <1>  -0.0970 
 18 C       -4.9560    -6.4570     1.1660 C.ar  1 <1>  -0.1500 
 19 C       -5.9460    -6.8420     0.2710 C.ar  1 <1>   0.0830 
 20 C       -7.8920    -6.3280    -1.2550 C.3   1 <1>  -0.0970 
 21 O       -6.1320    -8.1450    -0.0720 O.3   1 <1>  -0.3620 
 22 C       -5.4280    -9.2000     0.5450 C.3   1 <1>   0.0400 
 23 H       -1.6960     0.7460    -0.8890 H     1 <1>   0.3700 
 24 H       -2.8130    -2.8330    -2.5180 H     1 <1>   0.0800 
 25 H       -1.7420     0.2130     1.3280 H     1 <1>   0.0800 
 26 H       -0.6130    -3.0110    -1.2720 H     1 <1>   0.0800 
 27 H       -1.7640    -4.2870    -0.9890 H     1 <1>   0.0800 
 28 H       -4.5250    -3.3930    -1.1100 H     1 <1>   0.0800 
 29 H       -4.6930    -1.6740    -1.3040 H     1 <1>   0.0800 
 30 H       -0.8730    -1.8740     2.0450 H     1 <1>   0.0800 
 31 H       -0.1010    -1.5670     0.5160 H     1 <1>   0.0800 
 32 H       -4.1640    -0.1780     0.8610 H     1 <1>   0.0800 
 33 H       -3.5340    -1.0270     2.2400 H     1 <1>   0.0800 
 34 H       -3.3250    -2.9900     0.9040 H     1 <1>   0.4500 
 35 H       -5.2090    -2.6520     2.3510 H     1 <1>   0.0800 
 36 H       -6.1200    -2.0680     0.9860 H     1 <1>   0.0800 
 37 H       -4.0150    -4.8610     2.1820 H     1 <1>   0.1500 
 38 H       -7.0590    -2.4950    -0.6790 H     1 <1>   0.0800 
 39 H       -8.4300    -3.4310    -0.1460 H     1 <1>   0.0800 
 40 H       -7.6800    -3.7340    -1.6910 H     1 <1>   0.0800 
 41 H       -4.3100    -7.1790     1.6280 H     1 <1>   0.1500 
 42 H       -8.7890    -5.7600    -1.0950 H     1 <1>   0.0800 
 43 H       -8.1540    -7.3590    -1.1080 H     1 <1>   0.0800 
 44 H       -7.5720    -6.2060    -2.2740 H     1 <1>   0.0800 
 45 H       -5.7930   -10.1260     0.1380 H     1 <1>   0.0800 
 46 H       -5.6120    -9.1700     1.6050 H     1 <1>   0.0800 
 47 H       -4.3800    -9.0960     0.3300 H     1 <1>   0.0800 
@<TRIPOS>BOND
  1   1   2  2   
  2   2   3  am  
  3   2   4  1   
  4   3   5  1   
  5   3  23  1   
  6   4   6  1   
  7   4   7  1   
  8   4  24  1   
  9   5   8  1   
 10   5   9  1   
 11   5  25  1   
 12   6  10  1   
 13   6  26  1   
 14   6  27  1   
 15   7  11  1   
 16   7  28  1   
 17   7  29  1   
 18   8  10  1   
 19   8  30  1   
 20   8  31  1   
 21   9  11  1   
 22   9  32  1   
 23   9  33  1   
 24  11  12  1   
 25  11  34  1   
 26  12  13  1   
 27  12  35  1   
 28  12  36  1   
 29  13  14  ar  
 30  13  15  ar  
 31  14  16  ar  
 32  14  17  1   
 33  15  18  ar  
 34  15  37  1   
 35  16  19  ar  
 36  16  20  1   
 37  17  38  1   
 38  17  39  1   
 39  17  40  1   
 40  18  19  ar  
 41  18  41  1   
 42  19  21  1   
 43  20  42  1   
 44  20  43  1   
 45  20  44  1   
 46  21  22  1   
 47  22  45  1   
 48  22  46  1   
 49  22  47  1   
@<TRIPOS>SUBSTRUCTURE
  1 ****   7 GROUP 4 **** **** 0

# MOE 2024.06 (io_trps.svl 2023.06)
