@<TRIPOS>MOLECULE
NONAME
42 44 1 0 0 
SMALL
USER_CHARGES


@<TRIPOS>ATOM
  1 CL       0.8980     3.0300     2.7020 Cl    1 <1>  -0.1770 
  2 C        0.4720     2.8570     1.0150 C.ar  1 <1>   0.1770 
  3 C        1.3910     2.3900     0.0810 C.ar  1 <1>  -0.1440 
  4 C       -0.8220     3.1850     0.6540 C.ar  1 <1>  -0.1500 
  5 C        0.9630     2.2320    -1.2330 C.ar  1 <1>  -0.1500 
  6 C        2.8300     2.0490     0.4720 C.3   1 <1>   0.3640 
  7 C       -1.2260     3.0370    -0.6600 C.ar  1 <1>  -0.1500 
  8 C       -0.3320     2.5560    -1.6010 C.ar  1 <1>  -0.1500 
  9 N        3.0210     0.6000     0.2220 N.am  1 <1>  -0.7300 
 10 C        3.8680     2.8980    -0.3160 C.3   1 <1>   0.2610 
 11 C        4.1360     0.0750    -0.3310 C.2   1 <1>   0.5690 
 12 O        5.1580     2.3080    -0.2460 O.3   1 <1>  -0.5600 
 13 C        3.9120     4.3640     0.1590 C.2   1 <1>   0.5690 
 14 O        4.2430    -1.1150    -0.4840 O.2   1 <1>  -0.5700 
 15 C        5.2530     1.0120    -0.7970 C.3   1 <1>   0.1810 
 16 O        3.2580     4.6840     1.1250 O.2   1 <1>  -0.5700 
 17 N        4.6670     5.3020    -0.5070 N.am  1 <1>  -0.6600 
 18 C        4.8040     6.6910     0.0410 C.3   1 <1>   0.3200 
 19 C        5.5750     4.9940    -1.6510 C.3   1 <1>   0.0600 
 20 C        6.2190     6.9740     0.5270 C.2   1 <1>   0.2980 
 21 O        6.6520     6.3520     1.5950 O.3   1 <1>  -0.0190 
 22 N        7.0500     7.7720    -0.0190 N.2   1 <1>  -0.5650 
 23 N        7.8640     6.7930     1.7430 N.2   1 <1>  -0.4100 
 24 C        8.0800     7.6160     0.7990 C.2   1 <1>   0.3350 
 25 C        9.3680     8.3730     0.5820 C.3   1 <1>  -0.0590 
 26 H       -1.5060     3.5490     1.4000 H     1 <1>   0.1500 
 27 H        1.6330     1.8480    -1.9830 H     1 <1>   0.1500 
 28 H        2.9900     2.2220     1.5210 H     1 <1>   0.0800 
 29 H       -2.2320     3.2900    -0.9490 H     1 <1>   0.1500 
 30 H       -0.6490     2.4310    -2.6230 H     1 <1>   0.1500 
 31 H        2.2910    -0.0320     0.5540 H     1 <1>   0.3700 
 32 H        3.5840     2.9120    -1.3500 H     1 <1>   0.0800 
 33 H        5.2250     1.0950    -1.8670 H     1 <1>   0.0800 
 34 H        6.2030     0.6020    -0.5060 H     1 <1>   0.0800 
 35 H        4.5570     7.3950    -0.7330 H     1 <1>   0.0800 
 36 H        4.1240     6.8560     0.8580 H     1 <1>   0.0800 
 37 H        5.7070     5.8670    -2.2660 H     1 <1>   0.0800 
 38 H        5.1730     4.2070    -2.2620 H     1 <1>   0.0800 
 39 H        6.5360     4.6860    -1.2730 H     1 <1>   0.0800 
 40 H        9.7740     8.1230    -0.3800 H     1 <1>   0.0800 
 41 H       10.0790     8.1150     1.3450 H     1 <1>   0.0800 
 42 H        9.1750     9.4290     0.6210 H     1 <1>   0.0800 
@<TRIPOS>BOND
  1   1   2  1   
  2   2   3  ar  
  3   2   4  ar  
  4   3   5  ar  
  5   3   6  1   
  6   4   7  ar  
  7   4  26  1   
  8   5   8  ar  
  9   5  27  1   
 10   6   9  1   
 11   6  10  1   
 12   6  28  1   
 13   7   8  ar  
 14   7  29  1   
 15   8  30  1   
 16   9  11  am  
 17   9  31  1   
 18  10  12  1   
 19  10  13  1   
 20  10  32  1   
 21  11  14  2   
 22  11  15  1   
 23  12  15  1   
 24  13  16  2   
 25  13  17  am  
 26  15  33  1   
 27  15  34  1   
 28  17  18  1   
 29  17  19  1   
 30  18  20  1   
 31  18  35  1   
 32  18  36  1   
 33  19  37  1   
 34  19  38  1   
 35  19  39  1   
 36  20  21  1   
 37  20  22  2   
 38  21  23  1   
 39  22  24  1   
 40  23  24  2   
 41  24  25  1   
 42  25  40  1   
 43  25  41  1   
 44  25  42  1   
@<TRIPOS>SUBSTRUCTURE
  1 ****  13 GROUP 4 **** **** 0

# MOE 2024.06 (io_trps.svl 2023.06)
