@<TRIPOS>MOLECULE
NONAME
47 50 1 0 0 
SMALL
USER_CHARGES


@<TRIPOS>ATOM
  1 O        2.0710    -0.6310    -2.7090 O.2   1 <1>  -0.5700 
  2 C        1.7720    -1.5490    -1.9670 C.2   1 <1>   0.7800 
  3 O        0.5490    -2.0780    -1.9150 O.3   1 <1>  -0.2330 
  4 N        2.5970    -2.1340    -1.0540 N.am  1 <1>  -0.4770 
  5 C        0.5670    -2.9940    -0.9260 C.ar  1 <1>   0.0830 
  6 C        1.8250    -3.0450    -0.3640 C.ar  1 <1>   0.1170 
  7 C        3.9930    -1.7110    -0.7540 C.3   1 <1>   0.2010 
  8 C       -0.4690    -3.7920    -0.4780 C.ar  1 <1>  -0.1500 
  9 C        2.0830    -3.9030     0.6940 C.ar  1 <1>  -0.1500 
 10 C        4.0560    -0.3740    -0.0270 C.2   1 <1>   0.5690 
 11 C       -0.2120    -4.6560     0.5760 C.ar  1 <1>  -0.1500 
 12 C        1.0540    -4.7090     1.1570 C.ar  1 <1>  -0.1500 
 13 O        4.4930    -0.3600     1.1020 O.2   1 <1>  -0.5700 
 14 N        3.6110     0.7330    -0.6810 N.am  1 <1>  -0.4930 
 15 C        3.7440     2.0830    -0.2750 C.2   1 <1>   0.0630 
 16 C        4.9250     2.8300    -0.1360 C.2   1 <1>   0.3720 
 17 C        2.7470     2.9350     0.0420 C.2   1 <1>  -0.3320 
 18 N        4.6860     4.0470     0.2510 N.2   1 <1>  -0.7070 
 19 N        6.2270     2.3410    -0.3700 N.pl3 1 <1>  -0.8210 
 20 N        3.3420     4.1110     0.3620 N.pl3 1 <1>   0.3140 
 21 C        1.2470     2.6870     0.0650 C.3   1 <1>  -0.0600 
 22 C        7.1660     3.3430    -0.9440 C.3   1 <1>   0.2090 
 23 C        6.8220     1.8100     0.8860 C.3   1 <1>   0.2090 
 24 C        2.6820     5.3490     0.7920 C.3   1 <1>   0.0160 
 25 C        8.1810     3.6430     0.1500 C.3   1 <1>  -0.1600 
 26 C        8.2420     2.3540     0.9520 C.3   1 <1>  -0.1600 
 27 H        4.5400    -1.6270    -1.6750 H     1 <1>   0.0800 
 28 H        4.4710    -2.4590    -0.1490 H     1 <1>   0.0800 
 29 H       -1.4400    -3.7340    -0.9360 H     1 <1>   0.1500 
 30 H        3.0590    -3.9380     1.1440 H     1 <1>   0.1500 
 31 H       -0.9960    -5.2920     0.9500 H     1 <1>   0.1500 
 32 H        1.2320    -5.3840     1.9770 H     1 <1>   0.1500 
 33 H        3.1680     0.5980    -1.5970 H     1 <1>   0.3700 
 34 H        1.0310     1.6730    -0.2210 H     1 <1>   0.0800 
 35 H        0.7490     3.3470    -0.6220 H     1 <1>   0.0800 
 36 H        0.8600     2.8490     1.0550 H     1 <1>   0.0800 
 37 H        6.6630     4.2370    -1.2700 H     1 <1>   0.0800 
 38 H        7.6580     2.8970    -1.7900 H     1 <1>   0.0800 
 39 H        6.8190     0.7340     0.8740 H     1 <1>   0.0800 
 40 H        6.2550     2.1510     1.7370 H     1 <1>   0.0800 
 41 H        2.1320     5.1590     1.6930 H     1 <1>   0.0800 
 42 H        2.0190     5.6820     0.0160 H     1 <1>   0.0800 
 43 H        3.4290     6.0990     0.9760 H     1 <1>   0.0800 
 44 H        7.7950     4.4390     0.7630 H     1 <1>   0.0800 
 45 H        9.1350     3.9300    -0.2530 H     1 <1>   0.0800 
 46 H        8.9070     1.6540     0.4780 H     1 <1>   0.0800 
 47 H        8.5590     2.5150     1.9670 H     1 <1>   0.0800 
@<TRIPOS>BOND
  1   1   2  2   
  2   2   3  1   
  3   2   4  am  
  4   3   5  1   
  5   4   6  1   
  6   4   7  1   
  7   5   6  ar  
  8   5   8  ar  
  9   6   9  ar  
 10   7  10  1   
 11   7  27  1   
 12   7  28  1   
 13   8  11  ar  
 14   8  29  1   
 15   9  12  ar  
 16   9  30  1   
 17  10  13  2   
 18  10  14  am  
 19  11  12  ar  
 20  11  31  1   
 21  12  32  1   
 22  14  15  1   
 23  14  33  1   
 24  15  16  1   
 25  15  17  2   
 26  16  18  2   
 27  16  19  1   
 28  17  20  1   
 29  17  21  1   
 30  18  20  1   
 31  19  22  1   
 32  19  23  1   
 33  20  24  1   
 34  21  34  1   
 35  21  35  1   
 36  21  36  1   
 37  22  25  1   
 38  22  37  1   
 39  22  38  1   
 40  23  26  1   
 41  23  39  1   
 42  23  40  1   
 43  24  41  1   
 44  24  42  1   
 45  24  43  1   
 46  25  26  1   
 47  25  44  1   
 48  25  45  1   
 49  26  46  1   
 50  26  47  1   
@<TRIPOS>SUBSTRUCTURE
  1 ****  14 GROUP 4 **** **** 0

# MOE 2024.06 (io_trps.svl 2023.06)
