@<TRIPOS>MOLECULE
NONAME
56 58 1 0 0 
SMALL
USER_CHARGES


@<TRIPOS>ATOM
  1 O        4.8020    -0.6970     0.6060 O.2   1 <1>  -0.5700 
  2 C        3.5990    -0.8850     0.6010 C.2   1 <1>   0.7030 
  3 N        2.9000    -0.3300    -0.4500 N.am  1 <1>  -0.6600 
  4 C        2.9700    -1.6180     1.6960 C.2   1 <1>   0.2770 
  5 C        3.3080    -0.5960    -1.8740 C.3   1 <1>   0.1400 
  6 C        2.1220     0.9200    -0.2430 C.3   1 <1>   0.1400 
  7 N        1.6850    -2.1740     1.7890 N.pl3 1 <1>  -0.7640 
  8 C        3.5760    -1.9090     2.8770 C.2   1 <1>   0.2000 
  9 C        4.6010     0.1250    -2.3250 C.3   1 <1>   0.3430 
 10 C        3.0450     2.1450    -0.1770 C.3   1 <1>  -0.1600 
 11 C        1.5750    -2.7500     2.9820 C.cat 1 <1>   0.6500 
 12 C        0.6390    -2.1830     0.7260 C.3   1 <1>   0.2740 
 13 N        2.6990    -2.6020     3.6620 N.pl3 1 <1>  -0.7000 
 14 N        4.9920     1.2710    -1.4440 N.4   1 <1>  -0.9590 
 15 C        3.9590     2.3450    -1.3900 C.3   1 <1>   0.3430 
 16 C        6.3420     1.7790    -1.8130 C.3   1 <1>   0.3430 
 17 C        6.9640     2.5460    -0.6440 C.3   1 <1>  -0.1600 
 18 C        8.3790     3.0150    -1.0110 C.3   1 <1>  -0.1600 
 19 C        9.0450     3.7840     0.1320 C.3   1 <1>   0.1200 
 20 O       10.3200     4.1760    -0.3120 O.3   1 <1>  -0.3630 
 21 C       11.1600     4.8860     0.4830 C.ar  1 <1>   0.0820 
 22 C       12.3910     5.2230    -0.0560 C.ar  1 <1>  -0.1500 
 23 C       10.8510     5.2820     1.7830 C.ar  1 <1>  -0.1500 
 24 C       13.3080     5.9470     0.6850 C.ar  1 <1>  -0.1500 
 25 C       11.7700     6.0060     2.5230 C.ar  1 <1>  -0.1500 
 26 C       12.9970     6.3390     1.9750 C.ar  1 <1>  -0.1500 
 27 H        2.5050    -0.3070    -2.5310 H     1 <1>   0.0800 
 28 H        3.4480    -1.6550    -2.0090 H     1 <1>   0.0800 
 29 H        1.5670     0.8500     0.6790 H     1 <1>   0.0800 
 30 H        1.4080     1.0390    -1.0420 H     1 <1>   0.0800 
 31 H        4.5800    -1.6580     3.1850 H     1 <1>   0.1500 
 32 H        4.4860     0.4600    -3.3430 H     1 <1>   0.0800 
 33 H        5.3980    -0.6010    -2.3190 H     1 <1>   0.0800 
 34 H        3.6370     2.1140     0.7210 H     1 <1>   0.0800 
 35 H        2.4180     3.0160    -0.0970 H     1 <1>   0.0800 
 36 H        0.6990    -3.2720     3.3460 H     1 <1>   0.1500 
 37 H        1.0570    -2.5390    -0.2000 H     1 <1>   0.0800 
 38 H        0.2520    -1.1900     0.5790 H     1 <1>   0.0800 
 39 H       -0.1750    -2.8310     1.0040 H     1 <1>   0.0800 
 40 H        2.8860    -2.9550     4.6080 H     1 <1>   0.4500 
 41 H        5.0670     0.8480    -0.4970 H     1 <1>   0.4500 
 42 H        4.4400     3.3050    -1.2960 H     1 <1>   0.0800 
 43 H        3.3800     2.3550    -2.2990 H     1 <1>   0.0800 
 44 H        6.2760     2.4170    -2.6810 H     1 <1>   0.0800 
 45 H        6.9860     0.9490    -2.0560 H     1 <1>   0.0800 
 46 H        7.0220     1.9020     0.2170 H     1 <1>   0.0800 
 47 H        6.3680     3.4060    -0.3980 H     1 <1>   0.0800 
 48 H        8.3370     3.6590    -1.8740 H     1 <1>   0.0800 
 49 H        8.9940     2.1640    -1.2500 H     1 <1>   0.0800 
 50 H        9.1660     3.1600     1.0010 H     1 <1>   0.0800 
 51 H        8.4870     4.6710     0.3800 H     1 <1>   0.0800 
 52 H       12.6250     4.9150    -1.0590 H     1 <1>   0.1500 
 53 H        9.9080     5.0390     2.2340 H     1 <1>   0.1500 
 54 H       14.2610     6.2040     0.2570 H     1 <1>   0.1500 
 55 H       11.5320     6.3120     3.5270 H     1 <1>   0.1500 
 56 H       13.7100     6.9020     2.5530 H     1 <1>   0.1500 
@<TRIPOS>BOND
  1   1   2  2   
  2   2   3  am  
  3   2   4  1   
  4   3   5  1   
  5   3   6  1   
  6   4   7  1   
  7   4   8  2   
  8   5   9  1   
  9   5  27  1   
 10   5  28  1   
 11   6  10  1   
 12   6  29  1   
 13   6  30  1   
 14   7  11  ar  
 15   7  12  1   
 16   8  13  1   
 17   8  31  1   
 18   9  14  1   
 19   9  32  1   
 20   9  33  1   
 21  10  15  1   
 22  10  34  1   
 23  10  35  1   
 24  11  13  ar  
 25  11  36  1   
 26  12  37  1   
 27  12  38  1   
 28  12  39  1   
 29  13  40  1   
 30  14  15  1   
 31  14  16  1   
 32  14  41  1   
 33  15  42  1   
 34  15  43  1   
 35  16  17  1   
 36  16  44  1   
 37  16  45  1   
 38  17  18  1   
 39  17  46  1   
 40  17  47  1   
 41  18  19  1   
 42  18  48  1   
 43  18  49  1   
 44  19  20  1   
 45  19  50  1   
 46  19  51  1   
 47  20  21  1   
 48  21  22  ar  
 49  21  23  ar  
 50  22  24  ar  
 51  22  52  1   
 52  23  25  ar  
 53  23  53  1   
 54  24  26  ar  
 55  24  54  1   
 56  25  26  ar  
 57  25  55  1   
 58  26  56  1   
@<TRIPOS>SUBSTRUCTURE
  1 ****  17 GROUP 4 **** **** 0

# MOE 2024.06 (io_trps.svl 2023.06)
