@<TRIPOS>MOLECULE
NONAME
45 47 1 0 0 
SMALL
USER_CHARGES


@<TRIPOS>ATOM
  1 O       -0.3150     0.0210     0.7150 O.2   1 <1>  -0.5700 
  2 C       -1.2430     0.6000     0.1800 C.2   1 <1>   0.6160 
  3 N       -2.1210    -0.1360    -0.5860 N.am  1 <1>  -0.6600 
  4 C       -1.3750     2.0190     0.3430 C.2   1 <1>   0.0290 
  5 C       -3.2630     0.3990    -1.3620 C.3   1 <1>   0.1400 
  6 C       -2.3950    -1.5600    -0.3020 C.3   1 <1>   0.1400 
  7 C       -2.4890     2.4650     1.1230 C.2   1 <1>   0.6160 
  8 C       -0.5070     2.9560    -0.1780 C.2   1 <1>  -0.1380 
  9 C       -4.4760    -0.3920    -0.8670 C.3   1 <1>   0.2000 
 10 C       -3.9210    -1.6410    -0.1620 C.3   1 <1>  -0.0800 
 11 O       -3.3430     1.7270     1.5990 O.2   1 <1>  -0.5700 
 12 N       -2.6490     3.8070     1.3320 N.am  1 <1>  -0.5390 
 13 C       -0.7310     4.3290     0.0720 C.2   1 <1>  -0.1500 
 14 C        0.7110     2.5950    -1.0210 C.3   1 <1>  -0.1020 
 15 O       -5.1800     0.3670     0.0530 O.3   1 <1>  -0.6800 
 16 C       -4.5160    -2.9400    -0.7300 C.3   1 <1>  -0.0170 
 17 C       -1.7910     4.7390     0.8200 C.2   1 <1>  -0.0290 
 18 C       -3.9380    -4.1680    -0.0480 C.ar  1 <1>   0.1670 
 19 C       -2.0850     6.1930     1.1280 C.3   1 <1>  -0.1020 
 20 N       -2.9040    -4.7410    -0.6450 N.ar  1 <1>  -0.6200 
 21 C       -4.4970    -4.6180     1.1390 C.ar  1 <1>  -0.1500 
 22 C       -2.4070    -5.8040    -0.0330 C.ar  1 <1>   0.1600 
 23 C       -3.9690    -5.7260     1.7650 C.ar  1 <1>  -0.1500 
 24 C       -2.8920    -6.3290     1.1530 C.ar  1 <1>  -0.1500 
 25 H       -3.3990     1.4590    -1.2410 H     1 <1>   0.0800 
 26 H       -3.0940     0.1830    -2.4020 H     1 <1>   0.0800 
 27 H       -2.0470    -2.1550    -1.1300 H     1 <1>   0.0800 
 28 H       -1.9040    -1.8910     0.5980 H     1 <1>   0.0800 
 29 H       -5.1430    -0.6270    -1.6780 H     1 <1>   0.0800 
 30 H       -4.1490    -1.5950     0.8890 H     1 <1>   0.0800 
 31 H       -3.4560     4.0600     1.9030 H     1 <1>   0.3700 
 32 H       -0.0400     5.0440    -0.3410 H     1 <1>   0.1500 
 33 H        0.7000     3.1490    -1.9420 H     1 <1>   0.0800 
 34 H        0.7390     1.5480    -1.2620 H     1 <1>   0.0800 
 35 H        1.6090     2.8380    -0.4820 H     1 <1>   0.0800 
 36 H       -4.5560     0.7330     0.7330 H     1 <1>   0.4000 
 37 H       -4.3250    -3.0020    -1.7870 H     1 <1>   0.0800 
 38 H       -5.5830    -2.9300    -0.5920 H     1 <1>   0.0800 
 39 H       -3.0530     6.4620     0.7460 H     1 <1>   0.0800 
 40 H       -1.3490     6.8330     0.6760 H     1 <1>   0.0800 
 41 H       -2.0710     6.3530     2.1910 H     1 <1>   0.0800 
 42 H       -5.3360    -4.1040     1.5720 H     1 <1>   0.1500 
 43 H       -1.5640    -6.2830    -0.5020 H     1 <1>   0.1500 
 44 H       -4.3770    -6.1020     2.6870 H     1 <1>   0.1500 
 45 H       -2.4300    -7.1960     1.5870 H     1 <1>   0.1500 
@<TRIPOS>BOND
  1   1   2  2   
  2   2   3  am  
  3   2   4  1   
  4   3   5  1   
  5   3   6  1   
  6   4   7  1   
  7   4   8  2   
  8   5   9  1   
  9   5  25  1   
 10   5  26  1   
 11   6  10  1   
 12   6  27  1   
 13   6  28  1   
 14   7  11  2   
 15   7  12  am  
 16   8  13  1   
 17   8  14  1   
 18   9  10  1   
 19   9  15  1   
 20   9  29  1   
 21  10  16  1   
 22  10  30  1   
 23  12  17  1   
 24  12  31  1   
 25  13  17  2   
 26  13  32  1   
 27  14  33  1   
 28  14  34  1   
 29  14  35  1   
 30  15  36  1   
 31  16  18  1   
 32  16  37  1   
 33  16  38  1   
 34  17  19  1   
 35  18  20  ar  
 36  18  21  ar  
 37  19  39  1   
 38  19  40  1   
 39  19  41  1   
 40  20  22  ar  
 41  21  23  ar  
 42  21  42  1   
 43  22  24  ar  
 44  22  43  1   
 45  23  24  ar  
 46  23  44  1   
 47  24  45  1   
@<TRIPOS>SUBSTRUCTURE
  1 ****   3 GROUP 4 **** **** 0

# MOE 2024.06 (io_trps.svl 2023.06)
