@<TRIPOS>MOLECULE
NONAME
45 46 1 0 0 
SMALL
USER_CHARGES


@<TRIPOS>ATOM
  1 O        1.3290    -0.3290     1.0960 O.3   1 <1>  -0.6800 
  2 C        2.0590     0.1540     0.0270 C.3   1 <1>   0.2800 
  3 C        3.5270     0.1910     0.4790 C.3   1 <1>  -0.1600 
  4 C        1.4840     1.5380    -0.3500 C.3   1 <1>  -0.1600 
  5 C        1.8940    -0.8390    -1.1520 C.3   1 <1>   0.1200 
  6 C        3.8100     1.1840     1.6100 C.3   1 <1>   0.2090 
  7 C        1.4070     2.5770     0.7900 C.3   1 <1>  -0.1600 
  8 O        0.5600    -1.1870    -1.3580 O.3   1 <1>  -0.6800 
  9 N        3.9580     2.5590     1.0380 N.pl3 1 <1>  -0.8380 
 10 C        2.6950     3.3790     1.0260 C.3   1 <1>   0.2090 
 11 C        5.1340     3.1280     0.6470 C.ar  1 <1>   0.7710 
 12 N        5.1620     4.4030     0.2960 N.ar  1 <1>  -0.6200 
 13 N        6.2460     2.3740     0.6220 N.ar  1 <1>  -0.1790 
 14 C        6.3100     4.9420    -0.0670 C.ar  1 <1>   0.4100 
 15 C        7.4390     2.8740     0.2250 C.ar  1 <1>   0.2110 
 16 N        6.2810     6.2650    -0.3730 N.pl3 1 <1>  -0.8380 
 17 C        7.5030     4.1780    -0.1380 C.ar  1 <1>  -0.1440 
 18 C        7.1300     7.2710     0.3240 C.3   1 <1>   0.1290 
 19 C        5.1430     6.8600    -1.1310 C.3   1 <1>   0.1290 
 20 C        8.8160     4.7740    -0.6440 C.3   1 <1>  -0.0970 
 21 H        0.3850    -0.3150     0.8410 H     1 <1>   0.4000 
 22 H        4.1520     0.4140    -0.3660 H     1 <1>   0.0800 
 23 H        3.7880    -0.7950     0.8200 H     1 <1>   0.0800 
 24 H        0.4870     1.3910    -0.7300 H     1 <1>   0.0800 
 25 H        2.0560     1.9500    -1.1630 H     1 <1>   0.0800 
 26 H        2.4470    -1.7440    -0.9690 H     1 <1>   0.0800 
 27 H        2.2610    -0.3950    -2.0610 H     1 <1>   0.0800 
 28 H        4.7090     0.8980     2.1270 H     1 <1>   0.0800 
 29 H        3.0230     1.1580     2.3470 H     1 <1>   0.0800 
 30 H        1.0860     2.1220     1.7100 H     1 <1>   0.0800 
 31 H        0.6420     3.2900     0.5370 H     1 <1>   0.0800 
 32 H        0.2860    -1.8650    -0.7080 H     1 <1>   0.4000 
 33 H        2.6130     3.9110     1.9590 H     1 <1>   0.0800 
 34 H        2.7500     4.1170     0.2430 H     1 <1>   0.0800 
 35 H        6.1190     1.4090     0.8940 H     1 <1>   0.4570 
 36 H        8.2960     2.2200     0.2020 H     1 <1>   0.1500 
 37 H        7.6960     6.8070     1.1110 H     1 <1>   0.0800 
 38 H        6.5090     8.0340     0.7620 H     1 <1>   0.0800 
 39 H        7.8040     7.7290    -0.3790 H     1 <1>   0.0800 
 40 H        4.6170     6.0960    -1.6780 H     1 <1>   0.0800 
 41 H        5.5100     7.5910    -1.8300 H     1 <1>   0.0800 
 42 H        4.4570     7.3320    -0.4490 H     1 <1>   0.0800 
 43 H        8.6370     5.3680    -1.5240 H     1 <1>   0.0800 
 44 H        9.5220     4.0040    -0.9020 H     1 <1>   0.0800 
 45 H        9.2600     5.3990     0.1090 H     1 <1>   0.0800 
@<TRIPOS>BOND
  1   1   2  1   
  2   1  21  1   
  3   2   3  1   
  4   2   4  1   
  5   2   5  1   
  6   3   6  1   
  7   3  22  1   
  8   3  23  1   
  9   4   7  1   
 10   4  24  1   
 11   4  25  1   
 12   5   8  1   
 13   5  26  1   
 14   5  27  1   
 15   6   9  1   
 16   6  28  1   
 17   6  29  1   
 18   7  10  1   
 19   7  30  1   
 20   7  31  1   
 21   8  32  1   
 22   9  10  1   
 23   9  11  1   
 24  10  33  1   
 25  10  34  1   
 26  11  12  ar  
 27  11  13  ar  
 28  12  14  ar  
 29  13  15  ar  
 30  13  35  1   
 31  14  16  1   
 32  14  17  ar  
 33  15  17  ar  
 34  15  36  1   
 35  16  18  1   
 36  16  19  1   
 37  17  20  1   
 38  18  37  1   
 39  18  38  1   
 40  18  39  1   
 41  19  40  1   
 42  19  41  1   
 43  19  42  1   
 44  20  43  1   
 45  20  44  1   
 46  20  45  1   
@<TRIPOS>SUBSTRUCTURE
  1 ****  11 GROUP 4 **** **** 0

# MOE 2024.06 (io_trps.svl 2023.06)
