@<TRIPOS>MOLECULE
NONAME
61 63 1 0 0 
SMALL
USER_CHARGES


@<TRIPOS>ATOM
  1 S       -1.0470     0.2020     0.4970 S.3   1 <1>  -0.4600 
  2 C       -2.5740    -0.4610     1.2160 C.3   1 <1>   0.0700 
  3 C        0.2340    -0.4240     1.6160 C.3   1 <1>  -0.0100 
  4 C       -3.7410    -0.0090     0.3350 C.3   1 <1>  -0.0990 
  5 C       -5.0870    -0.4920     0.8510 C.2   1 <1>   0.5690 
  6 O       -5.1020    -1.3170     1.7360 O.2   1 <1>  -0.5700 
  7 N       -6.2460     0.0030     0.3070 N.am  1 <1>  -0.6600 
  8 C       -7.5670    -0.3870     0.8770 C.3   1 <1>   0.1400 
  9 C       -6.2690     0.9300    -0.8610 C.3   1 <1>   0.1400 
 10 C       -8.5500     0.7880     0.8360 C.3   1 <1>  -0.1600 
 11 C       -7.6440     0.9220    -1.5290 C.3   1 <1>  -0.1600 
 12 C       -8.7460     1.4290    -0.5660 C.3   1 <1>   0.2800 
 13 O       -8.5140     2.8090    -0.3710 O.3   1 <1>  -0.5600 
 14 C      -10.2100     1.1870    -1.0960 C.3   1 <1>   0.2000 
 15 C       -9.0150     3.7120    -1.3090 C.3   1 <1>   0.1200 
 16 O      -10.2180     0.9670    -2.4840 O.3   1 <1>  -0.6800 
 17 C      -11.1550     2.3810    -0.7570 C.3   1 <1>   0.3000 
 18 C      -10.5510     3.6690    -1.3500 C.3   1 <1>  -0.1600 
 19 N      -11.2270     2.6100     0.7070 N.am  1 <1>  -0.7300 
 20 C      -12.5710     2.1930    -1.3230 C.3   1 <1>  -0.2400 
 21 C      -11.7300     1.8330     1.7040 C.2   1 <1>   0.7160 
 22 O      -11.1280     1.8780     2.7550 O.2   1 <1>  -0.5700 
 23 C      -12.8650     0.9620     1.5580 C.2   1 <1>  -0.0860 
 24 C      -14.2000     1.2060     1.4120 C.2   1 <1>  -0.3320 
 25 C      -12.7900    -0.4310     1.5490 C.2   1 <1>   0.1390 
 26 N      -14.8170     0.0150     1.3070 N.pl3 1 <1>   0.3140 
 27 C      -14.9090     2.5520     1.3850 C.3   1 <1>  -0.0600 
 28 N      -13.9420    -0.9990     1.3860 N.2   1 <1>  -0.7070 
 29 C      -16.2530    -0.2390     1.1410 C.3   1 <1>   0.0160 
 30 H       -2.4880    -1.5330     1.2380 H     1 <1>   0.0800 
 31 H       -2.6620    -0.0740     2.2160 H     1 <1>   0.0800 
 32 H        1.1840    -0.0710     1.2560 H     1 <1>   0.0800 
 33 H        0.1930    -1.4980     1.6010 H     1 <1>   0.0800 
 34 H        0.0310    -0.0420     2.6000 H     1 <1>   0.0800 
 35 H       -3.7460     1.0640     0.2990 H     1 <1>   0.0800 
 36 H       -3.5960    -0.3930    -0.6570 H     1 <1>   0.0800 
 37 H       -7.9590    -1.2160     0.3120 H     1 <1>   0.0800 
 38 H       -7.4490    -0.7100     1.8980 H     1 <1>   0.0800 
 39 H       -6.0350     1.9260    -0.5240 H     1 <1>   0.0800 
 40 H       -5.5270     0.6280    -1.5800 H     1 <1>   0.0800 
 41 H       -8.2000     1.5280     1.5350 H     1 <1>   0.0800 
 42 H       -9.4800     0.4200     1.2190 H     1 <1>   0.0800 
 43 H       -7.8630    -0.0840    -1.8430 H     1 <1>   0.0800 
 44 H       -7.6060     1.5220    -2.4180 H     1 <1>   0.0800 
 45 H      -10.6080     0.2850    -0.6670 H     1 <1>   0.0800 
 46 H       -8.6770     4.6950    -1.0270 H     1 <1>   0.0800 
 47 H       -8.5950     3.4770    -2.2710 H     1 <1>   0.0800 
 48 H       -9.8760     1.7500    -2.9520 H     1 <1>   0.4000 
 49 H      -10.9520     4.5300    -0.8430 H     1 <1>   0.0800 
 50 H      -10.8390     3.7700    -2.3800 H     1 <1>   0.0800 
 51 H      -10.3970     3.1200     1.0230 H     1 <1>   0.3700 
 52 H      -12.5580     2.2270    -2.3970 H     1 <1>   0.0800 
 53 H      -13.2240     2.9710    -0.9730 H     1 <1>   0.0800 
 54 H      -12.9690     1.2340    -1.0520 H     1 <1>   0.0800 
 55 H      -11.8720    -0.9800     1.6660 H     1 <1>   0.1500 
 56 H      -14.1980     3.3520     1.4860 H     1 <1>   0.0800 
 57 H      -15.6090     2.6170     2.1990 H     1 <1>   0.0800 
 58 H      -15.4370     2.6780     0.4570 H     1 <1>   0.0800 
 59 H      -16.5940     0.2380     0.2420 H     1 <1>   0.0800 
 60 H      -16.7800     0.1520     1.9900 H     1 <1>   0.0800 
 61 H      -16.4180    -1.2990     1.0710 H     1 <1>   0.0800 
@<TRIPOS>BOND
  1   1   2  1   
  2   1   3  1   
  3   2   4  1   
  4   2  30  1   
  5   2  31  1   
  6   3  32  1   
  7   3  33  1   
  8   3  34  1   
  9   4   5  1   
 10   4  35  1   
 11   4  36  1   
 12   5   6  2   
 13   5   7  am  
 14   7   8  1   
 15   7   9  1   
 16   8  10  1   
 17   8  37  1   
 18   8  38  1   
 19   9  11  1   
 20   9  39  1   
 21   9  40  1   
 22  10  12  1   
 23  10  41  1   
 24  10  42  1   
 25  11  12  1   
 26  11  43  1   
 27  11  44  1   
 28  12  13  1   
 29  12  14  1   
 30  13  15  1   
 31  14  16  1   
 32  14  17  1   
 33  14  45  1   
 34  15  18  1   
 35  15  46  1   
 36  15  47  1   
 37  16  48  1   
 38  17  18  1   
 39  17  19  1   
 40  17  20  1   
 41  18  49  1   
 42  18  50  1   
 43  19  21  am  
 44  19  51  1   
 45  20  52  1   
 46  20  53  1   
 47  20  54  1   
 48  21  22  2   
 49  21  23  1   
 50  23  24  2   
 51  23  25  1   
 52  24  26  1   
 53  24  27  1   
 54  25  28  2   
 55  25  55  1   
 56  26  28  1   
 57  26  29  1   
 58  27  56  1   
 59  27  57  1   
 60  27  58  1   
 61  29  59  1   
 62  29  60  1   
 63  29  61  1   
@<TRIPOS>SUBSTRUCTURE
  1 ****  10 GROUP 4 **** **** 0

# MOE 2024.06 (io_trps.svl 2023.06)
