@<TRIPOS>MOLECULE
NONAME
43 45 1 0 0 
SMALL
USER_CHARGES


@<TRIPOS>ATOM
  1 O       -0.2210     0.6830     1.4170 O.3   1 <1>  -0.5600 
  2 C        0.5130     1.0360     0.2920 C.3   1 <1>   0.1200 
  3 C       -1.5220     0.3560     1.0250 C.3   1 <1>   0.1200 
  4 C       -0.4730     1.9000    -0.4850 C.3   1 <1>   0.4230 
  5 C       -1.7330     1.0430    -0.3370 C.3   1 <1>  -0.0800 
  6 N       -0.6290     3.1890     0.2470 N.4   1 <1>  -0.9060 
  7 C       -3.0870     1.7750    -0.4710 C.3   1 <1>  -0.0170 
  8 C        0.4580     4.1590     0.0670 C.3   1 <1>   0.4230 
  9 C       -4.3390     0.8930    -0.4320 C.ar  1 <1>  -0.1440 
 10 C        0.2890     5.2280     1.1370 C.3   1 <1>  -0.2400 
 11 C        0.3620     4.7650    -1.3290 C.3   1 <1>  -0.2400 
 12 C       -5.6190     1.4990    -0.3430 C.ar  1 <1>   0.0000 
 13 C       -4.3070    -0.4750    -0.4850 C.ar  1 <1>  -0.1500 
 14 C       -6.7540     0.6530    -0.2780 C.ar  1 <1>   0.3100 
 15 C       -5.8450     2.8970    -0.3200 C.ar  1 <1>  -0.1500 
 16 C       -5.4920    -1.2180    -0.4240 C.ar  1 <1>   0.1600 
 17 N       -6.6710    -0.6990    -0.3190 N.ar  1 <1>  -0.6200 
 18 C       -8.0310     1.2250    -0.1710 C.ar  1 <1>  -0.1500 
 19 C       -7.1040     3.4240    -0.2190 C.ar  1 <1>  -0.1500 
 20 C       -8.2130     2.5800    -0.1400 C.ar  1 <1>  -0.1500 
 21 H        1.4110     1.5490     0.5890 H     1 <1>   0.0800 
 22 H        0.7670     0.1380    -0.2470 H     1 <1>   0.0800 
 23 H       -1.5970    -0.7170     0.9490 H     1 <1>   0.0800 
 24 H       -2.2020     0.7100     1.7820 H     1 <1>   0.0800 
 25 H       -0.1890     2.0510    -1.5140 H     1 <1>   0.0800 
 26 H       -1.6830     0.2860    -1.1010 H     1 <1>   0.0800 
 27 H       -1.5160     3.6390     0.0150 H     1 <1>   0.4500 
 28 H       -0.6650     2.9210     1.2430 H     1 <1>   0.4500 
 29 H       -3.1010     2.3170    -1.4020 H     1 <1>   0.0800 
 30 H       -3.1750     2.4830     0.3330 H     1 <1>   0.0800 
 31 H        1.4160     3.6780     0.1950 H     1 <1>   0.0800 
 32 H       -0.6550     5.7350     1.0420 H     1 <1>   0.0800 
 33 H        1.0710     5.9620     1.0380 H     1 <1>   0.0800 
 34 H        0.3710     4.7990     2.1200 H     1 <1>   0.0800 
 35 H       -0.5920     5.2380    -1.4860 H     1 <1>   0.0800 
 36 H        0.5260     4.0240    -2.0890 H     1 <1>   0.0800 
 37 H        1.1240     5.5160    -1.4450 H     1 <1>   0.0800 
 38 H       -3.4030    -1.0420    -0.5740 H     1 <1>   0.1500 
 39 H       -5.0180     3.5750    -0.3880 H     1 <1>   0.1500 
 40 H       -5.4180    -2.2920    -0.4660 H     1 <1>   0.1500 
 41 H       -8.8690     0.5550    -0.1160 H     1 <1>   0.1500 
 42 H       -7.2610     4.4890    -0.2010 H     1 <1>   0.1500 
 43 H       -9.1990     3.0050    -0.0590 H     1 <1>   0.1500 
@<TRIPOS>BOND
  1   1   2  1   
  2   1   3  1   
  3   2   4  1   
  4   2  21  1   
  5   2  22  1   
  6   3   5  1   
  7   3  23  1   
  8   3  24  1   
  9   4   5  1   
 10   4   6  1   
 11   4  25  1   
 12   5   7  1   
 13   5  26  1   
 14   6   8  1   
 15   6  27  1   
 16   6  28  1   
 17   7   9  1   
 18   7  29  1   
 19   7  30  1   
 20   8  10  1   
 21   8  11  1   
 22   8  31  1   
 23   9  12  ar  
 24   9  13  ar  
 25  10  32  1   
 26  10  33  1   
 27  10  34  1   
 28  11  35  1   
 29  11  36  1   
 30  11  37  1   
 31  12  14  ar  
 32  12  15  ar  
 33  13  16  ar  
 34  13  38  1   
 35  14  17  ar  
 36  14  18  ar  
 37  15  19  ar  
 38  15  39  1   
 39  16  17  ar  
 40  16  40  1   
 41  18  20  ar  
 42  18  41  1   
 43  19  20  ar  
 44  19  42  1   
 45  20  43  1   
@<TRIPOS>SUBSTRUCTURE
  1 ****   7 GROUP 4 **** **** 0

# MOE 2024.06 (io_trps.svl 2023.06)
