@<TRIPOS>MOLECULE
NONAME
51 53 1 0 0 
SMALL
USER_CHARGES


@<TRIPOS>ATOM
  1 O       -1.2350    -0.1390     1.3180 O.2   1 <1>  -0.5700 
  2 C       -2.1530     0.6360     1.1290 C.2   1 <1>   0.5440 
  3 N       -3.4460     0.1610     1.1810 N.am  1 <1>  -0.6600 
  4 C       -1.8730     2.0270     0.8200 C.ar  1 <1>   0.0860 
  5 C       -4.5360     0.7270     0.3390 C.3   1 <1>   0.1400 
  6 C       -3.7640    -1.2500     1.5250 C.3   1 <1>   0.1400 
  7 C       -0.8800     2.3740    -0.0900 C.ar  1 <1>  -0.1500 
  8 C       -2.5800     3.0700     1.4120 C.ar  1 <1>  -0.1500 
  9 C       -5.5910    -0.3800     0.2410 C.3   1 <1>   0.2000 
 10 C       -4.8200    -1.6760     0.4990 C.3   1 <1>  -0.0800 
 11 C       -0.6170     3.6940    -0.4110 C.ar  1 <1>  -0.1500 
 12 C       -2.3210     4.3900     1.0930 C.ar  1 <1>  -0.1500 
 13 O       -6.5060    -0.2100     1.2680 O.3   1 <1>  -0.6800 
 14 C       -4.1730    -2.1980    -0.8000 C.3   1 <1>  -0.0170 
 15 C       -1.3370     4.7330     0.1720 C.ar  1 <1>  -0.1430 
 16 C       -3.4060    -3.4900    -0.5720 C.ar  1 <1>  -0.1430 
 17 C       -1.0840     6.2220    -0.1530 C.3   1 <1>   0.1430 
 18 C       -2.0390    -3.5020    -0.3740 C.ar  1 <1>  -0.1500 
 19 C       -4.0350    -4.7190    -0.5520 C.ar  1 <1>  -0.1500 
 20 C       -0.6730     6.9640     1.1270 C.3   1 <1>  -0.2400 
 21 C        0.0310     6.4340    -1.1910 C.3   1 <1>  -0.2400 
 22 C       -2.3670     6.8500    -0.7170 C.3   1 <1>  -0.2400 
 23 C       -1.3870    -4.7060    -0.1690 C.ar  1 <1>   0.1600 
 24 C       -3.2880    -5.8660    -0.3400 C.ar  1 <1>   0.1600 
 25 N       -1.9790    -5.8900    -0.1480 N.ar  1 <1>  -0.6200 
 26 H       -4.9470     1.6240     0.7690 H     1 <1>   0.0800 
 27 H       -4.1460     0.9460    -0.6400 H     1 <1>   0.0800 
 28 H       -2.8920    -1.8800     1.5070 H     1 <1>   0.0800 
 29 H       -4.1780    -1.2790     2.5170 H     1 <1>   0.0800 
 30 H       -0.3040     1.5890    -0.5500 H     1 <1>   0.1500 
 31 H       -3.3390     2.8400     2.1380 H     1 <1>   0.1500 
 32 H       -6.1290    -0.3710    -0.6910 H     1 <1>   0.0800 
 33 H       -5.4620    -2.4420     0.8980 H     1 <1>   0.0800 
 34 H        0.1630     3.8840    -1.1240 H     1 <1>   0.1500 
 35 H       -2.8980     5.1560     1.5780 H     1 <1>   0.1500 
 36 H       -6.0280    -0.1130     2.1150 H     1 <1>   0.4000 
 37 H       -3.5050    -1.4580    -1.2070 H     1 <1>   0.0800 
 38 H       -4.9400    -2.3770    -1.5330 H     1 <1>   0.0800 
 39 H       -1.4750    -2.5850    -0.3700 H     1 <1>   0.1500 
 40 H       -5.0960    -4.7950    -0.6990 H     1 <1>   0.1500 
 41 H       -0.4560     7.9960     0.9160 H     1 <1>   0.0800 
 42 H        0.2060     6.5090     1.5490 H     1 <1>   0.0800 
 43 H       -1.4540     6.9320     1.8630 H     1 <1>   0.0800 
 44 H        0.1700     7.4820    -1.3880 H     1 <1>   0.0800 
 45 H       -0.2200     5.9520    -2.1190 H     1 <1>   0.0800 
 46 H        0.9630     6.0380    -0.8300 H     1 <1>   0.0800 
 47 H       -2.2010     7.8790    -0.9830 H     1 <1>   0.0800 
 48 H       -3.1650     6.8180     0.0010 H     1 <1>   0.0800 
 49 H       -2.6820     6.3170    -1.5960 H     1 <1>   0.0800 
 50 H       -0.3220    -4.6930    -0.0120 H     1 <1>   0.1500 
 51 H       -3.7950    -6.8160    -0.3280 H     1 <1>   0.1500 
@<TRIPOS>BOND
  1   1   2  2   
  2   2   3  am  
  3   2   4  1   
  4   3   5  1   
  5   3   6  1   
  6   4   7  ar  
  7   4   8  ar  
  8   5   9  1   
  9   5  26  1   
 10   5  27  1   
 11   6  10  1   
 12   6  28  1   
 13   6  29  1   
 14   7  11  ar  
 15   7  30  1   
 16   8  12  ar  
 17   8  31  1   
 18   9  10  1   
 19   9  13  1   
 20   9  32  1   
 21  10  14  1   
 22  10  33  1   
 23  11  15  ar  
 24  11  34  1   
 25  12  15  ar  
 26  12  35  1   
 27  13  36  1   
 28  14  16  1   
 29  14  37  1   
 30  14  38  1   
 31  15  17  1   
 32  16  18  ar  
 33  16  19  ar  
 34  17  20  1   
 35  17  21  1   
 36  17  22  1   
 37  18  23  ar  
 38  18  39  1   
 39  19  24  ar  
 40  19  40  1   
 41  20  41  1   
 42  20  42  1   
 43  20  43  1   
 44  21  44  1   
 45  21  45  1   
 46  21  46  1   
 47  22  47  1   
 48  22  48  1   
 49  22  49  1   
 50  23  25  ar  
 51  23  50  1   
 52  24  25  ar  
 53  24  51  1   
@<TRIPOS>SUBSTRUCTURE
  1 ****   2 GROUP 4 **** **** 0

# MOE 2024.06 (io_trps.svl 2023.06)
