@<TRIPOS>MOLECULE
NONAME
49 52 1 0 0 
SMALL
USER_CHARGES


@<TRIPOS>ATOM
  1 F        0.0480    -0.4360    -0.1080 F     1 <1>  -0.1900 
  2 C       -0.9970    -1.0250    -0.6310 C.ar  1 <1>   0.1900 
  3 C       -1.5340    -2.1650     0.0170 C.ar  1 <1>   0.3100 
  4 C       -1.5050    -0.4920    -1.7840 C.ar  1 <1>  -0.1500 
  5 N       -0.9740    -2.6400     1.1640 N.ar  1 <1>  -0.6200 
  6 C       -2.6660    -2.7710    -0.5820 C.ar  1 <1>   0.0000 
  7 C       -2.6170    -1.1190    -2.3380 C.ar  1 <1>   0.1900 
  8 C       -1.5120    -3.6870     1.7130 C.ar  1 <1>   0.1660 
  9 C       -3.2230    -3.9110     0.0440 C.ar  1 <1>   0.1000 
 10 C       -3.1930    -2.2220    -1.7720 C.ar  1 <1>  -0.1500 
 11 F       -3.1140    -0.6230    -3.4380 F     1 <1>  -0.1900 
 12 C       -2.6240    -4.3480     1.1960 C.ar  1 <1>  -0.1500 
 13 C       -0.8680    -4.1890     2.9870 C.3   1 <1>  -0.0960 
 14 N       -4.3340    -4.5480    -0.4830 N.pl3 1 <1>  -0.8380 
 15 C       -5.6400    -4.3560     0.1910 C.3   1 <1>   0.2090 
 16 C       -4.2220    -5.9520    -0.9490 C.3   1 <1>   0.2090 
 17 C       -6.0820    -5.7590     0.6180 C.3   1 <1>  -0.0800 
 18 C       -5.4790    -6.6790    -0.4580 C.3   1 <1>  -0.0800 
 19 C       -7.6070    -5.9500     0.8770 C.3   1 <1>   0.2800 
 20 C       -6.4880    -6.9400    -1.5890 C.3   1 <1>  -0.1600 
 21 O       -8.3370    -5.0430     0.1340 O.3   1 <1>  -0.6800 
 22 C       -8.0520    -7.3520     0.4180 C.3   1 <1>  -0.1600 
 23 C       -7.9940    -5.7350     2.3570 C.3   1 <1>  -0.1600 
 24 C       -7.7580    -7.6380    -1.0710 C.3   1 <1>  -0.1600 
 25 C       -7.6790    -4.3440     2.9340 C.3   1 <1>  -0.2400 
 26 H       -1.0750     0.3730    -2.2520 H     1 <1>   0.1500 
 27 H       -4.0520    -2.6820    -2.2270 H     1 <1>   0.1500 
 28 H       -3.0190    -5.2050     1.7040 H     1 <1>   0.1500 
 29 H       -1.3560    -5.0730     3.3510 H     1 <1>   0.0800 
 30 H       -0.9250    -3.4240     3.7410 H     1 <1>   0.0800 
 31 H        0.1670    -4.4130     2.8010 H     1 <1>   0.0800 
 32 H       -5.5510    -3.6900     1.0320 H     1 <1>   0.0800 
 33 H       -6.3200    -3.9260    -0.5240 H     1 <1>   0.0800 
 34 H       -4.1490    -5.9740    -2.0230 H     1 <1>   0.0800 
 35 H       -3.3390    -6.4060    -0.5320 H     1 <1>   0.0800 
 36 H       -5.5610    -5.9860     1.5290 H     1 <1>   0.0800 
 37 H       -5.1950    -7.6250    -0.0300 H     1 <1>   0.0800 
 38 H       -6.7640    -5.9950    -2.0270 H     1 <1>   0.0800 
 39 H       -6.0390    -7.5370    -2.3640 H     1 <1>   0.0800 
 40 H       -9.2870    -5.2200     0.2500 H     1 <1>   0.4000 
 41 H       -7.5190    -8.0760     1.0090 H     1 <1>   0.0800 
 42 H       -9.0990    -7.5010     0.6150 H     1 <1>   0.0800 
 43 H       -9.0480    -5.9210     2.4720 H     1 <1>   0.0800 
 44 H       -7.4850    -6.4700     2.9560 H     1 <1>   0.0800 
 45 H       -7.6650    -8.7020    -1.2050 H     1 <1>   0.0800 
 46 H       -8.5920    -7.3110    -1.6690 H     1 <1>   0.0800 
 47 H       -8.1230    -3.5710     2.3310 H     1 <1>   0.0800 
 48 H       -6.6190    -4.1800     2.9850 H     1 <1>   0.0800 
 49 H       -8.0760    -4.2640     3.9310 H     1 <1>   0.0800 
@<TRIPOS>BOND
  1   1   2  1   
  2   2   3  ar  
  3   2   4  ar  
  4   3   5  ar  
  5   3   6  ar  
  6   4   7  ar  
  7   4  26  1   
  8   5   8  ar  
  9   6   9  ar  
 10   6  10  ar  
 11   7  10  ar  
 12   7  11  1   
 13   8  12  ar  
 14   8  13  1   
 15   9  12  ar  
 16   9  14  1   
 17  10  27  1   
 18  12  28  1   
 19  13  29  1   
 20  13  30  1   
 21  13  31  1   
 22  14  15  1   
 23  14  16  1   
 24  15  17  1   
 25  15  32  1   
 26  15  33  1   
 27  16  18  1   
 28  16  34  1   
 29  16  35  1   
 30  17  18  1   
 31  17  19  1   
 32  17  36  1   
 33  18  20  1   
 34  18  37  1   
 35  19  21  1   
 36  19  22  1   
 37  19  23  1   
 38  20  24  1   
 39  20  38  1   
 40  20  39  1   
 41  21  40  1   
 42  22  24  1   
 43  22  41  1   
 44  22  42  1   
 45  23  25  1   
 46  23  43  1   
 47  23  44  1   
 48  24  45  1   
 49  24  46  1   
 50  25  47  1   
 51  25  48  1   
 52  25  49  1   
@<TRIPOS>SUBSTRUCTURE
  1 ****  14 GROUP 4 **** **** 0

# MOE 2024.06 (io_trps.svl 2023.06)
