@<TRIPOS>MOLECULE
NONAME
51 53 1 0 0 
SMALL
USER_CHARGES


@<TRIPOS>ATOM
  1 S       -0.3390    -1.4130     0.3740 S.3   1 <1>  -0.0800 
  2 C       -1.2580     0.0390     0.7020 C.2   1 <1>   0.1980 
  3 C       -1.6890    -2.3560     0.9300 C.2   1 <1>  -0.1100 
  4 N       -2.4250    -0.1690     1.1630 N.2   1 <1>  -0.5650 
  5 C       -0.5900     1.3620     0.4130 C.3   1 <1>  -0.0600 
  6 C       -2.6790    -1.5260     1.2990 C.2   1 <1>   0.0460 
  7 C       -4.0460    -1.9090     1.8390 C.3   1 <1>   0.0820 
  8 C       -4.4250    -3.3410     1.4990 C.2   1 <1>   0.5690 
  9 O       -4.4760    -4.1330     2.4100 O.2   1 <1>  -0.5700 
 10 N       -4.6960    -3.7100     0.2060 N.am  1 <1>  -0.6600 
 11 C       -5.0050    -5.1370    -0.1410 C.3   1 <1>   0.3640 
 12 C       -4.7870    -2.7320    -0.9230 C.3   1 <1>   0.1400 
 13 C       -3.7230    -5.8340    -0.6350 C.ar  1 <1>  -0.1430 
 14 C       -6.2110    -5.1980    -1.1230 C.3   1 <1>   0.2000 
 15 C       -5.0600    -3.4030    -2.2780 C.3   1 <1>   0.1200 
 16 C       -2.6700    -5.9770     0.2610 C.ar  1 <1>  -0.1500 
 17 C       -3.5610    -6.3420    -1.9220 C.ar  1 <1>  -0.1500 
 18 O       -6.1350    -4.3040    -2.2200 O.3   1 <1>  -0.5600 
 19 C       -7.5370    -4.9060    -0.4060 C.3   1 <1>   0.1200 
 20 C       -1.4820    -6.5820    -0.1090 C.ar  1 <1>   0.0830 
 21 C       -2.3740    -6.9450    -2.3050 C.ar  1 <1>  -0.1500 
 22 O       -7.8700    -5.9540     0.4460 O.3   1 <1>  -0.6800 
 23 O       -0.5150    -6.6930     0.8330 O.3   1 <1>  -0.3630 
 24 C       -1.3220    -7.0530    -1.4150 C.ar  1 <1>   0.0830 
 25 C       -0.2610    -7.9980     1.3010 C.3   1 <1>   0.0400 
 26 O       -0.1750    -7.6200    -1.8660 O.3   1 <1>  -0.3630 
 27 C        0.9730    -6.7990    -1.8790 C.3   1 <1>   0.0400 
 28 H       -1.5920    -3.4270     0.9200 H     1 <1>   0.1500 
 29 H       -1.2610     2.1670     0.6530 H     1 <1>   0.0800 
 30 H       -0.3320     1.4200    -0.6280 H     1 <1>   0.0800 
 31 H        0.2990     1.4580     1.0070 H     1 <1>   0.0800 
 32 H       -4.7900    -1.2480     1.4390 H     1 <1>   0.0800 
 33 H       -4.0420    -1.7840     2.9060 H     1 <1>   0.0800 
 34 H       -5.3050    -5.6590     0.7530 H     1 <1>   0.0800 
 35 H       -5.5790    -2.0320    -0.7220 H     1 <1>   0.0800 
 36 H       -3.8660    -2.1790    -0.9980 H     1 <1>   0.0800 
 37 H       -6.2800    -6.1860    -1.5380 H     1 <1>   0.0800 
 38 H       -4.1850    -3.9260    -2.6160 H     1 <1>   0.0800 
 39 H       -5.3010    -2.6570    -3.0140 H     1 <1>   0.0800 
 40 H       -2.7630    -5.6230     1.2720 H     1 <1>   0.1500 
 41 H       -4.3460    -6.2750    -2.6530 H     1 <1>   0.1500 
 42 H       -8.3350    -4.7910    -1.1180 H     1 <1>   0.0800 
 43 H       -7.4540    -4.0120     0.1880 H     1 <1>   0.0800 
 44 H       -2.2560    -7.3280    -3.3030 H     1 <1>   0.1500 
 45 H       -8.1870    -6.7290    -0.0580 H     1 <1>   0.4000 
 46 H        0.4790    -7.9380     2.0790 H     1 <1>   0.0800 
 47 H        0.1050    -8.6010     0.4900 H     1 <1>   0.0800 
 48 H       -1.1750    -8.4090     1.6910 H     1 <1>   0.0800 
 49 H        1.7500    -7.3180    -2.4110 H     1 <1>   0.0800 
 50 H        1.2870    -6.6080    -0.8690 H     1 <1>   0.0800 
 51 H        0.7360    -5.8770    -2.3780 H     1 <1>   0.0800 
@<TRIPOS>BOND
  1   1   2  1   
  2   1   3  1   
  3   2   4  2   
  4   2   5  1   
  5   3   6  2   
  6   3  28  1   
  7   4   6  1   
  8   5  29  1   
  9   5  30  1   
 10   5  31  1   
 11   6   7  1   
 12   7   8  1   
 13   7  32  1   
 14   7  33  1   
 15   8   9  2   
 16   8  10  am  
 17  10  11  1   
 18  10  12  1   
 19  11  13  1   
 20  11  14  1   
 21  11  34  1   
 22  12  15  1   
 23  12  35  1   
 24  12  36  1   
 25  13  16  ar  
 26  13  17  ar  
 27  14  18  1   
 28  14  19  1   
 29  14  37  1   
 30  15  18  1   
 31  15  38  1   
 32  15  39  1   
 33  16  20  ar  
 34  16  40  1   
 35  17  21  ar  
 36  17  41  1   
 37  19  22  1   
 38  19  42  1   
 39  19  43  1   
 40  20  23  1   
 41  20  24  ar  
 42  21  24  ar  
 43  21  44  1   
 44  22  45  1   
 45  23  25  1   
 46  24  26  1   
 47  25  46  1   
 48  25  47  1   
 49  25  48  1   
 50  26  27  1   
 51  27  49  1   
 52  27  50  1   
 53  27  51  1   
@<TRIPOS>SUBSTRUCTURE
  1 ****  13 GROUP 4 **** **** 0

# MOE 2024.06 (io_trps.svl 2023.06)
