@<TRIPOS>MOLECULE
NONAME
48 49 1 0 0 
SMALL
USER_CHARGES


@<TRIPOS>ATOM
  1 O       -1.8060     1.0690    -1.9340 O.2   1 <1>  -0.5700 
  2 C       -2.0480     0.9830    -0.7520 C.2   1 <1>   0.5690 
  3 N       -2.3870    -0.2310    -0.1940 N.am  1 <1>  -0.6600 
  4 C       -2.0130     2.2800     0.0580 C.3   1 <1>   0.0450 
  5 C       -2.3120    -1.4690    -1.0220 C.3   1 <1>   0.3200 
  6 C       -2.9140    -0.4270     1.1920 C.3   1 <1>   0.1400 
  7 C       -0.6460     2.9840     0.0350 C.ar  1 <1>  -0.1440 
  8 C       -3.7040    -2.0380    -1.2050 C.2   1 <1>  -0.3320 
  9 C       -4.3910    -0.0260     1.2860 C.3   1 <1>   0.1200 
 10 C        0.3600     2.6000     0.9250 C.ar  1 <1>  -0.1430 
 11 C       -0.3920     4.0180    -0.8680 C.ar  1 <1>  -0.1430 
 12 N       -4.2110    -3.0780    -0.5160 N.pl3 1 <1>   0.0330 
 13 C       -4.6790    -1.6300    -2.0460 C.2   1 <1>   0.0770 
 14 O       -4.8140    -0.2190     2.5930 O.3   1 <1>  -0.6800 
 15 C        1.5810     3.2550     0.9130 C.ar  1 <1>  -0.1500 
 16 C        0.1820     1.4650     1.9240 C.3   1 <1>  -0.0970 
 17 C        0.8370     4.6580    -0.8590 C.ar  1 <1>  -0.1500 
 18 C       -1.4180     4.4850    -1.8950 C.3   1 <1>  -0.0970 
 19 C       -5.4710    -3.2290    -0.9790 C.2   1 <1>   0.0060 
 20 N       -5.7890    -2.3770    -1.8960 N.2   1 <1>  -0.5650 
 21 C        1.8270     4.2870     0.0290 C.ar  1 <1>  -0.1430 
 22 C       -6.4110    -4.2970    -0.4640 C.3   1 <1>  -0.0600 
 23 C        3.1690     4.9960     0.0250 C.3   1 <1>  -0.0970 
 24 H       -2.3010     2.1200     1.0740 H     1 <1>   0.0800 
 25 H       -2.7700     2.9210    -0.3440 H     1 <1>   0.0800 
 26 H       -1.6710    -2.1860    -0.5390 H     1 <1>   0.0800 
 27 H       -1.8890    -1.2610    -1.9900 H     1 <1>   0.0800 
 28 H       -2.3410     0.1500     1.8920 H     1 <1>   0.0800 
 29 H       -2.8160    -1.4610     1.4710 H     1 <1>   0.0800 
 30 H       -5.0020    -0.6340     0.6430 H     1 <1>   0.0800 
 31 H       -4.5250     1.0130     1.0390 H     1 <1>   0.0800 
 32 H       -3.7570    -3.6410     0.2070 H     1 <1>   0.2700 
 33 H       -4.6370    -0.8190    -2.7550 H     1 <1>   0.1500 
 34 H       -5.7670    -0.0100     2.6770 H     1 <1>   0.4000 
 35 H        2.3560     2.9600     1.5980 H     1 <1>   0.1500 
 36 H       -0.0490     0.5540     1.4050 H     1 <1>   0.0800 
 37 H       -0.6040     1.6990     2.6180 H     1 <1>   0.0800 
 38 H        1.0830     1.3020     2.4880 H     1 <1>   0.0800 
 39 H        1.0310     5.4550    -1.5540 H     1 <1>   0.1500 
 40 H       -1.7770     3.6500    -2.4690 H     1 <1>   0.0800 
 41 H       -0.9850     5.1900    -2.5810 H     1 <1>   0.0800 
 42 H       -2.2450     4.9610    -1.4020 H     1 <1>   0.0800 
 43 H       -6.5750    -4.1690     0.5900 H     1 <1>   0.0800 
 44 H       -6.0000    -5.2720    -0.6490 H     1 <1>   0.0800 
 45 H       -7.3570    -4.2210    -0.9720 H     1 <1>   0.0800 
 46 H        3.6060     4.9790     1.0070 H     1 <1>   0.0800 
 47 H        3.0500     6.0210    -0.2760 H     1 <1>   0.0800 
 48 H        3.8350     4.5050    -0.6620 H     1 <1>   0.0800 
@<TRIPOS>BOND
  1   1   2  2   
  2   2   3  am  
  3   2   4  1   
  4   3   5  1   
  5   3   6  1   
  6   4   7  1   
  7   4  24  1   
  8   4  25  1   
  9   5   8  1   
 10   5  26  1   
 11   5  27  1   
 12   6   9  1   
 13   6  28  1   
 14   6  29  1   
 15   7  10  ar  
 16   7  11  ar  
 17   8  12  1   
 18   8  13  2   
 19   9  14  1   
 20   9  30  1   
 21   9  31  1   
 22  10  15  ar  
 23  10  16  1   
 24  11  17  ar  
 25  11  18  1   
 26  12  19  1   
 27  12  32  1   
 28  13  20  1   
 29  13  33  1   
 30  14  34  1   
 31  15  21  ar  
 32  15  35  1   
 33  16  36  1   
 34  16  37  1   
 35  16  38  1   
 36  17  21  ar  
 37  17  39  1   
 38  18  40  1   
 39  18  41  1   
 40  18  42  1   
 41  19  20  2   
 42  19  22  1   
 43  21  23  1   
 44  22  43  1   
 45  22  44  1   
 46  22  45  1   
 47  23  46  1   
 48  23  47  1   
 49  23  48  1   
@<TRIPOS>SUBSTRUCTURE
  1 ****   2 GROUP 4 **** **** 0

# MOE 2024.06 (io_trps.svl 2023.06)
