@<TRIPOS>MOLECULE
NONAME
56 59 1 0 0 
SMALL
USER_CHARGES


@<TRIPOS>ATOM
  1 O       -1.4060     1.0200    -2.2080 O.2   1 <1>  -0.5700 
  2 C       -2.2670     1.3630    -1.4200 C.2   1 <1>   0.5440 
  3 N       -3.4550     0.6610    -1.3670 N.am  1 <1>  -0.6600 
  4 C       -2.0110     2.4950    -0.5520 C.ar  1 <1>   0.0860 
  5 C       -4.4730     0.8180    -0.2910 C.3   1 <1>   0.1400 
  6 C       -3.7490    -0.4650    -2.2980 C.3   1 <1>   0.1400 
  7 C       -2.7870     3.6490    -0.6140 C.ar  1 <1>  -0.1500 
  8 C       -0.9760     2.4620     0.3770 C.ar  1 <1>  -0.1500 
  9 C       -4.5340    -0.4690     0.5340 C.3   1 <1>  -0.1600 
 10 C       -3.8080    -1.7750    -1.5060 C.3   1 <1>  -0.1600 
 11 C       -2.5550     4.7250     0.2240 C.ar  1 <1>   0.0820 
 12 C       -0.7260     3.5270     1.2230 C.ar  1 <1>   0.0820 
 13 C       -4.8150    -1.7060    -0.3440 C.3   1 <1>   0.4240 
 14 O       -3.3800     5.7930     0.0790 O.3   1 <1>  -0.3630 
 15 C       -1.5200     4.6670     1.1500 C.ar  1 <1>  -0.1500 
 16 O        0.3060     3.3820     2.0920 O.3   1 <1>  -0.3620 
 17 O       -6.0520    -1.4770    -0.9850 O.3   1 <1>  -0.5600 
 18 C       -4.8340    -3.0290     0.4770 C.ar  1 <1>  -0.1440 
 19 C       -3.1920     6.9770     0.8210 C.3   1 <1>   0.0400 
 20 C        0.7030     4.4280     2.9510 C.3   1 <1>   0.0400 
 21 C       -7.2140    -1.7930    -0.2920 C.3   1 <1>   0.1200 
 22 C       -3.7020    -3.5030     1.1560 C.ar  1 <1>   0.0820 
 23 C       -6.0060    -3.7810     0.5560 C.ar  1 <1>  -0.1440 
 24 C       -7.2680    -3.3040    -0.1320 C.3   1 <1>  -0.0170 
 25 O       -2.5560    -2.7740     1.1140 O.3   1 <1>  -0.3630 
 26 C       -3.7590    -4.7010     1.8670 C.ar  1 <1>  -0.1500 
 27 C       -6.0500    -4.9710     1.2630 C.ar  1 <1>  -0.1500 
 28 C       -1.3320    -3.2340     1.6430 C.3   1 <1>   0.0400 
 29 C       -4.9270    -5.4330     1.9170 C.ar  1 <1>  -0.1500 
 30 H       -5.4310     1.0160    -0.7400 H     1 <1>   0.0800 
 31 H       -4.2320     1.6410     0.3580 H     1 <1>   0.0800 
 32 H       -2.9950    -0.5380    -3.0620 H     1 <1>   0.0800 
 33 H       -4.6930    -0.2840    -2.7820 H     1 <1>   0.0800 
 34 H       -3.5860     3.7070    -1.3320 H     1 <1>   0.1500 
 35 H       -0.3540     1.5870     0.4340 H     1 <1>   0.1500 
 36 H       -5.2810    -0.3830     1.2990 H     1 <1>   0.0800 
 37 H       -3.5920    -0.5760     1.0330 H     1 <1>   0.0800 
 38 H       -2.8180    -1.9750    -1.1470 H     1 <1>   0.0800 
 39 H       -4.0790    -2.5830    -2.1580 H     1 <1>   0.0800 
 40 H       -1.3360     5.4930     1.8040 H     1 <1>   0.1500 
 41 H       -3.9400     7.6860     0.5140 H     1 <1>   0.0800 
 42 H       -2.2120     7.3680     0.6130 H     1 <1>   0.0800 
 43 H       -3.3070     6.7570     1.8680 H     1 <1>   0.0800 
 44 H        1.5530     4.0900     3.5160 H     1 <1>   0.0800 
 45 H       -0.1080     4.6610     3.6170 H     1 <1>   0.0800 
 46 H        0.9760     5.2820     2.3570 H     1 <1>   0.0800 
 47 H       -8.0510    -1.4440    -0.8720 H     1 <1>   0.0800 
 48 H       -7.2100    -1.2980     0.6620 H     1 <1>   0.0800 
 49 H       -7.3540    -3.7660    -1.0990 H     1 <1>   0.0800 
 50 H       -8.1340    -3.5660     0.4500 H     1 <1>   0.0800 
 51 H       -2.9050    -5.0820     2.3910 H     1 <1>   0.1500 
 52 H       -6.9590    -5.5440     1.3080 H     1 <1>   0.1500 
 53 H       -0.5780    -2.5000     1.4210 H     1 <1>   0.0800 
 54 H       -1.0800    -4.1690     1.1750 H     1 <1>   0.0800 
 55 H       -1.4310    -3.3450     2.7080 H     1 <1>   0.0800 
 56 H       -4.9640    -6.3580     2.4660 H     1 <1>   0.1500 
@<TRIPOS>BOND
  1   1   2  2   
  2   2   3  am  
  3   2   4  1   
  4   3   5  1   
  5   3   6  1   
  6   4   7  ar  
  7   4   8  ar  
  8   5   9  1   
  9   5  30  1   
 10   5  31  1   
 11   6  10  1   
 12   6  32  1   
 13   6  33  1   
 14   7  11  ar  
 15   7  34  1   
 16   8  12  ar  
 17   8  35  1   
 18   9  13  1   
 19   9  36  1   
 20   9  37  1   
 21  10  13  1   
 22  10  38  1   
 23  10  39  1   
 24  11  14  1   
 25  11  15  ar  
 26  12  15  ar  
 27  12  16  1   
 28  13  17  1   
 29  13  18  1   
 30  14  19  1   
 31  15  40  1   
 32  16  20  1   
 33  17  21  1   
 34  18  22  ar  
 35  18  23  ar  
 36  19  41  1   
 37  19  42  1   
 38  19  43  1   
 39  20  44  1   
 40  20  45  1   
 41  20  46  1   
 42  21  24  1   
 43  21  47  1   
 44  21  48  1   
 45  22  25  1   
 46  22  26  ar  
 47  23  24  1   
 48  23  27  ar  
 49  24  49  1   
 50  24  50  1   
 51  25  28  1   
 52  26  29  ar  
 53  26  51  1   
 54  27  29  ar  
 55  27  52  1   
 56  28  53  1   
 57  28  54  1   
 58  28  55  1   
 59  29  56  1   
@<TRIPOS>SUBSTRUCTURE
  1 ****   9 GROUP 4 **** **** 0

# MOE 2024.06 (io_trps.svl 2023.06)
