@<TRIPOS>MOLECULE
NONAME
53 56 1 0 0 
SMALL
USER_CHARGES


@<TRIPOS>ATOM
  1 CL       0.8200    -1.5120     2.4730 Cl    1 <1>  -0.1770 
  2 C        1.1430    -1.4620     0.7490 C.ar  1 <1>   0.1770 
  3 C        0.5010    -2.3500    -0.1240 C.ar  1 <1>   0.1000 
  4 C        2.0460    -0.5210     0.2940 C.ar  1 <1>  -0.1500 
  5 N       -0.4220    -3.3240     0.2760 N.pl3 1 <1>  -0.8380 
  6 C        0.8060    -2.2520    -1.4760 C.ar  1 <1>  -0.1500 
  7 C        2.3320    -0.4440    -1.0590 C.ar  1 <1>  -0.1500 
  8 C       -1.7290    -2.8220     0.7510 C.3   1 <1>   0.2090 
  9 C        0.1290    -4.4580     1.0510 C.3   1 <1>   0.2090 
 10 C        1.7100    -1.3120    -1.9410 C.ar  1 <1>  -0.1500 
 11 C       -2.7400    -3.9540     0.5970 C.3   1 <1>  -0.1600 
 12 C       -0.8360    -5.6270     0.8940 C.3   1 <1>  -0.1600 
 13 C       -2.2420    -5.2030     1.3340 C.3   1 <1>   0.4230 
 14 N       -3.2250    -6.3060     1.1770 N.4   1 <1>  -0.9060 
 15 C       -3.4080    -6.8810    -0.1900 C.3   1 <1>   0.4230 
 16 C       -4.8280    -7.4260    -0.3530 C.3   1 <1>  -0.0800 
 17 C       -2.6350    -8.1940    -0.2570 C.3   1 <1>   0.1200 
 18 C       -4.7430    -8.8240     0.2830 C.3   1 <1>   0.1200 
 19 C       -5.9870    -6.5590     0.1770 C.3   1 <1>  -0.0170 
 20 O       -3.3880    -9.0300     0.5570 O.3   1 <1>  -0.5600 
 21 C       -7.3230    -7.1930    -0.1700 C.ar  1 <1>  -0.1430 
 22 C       -7.8860    -7.0590    -1.4240 C.ar  1 <1>  -0.1500 
 23 C       -8.0450    -7.9350     0.7440 C.ar  1 <1>  -0.1500 
 24 C       -9.1020    -7.6630    -1.6980 C.ar  1 <1>   0.1600 
 25 C       -9.2530    -8.4980     0.3690 C.ar  1 <1>   0.1600 
 26 N       -9.7950    -8.3820    -0.8310 N.ar  1 <1>  -0.6200 
 27 H        2.5200     0.1450     0.9920 H     1 <1>   0.1500 
 28 H        0.3270    -2.9220    -2.1650 H     1 <1>   0.1500 
 29 H        3.0350     0.2860    -1.4230 H     1 <1>   0.1500 
 30 H       -1.6530    -2.5130     1.7800 H     1 <1>   0.0800 
 31 H       -2.0260    -1.9700     0.1600 H     1 <1>   0.0800 
 32 H        1.1030    -4.7200     0.6670 H     1 <1>   0.0800 
 33 H        0.2340    -4.1810     2.0870 H     1 <1>   0.0800 
 34 H        1.9310    -1.2540    -2.9930 H     1 <1>   0.1500 
 35 H       -2.8580    -4.1410    -0.4540 H     1 <1>   0.0800 
 36 H       -3.6800    -3.6280     1.0020 H     1 <1>   0.0800 
 37 H       -0.4840    -6.4450     1.4960 H     1 <1>   0.0800 
 38 H       -0.8190    -5.9150    -0.1410 H     1 <1>   0.0800 
 39 H       -2.1820    -4.9500     2.3820 H     1 <1>   0.0800 
 40 H       -4.1300    -5.9870     1.5270 H     1 <1>   0.4500 
 41 H       -2.9620    -7.1090     1.7690 H     1 <1>   0.4500 
 42 H       -3.1330    -6.1860    -0.9660 H     1 <1>   0.0800 
 43 H       -4.9930    -7.5750    -1.4070 H     1 <1>   0.0800 
 44 H       -1.6280    -8.1380     0.1140 H     1 <1>   0.0800 
 45 H       -2.6320    -8.6020    -1.2550 H     1 <1>   0.0800 
 46 H       -5.0830    -9.5910    -0.3940 H     1 <1>   0.0800 
 47 H       -5.2860    -8.8970     1.2100 H     1 <1>   0.0800 
 48 H       -5.9460    -5.5790    -0.2680 H     1 <1>   0.0800 
 49 H       -5.9330    -6.4430     1.2450 H     1 <1>   0.0800 
 50 H       -7.4000    -6.4930    -2.1970 H     1 <1>   0.1500 
 51 H       -7.6910    -8.0870     1.7470 H     1 <1>   0.1500 
 52 H       -9.5280    -7.5500    -2.6810 H     1 <1>   0.1500 
 53 H       -9.8050    -9.0750     1.0930 H     1 <1>   0.1500 
@<TRIPOS>BOND
  1   1   2  1   
  2   2   3  ar  
  3   2   4  ar  
  4   3   5  1   
  5   3   6  ar  
  6   4   7  ar  
  7   4  27  1   
  8   5   8  1   
  9   5   9  1   
 10   6  10  ar  
 11   6  28  1   
 12   7  10  ar  
 13   7  29  1   
 14   8  11  1   
 15   8  30  1   
 16   8  31  1   
 17   9  12  1   
 18   9  32  1   
 19   9  33  1   
 20  10  34  1   
 21  11  13  1   
 22  11  35  1   
 23  11  36  1   
 24  12  13  1   
 25  12  37  1   
 26  12  38  1   
 27  13  14  1   
 28  13  39  1   
 29  14  15  1   
 30  14  40  1   
 31  14  41  1   
 32  15  16  1   
 33  15  17  1   
 34  15  42  1   
 35  16  18  1   
 36  16  19  1   
 37  16  43  1   
 38  17  20  1   
 39  17  44  1   
 40  17  45  1   
 41  18  20  1   
 42  18  46  1   
 43  18  47  1   
 44  19  21  1   
 45  19  48  1   
 46  19  49  1   
 47  21  22  ar  
 48  21  23  ar  
 49  22  24  ar  
 50  22  50  1   
 51  23  25  ar  
 52  23  51  1   
 53  24  26  ar  
 54  24  52  1   
 55  25  26  ar  
 56  25  53  1   
@<TRIPOS>SUBSTRUCTURE
  1 ****  11 GROUP 4 **** **** 0

# MOE 2024.06 (io_trps.svl 2023.06)
