@<TRIPOS>MOLECULE
NONAME
48 51 1 0 0 
SMALL
USER_CHARGES


@<TRIPOS>ATOM
  1 O       -1.3550    -1.1590     0.6910 O.3   1 <1>  -0.5600 
  2 C       -2.3050    -2.0000     0.1030 C.3   1 <1>   0.1200 
  3 C       -0.0330    -1.5200     0.4250 C.3   1 <1>   0.1200 
  4 C       -2.1440    -3.4410     0.6190 C.3   1 <1>   0.2090 
  5 C        0.2590    -2.9320     0.9680 C.3   1 <1>   0.2090 
  6 N       -0.7280    -3.9370     0.4330 N.pl3 1 <1>  -0.8380 
  7 C       -0.4600    -5.1300    -0.1640 C.ar  1 <1>   0.7710 
  8 N       -1.4520    -5.8270    -0.7040 N.ar  1 <1>  -0.6200 
  9 N        0.8070    -5.5840    -0.1880 N.ar  1 <1>  -0.1790 
 10 C       -1.1710    -6.9730    -1.2760 C.ar  1 <1>   0.4100 
 11 C        1.1420    -6.7620    -0.7670 C.ar  1 <1>   0.2180 
 12 N       -2.2280    -7.6060    -1.8030 N.pl3 1 <1>  -0.8690 
 13 C        0.1400    -7.4800    -1.3290 C.ar  1 <1>  -0.1500 
 14 C        2.6000    -7.2060    -0.7570 C.3   1 <1>  -0.0170 
 15 C       -2.3470    -8.9430    -2.4490 C.3   1 <1>   0.3900 
 16 C        3.1210    -7.4450     0.6670 C.3   1 <1>  -0.2400 
 17 C       -3.6290    -9.6370    -2.0170 C.2   1 <1>   0.1080 
 18 N       -4.3970   -10.2880    -2.8180 N.2   1 <1>  -0.4100 
 19 C       -4.1350    -9.6700    -0.7180 C.2   1 <1>  -0.1500 
 20 O       -5.3790   -10.7400    -2.0910 O.3   1 <1>  -0.0190 
 21 C       -5.2580   -10.3940    -0.8370 C.2   1 <1>   0.0550 
 22 C       -6.3050   -10.8240     0.1720 C.3   1 <1>  -0.0150 
 23 C       -5.9740   -10.9670     1.6230 C.3   1 <1>  -0.2000 
 24 C       -6.2390   -12.1850     0.7850 C.3   1 <1>  -0.2000 
 25 H       -2.1910    -1.9630    -0.9660 H     1 <1>   0.0800 
 26 H       -3.2790    -1.6220     0.3590 H     1 <1>   0.0800 
 27 H        0.6020    -0.7960     0.9040 H     1 <1>   0.0800 
 28 H        0.1290    -1.4720    -0.6380 H     1 <1>   0.0800 
 29 H       -2.8620    -4.0610     0.1130 H     1 <1>   0.0800 
 30 H       -2.3900    -3.4590     1.6670 H     1 <1>   0.0800 
 31 H        0.1890    -2.9030     2.0430 H     1 <1>   0.0800 
 32 H        1.2690    -3.1880     0.7080 H     1 <1>   0.0800 
 33 H        1.4940    -5.0080     0.2780 H     1 <1>   0.4570 
 34 H       -3.1250    -7.1110    -1.7540 H     1 <1>   0.4000 
 35 H        0.3220    -8.4200    -1.8130 H     1 <1>   0.1500 
 36 H        3.2090    -6.4660    -1.2470 H     1 <1>   0.0800 
 37 H        2.6990    -8.1210    -1.3160 H     1 <1>   0.0800 
 38 H       -1.5140    -9.5680    -2.1870 H     1 <1>   0.0800 
 39 H       -2.3600    -8.8190    -3.5180 H     1 <1>   0.0800 
 40 H        3.1190    -6.5410     1.2480 H     1 <1>   0.0800 
 41 H        4.1340    -7.8110     0.6260 H     1 <1>   0.0800 
 42 H        2.5220    -8.1850     1.1700 H     1 <1>   0.0800 
 43 H       -3.7050    -9.2110     0.1530 H     1 <1>   0.1500 
 44 H       -7.2820   -10.4480    -0.0790 H     1 <1>   0.1000 
 45 H       -6.7100   -10.6690     2.3510 H     1 <1>   0.1000 
 46 H       -4.9670   -10.7850     1.9560 H     1 <1>   0.1000 
 47 H       -5.4150   -12.8250     0.5210 H     1 <1>   0.1000 
 48 H       -7.1560   -12.7290     0.9260 H     1 <1>   0.1000 
@<TRIPOS>BOND
  1   1   2  1   
  2   1   3  1   
  3   2   4  1   
  4   2  25  1   
  5   2  26  1   
  6   3   5  1   
  7   3  27  1   
  8   3  28  1   
  9   4   6  1   
 10   4  29  1   
 11   4  30  1   
 12   5   6  1   
 13   5  31  1   
 14   5  32  1   
 15   6   7  1   
 16   7   8  ar  
 17   7   9  ar  
 18   8  10  ar  
 19   9  11  ar  
 20   9  33  1   
 21  10  12  1   
 22  10  13  ar  
 23  11  13  ar  
 24  11  14  1   
 25  12  15  1   
 26  12  34  1   
 27  13  35  1   
 28  14  16  1   
 29  14  36  1   
 30  14  37  1   
 31  15  17  1   
 32  15  38  1   
 33  15  39  1   
 34  16  40  1   
 35  16  41  1   
 36  16  42  1   
 37  17  18  2   
 38  17  19  1   
 39  18  20  1   
 40  19  21  2   
 41  19  43  1   
 42  20  21  1   
 43  21  22  1   
 44  22  23  1   
 45  22  24  1   
 46  22  44  1   
 47  23  24  1   
 48  23  45  1   
 49  23  46  1   
 50  24  47  1   
 51  24  48  1   
@<TRIPOS>SUBSTRUCTURE
  1 ****  10 GROUP 4 **** **** 0

# MOE 2024.06 (io_trps.svl 2023.06)
