@<TRIPOS>MOLECULE
NONAME
48 49 1 0 0 
SMALL
USER_CHARGES


@<TRIPOS>ATOM
  1 O        1.3580    -0.7660     0.5860 O.co2 1 <1>  -0.9000 
  2 C        2.3900    -0.1390     0.8520 C.2   1 <1>   0.9060 
  3 O        2.8600    -0.0880     1.9960 O.co2 1 <1>  -0.9000 
  4 C        3.1350     0.5510    -0.2730 C.3   1 <1>  -0.1220 
  5 C        2.9220     2.0640    -0.3390 C.ar  1 <1>  -0.1440 
  6 C        2.4840     2.6680    -1.5050 C.ar  1 <1>  -0.1500 
  7 C        3.1680     2.8450     0.7770 C.ar  1 <1>  -0.1500 
  8 C        2.3010     4.0390    -1.5590 C.ar  1 <1>  -0.1500 
  9 C        2.9840     4.2140     0.7320 C.ar  1 <1>  -0.1500 
 10 C        2.5580     4.8200    -0.4410 C.ar  1 <1>  -0.1440 
 11 C        2.3860     6.3210    -0.5010 C.3   1 <1>   0.4870 
 12 N        3.7400     6.9460    -0.4840 N.4   1 <1>  -0.9590 
 13 C        3.6570     8.4190    -0.2860 C.3   1 <1>   0.3430 
 14 C        4.5260     6.5530    -1.7000 C.3   1 <1>   0.2630 
 15 C        5.0210     8.9770     0.1120 C.3   1 <1>  -0.1600 
 16 C        4.9390    10.4720     0.4370 C.3   1 <1>   0.0210 
 17 C        6.3150    10.9700     0.8290 C.2   1 <1>  -0.1810 
 18 C        7.2910    11.4810    -0.0270 C.2   1 <1>   0.1080 
 19 C        6.8770    11.0180     2.0580 C.2   1 <1>  -0.3320 
 20 N        8.3710    11.8100     0.6040 N.2   1 <1>  -0.7070 
 21 C        7.1670    11.6610    -1.5240 C.3   1 <1>  -0.0590 
 22 N        8.1150    11.5310     1.8920 N.pl3 1 <1>   0.3000 
 23 C        6.3350    10.6130     3.4190 C.3   1 <1>  -0.0600 
 24 H        2.8280     0.0890    -1.1910 H     1 <1>   0.0800 
 25 H        4.1790     0.3480    -0.1350 H     1 <1>   0.0800 
 26 H        2.2770     2.0620    -2.3700 H     1 <1>   0.1500 
 27 H        3.4930     2.3680     1.6900 H     1 <1>   0.1500 
 28 H        1.9530     4.4750    -2.4780 H     1 <1>   0.1500 
 29 H        3.1730     4.7810     1.6260 H     1 <1>   0.1500 
 30 H        1.8140     6.6430     0.3550 H     1 <1>   0.0800 
 31 H        1.8540     6.5970    -1.3960 H     1 <1>   0.0800 
 32 H        4.2170     6.5270     0.3280 H     1 <1>   0.4500 
 33 H        2.9520     8.6380     0.5000 H     1 <1>   0.0800 
 34 H        3.3130     8.8970    -1.1900 H     1 <1>   0.0800 
 35 H        4.0560     6.9320    -2.5920 H     1 <1>   0.0800 
 36 H        4.5880     5.4780    -1.7730 H     1 <1>   0.0800 
 37 H        5.5300     6.9430    -1.6430 H     1 <1>   0.0800 
 38 H        5.7290     8.8460    -0.6870 H     1 <1>   0.0800 
 39 H        5.3880     8.4620     0.9820 H     1 <1>   0.0800 
 40 H        4.2570    10.6430     1.2520 H     1 <1>   0.0800 
 41 H        4.5850    11.0300    -0.4120 H     1 <1>   0.0800 
 42 H        6.9260    10.7270    -1.9910 H     1 <1>   0.0800 
 43 H        8.0990    12.0180    -1.9240 H     1 <1>   0.0800 
 44 H        6.4020    12.3840    -1.7390 H     1 <1>   0.0800 
 45 H        8.8050    11.7050     2.6320 H     1 <1>   0.2700 
 46 H        5.3440    10.2080     3.3330 H     1 <1>   0.0800 
 47 H        6.2970    11.4690     4.0690 H     1 <1>   0.0800 
 48 H        6.9710     9.8680     3.8630 H     1 <1>   0.0800 
@<TRIPOS>BOND
  1   1   2  ar  
  2   2   3  ar  
  3   2   4  1   
  4   4   5  1   
  5   4  24  1   
  6   4  25  1   
  7   5   6  ar  
  8   5   7  ar  
  9   6   8  ar  
 10   6  26  1   
 11   7   9  ar  
 12   7  27  1   
 13   8  10  ar  
 14   8  28  1   
 15   9  10  ar  
 16   9  29  1   
 17  10  11  1   
 18  11  12  1   
 19  11  30  1   
 20  11  31  1   
 21  12  13  1   
 22  12  14  1   
 23  12  32  1   
 24  13  15  1   
 25  13  33  1   
 26  13  34  1   
 27  14  35  1   
 28  14  36  1   
 29  14  37  1   
 30  15  16  1   
 31  15  38  1   
 32  15  39  1   
 33  16  17  1   
 34  16  40  1   
 35  16  41  1   
 36  17  18  1   
 37  17  19  2   
 38  18  20  2   
 39  18  21  1   
 40  19  22  1   
 41  19  23  1   
 42  20  22  1   
 43  21  42  1   
 44  21  43  1   
 45  21  44  1   
 46  22  45  1   
 47  23  46  1   
 48  23  47  1   
 49  23  48  1   
@<TRIPOS>SUBSTRUCTURE
  1 ****  12 GROUP 4 **** **** 0

# MOE 2024.06 (io_trps.svl 2023.06)
