@<TRIPOS>MOLECULE
NONAME
45 47 1 0 0 
SMALL
USER_CHARGES


@<TRIPOS>ATOM
  1 O       -0.3780     0.0120     0.1560 O.2   1 <1>  -0.5700 
  2 C       -1.3590     0.7180    -0.0270 C.2   1 <1>   0.7160 
  3 N       -2.5870     0.0800     0.0250 N.am  1 <1>  -0.6600 
  4 C       -1.2140     2.1570    -0.2770 C.2   1 <1>   0.2030 
  5 C       -3.9170     0.7380    -0.0080 C.3   1 <1>   0.1400 
  6 C       -2.7410    -1.3920     0.1020 C.3   1 <1>   0.1400 
  7 N       -2.1120     2.9300    -0.8730 N.2   1 <1>  -0.7070 
  8 C       -0.0900     2.9350     0.0750 C.2   1 <1>  -0.1810 
  9 C       -4.8810    -0.3320     0.4990 C.3   1 <1>   0.2000 
 10 C       -4.2510    -1.6420     0.0130 C.3   1 <1>  -0.0800 
 11 N       -1.5750     4.1530    -0.9060 N.pl3 1 <1>   0.3000 
 12 C       -0.3540     4.1910    -0.3420 C.2   1 <1>  -0.3320 
 13 C        1.1590     2.4410     0.7880 C.3   1 <1>  -0.0590 
 14 O       -4.8710    -0.3010     1.8860 O.3   1 <1>  -0.6800 
 15 C       -4.7160    -2.9130     0.7470 C.3   1 <1>  -0.0170 
 16 C        0.4670     5.4670    -0.2620 C.3   1 <1>   0.0200 
 17 C       -4.0840    -4.1530     0.1350 C.ar  1 <1>  -0.1430 
 18 C       -0.1260     6.4180     0.7780 C.3   1 <1>  -0.2400 
 19 C       -4.5970    -4.7450    -1.0010 C.ar  1 <1>  -0.1500 
 20 C       -2.9630    -4.7490     0.6800 C.ar  1 <1>  -0.1500 
 21 C       -3.9800    -5.8690    -1.5260 C.ar  1 <1>   0.1600 
 22 C       -2.4230    -5.8720     0.0750 C.ar  1 <1>   0.1600 
 23 N       -2.9040    -6.4450    -1.0160 N.ar  1 <1>  -0.6200 
 24 H       -3.9440     1.6250     0.6030 H     1 <1>   0.0800 
 25 H       -4.1510     0.9980    -1.0260 H     1 <1>   0.0800 
 26 H       -2.2120    -1.8750    -0.7040 H     1 <1>   0.0800 
 27 H       -2.3460    -1.7360     1.0420 H     1 <1>   0.0800 
 28 H       -5.8920    -0.1880     0.1580 H     1 <1>   0.0800 
 29 H       -4.4920    -1.7490    -1.0300 H     1 <1>   0.0800 
 30 H       -2.0600     4.9570    -1.3210 H     1 <1>   0.2700 
 31 H        0.8850     1.9090     1.6820 H     1 <1>   0.0800 
 32 H        1.8000     3.2560     1.0650 H     1 <1>   0.0800 
 33 H        1.7050     1.7740     0.1450 H     1 <1>   0.0800 
 34 H       -3.9430    -0.2240     2.1860 H     1 <1>   0.4000 
 35 H       -5.7880    -2.9900     0.6830 H     1 <1>   0.0800 
 36 H       -4.4610    -2.8580     1.7910 H     1 <1>   0.0800 
 37 H        1.4820     5.2360     0.0070 H     1 <1>   0.0800 
 38 H        0.4900     5.9450    -1.2260 H     1 <1>   0.0800 
 39 H       -0.1520     5.9370     1.7410 H     1 <1>   0.0800 
 40 H       -1.1260     6.7010     0.5070 H     1 <1>   0.0800 
 41 H        0.4770     7.3060     0.8520 H     1 <1>   0.0800 
 42 H       -5.4680    -4.3430    -1.4830 H     1 <1>   0.1500 
 43 H       -2.5040    -4.3510     1.5660 H     1 <1>   0.1500 
 44 H       -4.3940    -6.3170    -2.4130 H     1 <1>   0.1500 
 45 H       -1.5490    -6.3220     0.5130 H     1 <1>   0.1500 
@<TRIPOS>BOND
  1   1   2  2   
  2   2   3  am  
  3   2   4  1   
  4   3   5  1   
  5   3   6  1   
  6   4   7  2   
  7   4   8  1   
  8   5   9  1   
  9   5  24  1   
 10   5  25  1   
 11   6  10  1   
 12   6  26  1   
 13   6  27  1   
 14   7  11  1   
 15   8  12  2   
 16   8  13  1   
 17   9  10  1   
 18   9  14  1   
 19   9  28  1   
 20  10  15  1   
 21  10  29  1   
 22  11  12  1   
 23  11  30  1   
 24  12  16  1   
 25  13  31  1   
 26  13  32  1   
 27  13  33  1   
 28  14  34  1   
 29  15  17  1   
 30  15  35  1   
 31  15  36  1   
 32  16  18  1   
 33  16  37  1   
 34  16  38  1   
 35  17  19  ar  
 36  17  20  ar  
 37  18  39  1   
 38  18  40  1   
 39  18  41  1   
 40  19  21  ar  
 41  19  42  1   
 42  20  22  ar  
 43  20  43  1   
 44  21  23  ar  
 45  21  44  1   
 46  22  23  ar  
 47  22  45  1   
@<TRIPOS>SUBSTRUCTURE
  1 ****   3 GROUP 4 **** **** 0

# MOE 2024.06 (io_trps.svl 2023.06)
