@<TRIPOS>MOLECULE
NONAME
51 54 1 0 0 
SMALL
USER_CHARGES


@<TRIPOS>ATOM
  1 O        0.8770    -0.3570    -0.9760 O.2   1 <1>  -0.5700 
  2 C        1.8490    -0.9940    -0.6200 C.2   1 <1>   0.5440 
  3 N        3.0770    -0.3680    -0.5660 N.am  1 <1>  -0.6600 
  4 C        1.6730    -2.3780    -0.2580 C.ar  1 <1>   0.0860 
  5 C        4.2000    -0.8290     0.3170 C.3   1 <1>   0.1400 
  6 C        3.3030     0.9080    -1.3070 C.3   1 <1>   0.1400 
  7 C        2.5130    -3.3810    -0.7000 C.ar  1 <1>   0.1600 
  8 C        0.6380    -2.7920     0.5550 C.ar  1 <1>   0.1600 
  9 C        4.5900     0.2170     1.3710 C.3   1 <1>   0.1400 
 10 C        3.1110     2.1080    -0.3710 C.3   1 <1>  -0.1600 
 11 N        2.3750    -4.6420    -0.3550 N.ar  1 <1>  -0.6200 
 12 N        0.4670    -4.0450     0.9230 N.ar  1 <1>  -0.6200 
 13 N        5.2660     1.3870     0.7360 N.am  1 <1>  -0.6600 
 14 C        4.3730     2.5330     0.3950 C.3   1 <1>   0.1400 
 15 C        1.3500    -4.9080     0.4420 C.ar  1 <1>   0.5880 
 16 C        6.6160     1.3180     0.4740 C.2   1 <1>   0.5690 
 17 C        1.1740    -6.3620     0.8590 C.3   1 <1>  -0.0680 
 18 O        7.2270     0.2940     0.6830 O.2   1 <1>  -0.5700 
 19 C        7.3850     2.5210    -0.0960 C.3   1 <1>  -0.0190 
 20 C        1.0670    -7.4570    -0.1650 C.3   1 <1>  -0.2000 
 21 C       -0.1290    -7.0800     0.6500 C.3   1 <1>  -0.2000 
 22 C        8.8290     2.2420    -0.5280 C.3   1 <1>  -0.1600 
 23 C        7.5500     3.6770     0.8980 C.3   1 <1>  -0.1600 
 24 C        9.4810     3.6210    -0.6190 C.3   1 <1>  -0.1600 
 25 C        8.7250     4.5100     0.3760 C.3   1 <1>  -0.1600 
 26 H        5.0610    -1.0650    -0.2850 H     1 <1>   0.0800 
 27 H        3.9160    -1.7220     0.8420 H     1 <1>   0.0800 
 28 H        2.5910     0.9760    -2.1130 H     1 <1>   0.0800 
 29 H        4.2870     0.9130    -1.7430 H     1 <1>   0.0800 
 30 H        3.3270    -3.1280    -1.3590 H     1 <1>   0.1500 
 31 H       -0.0670    -2.0600     0.9120 H     1 <1>   0.1500 
 32 H        5.2670    -0.2370     2.0740 H     1 <1>   0.0800 
 33 H        3.7210     0.5340     1.9190 H     1 <1>   0.0800 
 34 H        2.3120     1.8990     0.3190 H     1 <1>   0.0800 
 35 H        2.7920     2.9480    -0.9590 H     1 <1>   0.0800 
 36 H        4.0880     3.0380     1.3030 H     1 <1>   0.0800 
 37 H        4.9000     3.2430    -0.2130 H     1 <1>   0.0800 
 38 H        1.7190    -6.5780     1.7590 H     1 <1>   0.1000 
 39 H        6.8670     2.8780    -0.9670 H     1 <1>   0.0800 
 40 H        1.5630    -8.3910     0.0330 H     1 <1>   0.1000 
 41 H        1.0920    -7.1880    -1.2070 H     1 <1>   0.1000 
 42 H       -0.9360    -6.5470     0.1760 H     1 <1>   0.1000 
 43 H       -0.4730    -7.7480     1.4200 H     1 <1>   0.1000 
 44 H        8.8750     1.7050    -1.4590 H     1 <1>   0.0800 
 45 H        9.3320     1.6680     0.2320 H     1 <1>   0.0800 
 46 H        7.8060     3.2730     1.8640 H     1 <1>   0.0800 
 47 H        6.6570     4.2670     0.9950 H     1 <1>   0.0800 
 48 H        9.3590     4.0120    -1.6150 H     1 <1>   0.0800 
 49 H       10.5320     3.5710    -0.3900 H     1 <1>   0.0800 
 50 H        9.3640     4.8070     1.1900 H     1 <1>   0.0800 
 51 H        8.3660     5.3930    -0.1250 H     1 <1>   0.0800 
@<TRIPOS>BOND
  1   1   2  2   
  2   2   3  am  
  3   2   4  1   
  4   3   5  1   
  5   3   6  1   
  6   4   7  ar  
  7   4   8  ar  
  8   5   9  1   
  9   5  26  1   
 10   5  27  1   
 11   6  10  1   
 12   6  28  1   
 13   6  29  1   
 14   7  11  ar  
 15   7  30  1   
 16   8  12  ar  
 17   8  31  1   
 18   9  13  1   
 19   9  32  1   
 20   9  33  1   
 21  10  14  1   
 22  10  34  1   
 23  10  35  1   
 24  11  15  ar  
 25  12  15  ar  
 26  13  14  1   
 27  13  16  am  
 28  14  36  1   
 29  14  37  1   
 30  15  17  1   
 31  16  18  2   
 32  16  19  1   
 33  17  20  1   
 34  17  21  1   
 35  17  38  1   
 36  19  22  1   
 37  19  23  1   
 38  19  39  1   
 39  20  21  1   
 40  20  40  1   
 41  20  41  1   
 42  21  42  1   
 43  21  43  1   
 44  22  24  1   
 45  22  44  1   
 46  22  45  1   
 47  23  25  1   
 48  23  46  1   
 49  23  47  1   
 50  24  25  1   
 51  24  48  1   
 52  24  49  1   
 53  25  50  1   
 54  25  51  1   
@<TRIPOS>SUBSTRUCTURE
  1 ****   5 GROUP 4 **** **** 0

# MOE 2024.06 (io_trps.svl 2023.06)
