@<TRIPOS>MOLECULE
NONAME
40 42 1 0 0 
SMALL
USER_CHARGES


@<TRIPOS>ATOM
  1 S       -2.1940     2.3130     0.4150 S.3   1 <1>  -0.0800 
  2 C       -2.0490     0.5710     0.5870 C.2   1 <1>  -0.1400 
  3 C       -1.2070     2.2990    -1.0350 C.2   1 <1>  -0.1100 
  4 C       -1.2940     0.0630    -0.4060 C.2   1 <1>  -0.1500 
  5 C       -2.7620    -0.0640     1.7720 C.3   1 <1>   0.0810 
  6 C       -0.8160     1.0460    -1.3300 C.2   1 <1>  -0.1500 
  7 C       -2.8930    -1.5750     1.6530 C.2   1 <1>   0.5690 
  8 O       -2.3110    -2.2650     2.4560 O.2   1 <1>  -0.5700 
  9 N       -3.6650    -2.1340     0.6690 N.am  1 <1>  -0.6600 
 10 C       -4.4610    -1.4160    -0.3620 C.3   1 <1>   0.1400 
 11 C       -3.7790    -3.6010     0.4710 C.3   1 <1>   0.1400 
 12 C       -5.4600    -2.4610    -0.8550 C.3   1 <1>   0.2000 
 13 C       -4.6730    -3.7710    -0.7630 C.3   1 <1>  -0.0800 
 14 O       -6.5200    -2.4920     0.0390 O.3   1 <1>  -0.6800 
 15 C       -5.5190    -5.0570    -0.7460 C.3   1 <1>   0.0210 
 16 C       -4.6330    -6.2830    -0.6380 C.2   1 <1>   0.1080 
 17 N       -3.7350    -6.5840    -1.5250 N.2   1 <1>  -0.7070 
 18 C       -4.6690    -7.2010     0.4060 C.2   1 <1>  -0.1500 
 19 N       -3.1700    -7.7160    -1.0660 N.pl3 1 <1>   0.3000 
 20 C       -3.7180    -8.1090     0.1040 C.2   1 <1>  -0.3320 
 21 C       -3.2910    -9.3460     0.8720 C.3   1 <1>  -0.0600 
 22 H       -1.0210     3.2420    -1.5170 H     1 <1>   0.1500 
 23 H       -1.0450    -0.9780    -0.5320 H     1 <1>   0.1500 
 24 H       -2.2190     0.1700     2.6690 H     1 <1>   0.0800 
 25 H       -3.7460     0.3550     1.8680 H     1 <1>   0.0800 
 26 H       -0.2020     0.7620    -2.1670 H     1 <1>   0.1500 
 27 H       -4.9580    -0.5470     0.0330 H     1 <1>   0.0800 
 28 H       -3.8100    -1.1250    -1.1680 H     1 <1>   0.0800 
 29 H       -2.8090    -4.0440     0.3150 H     1 <1>   0.0800 
 30 H       -4.2310    -4.0410     1.3430 H     1 <1>   0.0800 
 31 H       -5.8420    -2.2550    -1.8400 H     1 <1>   0.0800 
 32 H       -4.0210    -3.8190    -1.6190 H     1 <1>   0.0800 
 33 H       -6.1580    -2.5590     0.9450 H     1 <1>   0.4000 
 34 H       -6.0900    -5.1240    -1.6540 H     1 <1>   0.0800 
 35 H       -6.2070    -5.0490     0.0800 H     1 <1>   0.0800 
 36 H       -5.3240    -7.1690     1.2580 H     1 <1>   0.1500 
 37 H       -2.4150    -8.1940    -1.5720 H     1 <1>   0.2700 
 38 H       -3.8760    -9.4430     1.7700 H     1 <1>   0.0800 
 39 H       -2.2540    -9.2760     1.1450 H     1 <1>   0.0800 
 40 H       -3.4380   -10.2260     0.2710 H     1 <1>   0.0800 
@<TRIPOS>BOND
  1   1   2  1   
  2   1   3  1   
  3   2   4  2   
  4   2   5  1   
  5   3   6  2   
  6   3  22  1   
  7   4   6  1   
  8   4  23  1   
  9   5   7  1   
 10   5  24  1   
 11   5  25  1   
 12   6  26  1   
 13   7   8  2   
 14   7   9  am  
 15   9  10  1   
 16   9  11  1   
 17  10  12  1   
 18  10  27  1   
 19  10  28  1   
 20  11  13  1   
 21  11  29  1   
 22  11  30  1   
 23  12  13  1   
 24  12  14  1   
 25  12  31  1   
 26  13  15  1   
 27  13  32  1   
 28  14  33  1   
 29  15  16  1   
 30  15  34  1   
 31  15  35  1   
 32  16  17  2   
 33  16  18  1   
 34  17  19  1   
 35  18  20  2   
 36  18  36  1   
 37  19  20  1   
 38  19  37  1   
 39  20  21  1   
 40  21  38  1   
 41  21  39  1   
 42  21  40  1   
@<TRIPOS>SUBSTRUCTURE
  1 ****  11 GROUP 4 **** **** 0

# MOE 2024.06 (io_trps.svl 2023.06)
