@<TRIPOS>MOLECULE
NONAME
41 43 1 0 0 
SMALL
USER_CHARGES


@<TRIPOS>ATOM
  1 O       -3.8080    -2.7390    -2.1230 O.co2 1 <1>  -0.9000 
  2 C       -3.0270    -2.0700    -1.4110 C.2   1 <1>   1.0330 
  3 O       -1.9740    -2.6390    -1.0780 O.co2 1 <1>  -0.9000 
  4 C       -3.5620    -0.9820    -0.5910 C.2   1 <1>   0.0560 
  5 N       -3.6990     0.3140    -0.8240 N.2   1 <1>  -0.7070 
  6 C       -4.0780    -1.2990     0.6740 C.2   1 <1>  -0.1810 
  7 N       -4.2770     0.8160     0.2750 N.pl3 1 <1>   0.3000 
  8 C       -4.5240    -0.1370     1.1960 C.2   1 <1>  -0.3020 
  9 C       -4.0630    -2.7220     1.2140 C.3   1 <1>   0.5240 
 10 N       -4.7890    -3.6200     0.2770 N.4   1 <1>  -0.9590 
 11 C       -6.1390    -3.1680    -0.1630 C.3   1 <1>   0.3430 
 12 C       -4.8360    -5.0540     0.6320 C.3   1 <1>   0.3430 
 13 C       -7.0490    -4.3970    -0.0630 C.3   1 <1>   0.2000 
 14 C       -6.0840    -5.5870    -0.0690 C.3   1 <1>  -0.0800 
 15 O       -7.7450    -4.3460     1.1420 O.3   1 <1>  -0.6800 
 16 C       -6.6220    -6.8940     0.5460 C.3   1 <1>   0.0210 
 17 C       -5.5350    -7.9460     0.6170 C.2   1 <1>   0.1080 
 18 N       -4.5660    -7.8900     1.4780 N.2   1 <1>  -0.7070 
 19 C       -5.4450    -9.0620    -0.2080 C.2   1 <1>  -0.1500 
 20 N       -3.8250    -8.9890     1.2260 N.pl3 1 <1>   0.3000 
 21 C       -4.3370    -9.7110     0.2070 C.2   1 <1>  -0.3320 
 22 C       -3.7280   -10.9990    -0.3160 C.3   1 <1>  -0.0600 
 23 H       -4.4880     1.8180     0.3650 H     1 <1>   0.2700 
 24 H       -4.9860     0.0740     2.1420 H     1 <1>   0.1500 
 25 H       -4.5230    -2.7470     2.1870 H     1 <1>   0.0800 
 26 H       -3.0380    -3.0500     1.3030 H     1 <1>   0.0800 
 27 H       -4.2310    -3.5640    -0.6160 H     1 <1>   0.4500 
 28 H       -6.5130    -2.3600     0.4430 H     1 <1>   0.0800 
 29 H       -6.0740    -2.8390    -1.1890 H     1 <1>   0.0800 
 30 H       -3.9480    -5.5730     0.3030 H     1 <1>   0.0800 
 31 H       -4.9400    -5.1750     1.6970 H     1 <1>   0.0800 
 32 H       -7.7680    -4.4320    -0.8640 H     1 <1>   0.0800 
 33 H       -5.8030    -5.7880    -1.0890 H     1 <1>   0.0800 
 34 H       -7.1400    -4.3700     1.9080 H     1 <1>   0.4000 
 35 H       -7.4440    -7.2610    -0.0430 H     1 <1>   0.0800 
 36 H       -6.9820    -6.7330     1.5470 H     1 <1>   0.0800 
 37 H       -6.1250    -9.3280    -0.9980 H     1 <1>   0.1500 
 38 H       -2.9810    -9.2230     1.7630 H     1 <1>   0.2700 
 39 H       -4.3150   -11.3810    -1.1320 H     1 <1>   0.0800 
 40 H       -3.7010   -11.7410     0.4620 H     1 <1>   0.0800 
 41 H       -2.7270   -10.8220    -0.6680 H     1 <1>   0.0800 
@<TRIPOS>BOND
  1   1   2  ar  
  2   2   3  ar  
  3   2   4  1   
  4   4   5  2   
  5   4   6  1   
  6   5   7  1   
  7   6   8  2   
  8   6   9  1   
  9   7   8  1   
 10   7  23  1   
 11   8  24  1   
 12   9  10  1   
 13   9  25  1   
 14   9  26  1   
 15  10  11  1   
 16  10  12  1   
 17  10  27  1   
 18  11  13  1   
 19  11  28  1   
 20  11  29  1   
 21  12  14  1   
 22  12  30  1   
 23  12  31  1   
 24  13  14  1   
 25  13  15  1   
 26  13  32  1   
 27  14  16  1   
 28  14  33  1   
 29  15  34  1   
 30  16  17  1   
 31  16  35  1   
 32  16  36  1   
 33  17  18  2   
 34  17  19  1   
 35  18  20  1   
 36  19  21  2   
 37  19  37  1   
 38  20  21  1   
 39  20  38  1   
 40  21  22  1   
 41  22  39  1   
 42  22  40  1   
 43  22  41  1   
@<TRIPOS>SUBSTRUCTURE
  1 ****  12 GROUP 4 **** **** 0

# MOE 2024.06 (io_trps.svl 2023.06)
