@<TRIPOS>MOLECULE
NONAME
40 41 1 0 0 
SMALL
USER_CHARGES


@<TRIPOS>ATOM
  1 F        0.2960     1.1150    -1.2190 F     1 <1>  -0.1900 
  2 C        1.4460     1.6340    -0.8870 C.ar  1 <1>   0.1900 
  3 C        1.9290     2.7040    -1.6120 C.ar  1 <1>  -0.1500 
  4 C        2.1380     1.0940     0.1790 C.ar  1 <1>  -0.1500 
  5 C        3.1490     3.2540    -1.2540 C.ar  1 <1>  -0.1500 
  6 C        3.3570     1.6500     0.5310 C.ar  1 <1>  -0.1500 
  7 C        3.8680     2.7330    -0.1790 C.ar  1 <1>  -0.1430 
  8 C        5.2060     3.3340     0.2410 C.3   1 <1>   0.5670 
  9 N        4.9910     4.7560     0.6120 N.4   1 <1>  -0.9590 
 10 C        6.2210     3.1970    -0.8940 C.3   1 <1>  -0.2400 
 11 C        6.2180     5.5450     0.8960 C.3   1 <1>   0.5230 
 12 C        3.9290     4.9590     1.6430 C.3   1 <1>   0.2630 
 13 C        6.4180     6.4950    -0.2790 C.2   1 <1>   0.0070 
 14 N        5.5640     6.5990    -1.2550 N.2   1 <1>  -0.5650 
 15 N        7.4940     7.3120    -0.4070 N.pl3 1 <1>   0.0480 
 16 C        6.1070     7.5300    -2.0600 C.2   1 <1>   0.0770 
 17 C        7.2790     7.9720    -1.5590 C.2   1 <1>  -0.3020 
 18 C        8.6710     7.4910     0.4740 C.3   1 <1>   0.0960 
 19 C        8.3330     8.4120     1.6500 C.3   1 <1>  -0.2400 
 20 H        1.3600     3.0930    -2.4390 H     1 <1>   0.1500 
 21 H        1.7270     0.2560     0.7150 H     1 <1>   0.1500 
 22 H        3.5250     4.0870    -1.8250 H     1 <1>   0.1500 
 23 H        3.8980     1.2250     1.3600 H     1 <1>   0.1500 
 24 H        5.5700     2.7930     1.0990 H     1 <1>   0.0800 
 25 H        4.6660     5.2120    -0.2640 H     1 <1>   0.4500 
 26 H        5.9460     3.8030    -1.7400 H     1 <1>   0.0800 
 27 H        6.2480     2.1720    -1.2190 H     1 <1>   0.0800 
 28 H        7.2120     3.4580    -0.5730 H     1 <1>   0.0800 
 29 H        7.0740     4.9000     1.0040 H     1 <1>   0.0800 
 30 H        6.0960     6.1190     1.7980 H     1 <1>   0.0800 
 31 H        4.2200     4.5120     2.5790 H     1 <1>   0.0800 
 32 H        3.0030     4.5100     1.3200 H     1 <1>   0.0800 
 33 H        3.7550     6.0120     1.7960 H     1 <1>   0.0800 
 34 H        5.6230     7.8420    -2.9720 H     1 <1>   0.1500 
 35 H        7.9540     8.7090    -1.9570 H     1 <1>   0.1500 
 36 H        9.4700     7.9230    -0.1040 H     1 <1>   0.0800 
 37 H        9.0000     6.5310     0.8300 H     1 <1>   0.0800 
 38 H        8.0200     9.3770     1.2880 H     1 <1>   0.0800 
 39 H        9.2070     8.5530     2.2620 H     1 <1>   0.0800 
 40 H        7.5560     7.9940     2.2630 H     1 <1>   0.0800 
@<TRIPOS>BOND
  1   1   2  1   
  2   2   3  ar  
  3   2   4  ar  
  4   3   5  ar  
  5   3  20  1   
  6   4   6  ar  
  7   4  21  1   
  8   5   7  ar  
  9   5  22  1   
 10   6   7  ar  
 11   6  23  1   
 12   7   8  1   
 13   8   9  1   
 14   8  10  1   
 15   8  24  1   
 16   9  11  1   
 17   9  12  1   
 18   9  25  1   
 19  10  26  1   
 20  10  27  1   
 21  10  28  1   
 22  11  13  1   
 23  11  29  1   
 24  11  30  1   
 25  12  31  1   
 26  12  32  1   
 27  12  33  1   
 28  13  14  2   
 29  13  15  1   
 30  14  16  1   
 31  15  17  1   
 32  15  18  1   
 33  16  17  2   
 34  16  34  1   
 35  17  35  1   
 36  18  19  1   
 37  18  36  1   
 38  18  37  1   
 39  19  38  1   
 40  19  39  1   
 41  19  40  1   
@<TRIPOS>SUBSTRUCTURE
  1 ****   9 GROUP 4 **** **** 0

# MOE 2024.06 (io_trps.svl 2023.06)
