@<TRIPOS>MOLECULE
NONAME
40 41 1 0 0 
SMALL
USER_CHARGES


@<TRIPOS>ATOM
  1 CL       0.6030     1.1850     2.1730 Cl    1 <1>  -0.1770 
  2 C        2.0230     1.6330     1.2530 C.ar  1 <1>   0.1770 
  3 C        2.3150     2.9500     0.9970 C.ar  1 <1>   0.1600 
  4 C        2.8820     0.6800     0.7650 C.ar  1 <1>   0.1600 
  5 N        3.3790     3.3030     0.3070 N.ar  1 <1>  -0.6200 
  6 N        3.9520     1.0050     0.0730 N.ar  1 <1>  -0.6200 
  7 C        4.1570     2.3080    -0.1330 C.ar  1 <1>   0.7200 
  8 N        5.2780     2.6620    -0.8610 N.pl3 1 <1>  -0.8380 
  9 C        5.3920     3.9960    -1.4950 C.3   1 <1>   0.2090 
 10 C        6.2420     1.6270    -1.3410 C.3   1 <1>   0.1290 
 11 C        6.1090     4.9270    -0.5130 C.3   1 <1>  -0.1600 
 12 C        6.3310     6.3510    -1.0460 C.3   1 <1>   0.4230 
 13 N        6.9730     7.1810     0.0150 N.4   1 <1>  -0.9590 
 14 C        5.0090     7.0160    -1.4480 C.3   1 <1>  -0.2400 
 15 C        7.2970     8.5730    -0.3930 C.3   1 <1>   0.3430 
 16 C        8.2420     6.6330     0.5620 C.3   1 <1>   0.3430 
 17 C        8.2940     9.0640     0.6490 C.3   1 <1>  -0.1600 
 18 C        8.8860     7.8060     1.2870 C.3   1 <1>  -0.1600 
 19 H        1.6590     3.7180     1.3670 H     1 <1>   0.1500 
 20 H        2.6840    -0.3610     0.9490 H     1 <1>   0.1500 
 21 H        4.4050     4.3590    -1.7310 H     1 <1>   0.0800 
 22 H        5.9430     3.9160    -2.4170 H     1 <1>   0.0800 
 23 H        6.4140     0.8920    -0.5720 H     1 <1>   0.0800 
 24 H        7.1860     2.0770    -1.5930 H     1 <1>   0.0800 
 25 H        5.8400     1.1320    -2.2080 H     1 <1>   0.0800 
 26 H        7.0540     4.4680    -0.2910 H     1 <1>   0.0800 
 27 H        5.5270     4.9740     0.3900 H     1 <1>   0.0800 
 28 H        6.9790     6.3060    -1.9070 H     1 <1>   0.0800 
 29 H        6.3100     7.2380     0.7980 H     1 <1>   0.4500 
 30 H        4.3210     7.0310    -0.6210 H     1 <1>   0.0800 
 31 H        4.5470     6.4760    -2.2540 H     1 <1>   0.0800 
 32 H        5.1580     8.0170    -1.8080 H     1 <1>   0.0800 
 33 H        6.4180     9.1970    -0.4220 H     1 <1>   0.0800 
 34 H        7.7650     8.5680    -1.3640 H     1 <1>   0.0800 
 35 H        8.8810     6.3150    -0.2470 H     1 <1>   0.0800 
 36 H        8.0670     5.8030     1.2280 H     1 <1>   0.0800 
 37 H        7.7870     9.6600     1.3890 H     1 <1>   0.0800 
 38 H        9.0510     9.6700     0.1830 H     1 <1>   0.0800 
 39 H        9.9570     7.7700     1.1870 H     1 <1>   0.0800 
 40 H        8.6390     7.7640     2.3340 H     1 <1>   0.0800 
@<TRIPOS>BOND
  1   1   2  1   
  2   2   3  ar  
  3   2   4  ar  
  4   3   5  ar  
  5   3  19  1   
  6   4   6  ar  
  7   4  20  1   
  8   5   7  ar  
  9   6   7  ar  
 10   7   8  1   
 11   8   9  1   
 12   8  10  1   
 13   9  11  1   
 14   9  21  1   
 15   9  22  1   
 16  10  23  1   
 17  10  24  1   
 18  10  25  1   
 19  11  12  1   
 20  11  26  1   
 21  11  27  1   
 22  12  13  1   
 23  12  14  1   
 24  12  28  1   
 25  13  15  1   
 26  13  16  1   
 27  13  29  1   
 28  14  30  1   
 29  14  31  1   
 30  14  32  1   
 31  15  17  1   
 32  15  33  1   
 33  15  34  1   
 34  16  18  1   
 35  16  35  1   
 36  16  36  1   
 37  17  18  1   
 38  17  37  1   
 39  17  38  1   
 40  18  39  1   
 41  18  40  1   
@<TRIPOS>SUBSTRUCTURE
  1 ****  11 GROUP 4 **** **** 0

# MOE 2024.06 (io_trps.svl 2023.06)
