@<TRIPOS>MOLECULE
NONAME
55 57 1 0 0 
SMALL
USER_CHARGES


@<TRIPOS>ATOM
  1 O       -0.8990     0.4500    -0.5570 O.2   1 <1>  -0.5700 
  2 C       -1.2570     1.4680     0.0180 C.2   1 <1>   0.7150 
  3 N       -2.4370     1.3860     0.7420 N.am  1 <1>  -0.6600 
  4 C       -0.4600     2.6870    -0.0880 C.2   1 <1>   0.1010 
  5 C       -2.9490     0.0590     1.1850 C.3   1 <1>   0.1400 
  6 C       -3.2280     2.5890     1.1280 C.3   1 <1>   0.1400 
  7 N       -0.4530     3.6880     0.7720 N.2   1 <1>  -0.5650 
  8 N        0.4060     2.9230    -1.1240 N.pl3 1 <1>   0.0480 
  9 C       -3.8810    -0.5500     0.1260 C.3   1 <1>   0.1400 
 10 C       -4.7460     2.3850     1.0140 C.3   1 <1>  -0.1600 
 11 C        0.4240     4.5650     0.2760 C.2   1 <1>   0.0770 
 12 C        0.9580     4.1190    -0.8780 C.2   1 <1>  -0.3020 
 13 C        0.7180     2.0840    -2.3000 C.3   1 <1>   0.0160 
 14 N       -5.2190     0.1320     0.0710 N.am  1 <1>  -0.6600 
 15 C       -5.1730     1.5970    -0.2290 C.3   1 <1>   0.1400 
 16 C       -6.4260    -0.4920     0.2750 C.2   1 <1>   0.5690 
 17 O       -7.4710     0.1210     0.3070 O.2   1 <1>  -0.5700 
 18 C       -6.5340    -2.0180     0.4630 C.3   1 <1>   0.4040 
 19 N       -7.9150    -2.5690     0.1620 N.4   1 <1>  -0.9590 
 20 C       -8.1780    -3.9420     0.6730 C.3   1 <1>   0.4230 
 21 C       -8.2120    -2.4250    -1.2960 C.3   1 <1>   0.3430 
 22 C       -9.6440    -4.3140     0.4050 C.3   1 <1>  -0.1600 
 23 C       -7.8980    -4.0180     2.1740 C.3   1 <1>  -0.2400 
 24 C       -9.6730    -2.7720    -1.5750 C.3   1 <1>  -0.1600 
 25 C      -10.0200    -4.1770    -1.0740 C.3   1 <1>  -0.1600 
 26 H       -3.4540     0.1490     2.1310 H     1 <1>   0.0800 
 27 H       -2.1110    -0.6030     1.3310 H     1 <1>   0.0800 
 28 H       -2.9620     3.4050     0.4780 H     1 <1>   0.0800 
 29 H       -2.9690     2.8770     2.1330 H     1 <1>   0.0800 
 30 H       -3.9970    -1.5910     0.3550 H     1 <1>   0.0800 
 31 H       -3.4050    -0.4840    -0.8380 H     1 <1>   0.0800 
 32 H       -5.1930     3.3610     0.9650 H     1 <1>   0.0800 
 33 H       -5.1310     1.9170     1.9020 H     1 <1>   0.0800 
 34 H        0.6380     5.4940     0.7810 H     1 <1>   0.1500 
 35 H        1.6860     4.5850    -1.5170 H     1 <1>   0.1500 
 36 H       -0.1960     1.8040    -2.7920 H     1 <1>   0.0800 
 37 H        1.2340     1.1990    -1.9760 H     1 <1>   0.0800 
 38 H        1.3400     2.6310    -2.9840 H     1 <1>   0.0800 
 39 H       -4.4980     1.7860    -1.0480 H     1 <1>   0.0800 
 40 H       -6.1490     1.9370    -0.5360 H     1 <1>   0.0800 
 41 H       -6.2760    -2.2210     1.4860 H     1 <1>   0.0800 
 42 H       -5.8100    -2.4990    -0.1690 H     1 <1>   0.0800 
 43 H       -8.5680    -1.9240     0.6350 H     1 <1>   0.4500 
 44 H       -7.5440    -4.6460     0.1570 H     1 <1>   0.0800 
 45 H       -7.5730    -3.0800    -1.8660 H     1 <1>   0.0800 
 46 H       -8.0280    -1.4090    -1.6120 H     1 <1>   0.0800 
 47 H      -10.2900    -3.6890     0.9990 H     1 <1>   0.0800 
 48 H       -9.8140    -5.3320     0.7130 H     1 <1>   0.0800 
 49 H       -8.4280    -3.2490     2.7080 H     1 <1>   0.0800 
 50 H       -6.8470    -3.9510     2.3830 H     1 <1>   0.0800 
 51 H       -8.2280    -4.9700     2.5530 H     1 <1>   0.0800 
 52 H       -9.8520    -2.7160    -2.6350 H     1 <1>   0.0800 
 53 H      -10.3080    -2.0430    -1.1020 H     1 <1>   0.0800 
 54 H      -11.0740    -4.3610    -1.2030 H     1 <1>   0.0800 
 55 H       -9.4860    -4.9120    -1.6540 H     1 <1>   0.0800 
@<TRIPOS>BOND
  1   1   2  2   
  2   2   3  am  
  3   2   4  1   
  4   3   5  1   
  5   3   6  1   
  6   4   7  2   
  7   4   8  1   
  8   5   9  1   
  9   5  26  1   
 10   5  27  1   
 11   6  10  1   
 12   6  28  1   
 13   6  29  1   
 14   7  11  1   
 15   8  12  1   
 16   8  13  1   
 17   9  14  1   
 18   9  30  1   
 19   9  31  1   
 20  10  15  1   
 21  10  32  1   
 22  10  33  1   
 23  11  12  2   
 24  11  34  1   
 25  12  35  1   
 26  13  36  1   
 27  13  37  1   
 28  13  38  1   
 29  14  15  1   
 30  14  16  am  
 31  15  39  1   
 32  15  40  1   
 33  16  17  2   
 34  16  18  1   
 35  18  19  1   
 36  18  41  1   
 37  18  42  1   
 38  19  20  1   
 39  19  21  1   
 40  19  43  1   
 41  20  22  1   
 42  20  23  1   
 43  20  44  1   
 44  21  24  1   
 45  21  45  1   
 46  21  46  1   
 47  22  25  1   
 48  22  47  1   
 49  22  48  1   
 50  23  49  1   
 51  23  50  1   
 52  23  51  1   
 53  24  25  1   
 54  24  52  1   
 55  24  53  1   
 56  25  54  1   
 57  25  55  1   
@<TRIPOS>SUBSTRUCTURE
  1 ****  14 GROUP 4 **** **** 0

# MOE 2024.06 (io_trps.svl 2023.06)
