@<TRIPOS>MOLECULE
NONAME
36 37 1 0 0 
SMALL
USER_CHARGES


@<TRIPOS>ATOM
  1 O        0.2410    -0.0860    -1.0390 O.2   1 <1>  -0.5700 
  2 C        1.1750     0.3650    -0.3990 C.2   1 <1>   0.5440 
  3 N        0.9750     1.5150     0.3200 N.am  1 <1>  -0.7300 
  4 C        2.4700    -0.2780    -0.3910 C.ar  1 <1>   0.0860 
  5 C       -0.2950     2.2840     0.3870 C.3   1 <1>   0.0600 
  6 C        2.6000    -1.6800    -0.3270 C.ar  1 <1>   0.4100 
  7 C        3.6370     0.4750    -0.4400 C.ar  1 <1>  -0.1500 
  8 N        3.7710    -2.3160    -0.2980 N.ar  1 <1>  -0.6200 
  9 N        1.4860    -2.4840    -0.2860 N.pl3 1 <1>  -0.8690 
 10 C        4.8440    -0.1850    -0.4130 C.ar  1 <1>  -0.1500 
 11 C        4.8530    -1.5660    -0.3400 C.ar  1 <1>   0.1600 
 12 C        1.5090    -3.9360    -0.5300 C.3   1 <1>   0.2090 
 13 C        0.1120    -4.4940    -0.2820 C.3   1 <1>  -0.1600 
 14 C        0.1060    -6.0200    -0.4320 C.3   1 <1>   0.0960 
 15 N       -1.2500    -6.5640    -0.2330 N.pl3 1 <1>   0.3140 
 16 N       -1.9950    -7.0070    -1.2610 N.2   1 <1>  -0.7070 
 17 C       -1.9040    -6.6990     0.9380 C.2   1 <1>  -0.3020 
 18 C       -3.1050    -7.4090    -0.7200 C.2   1 <1>   0.1390 
 19 C       -3.1080    -7.2420     0.6590 C.2   1 <1>  -0.1500 
 20 H        1.7160     1.8330     0.9470 H     1 <1>   0.3700 
 21 H       -1.0140     1.8890    -0.3110 H     1 <1>   0.0800 
 22 H       -0.1090     3.3160     0.1440 H     1 <1>   0.0800 
 23 H       -0.7060     2.2210     1.3800 H     1 <1>   0.0800 
 24 H        3.5990     1.5490    -0.5070 H     1 <1>   0.1500 
 25 H        0.6200    -2.0080    -0.5890 H     1 <1>   0.4000 
 26 H        5.7720     0.3580    -0.4490 H     1 <1>   0.1500 
 27 H        5.8020    -2.0750    -0.3180 H     1 <1>   0.1500 
 28 H        2.2190    -4.3950     0.1380 H     1 <1>   0.0800 
 29 H        1.8180    -4.1210    -1.5450 H     1 <1>   0.0800 
 30 H       -0.5720    -4.0650    -0.9950 H     1 <1>   0.0800 
 31 H       -0.1990    -4.2310     0.7140 H     1 <1>   0.0800 
 32 H        0.7620    -6.4720     0.2880 H     1 <1>   0.0800 
 33 H        0.4340    -6.2960    -1.4180 H     1 <1>   0.0800 
 34 H       -1.4860    -6.4060     1.8830 H     1 <1>   0.1500 
 35 H       -3.9230    -7.8230    -1.2860 H     1 <1>   0.1500 
 36 H       -3.9100    -7.4980     1.3280 H     1 <1>   0.1500 
@<TRIPOS>BOND
  1   1   2  2   
  2   2   3  am  
  3   2   4  1   
  4   3   5  1   
  5   3  20  1   
  6   4   6  ar  
  7   4   7  ar  
  8   5  21  1   
  9   5  22  1   
 10   5  23  1   
 11   6   8  ar  
 12   6   9  1   
 13   7  10  ar  
 14   7  24  1   
 15   8  11  ar  
 16   9  12  1   
 17   9  25  1   
 18  10  11  ar  
 19  10  26  1   
 20  11  27  1   
 21  12  13  1   
 22  12  28  1   
 23  12  29  1   
 24  13  14  1   
 25  13  30  1   
 26  13  31  1   
 27  14  15  1   
 28  14  32  1   
 29  14  33  1   
 30  15  16  1   
 31  15  17  1   
 32  16  18  2   
 33  17  19  2   
 34  17  34  1   
 35  18  19  1   
 36  18  35  1   
 37  19  36  1   
@<TRIPOS>SUBSTRUCTURE
  1 ****   9 GROUP 4 **** **** 0

# MOE 2024.06 (io_trps.svl 2023.06)
