@<TRIPOS>MOLECULE
NONAME
48 50 1 0 0 
SMALL
USER_CHARGES


@<TRIPOS>ATOM
  1 CL      -2.5660    -0.3550    -1.8350 Cl    1 <1>  -0.1770 
  2 C       -2.3400     0.3740    -0.2630 C.ar  1 <1>   0.1770 
  3 C       -3.4480     0.7480     0.4900 C.ar  1 <1>  -0.1440 
  4 C       -1.0510     0.5450     0.2030 C.ar  1 <1>  -0.1500 
  5 C       -3.2520     1.3110     1.7480 C.ar  1 <1>  -0.1500 
  6 C       -4.8530     0.5640    -0.0540 C.3   1 <1>   0.4870 
  7 C       -0.8920     1.1000     1.4560 C.ar  1 <1>   0.1900 
  8 C       -1.9660     1.4860     2.2370 C.ar  1 <1>  -0.1500 
  9 N       -5.4390    -0.6940     0.5030 N.4   1 <1>  -0.9590 
 10 F        0.3150     1.2650     1.9220 F     1 <1>  -0.1900 
 11 C       -4.7180    -1.9050    -0.0470 C.3   1 <1>   0.3430 
 12 C       -6.9030    -0.7350     0.2080 C.3   1 <1>   0.3430 
 13 C       -5.3360    -3.2750     0.3710 C.3   1 <1>   0.4230 
 14 C       -7.5100    -2.0400     0.7380 C.3   1 <1>  -0.1600 
 15 N       -4.6020    -4.5090    -0.1540 N.4   1 <1>  -0.9590 
 16 C       -6.8740    -3.3250     0.1400 C.3   1 <1>   0.0000 
 17 C       -5.4020    -5.7790    -0.0550 C.3   1 <1>   0.3430 
 18 C       -4.0630    -4.3780    -1.5520 C.3   1 <1>   0.2630 
 19 C       -7.4410    -4.5540     0.9050 C.3   1 <1>  -0.1600 
 20 C       -7.2840    -3.4540    -1.3570 C.3   1 <1>   0.1200 
 21 C       -6.4250    -5.7020     1.0810 C.3   1 <1>  -0.1600 
 22 O       -6.6220    -2.5310    -2.1530 O.3   1 <1>  -0.6800 
 23 H       -0.1960     0.2590    -0.3830 H     1 <1>   0.1500 
 24 H       -4.0830     1.6280     2.3570 H     1 <1>   0.1500 
 25 H       -4.8360     0.5250    -1.1320 H     1 <1>   0.0800 
 26 H       -5.4530     1.4110     0.2380 H     1 <1>   0.0800 
 27 H       -1.7900     1.9210     3.2070 H     1 <1>   0.1500 
 28 H       -5.3090    -0.6430     1.5230 H     1 <1>   0.4500 
 29 H       -4.7230    -1.8430    -1.1220 H     1 <1>   0.0800 
 30 H       -3.6920    -1.8800     0.2790 H     1 <1>   0.0800 
 31 H       -7.3970     0.1040     0.6730 H     1 <1>   0.0800 
 32 H       -7.0670    -0.6660    -0.8560 H     1 <1>   0.0800 
 33 H       -5.2230    -3.3080     1.4420 H     1 <1>   0.0800 
 34 H       -7.4160    -2.0350     1.8100 H     1 <1>   0.0800 
 35 H       -8.5660    -2.0310     0.5240 H     1 <1>   0.0800 
 36 H       -3.7880    -4.6560     0.4640 H     1 <1>   0.4500 
 37 H       -5.9300    -5.9510    -0.9790 H     1 <1>   0.0800 
 38 H       -4.7420    -6.6180     0.1040 H     1 <1>   0.0800 
 39 H       -4.8650    -4.2150    -2.2540 H     1 <1>   0.0800 
 40 H       -3.5420    -5.2790    -1.8370 H     1 <1>   0.0800 
 41 H       -3.3720    -3.5550    -1.6230 H     1 <1>   0.0800 
 42 H       -7.7760    -4.2750     1.8910 H     1 <1>   0.0800 
 43 H       -8.3140    -4.9290     0.3950 H     1 <1>   0.0800 
 44 H       -8.3440    -3.2900    -1.4700 H     1 <1>   0.0800 
 45 H       -7.0630    -4.4330    -1.7450 H     1 <1>   0.0800 
 46 H       -6.9580    -6.6370     1.1360 H     1 <1>   0.0800 
 47 H       -5.8990    -5.5920     2.0140 H     1 <1>   0.0800 
 48 H       -7.0010    -2.5320    -3.0630 H     1 <1>   0.4000 
@<TRIPOS>BOND
  1   1   2  1   
  2   2   3  ar  
  3   2   4  ar  
  4   3   5  ar  
  5   3   6  1   
  6   4   7  ar  
  7   4  23  1   
  8   5   8  ar  
  9   5  24  1   
 10   6   9  1   
 11   6  25  1   
 12   6  26  1   
 13   7   8  ar  
 14   7  10  1   
 15   8  27  1   
 16   9  11  1   
 17   9  12  1   
 18   9  28  1   
 19  11  13  1   
 20  11  29  1   
 21  11  30  1   
 22  12  14  1   
 23  12  31  1   
 24  12  32  1   
 25  13  15  1   
 26  13  16  1   
 27  13  33  1   
 28  14  16  1   
 29  14  34  1   
 30  14  35  1   
 31  15  17  1   
 32  15  18  1   
 33  15  36  1   
 34  16  19  1   
 35  16  20  1   
 36  17  21  1   
 37  17  37  1   
 38  17  38  1   
 39  18  39  1   
 40  18  40  1   
 41  18  41  1   
 42  19  21  1   
 43  19  42  1   
 44  19  43  1   
 45  20  22  1   
 46  20  44  1   
 47  20  45  1   
 48  21  46  1   
 49  21  47  1   
 50  22  48  1   
@<TRIPOS>SUBSTRUCTURE
  1 ****  11 GROUP 4 **** **** 0

# MOE 2024.06 (io_trps.svl 2023.06)
