@<TRIPOS>MOLECULE
NONAME
41 42 1 0 0 
SMALL
USER_CHARGES


@<TRIPOS>ATOM
  1 F        2.9920     3.6440    -1.3260 F     1 <1>  -0.3400 
  2 C        1.8140     3.0880    -1.5990 C.3   1 <1>   0.9600 
  3 F        1.1090     4.0680    -2.1580 F     1 <1>  -0.3400 
  4 O        1.1660     2.7960    -0.3630 O.3   1 <1>  -0.3630 
  5 C        1.9770     1.9190    -2.6150 C.3   1 <1>   0.6000 
  6 C        1.7450     1.9620     0.5280 C.ar  1 <1>   0.0830 
  7 F        0.8360     1.2530    -2.8100 F     1 <1>  -0.3400 
  8 F        2.8390     0.9860    -2.2030 F     1 <1>  -0.3400 
  9 C        2.6200     2.4440     1.5120 C.ar  1 <1>   0.0860 
 10 C        1.4230     0.6140     0.4630 C.ar  1 <1>  -0.1500 
 11 C        2.9430     3.8460     1.6520 C.2   1 <1>   0.5440 
 12 C        3.1890     1.5130     2.3820 C.ar  1 <1>  -0.1500 
 13 C        1.9960    -0.2850     1.3420 C.ar  1 <1>  -0.1500 
 14 O        2.0810     4.6800     1.8480 O.2   1 <1>  -0.5700 
 15 N        4.2390     4.2520     1.5630 N.am  1 <1>  -0.7300 
 16 C        2.8860     0.1660     2.3000 C.ar  1 <1>  -0.1500 
 17 C        4.6650     5.6490     1.4470 C.3   1 <1>   0.4000 
 18 C        5.2560     5.8430     0.0550 C.2   1 <1>   0.0060 
 19 C        5.6990     5.9210     2.5360 C.3   1 <1>  -0.2400 
 20 N        6.2550     5.1810    -0.4230 N.2   1 <1>  -0.5650 
 21 N        4.7850     6.7240    -0.8410 N.pl3 1 <1>   0.3140 
 22 C        6.3660     5.7110    -1.6460 C.2   1 <1>   0.3660 
 23 N        5.5160     6.6350    -1.9440 N.2   1 <1>  -0.7070 
 24 C        3.6660     7.6870    -0.7310 C.3   1 <1>   0.0960 
 25 C        2.3190     7.0210    -1.0350 C.3   1 <1>  -0.2400 
 26 H        2.3170     2.2720    -3.5700 H     1 <1>   0.0800 
 27 H        0.7240     0.2640    -0.2760 H     1 <1>   0.1500 
 28 H        3.8720     1.8570     3.1390 H     1 <1>   0.1500 
 29 H        1.7510    -1.3320     1.2830 H     1 <1>   0.1500 
 30 H        4.9290     3.6210     1.1500 H     1 <1>   0.3700 
 31 H        3.3370    -0.5330     2.9850 H     1 <1>   0.1500 
 32 H        3.8240     6.3030     1.5960 H     1 <1>   0.0800 
 33 H        6.5450     5.2680     2.4200 H     1 <1>   0.0800 
 34 H        5.2590     5.7720     3.5050 H     1 <1>   0.0800 
 35 H        6.0400     6.9370     2.4650 H     1 <1>   0.0800 
 36 H        7.1310     5.3700    -2.3260 H     1 <1>   0.1500 
 37 H        3.8410     8.4820    -1.4340 H     1 <1>   0.0800 
 38 H        3.6610     8.1090     0.2570 H     1 <1>   0.0800 
 39 H        2.3250     6.6150    -2.0310 H     1 <1>   0.0800 
 40 H        1.5280     7.7460    -0.9670 H     1 <1>   0.0800 
 41 H        2.1160     6.2330    -0.3320 H     1 <1>   0.0800 
@<TRIPOS>BOND
  1   1   2  1   
  2   2   3  1   
  3   2   4  1   
  4   2   5  1   
  5   4   6  1   
  6   5   7  1   
  7   5   8  1   
  8   5  26  1   
  9   6   9  ar  
 10   6  10  ar  
 11   9  11  1   
 12   9  12  ar  
 13  10  13  ar  
 14  10  27  1   
 15  11  14  2   
 16  11  15  am  
 17  12  16  ar  
 18  12  28  1   
 19  13  16  ar  
 20  13  29  1   
 21  15  17  1   
 22  15  30  1   
 23  16  31  1   
 24  17  18  1   
 25  17  19  1   
 26  17  32  1   
 27  18  20  2   
 28  18  21  1   
 29  19  33  1   
 30  19  34  1   
 31  19  35  1   
 32  20  22  1   
 33  21  23  1   
 34  21  24  1   
 35  22  23  2   
 36  22  36  1   
 37  24  25  1   
 38  24  37  1   
 39  24  38  1   
 40  25  39  1   
 41  25  40  1   
 42  25  41  1   
@<TRIPOS>SUBSTRUCTURE
  1 ****   1 GROUP 4 **** **** 0

# MOE 2024.06 (io_trps.svl 2023.06)
