@<TRIPOS>MOLECULE
NONAME
48 49 1 0 0 
SMALL
USER_CHARGES


@<TRIPOS>ATOM
  1 S       -2.5010    -0.0770     1.8350 S.o2  1 <1>   1.3330 
  2 O       -3.5880    -1.0250     1.9230 O.2   1 <1>  -0.6500 
  3 O       -2.1530     0.7320     2.9750 O.2   1 <1>  -0.6500 
  4 N       -2.8320     0.9650     0.4910 N.am  1 <1>  -0.6930 
  5 C       -1.0480    -0.9360     1.2700 C.3   1 <1>  -0.1350 
  6 C       -1.9880     2.0200     0.1480 C.ar  1 <1>   0.1990 
  7 C       -3.9320     0.5720    -0.4460 C.3   1 <1>   0.2570 
  8 C       -1.3550     2.0560    -1.0900 C.ar  1 <1>  -0.1500 
  9 C       -1.7570     3.0650     1.0350 C.ar  1 <1>  -0.1500 
 10 C       -3.6350    -0.6790    -1.2810 C.2   1 <1>   0.5690 
 11 C       -0.5130     3.1000    -1.4280 C.ar  1 <1>  -0.1500 
 12 C       -0.9140     4.1090     0.7010 C.ar  1 <1>  -0.1500 
 13 O       -3.2370    -0.5490    -2.4130 O.2   1 <1>  -0.5700 
 14 N       -3.8250    -1.9010    -0.7210 N.am  1 <1>  -0.7300 
 15 C       -0.2850     4.1320    -0.5330 C.ar  1 <1>  -0.1430 
 16 C       -3.7450    -3.2510    -1.3420 C.3   1 <1>   0.2200 
 17 C        0.6390     5.2780    -0.9030 C.3   1 <1>  -0.0970 
 18 C       -3.7400    -4.2960    -0.2150 C.3   1 <1>   0.2000 
 19 C       -2.4920    -3.4510    -2.2140 C.3   1 <1>   0.1200 
 20 O       -4.9400    -4.2120     0.4970 O.3   1 <1>  -0.5600 
 21 C       -3.5750    -5.7060    -0.7810 C.3   1 <1>  -0.1600 
 22 O       -2.4150    -4.7800    -2.6580 O.3   1 <1>  -0.5600 
 23 C       -4.8370    -4.4440     1.8670 C.3   1 <1>   0.0400 
 24 C       -2.3250    -5.7550    -1.6650 C.3   1 <1>   0.1200 
 25 H       -1.2510    -1.4550     0.3550 H     1 <1>   0.0800 
 26 H       -0.7310    -1.6450     2.0090 H     1 <1>   0.0800 
 27 H       -0.2520    -0.2380     1.1000 H     1 <1>   0.0800 
 28 H       -4.8300     0.4050     0.1210 H     1 <1>   0.0800 
 29 H       -4.1270     1.3870    -1.1210 H     1 <1>   0.0800 
 30 H       -1.5150     1.2630    -1.7970 H     1 <1>   0.1500 
 31 H       -2.2430     3.0620     1.9940 H     1 <1>   0.1500 
 32 H       -0.0360     3.1060    -2.3930 H     1 <1>   0.1500 
 33 H       -0.7510     4.9050     1.4060 H     1 <1>   0.1500 
 34 H       -4.1990    -1.9420     0.2420 H     1 <1>   0.3700 
 35 H       -4.6130    -3.4000    -1.9600 H     1 <1>   0.0800 
 36 H        1.4050     4.9420    -1.5780 H     1 <1>   0.0800 
 37 H        1.1130     5.6770    -0.0240 H     1 <1>   0.0800 
 38 H        0.0750     6.0600    -1.3780 H     1 <1>   0.0800 
 39 H       -2.9190    -4.0770     0.4470 H     1 <1>   0.0800 
 40 H       -1.5960    -3.2230    -1.6650 H     1 <1>   0.0800 
 41 H       -2.5420    -2.8280    -3.0890 H     1 <1>   0.0800 
 42 H       -3.4750    -6.4170     0.0180 H     1 <1>   0.0800 
 43 H       -4.4350    -5.9680    -1.3720 H     1 <1>   0.0800 
 44 H       -5.8230    -4.3840     2.2910 H     1 <1>   0.0800 
 45 H       -4.2100    -3.6890     2.3090 H     1 <1>   0.0800 
 46 H       -4.4290    -5.4260     2.0350 H     1 <1>   0.0800 
 47 H       -2.2470    -6.7120    -2.1530 H     1 <1>   0.0800 
 48 H       -1.4300    -5.5800    -1.0930 H     1 <1>   0.0800 
@<TRIPOS>BOND
  1   1   2  2   
  2   1   3  2   
  3   1   4  am  
  4   1   5  1   
  5   4   6  1   
  6   4   7  1   
  7   5  25  1   
  8   5  26  1   
  9   5  27  1   
 10   6   8  ar  
 11   6   9  ar  
 12   7  10  1   
 13   7  28  1   
 14   7  29  1   
 15   8  11  ar  
 16   8  30  1   
 17   9  12  ar  
 18   9  31  1   
 19  10  13  2   
 20  10  14  am  
 21  11  15  ar  
 22  11  32  1   
 23  12  15  ar  
 24  12  33  1   
 25  14  16  1   
 26  14  34  1   
 27  15  17  1   
 28  16  18  1   
 29  16  19  1   
 30  16  35  1   
 31  17  36  1   
 32  17  37  1   
 33  17  38  1   
 34  18  20  1   
 35  18  21  1   
 36  18  39  1   
 37  19  22  1   
 38  19  40  1   
 39  19  41  1   
 40  20  23  1   
 41  21  24  1   
 42  21  42  1   
 43  21  43  1   
 44  22  24  1   
 45  23  44  1   
 46  23  45  1   
 47  23  46  1   
 48  24  47  1   
 49  24  48  1   
@<TRIPOS>SUBSTRUCTURE
  1 ****  10 GROUP 4 **** **** 0

# MOE 2024.06 (io_trps.svl 2023.06)
