@<TRIPOS>MOLECULE
NONAME
49 52 1 0 0 
SMALL
USER_CHARGES


@<TRIPOS>ATOM
  1 O       -1.1370     0.7630    -2.0700 O.3   1 <1>  -0.0190 
  2 N       -0.0290     1.4080    -1.8850 N.2   1 <1>  -0.4100 
  3 C       -1.8760     1.0960    -1.0440 C.2   1 <1>   0.2980 
  4 C       -0.1390     2.0760    -0.7930 C.2   1 <1>   0.4620 
  5 N       -1.3340     1.8990    -0.2200 N.2   1 <1>  -0.5650 
  6 C       -3.2850     0.5180    -0.9350 C.3   1 <1>   0.2900 
  7 C        0.8830     2.9310    -0.2200 C.ar  1 <1>   0.0540 
  8 N       -3.3190    -0.9570    -0.7830 N.3   1 <1>  -0.8100 
  9 C        0.7050     3.6380     0.9620 C.ar  1 <1>  -0.1500 
 10 C        2.1260     3.1080    -0.8140 C.ar  1 <1>  -0.1500 
 11 C       -4.7050    -1.4610    -0.8390 C.3   1 <1>   0.2900 
 12 C       -2.6150    -1.4020     0.4330 C.3   1 <1>   0.0300 
 13 C        1.7140     4.4390     1.4620 C.ar  1 <1>   0.1600 
 14 C        3.0710     3.9330    -0.2350 C.ar  1 <1>   0.1600 
 15 C       -4.7660    -2.9790    -0.8630 C.2   1 <1>  -0.0400 
 16 N        2.8960     4.6040     0.8910 N.ar  1 <1>  -0.6200 
 17 O       -4.3110    -3.6400    -1.8940 O.3   1 <1>  -0.0190 
 18 C       -5.2380    -3.8710     0.0220 C.2   1 <1>  -0.1500 
 19 N       -4.4540    -4.9260    -1.7460 N.2   1 <1>  -0.4100 
 20 C       -5.0090    -5.0980    -0.5970 C.2   1 <1>   0.1080 
 21 C       -5.3670    -6.4500     0.0090 C.3   1 <1>   0.1010 
 22 C       -4.1050    -7.2950     0.2500 C.3   1 <1>  -0.1600 
 23 C       -6.3670    -7.2090    -0.8810 C.3   1 <1>  -0.1600 
 24 C       -4.4490    -8.6710     0.8390 C.3   1 <1>  -0.1600 
 25 C       -6.7160    -8.5850    -0.2940 C.3   1 <1>  -0.1600 
 26 C       -5.4510    -9.4190    -0.0510 C.3   1 <1>  -0.1600 
 27 H       -3.8170     0.7920    -1.8290 H     1 <1>   0.0800 
 28 H       -3.7800     0.9770    -0.0970 H     1 <1>   0.0800 
 29 H       -0.2250     3.5650     1.4960 H     1 <1>   0.1500 
 30 H        2.3580     2.6010    -1.7330 H     1 <1>   0.1500 
 31 H       -5.1820    -1.0970    -1.7330 H     1 <1>   0.0800 
 32 H       -5.2570    -1.0980     0.0110 H     1 <1>   0.0800 
 33 H       -1.5940    -1.0620     0.4200 H     1 <1>   0.0800 
 34 H       -2.5960    -2.4780     0.4790 H     1 <1>   0.0800 
 35 H       -3.1000    -1.0200     1.3160 H     1 <1>   0.0800 
 36 H        1.5420     4.9730     2.3810 H     1 <1>   0.1500 
 37 H        4.0250     4.0480    -0.7220 H     1 <1>   0.1500 
 38 H       -5.6900    -3.7150     0.9830 H     1 <1>   0.1500 
 39 H       -5.8370    -6.2740     0.9610 H     1 <1>   0.0800 
 40 H       -3.4430    -6.7710     0.9160 H     1 <1>   0.0800 
 41 H       -3.5880    -7.4300    -0.6850 H     1 <1>   0.0800 
 42 H       -5.9380    -7.3410    -1.8600 H     1 <1>   0.0800 
 43 H       -7.2630    -6.6250    -0.9930 H     1 <1>   0.0800 
 44 H       -4.8690    -8.5450     1.8220 H     1 <1>   0.0800 
 45 H       -3.5500    -9.2550     0.9370 H     1 <1>   0.0800 
 46 H       -7.3680    -9.1100    -0.9710 H     1 <1>   0.0800 
 47 H       -7.2420    -8.4550     0.6370 H     1 <1>   0.0800 
 48 H       -5.7180   -10.3540     0.4120 H     1 <1>   0.0800 
 49 H       -4.9870    -9.6420    -0.9970 H     1 <1>   0.0800 
@<TRIPOS>BOND
  1   1   2  1   
  2   1   3  1   
  3   2   4  2   
  4   3   5  2   
  5   3   6  1   
  6   4   5  1   
  7   4   7  1   
  8   6   8  1   
  9   6  27  1   
 10   6  28  1   
 11   7   9  ar  
 12   7  10  ar  
 13   8  11  1   
 14   8  12  1   
 15   9  13  ar  
 16   9  29  1   
 17  10  14  ar  
 18  10  30  1   
 19  11  15  1   
 20  11  31  1   
 21  11  32  1   
 22  12  33  1   
 23  12  34  1   
 24  12  35  1   
 25  13  16  ar  
 26  13  36  1   
 27  14  16  ar  
 28  14  37  1   
 29  15  17  1   
 30  15  18  2   
 31  17  19  1   
 32  18  20  1   
 33  18  38  1   
 34  19  20  2   
 35  20  21  1   
 36  21  22  1   
 37  21  23  1   
 38  21  39  1   
 39  22  24  1   
 40  22  40  1   
 41  22  41  1   
 42  23  25  1   
 43  23  42  1   
 44  23  43  1   
 45  24  26  1   
 46  24  44  1   
 47  24  45  1   
 48  25  26  1   
 49  25  46  1   
 50  25  47  1   
 51  26  48  1   
 52  26  49  1   
@<TRIPOS>SUBSTRUCTURE
  1 ****  12 GROUP 4 **** **** 0

# MOE 2024.06 (io_trps.svl 2023.06)
