@<TRIPOS>MOLECULE
NONAME
35 36 1 0 0 
SMALL
USER_CHARGES


@<TRIPOS>ATOM
  1 O       -0.3760     0.3030     0.5050 O.2   1 <1>  -0.5700 
  2 C       -1.2970     1.0300     0.2840 C.2   1 <1>   0.4480 
  3 C       -1.4570     2.4330     0.8200 C.3   1 <1>   0.2010 
  4 C       -2.4870     0.6640    -0.5580 C.3   1 <1>  -0.0990 
  5 N       -2.8050     2.8780     0.3740 N.am  1 <1>  -0.5850 
  6 C       -3.5480     1.6910    -0.1540 C.3   1 <1>   0.2250 
  7 C       -3.1210     4.2110     0.3990 C.2   1 <1>   0.7800 
  8 C       -4.5930     1.1540     0.8690 C.3   1 <1>   0.0000 
  9 C       -4.7120     1.8690    -1.1720 C.3   1 <1>   0.0000 
 10 O       -2.3350     5.0280     0.8380 O.2   1 <1>  -0.5700 
 11 O       -4.3070     4.5970    -0.0690 O.3   1 <1>  -0.4300 
 12 C       -5.7070     1.8200     0.0200 C.3   1 <1>   0.0000 
 13 C       -4.8250     5.9070    -0.1390 C.3   1 <1>   0.2800 
 14 C       -4.9680     6.4970     1.2680 C.3   1 <1>  -0.2400 
 15 C       -6.2120     5.7540    -0.7650 C.3   1 <1>  -0.2400 
 16 C       -3.9520     6.7740    -1.0540 C.3   1 <1>  -0.2400 
 17 H       -0.6930     3.0740     0.4170 H     1 <1>   0.0800 
 18 H       -1.4030     2.4310     1.8940 H     1 <1>   0.0800 
 19 H       -2.7950    -0.3500    -0.3840 H     1 <1>   0.0800 
 20 H       -2.2320     0.7830    -1.5950 H     1 <1>   0.0800 
 21 H       -4.5010     1.5660     1.8580 H     1 <1>   0.0000 
 22 H       -4.6880     0.0820     0.8640 H     1 <1>   0.0000 
 23 H       -4.8310     1.0090    -1.8100 H     1 <1>   0.0000 
 24 H       -4.7060     2.7890    -1.7270 H     1 <1>   0.0000 
 25 H       -5.9880     2.7870     0.3940 H     1 <1>   0.0000 
 26 H       -6.5510     1.1780    -0.1550 H     1 <1>   0.0000 
 27 H       -5.5250     5.8280     1.8990 H     1 <1>   0.0800 
 28 H       -5.4900     7.4350     1.2210 H     1 <1>   0.0800 
 29 H       -4.0070     6.6840     1.7110 H     1 <1>   0.0800 
 30 H       -6.8360     5.1360    -0.1450 H     1 <1>   0.0800 
 31 H       -6.1340     5.3080    -1.7400 H     1 <1>   0.0800 
 32 H       -6.6840     6.7150    -0.8680 H     1 <1>   0.0800 
 33 H       -2.9920     6.9630    -0.6110 H     1 <1>   0.0800 
 34 H       -4.4250     7.7250    -1.2170 H     1 <1>   0.0800 
 35 H       -3.8160     6.2940    -2.0060 H     1 <1>   0.0800 
@<TRIPOS>BOND
  1   1   2  2   
  2   2   3  1   
  3   2   4  1   
  4   3   5  1   
  5   3  17  1   
  6   3  18  1   
  7   4   6  1   
  8   4  19  1   
  9   4  20  1   
 10   5   6  1   
 11   5   7  am  
 12   6   8  1   
 13   6   9  1   
 14   7  10  2   
 15   7  11  1   
 16   8  12  1   
 17   8  21  1   
 18   8  22  1   
 19   9  12  1   
 20   9  23  1   
 21   9  24  1   
 22  11  13  1   
 23  12  25  1   
 24  12  26  1   
 25  13  14  1   
 26  13  15  1   
 27  13  16  1   
 28  14  27  1   
 29  14  28  1   
 30  14  29  1   
 31  15  30  1   
 32  15  31  1   
 33  15  32  1   
 34  16  33  1   
 35  16  34  1   
 36  16  35  1   
@<TRIPOS>SUBSTRUCTURE
  1 ****   5 GROUP 4 **** **** 0

# MOE 2024.06 (io_trps.svl 2023.06)
