@<TRIPOS>MOLECULE
NONAME
42 43 1 0 0 
SMALL
USER_CHARGES


@<TRIPOS>ATOM
  1 S        0.0110    -0.0230    -0.1330 S.o2  1 <1>   1.3330 
  2 O       -1.2330     0.3180     0.5100 O.2   1 <1>  -0.6500 
  3 O        1.0480    -0.7280     0.5820 O.2   1 <1>  -0.6500 
  4 N        0.6060     1.4530    -0.6490 N.am  1 <1>  -0.9140 
  5 C       -0.3170    -0.8630    -1.6660 C.3   1 <1>  -0.1350 
  6 C        1.6490     2.0060     0.1920 C.3   1 <1>   0.2760 
  7 C        1.5210     3.5300     0.1770 C.3   1 <1>  -0.1600 
  8 C        3.0200     1.5840    -0.3440 C.3   1 <1>  -0.1600 
  9 C        2.6440     4.1690     0.9950 C.3   1 <1>   0.2090 
 10 C        4.1400     2.2350     0.4650 C.3   1 <1>   0.2090 
 11 N        3.9530     3.7100     0.4730 N.pl3 1 <1>  -0.8380 
 12 C        5.0520     4.5330     0.6000 C.ar  1 <1>   0.4100 
 13 N        6.0820     4.0890     1.2920 N.ar  1 <1>  -0.6200 
 14 C        5.0720     5.7890     0.0260 C.ar  1 <1>  -0.1500 
 15 C        7.0980     4.9230     1.3960 C.ar  1 <1>   0.4700 
 16 C        6.1840     6.5730     0.2000 C.ar  1 <1>   0.1670 
 17 N        7.2180     6.1420     0.8980 N.ar  1 <1>  -0.6200 
 18 C        6.2800     7.9740    -0.4050 C.3   1 <1>   0.0630 
 19 C        5.1900     8.9000     0.1530 C.3   1 <1>  -0.2400 
 20 C        6.2160     7.9270    -1.9370 C.3   1 <1>  -0.2400 
 21 H       -0.2020     2.0610    -0.5380 H     1 <1>   0.4200 
 22 H       -0.7410    -1.8280    -1.4720 H     1 <1>   0.0800 
 23 H        0.5940    -0.9910    -2.2170 H     1 <1>   0.0800 
 24 H       -1.0050    -0.2960    -2.2600 H     1 <1>   0.0800 
 25 H        1.5340     1.6640     1.2100 H     1 <1>   0.0800 
 26 H        0.5780     3.8220     0.6000 H     1 <1>   0.0800 
 27 H        1.5810     3.8960    -0.8320 H     1 <1>   0.0800 
 28 H        3.1200     1.8820    -1.3720 H     1 <1>   0.0800 
 29 H        3.1320     0.5180    -0.2860 H     1 <1>   0.0800 
 30 H        2.5600     3.8810     2.0300 H     1 <1>   0.0800 
 31 H        2.5740     5.2420     0.9390 H     1 <1>   0.0800 
 32 H        5.0930     1.9910     0.0250 H     1 <1>   0.0800 
 33 H        4.1330     1.8690     1.4790 H     1 <1>   0.0800 
 34 H        4.2300     6.1200    -0.5450 H     1 <1>   0.1500 
 35 H        7.9400     4.5640     1.9620 H     1 <1>   0.1500 
 36 H        7.2350     8.3890    -0.1290 H     1 <1>   0.0800 
 37 H        4.2120     8.5570    -0.1290 H     1 <1>   0.0800 
 38 H        5.3270     9.9000    -0.2200 H     1 <1>   0.0800 
 39 H        5.2510     8.9260     1.2270 H     1 <1>   0.0800 
 40 H        5.2640     7.5570    -2.2720 H     1 <1>   0.0800 
 41 H        6.9870     7.2770    -2.3120 H     1 <1>   0.0800 
 42 H        6.3690     8.9090    -2.3470 H     1 <1>   0.0800 
@<TRIPOS>BOND
  1   1   2  2   
  2   1   3  2   
  3   1   4  am  
  4   1   5  1   
  5   4   6  1   
  6   4  21  1   
  7   5  22  1   
  8   5  23  1   
  9   5  24  1   
 10   6   7  1   
 11   6   8  1   
 12   6  25  1   
 13   7   9  1   
 14   7  26  1   
 15   7  27  1   
 16   8  10  1   
 17   8  28  1   
 18   8  29  1   
 19   9  11  1   
 20   9  30  1   
 21   9  31  1   
 22  10  11  1   
 23  10  32  1   
 24  10  33  1   
 25  11  12  1   
 26  12  13  ar  
 27  12  14  ar  
 28  13  15  ar  
 29  14  16  ar  
 30  14  34  1   
 31  15  17  ar  
 32  15  35  1   
 33  16  17  ar  
 34  16  18  1   
 35  18  19  1   
 36  18  20  1   
 37  18  36  1   
 38  19  37  1   
 39  19  38  1   
 40  19  39  1   
 41  20  40  1   
 42  20  41  1   
 43  20  42  1   
@<TRIPOS>SUBSTRUCTURE
  1 ****  11 GROUP 4 **** **** 0

# MOE 2024.06 (io_trps.svl 2023.06)
