@<TRIPOS>MOLECULE
NONAME
52 54 1 0 0 
SMALL
USER_CHARGES


@<TRIPOS>ATOM
  1 O        0.0120     0.1730    -0.3860 O.2   1 <1>  -0.5700 
  2 C       -0.9680     0.8680    -0.5000 C.2   1 <1>   0.5690 
  3 N       -2.2260     0.3370    -0.4970 N.am  1 <1>  -0.6600 
  4 C       -0.7630     2.3630    -0.6250 C.3   1 <1>  -0.0990 
  5 C       -3.5190     1.0690    -0.4940 C.3   1 <1>   0.1400 
  6 C       -2.4730    -1.1230    -0.3730 C.3   1 <1>   0.1400 
  7 C       -0.6690     3.0140     0.7560 C.3   1 <1>   0.0210 
  8 C       -4.4870     0.1080     0.1920 C.3   1 <1>   0.2000 
  9 C       -3.9960    -1.2690    -0.2640 C.3   1 <1>  -0.0800 
 10 C       -0.5350     4.5190     0.6110 C.2   1 <1>  -0.1810 
 11 O       -4.3100     0.2360     1.5620 O.3   1 <1>  -0.6800 
 12 C       -4.4460    -2.4600     0.6010 C.3   1 <1>   0.0210 
 13 C       -1.5640     5.4570     0.6400 C.2   1 <1>   0.1080 
 14 C        0.5860     5.2470     0.4180 C.2   1 <1>  -0.3320 
 15 C       -3.8810    -3.7600     0.0620 C.2   1 <1>   0.1080 
 16 N       -1.1300     6.6650     0.4780 N.2   1 <1>  -0.7070 
 17 C       -3.0340     5.1580     0.8350 C.3   1 <1>  -0.0590 
 18 N        0.1980     6.5400     0.3430 N.pl3 1 <1>   0.3140 
 19 C        2.0300     4.7830     0.2920 C.3   1 <1>  -0.0600 
 20 N       -4.1110    -4.1820    -1.1420 N.2   1 <1>  -0.7070 
 21 C       -3.0570    -4.6250     0.7740 C.2   1 <1>  -0.1500 
 22 C        1.0520     7.7160     0.1390 C.3   1 <1>   0.0160 
 23 N       -3.4340    -5.3420    -1.2310 N.pl3 1 <1>   0.3000 
 24 C       -2.7850    -5.6310    -0.0830 C.2   1 <1>  -0.3320 
 25 C       -1.9330    -6.8690     0.1270 C.3   1 <1>  -0.0600 
 26 H        0.1520     2.5390    -1.1600 H     1 <1>   0.0800 
 27 H       -1.5580     2.8050    -1.1940 H     1 <1>   0.0800 
 28 H       -3.4600     2.0070     0.0290 H     1 <1>   0.0800 
 29 H       -3.8280     1.2360    -1.5110 H     1 <1>   0.0800 
 30 H       -2.0910    -1.6500    -1.2310 H     1 <1>   0.0800 
 31 H       -1.9820    -1.4910     0.5130 H     1 <1>   0.0800 
 32 H        0.1860     2.6240     1.2800 H     1 <1>   0.0800 
 33 H       -1.5400     2.7800     1.3400 H     1 <1>   0.0800 
 34 H       -5.5190     0.2980    -0.0450 H     1 <1>   0.0800 
 35 H       -4.3660    -1.4300    -1.2620 H     1 <1>   0.0800 
 36 H       -3.3550     0.1500     1.7580 H     1 <1>   0.4000 
 37 H       -5.5190    -2.5230     0.5960 H     1 <1>   0.0800 
 38 H       -4.1250    -2.3350     1.6190 H     1 <1>   0.0800 
 39 H       -3.3910     4.5510     0.0260 H     1 <1>   0.0800 
 40 H       -3.5910     6.0780     0.8520 H     1 <1>   0.0800 
 41 H       -3.1820     4.6470     1.7670 H     1 <1>   0.0800 
 42 H        2.0930     3.7120     0.3550 H     1 <1>   0.0800 
 43 H        2.6240     5.2060     1.0820 H     1 <1>   0.0800 
 44 H        2.4350     5.0890    -0.6560 H     1 <1>   0.0800 
 45 H       -2.7230    -4.4950     1.7880 H     1 <1>   0.1500 
 46 H        1.7700     7.7710     0.9340 H     1 <1>   0.0800 
 47 H        0.4390     8.5990     0.1440 H     1 <1>   0.0800 
 48 H        1.5510     7.6280    -0.8070 H     1 <1>   0.0800 
 49 H       -3.4330    -5.9110    -2.0860 H     1 <1>   0.2700 
 50 H       -1.5240    -6.8710     1.1220 H     1 <1>   0.0800 
 51 H       -1.1200    -6.8840    -0.5770 H     1 <1>   0.0800 
 52 H       -2.5270    -7.7560    -0.0010 H     1 <1>   0.0800 
@<TRIPOS>BOND
  1   1   2  2   
  2   2   3  am  
  3   2   4  1   
  4   3   5  1   
  5   3   6  1   
  6   4   7  1   
  7   4  26  1   
  8   4  27  1   
  9   5   8  1   
 10   5  28  1   
 11   5  29  1   
 12   6   9  1   
 13   6  30  1   
 14   6  31  1   
 15   7  10  1   
 16   7  32  1   
 17   7  33  1   
 18   8   9  1   
 19   8  11  1   
 20   8  34  1   
 21   9  12  1   
 22   9  35  1   
 23  10  13  1   
 24  10  14  2   
 25  11  36  1   
 26  12  15  1   
 27  12  37  1   
 28  12  38  1   
 29  13  16  2   
 30  13  17  1   
 31  14  18  1   
 32  14  19  1   
 33  15  20  2   
 34  15  21  1   
 35  16  18  1   
 36  17  39  1   
 37  17  40  1   
 38  17  41  1   
 39  18  22  1   
 40  19  42  1   
 41  19  43  1   
 42  19  44  1   
 43  20  23  1   
 44  21  24  2   
 45  21  45  1   
 46  22  46  1   
 47  22  47  1   
 48  22  48  1   
 49  23  24  1   
 50  23  49  1   
 51  24  25  1   
 52  25  50  1   
 53  25  51  1   
 54  25  52  1   
@<TRIPOS>SUBSTRUCTURE
  1 ****   3 GROUP 4 **** **** 0

# MOE 2024.06 (io_trps.svl 2023.06)
