@<TRIPOS>MOLECULE
NONAME
47 48 1 0 0 
SMALL
USER_CHARGES


@<TRIPOS>ATOM
  1 CL      -6.2370     0.2600    -0.7980 Cl    1 <1>  -0.1770 
  2 C       -4.5650     0.7690    -0.6910 C.ar  1 <1>   0.1770 
  3 C       -3.5360    -0.1540    -0.8410 C.ar  1 <1>  -0.1440 
  4 C       -4.3080     2.1050    -0.4450 C.ar  1 <1>  -0.1500 
  5 C       -2.2280     0.2950    -0.7340 C.ar  1 <1>  -0.1500 
  6 C       -3.8080    -1.6270    -1.1110 C.3   1 <1>  -0.0160 
  7 C       -2.9980     2.5380    -0.3410 C.ar  1 <1>  -0.1500 
  8 C       -1.9610     1.6310    -0.4860 C.ar  1 <1>  -0.1500 
  9 C       -4.0890    -2.3700     0.2040 C.3   1 <1>  -0.0990 
 10 C       -4.6330    -3.7750    -0.0220 C.2   1 <1>   0.5690 
 11 O       -4.1840    -4.4020    -0.9490 O.2   1 <1>  -0.5700 
 12 N       -5.6080    -4.3130     0.7800 N.am  1 <1>  -0.6600 
 13 C       -5.7590    -5.7990     0.8370 C.3   1 <1>   0.3200 
 14 C       -6.5160    -3.5140     1.6690 C.3   1 <1>   0.1400 
 15 C       -7.1140    -6.1580     0.2670 C.2   1 <1>  -0.3320 
 16 C       -7.4830    -2.5900     0.8860 C.3   1 <1>   0.3430 
 17 N       -8.1820    -6.5570     0.9870 N.pl3 1 <1>   0.0330 
 18 C       -7.5010    -6.1470    -1.0270 C.2   1 <1>   0.0770 
 19 N       -8.1040    -3.2730    -0.2940 N.4   1 <1>  -0.9590 
 20 C       -9.1720    -6.7040     0.0810 C.2   1 <1>   0.0360 
 21 N       -8.8100    -6.4360    -1.1310 N.2   1 <1>  -0.5650 
 22 C       -7.5330    -2.8040    -1.5910 C.3   1 <1>   0.2630 
 23 C       -9.5920    -3.1790    -0.3190 C.3   1 <1>   0.2630 
 24 H       -5.1230     2.7990    -0.3360 H     1 <1>   0.1500 
 25 H       -1.4060    -0.3930    -0.8440 H     1 <1>   0.1500 
 26 H       -2.9600    -2.0750    -1.6010 H     1 <1>   0.0800 
 27 H       -4.6410    -1.7230    -1.7830 H     1 <1>   0.0800 
 28 H       -2.7850     3.5750    -0.1500 H     1 <1>   0.1500 
 29 H       -0.9420     1.9680    -0.4050 H     1 <1>   0.1500 
 30 H       -4.7610    -1.7830     0.7930 H     1 <1>   0.0800 
 31 H       -3.1700    -2.4540     0.7550 H     1 <1>   0.0800 
 32 H       -5.6660    -6.1380     1.8540 H     1 <1>   0.0800 
 33 H       -4.9890    -6.2850     0.2600 H     1 <1>   0.0800 
 34 H       -5.9260    -2.9210     2.3470 H     1 <1>   0.0800 
 35 H       -7.1020    -4.1810     2.2760 H     1 <1>   0.0800 
 36 H       -6.9430    -1.7200     0.5540 H     1 <1>   0.0800 
 37 H       -8.2520    -2.2490     1.5590 H     1 <1>   0.0800 
 38 H       -8.2420    -6.7550     1.9920 H     1 <1>   0.2700 
 39 H       -6.8990    -5.9230    -1.8960 H     1 <1>   0.1500 
 40 H       -7.8600    -4.2830    -0.2270 H     1 <1>   0.4500 
 41 H      -10.1630    -7.0220     0.3610 H     1 <1>   0.1500 
 42 H       -7.7230    -1.7530    -1.7310 H     1 <1>   0.0800 
 43 H       -7.9770    -3.3490    -2.4090 H     1 <1>   0.0800 
 44 H       -6.4690    -2.9730    -1.6140 H     1 <1>   0.0800 
 45 H       -9.9030    -2.1550    -0.4460 H     1 <1>   0.0800 
 46 H      -10.0070    -3.5600     0.5990 H     1 <1>   0.0800 
 47 H       -9.9830    -3.7650    -1.1360 H     1 <1>   0.0800 
@<TRIPOS>BOND
  1   1   2  1   
  2   2   3  ar  
  3   2   4  ar  
  4   3   5  ar  
  5   3   6  1   
  6   4   7  ar  
  7   4  24  1   
  8   5   8  ar  
  9   5  25  1   
 10   6   9  1   
 11   6  26  1   
 12   6  27  1   
 13   7   8  ar  
 14   7  28  1   
 15   8  29  1   
 16   9  10  1   
 17   9  30  1   
 18   9  31  1   
 19  10  11  2   
 20  10  12  am  
 21  12  13  1   
 22  12  14  1   
 23  13  15  1   
 24  13  32  1   
 25  13  33  1   
 26  14  16  1   
 27  14  34  1   
 28  14  35  1   
 29  15  17  1   
 30  15  18  2   
 31  16  19  1   
 32  16  36  1   
 33  16  37  1   
 34  17  20  1   
 35  17  38  1   
 36  18  21  1   
 37  18  39  1   
 38  19  22  1   
 39  19  23  1   
 40  19  40  1   
 41  20  21  2   
 42  20  41  1   
 43  22  42  1   
 44  22  43  1   
 45  22  44  1   
 46  23  45  1   
 47  23  46  1   
 48  23  47  1   
@<TRIPOS>SUBSTRUCTURE
  1 ****  10 GROUP 4 **** **** 0

# MOE 2024.06 (io_trps.svl 2023.06)
