@<TRIPOS>MOLECULE
NONAME
57 59 1 0 0 
SMALL
USER_CHARGES


@<TRIPOS>ATOM
  1 F       -0.6610    -0.1180    -0.6650 F     1 <1>  -0.1900 
  2 C       -1.9090     0.2750    -0.6340 C.ar  1 <1>   0.1900 
  3 C       -2.2860     1.5110    -0.0960 C.ar  1 <1>   0.0830 
  4 C       -2.8410    -0.5960    -1.1660 C.ar  1 <1>  -0.1500 
  5 O       -1.4660     2.4520     0.4540 O.3   1 <1>  -0.3630 
  6 C       -3.6330     1.8350    -0.1140 C.ar  1 <1>  -0.1500 
  7 C       -4.1770    -0.2410    -1.1680 C.ar  1 <1>  -0.1500 
  8 C       -0.0730     2.2740     0.5900 C.3   1 <1>   0.0400 
  9 C       -4.6020     0.9790    -0.6390 C.ar  1 <1>   0.0530 
 10 C       -5.9900     1.3690    -0.6420 C.2   1 <1>   0.0870 
 11 O       -6.3050     2.5840    -1.0110 O.3   1 <1>  -0.0190 
 12 C       -7.1540     0.7340    -0.3250 C.2   1 <1>  -0.0860 
 13 N       -7.5890     2.8140    -0.9720 N.2   1 <1>  -0.4100 
 14 C       -8.1230     1.7200    -0.5620 C.2   1 <1>   0.3720 
 15 C       -7.4040    -0.5900     0.1630 C.2   1 <1>   0.7160 
 16 N       -9.5080     1.5780    -0.3740 N.pl3 1 <1>  -0.8210 
 17 O       -6.5080    -1.3840     0.3760 O.2   1 <1>  -0.5700 
 18 N       -8.6800    -1.0050     0.3970 N.am  1 <1>  -0.7300 
 19 C      -10.2900     1.8870    -1.6070 C.3   1 <1>   0.1290 
 20 C      -10.0040     2.3870     0.7750 C.3   1 <1>   0.1290 
 21 C       -9.0750    -2.2060     1.1870 C.3   1 <1>   0.1400 
 22 C       -9.4130    -3.4180     0.2880 C.3   1 <1>   0.2800 
 23 O      -10.2960    -3.0000    -0.6850 O.3   1 <1>  -0.6800 
 24 C      -10.1080    -4.5330     1.0750 C.3   1 <1>  -0.1600 
 25 C       -8.1850    -3.9800    -0.4390 C.3   1 <1>  -0.1600 
 26 C      -10.4480    -5.7130     0.1680 C.3   1 <1>   0.3430 
 27 C       -8.5520    -5.1820    -1.3050 C.3   1 <1>   0.3430 
 28 N       -9.2050    -6.2370    -0.4730 N.4   1 <1>  -0.9590 
 29 C       -9.5130    -7.4380    -1.3040 C.3   1 <1>   0.2630 
 30 H       -2.5210    -1.5390    -1.5720 H     1 <1>   0.1500 
 31 H       -3.9360     2.7820     0.2940 H     1 <1>   0.1500 
 32 H       -4.9020    -0.9160    -1.5850 H     1 <1>   0.1500 
 33 H        0.3300     3.1470     1.0700 H     1 <1>   0.0800 
 34 H        0.3630     2.1620    -0.3860 H     1 <1>   0.0800 
 35 H        0.1110     1.4060     1.1980 H     1 <1>   0.0800 
 36 H       -9.3850    -0.2570     0.2800 H     1 <1>   0.3700 
 37 H       -9.8720     1.3610    -2.4480 H     1 <1>   0.0800 
 38 H      -10.2590     2.9440    -1.8140 H     1 <1>   0.0800 
 39 H      -11.3150     1.5820    -1.4810 H     1 <1>   0.0800 
 40 H       -9.4230     2.1680     1.6550 H     1 <1>   0.0800 
 41 H      -11.0360     2.1550     0.9740 H     1 <1>   0.0800 
 42 H       -9.9130     3.4390     0.5570 H     1 <1>   0.0800 
 43 H       -9.9310    -1.9560     1.7910 H     1 <1>   0.0800 
 44 H       -8.2750    -2.4710     1.8590 H     1 <1>   0.0800 
 45 H      -10.0210    -2.1010    -0.9690 H     1 <1>   0.4000 
 46 H      -11.0140    -4.1510     1.5120 H     1 <1>   0.0800 
 47 H       -9.4770    -4.8670     1.8790 H     1 <1>   0.0800 
 48 H       -7.4320    -4.2640     0.2740 H     1 <1>   0.0800 
 49 H       -7.7530    -3.2220    -1.0670 H     1 <1>   0.0800 
 50 H      -11.1390    -5.3830    -0.5930 H     1 <1>   0.0800 
 51 H      -10.9240    -6.4880     0.7470 H     1 <1>   0.0800 
 52 H       -7.6630    -5.5730    -1.7730 H     1 <1>   0.0800 
 53 H       -9.2310    -4.8610    -2.0800 H     1 <1>   0.0800 
 54 H       -8.5480    -6.5060     0.2720 H     1 <1>   0.4500 
 55 H      -10.2000    -7.1810    -2.0940 H     1 <1>   0.0800 
 56 H       -9.9590    -8.2090    -0.6970 H     1 <1>   0.0800 
 57 H       -8.6100    -7.8300    -1.7460 H     1 <1>   0.0800 
@<TRIPOS>BOND
  1   1   2  1   
  2   2   3  ar  
  3   2   4  ar  
  4   3   5  1   
  5   3   6  ar  
  6   4   7  ar  
  7   4  30  1   
  8   5   8  1   
  9   6   9  ar  
 10   6  31  1   
 11   7   9  ar  
 12   7  32  1   
 13   8  33  1   
 14   8  34  1   
 15   8  35  1   
 16   9  10  1   
 17  10  11  1   
 18  10  12  2   
 19  11  13  1   
 20  12  14  1   
 21  12  15  1   
 22  13  14  2   
 23  14  16  1   
 24  15  17  2   
 25  15  18  am  
 26  16  19  1   
 27  16  20  1   
 28  18  21  1   
 29  18  36  1   
 30  19  37  1   
 31  19  38  1   
 32  19  39  1   
 33  20  40  1   
 34  20  41  1   
 35  20  42  1   
 36  21  22  1   
 37  21  43  1   
 38  21  44  1   
 39  22  23  1   
 40  22  24  1   
 41  22  25  1   
 42  23  45  1   
 43  24  26  1   
 44  24  46  1   
 45  24  47  1   
 46  25  27  1   
 47  25  48  1   
 48  25  49  1   
 49  26  28  1   
 50  26  50  1   
 51  26  51  1   
 52  27  28  1   
 53  27  52  1   
 54  27  53  1   
 55  28  29  1   
 56  28  54  1   
 57  29  55  1   
 58  29  56  1   
 59  29  57  1   
@<TRIPOS>SUBSTRUCTURE
  1 ****  15 GROUP 4 **** **** 0

# MOE 2024.06 (io_trps.svl 2023.06)
