@<TRIPOS>MOLECULE
NONAME
33 33 1 0 0 
SMALL
USER_CHARGES


@<TRIPOS>ATOM
  1 O        1.5650     3.2500     0.6970 O.co2 1 <1>  -0.9000 
  2 C        0.8160     2.3190     0.3910 C.2   1 <1>   0.9060 
  3 O        1.2230     1.2480    -0.0560 O.co2 1 <1>  -0.9000 
  4 C       -0.6700     2.5390     0.5180 C.3   1 <1>  -0.2660 
  5 C       -1.2670     3.2350    -0.7260 C.3   1 <1>  -0.0990 
  6 C       -1.0570     4.7410    -0.8380 C.2   1 <1>   0.5690 
  7 O       -1.9220     5.3720    -1.4020 O.2   1 <1>  -0.5700 
  8 N        0.0720     5.3150    -0.3260 N.am  1 <1>  -0.4940 
  9 C        0.5780     6.6410    -0.3440 C.2   1 <1>  -0.0880 
 10 N       -0.1050     7.8180    -0.4020 N.pl3 1 <1>   0.3140 
 11 C        1.8880     6.9690    -0.2690 C.2   1 <1>  -0.1810 
 12 N        0.7340     8.8800    -0.3710 N.2   1 <1>  -0.7070 
 13 C       -1.5550     8.0400    -0.3780 C.3   1 <1>   0.0160 
 14 C        1.9200     8.3620    -0.2920 C.2   1 <1>   0.1080 
 15 C        3.0540     5.9980    -0.1670 C.3   1 <1>  -0.0590 
 16 C        3.1670     9.2230    -0.2280 C.3   1 <1>   0.0210 
 17 C        3.6700     9.3680     1.2120 C.3   1 <1>  -0.2400 
 18 H       -0.8630     3.1120     1.4040 H     1 <1>   0.0800 
 19 H       -1.1210     1.5720     0.6360 H     1 <1>   0.0800 
 20 H       -2.3270     3.0590    -0.7280 H     1 <1>   0.0800 
 21 H       -0.8660     2.7740    -1.6110 H     1 <1>   0.0800 
 22 H        0.7430     4.6260     0.0740 H     1 <1>   0.3700 
 23 H       -2.0100     7.3290     0.2840 H     1 <1>   0.0800 
 24 H       -1.9420     7.9170    -1.3710 H     1 <1>   0.0800 
 25 H       -1.7530     9.0360    -0.0320 H     1 <1>   0.0800 
 26 H        2.8420     5.1060    -0.7300 H     1 <1>   0.0800 
 27 H        3.2010     5.7160     0.8600 H     1 <1>   0.0800 
 28 H        3.9560     6.4330    -0.5490 H     1 <1>   0.0800 
 29 H        2.9340    10.1950    -0.6260 H     1 <1>   0.0800 
 30 H        3.9320     8.7910    -0.8450 H     1 <1>   0.0800 
 31 H        2.8990     9.8070     1.8210 H     1 <1>   0.0800 
 32 H        4.5400     9.9980     1.2420 H     1 <1>   0.0800 
 33 H        3.9180     8.4030     1.6160 H     1 <1>   0.0800 
@<TRIPOS>BOND
  1   1   2  ar  
  2   2   3  ar  
  3   2   4  1   
  4   4   5  1   
  5   4  18  1   
  6   4  19  1   
  7   5   6  1   
  8   5  20  1   
  9   5  21  1   
 10   6   7  2   
 11   6   8  am  
 12   8   9  1   
 13   8  22  1   
 14   9  10  1   
 15   9  11  2   
 16  10  12  1   
 17  10  13  1   
 18  11  14  1   
 19  11  15  1   
 20  12  14  2   
 21  13  23  1   
 22  13  24  1   
 23  13  25  1   
 24  14  16  1   
 25  15  26  1   
 26  15  27  1   
 27  15  28  1   
 28  16  17  1   
 29  16  29  1   
 30  16  30  1   
 31  17  31  1   
 32  17  32  1   
 33  17  33  1   
@<TRIPOS>SUBSTRUCTURE
  1 ****   9 GROUP 4 **** **** 0

# MOE 2024.06 (io_trps.svl 2023.06)
