@<TRIPOS>MOLECULE
NONAME
44 46 1 0 0 
SMALL
USER_CHARGES


@<TRIPOS>ATOM
  1 CL      -1.2920     0.8650    -0.6790 Cl    1 <1>  -0.1770 
  2 C       -0.7480     2.4190    -0.0980 C.ar  1 <1>   0.1770 
  3 C       -0.2900     3.3810    -0.9880 C.ar  1 <1>  -0.1440 
  4 C       -0.7870     2.6620     1.2620 C.ar  1 <1>  -0.1500 
  5 C        0.1350     4.6000    -0.4820 C.ar  1 <1>  -0.1500 
  6 C       -0.2590     3.1150    -2.4860 C.3   1 <1>  -0.0960 
  7 C       -0.3560     3.8840     1.7470 C.ar  1 <1>  -0.1500 
  8 C        0.1220     4.8710     0.8870 C.ar  1 <1>   0.0860 
  9 C        0.5930     6.1400     1.4050 C.2   1 <1>   0.5440 
 10 O       -0.1970     6.8880     1.9470 O.2   1 <1>  -0.5700 
 11 N        1.9140     6.5210     1.2950 N.am  1 <1>  -0.6600 
 12 C        3.0170     5.6150     0.8310 C.3   1 <1>   0.1400 
 13 C        2.3770     7.8630     1.7460 C.3   1 <1>   0.1400 
 14 C        3.5550     5.9930    -0.5600 C.3   1 <1>   0.1400 
 15 C        2.3200     8.8840     0.6020 C.3   1 <1>  -0.1600 
 16 N        3.9280     7.4400    -0.6500 N.am  1 <1>  -0.6600 
 17 C        2.7530     8.3490    -0.7700 C.3   1 <1>   0.1400 
 18 C        5.2230     7.8640    -0.3900 C.2   1 <1>   0.5440 
 19 O        6.0120     7.0220     0.0100 O.2   1 <1>  -0.5700 
 20 C        5.6830     9.2490    -0.5070 C.ar  1 <1>   0.3960 
 21 N        5.2630    10.0540    -1.5000 N.ar  1 <1>  -0.6200 
 22 C        6.5930     9.7120     0.4520 C.ar  1 <1>   0.1600 
 23 C        5.7860    11.2650    -1.4530 C.ar  1 <1>   0.1600 
 24 N        7.1100    10.9300     0.5090 N.ar  1 <1>  -0.6200 
 25 C        6.6790    11.6920    -0.4790 C.ar  1 <1>   0.1600 
 26 H       -1.1540     1.9020     1.9280 H     1 <1>   0.1500 
 27 H        0.4810     5.3690    -1.1490 H     1 <1>   0.1500 
 28 H        0.3710     2.2690    -2.6960 H     1 <1>   0.0800 
 29 H        0.1190     3.9660    -3.0240 H     1 <1>   0.0800 
 30 H       -1.2520     2.9020    -2.8410 H     1 <1>   0.0800 
 31 H       -0.3890     4.0870     2.8040 H     1 <1>   0.1500 
 32 H        2.6800     4.5940     0.8100 H     1 <1>   0.0800 
 33 H        3.8300     5.6600     1.5350 H     1 <1>   0.0800 
 34 H        3.3900     7.7840     2.1040 H     1 <1>   0.0800 
 35 H        1.7720     8.2060     2.5680 H     1 <1>   0.0800 
 36 H        2.8160     5.7670    -1.3070 H     1 <1>   0.0800 
 37 H        4.4140     5.3820    -0.7780 H     1 <1>   0.0800 
 38 H        2.9320     9.7280     0.8620 H     1 <1>   0.0800 
 39 H        1.3110     9.2460     0.5200 H     1 <1>   0.0800 
 40 H        2.9630     9.1630    -1.4400 H     1 <1>   0.0800 
 41 H        1.9310     7.8020    -1.1980 H     1 <1>   0.0800 
 42 H        6.9040     9.0210     1.2170 H     1 <1>   0.1500 
 43 H        5.4960    11.9590    -2.2220 H     1 <1>   0.1500 
 44 H        7.0510    12.7010    -0.5210 H     1 <1>   0.1500 
@<TRIPOS>BOND
  1   1   2  1   
  2   2   3  ar  
  3   2   4  ar  
  4   3   5  ar  
  5   3   6  1   
  6   4   7  ar  
  7   4  26  1   
  8   5   8  ar  
  9   5  27  1   
 10   6  28  1   
 11   6  29  1   
 12   6  30  1   
 13   7   8  ar  
 14   7  31  1   
 15   8   9  1   
 16   9  10  2   
 17   9  11  am  
 18  11  12  1   
 19  11  13  1   
 20  12  14  1   
 21  12  32  1   
 22  12  33  1   
 23  13  15  1   
 24  13  34  1   
 25  13  35  1   
 26  14  16  1   
 27  14  36  1   
 28  14  37  1   
 29  15  17  1   
 30  15  38  1   
 31  15  39  1   
 32  16  17  1   
 33  16  18  am  
 34  17  40  1   
 35  17  41  1   
 36  18  19  2   
 37  18  20  1   
 38  20  21  ar  
 39  20  22  ar  
 40  21  23  ar  
 41  22  24  ar  
 42  22  42  1   
 43  23  25  ar  
 44  23  43  1   
 45  24  25  ar  
 46  25  44  1   
@<TRIPOS>SUBSTRUCTURE
  1 ****  14 GROUP 4 **** **** 0

# MOE 2024.06 (io_trps.svl 2023.06)
