@<TRIPOS>MOLECULE
NONAME
47 50 1 0 0 
SMALL
USER_CHARGES


@<TRIPOS>ATOM
  1 O       -3.1630    -2.0240    -2.5570 O.2   1 <1>  -0.5700 
  2 C       -2.9200    -1.9740    -1.3730 C.2   1 <1>   0.5690 
  3 N       -2.7310    -0.7870    -0.7130 N.am  1 <1>  -0.6600 
  4 C       -2.8410    -3.2920    -0.6200 C.3   1 <1>  -0.0190 
  5 C       -2.5150    -0.7330     0.7720 C.3   1 <1>   0.2200 
  6 C       -2.9710     0.5250    -1.3760 C.3   1 <1>   0.0600 
  7 C       -1.4490    -3.4880    -0.0010 C.3   1 <1>   0.1200 
  8 C       -3.9950    -3.4740     0.3870 C.3   1 <1>   0.1400 
  9 C       -1.1960    -1.4340     1.1560 C.3   1 <1>   0.1200 
 10 C       -3.7210    -1.2740     1.5870 C.3   1 <1>   0.1400 
 11 O       -1.3190    -2.8250     1.2190 O.3   1 <1>  -0.5600 
 12 N       -4.6220    -2.1790     0.8000 N.am  1 <1>  -0.6600 
 13 C       -5.8280    -1.7060     0.3340 C.2   1 <1>   0.5690 
 14 O       -6.2990    -0.6700     0.7470 O.2   1 <1>  -0.5700 
 15 C       -6.6130    -2.4310    -0.7550 C.3   1 <1>   0.0440 
 16 C       -7.2460    -3.7440    -0.2990 C.ar  1 <1>  -0.1440 
 17 C       -7.1300    -4.8840    -1.0500 C.ar  1 <1>  -0.1500 
 18 C       -7.9600    -3.7870     0.9070 C.ar  1 <1>  -0.1500 
 19 C       -7.6980    -6.1050    -0.6350 C.ar  1 <1>   0.0000 
 20 C       -8.5220    -4.9580     1.3350 C.ar  1 <1>  -0.1500 
 21 C       -8.4070    -6.1440     0.5840 C.ar  1 <1>   0.0000 
 22 C       -7.5840    -7.2900    -1.3910 C.ar  1 <1>  -0.1500 
 23 C       -8.9720    -7.3670     1.0010 C.ar  1 <1>  -0.1500 
 24 C       -8.1420    -8.4630    -0.9620 C.ar  1 <1>  -0.1500 
 25 C       -8.8440    -8.5020     0.2480 C.ar  1 <1>  -0.1500 
 26 H       -2.9420    -4.0700    -1.3530 H     1 <1>   0.0800 
 27 H       -2.3890     0.2990     1.0480 H     1 <1>   0.0800 
 28 H       -2.1270     1.1730    -1.2210 H     1 <1>   0.0800 
 29 H       -3.8540     0.9810    -0.9620 H     1 <1>   0.0800 
 30 H       -3.1150     0.3970    -2.4350 H     1 <1>   0.0800 
 31 H       -0.6730    -3.1560    -0.6700 H     1 <1>   0.0800 
 32 H       -1.2960    -4.5340     0.2010 H     1 <1>   0.0800 
 33 H       -3.6390    -3.9840     1.2660 H     1 <1>   0.0800 
 34 H       -4.7340    -4.1140    -0.0540 H     1 <1>   0.0800 
 35 H       -0.9050    -1.1110     2.1390 H     1 <1>   0.0800 
 36 H       -0.4080    -1.1740     0.4700 H     1 <1>   0.0800 
 37 H       -4.2800    -0.4310     1.9500 H     1 <1>   0.0800 
 38 H       -3.3700    -1.7990     2.4590 H     1 <1>   0.0800 
 39 H       -7.3970    -1.7800    -1.0960 H     1 <1>   0.0800 
 40 H       -5.9580    -2.5980    -1.5890 H     1 <1>   0.0800 
 41 H       -6.5970    -4.8720    -1.9830 H     1 <1>   0.1500 
 42 H       -8.0590    -2.8890     1.4940 H     1 <1>   0.1500 
 43 H       -9.0670    -4.9890     2.2610 H     1 <1>   0.1500 
 44 H       -7.0460    -7.2540    -2.3210 H     1 <1>   0.1500 
 45 H       -9.5100    -7.3900     1.9310 H     1 <1>   0.1500 
 46 H       -8.0520    -9.3640    -1.5430 H     1 <1>   0.1500 
 47 H       -9.2770    -9.4320     0.5720 H     1 <1>   0.1500 
@<TRIPOS>BOND
  1   1   2  2   
  2   2   3  am  
  3   2   4  1   
  4   3   5  1   
  5   3   6  1   
  6   4   7  1   
  7   4   8  1   
  8   4  26  1   
  9   5   9  1   
 10   5  10  1   
 11   5  27  1   
 12   6  28  1   
 13   6  29  1   
 14   6  30  1   
 15   7  11  1   
 16   7  31  1   
 17   7  32  1   
 18   8  12  1   
 19   8  33  1   
 20   8  34  1   
 21   9  11  1   
 22   9  35  1   
 23   9  36  1   
 24  10  12  1   
 25  10  37  1   
 26  10  38  1   
 27  12  13  am  
 28  13  14  2   
 29  13  15  1   
 30  15  16  1   
 31  15  39  1   
 32  15  40  1   
 33  16  17  ar  
 34  16  18  ar  
 35  17  19  ar  
 36  17  41  1   
 37  18  20  ar  
 38  18  42  1   
 39  19  21  ar  
 40  19  22  ar  
 41  20  21  ar  
 42  20  43  1   
 43  21  23  ar  
 44  22  24  ar  
 45  22  44  1   
 46  23  25  ar  
 47  23  45  1   
 48  24  25  ar  
 49  24  46  1   
 50  25  47  1   
@<TRIPOS>SUBSTRUCTURE
  1 ****   8 GROUP 4 **** **** 0

# MOE 2024.06 (io_trps.svl 2023.06)
