@<TRIPOS>MOLECULE
NONAME
49 51 1 0 0 
SMALL
USER_CHARGES


@<TRIPOS>ATOM
  1 O       -1.3290    -0.5830     1.2650 O.2   1 <1>  -0.5700 
  2 C       -1.6200     0.3860     0.5840 C.2   1 <1>   0.7160 
  3 N       -2.5220     0.1870    -0.4380 N.am  1 <1>  -0.6600 
  4 C       -1.0540     1.6820     0.8680 C.2   1 <1>  -0.0860 
  5 C       -2.7150    -1.1820    -0.9830 C.3   1 <1>   0.1400 
  6 C       -3.7080     1.0710    -0.5900 C.3   1 <1>   0.1400 
  7 C       -0.3780     2.0220     2.0420 C.2   1 <1>   0.1390 
  8 C       -1.0010     2.8350     0.1420 C.2   1 <1>  -0.3020 
  9 C       -3.8870    -1.8630    -0.2410 C.3   1 <1>   0.4230 
 10 C       -4.8960     0.4180     0.1320 C.3   1 <1>  -0.1600 
 11 N        0.0380     3.2490     2.0520 N.2   1 <1>  -0.7070 
 12 N       -0.3460     3.7530     0.8680 N.pl3 1 <1>   0.3140 
 13 N       -4.0560    -3.3400    -0.5720 N.4   1 <1>  -0.9590 
 14 C       -5.2030    -1.0330    -0.3440 C.3   1 <1>   0.0000 
 15 C       -0.0440     5.1470     0.4810 C.3   1 <1>   0.0960 
 16 C       -5.3980    -3.9000    -0.2060 C.3   1 <1>   0.3430 
 17 C       -3.7020    -3.7360    -1.9750 C.3   1 <1>   0.2630 
 18 C       -6.2750    -1.6510     0.6020 C.3   1 <1>  -0.1600 
 19 C       -5.7170    -1.0210    -1.8130 C.3   1 <1>   0.1200 
 20 C        1.1220     5.2050    -0.5140 C.3   1 <1>  -0.2400 
 21 C       -6.0150    -3.1270     0.9580 C.3   1 <1>  -0.1600 
 22 O       -6.7660    -0.1340    -1.9830 O.3   1 <1>  -0.6800 
 23 H       -2.9000    -1.1100    -2.0390 H     1 <1>   0.0800 
 24 H       -1.8130    -1.7520    -0.8360 H     1 <1>   0.0800 
 25 H       -3.5190     2.0390    -0.1570 H     1 <1>   0.0800 
 26 H       -3.9270     1.2140    -1.6360 H     1 <1>   0.0800 
 27 H       -0.2180     1.3350     2.8570 H     1 <1>   0.1500 
 28 H       -1.3850     3.0330    -0.8420 H     1 <1>   0.1500 
 29 H       -3.6110    -1.8210     0.8010 H     1 <1>   0.0800 
 30 H       -4.6640     0.4160     1.1840 H     1 <1>   0.0800 
 31 H       -5.7600     1.0490     0.0130 H     1 <1>   0.0800 
 32 H       -3.3780    -3.8110     0.0480 H     1 <1>   0.4500 
 33 H       -0.9270     5.5800     0.0490 H     1 <1>   0.0800 
 34 H        0.2060     5.6950     1.3720 H     1 <1>   0.0800 
 35 H       -6.0640    -3.8340    -1.0510 H     1 <1>   0.0800 
 36 H       -5.3010    -4.9420     0.0580 H     1 <1>   0.0800 
 37 H       -4.3490    -3.2430    -2.6820 H     1 <1>   0.0800 
 38 H       -3.8090    -4.8020    -2.0990 H     1 <1>   0.0800 
 39 H       -2.6810    -3.4730    -2.1970 H     1 <1>   0.0800 
 40 H       -6.3240    -1.1030     1.5290 H     1 <1>   0.0800 
 41 H       -7.2520    -1.5660     0.1590 H     1 <1>   0.0800 
 42 H       -6.0650    -1.9910    -2.1190 H     1 <1>   0.0800 
 43 H       -4.9470    -0.7070    -2.4950 H     1 <1>   0.0800 
 44 H        0.8760     4.6730    -1.4160 H     1 <1>   0.0800 
 45 H        2.0030     4.7710    -0.0730 H     1 <1>   0.0800 
 46 H        1.3350     6.2280    -0.7660 H     1 <1>   0.0800 
 47 H       -6.9460    -3.5910     1.2380 H     1 <1>   0.0800 
 48 H       -5.3620    -3.1940     1.8120 H     1 <1>   0.0800 
 49 H       -7.5600    -0.3920    -1.4730 H     1 <1>   0.4000 
@<TRIPOS>BOND
  1   1   2  2   
  2   2   3  am  
  3   2   4  1   
  4   3   5  1   
  5   3   6  1   
  6   4   7  1   
  7   4   8  2   
  8   5   9  1   
  9   5  23  1   
 10   5  24  1   
 11   6  10  1   
 12   6  25  1   
 13   6  26  1   
 14   7  11  2   
 15   7  27  1   
 16   8  12  1   
 17   8  28  1   
 18   9  13  1   
 19   9  14  1   
 20   9  29  1   
 21  10  14  1   
 22  10  30  1   
 23  10  31  1   
 24  11  12  1   
 25  12  15  1   
 26  13  16  1   
 27  13  17  1   
 28  13  32  1   
 29  14  18  1   
 30  14  19  1   
 31  15  20  1   
 32  15  33  1   
 33  15  34  1   
 34  16  21  1   
 35  16  35  1   
 36  16  36  1   
 37  17  37  1   
 38  17  38  1   
 39  17  39  1   
 40  18  21  1   
 41  18  40  1   
 42  18  41  1   
 43  19  22  1   
 44  19  42  1   
 45  19  43  1   
 46  20  44  1   
 47  20  45  1   
 48  20  46  1   
 49  21  47  1   
 50  21  48  1   
 51  22  49  1   
@<TRIPOS>SUBSTRUCTURE
  1 ****   3 GROUP 4 **** **** 0

# MOE 2024.06 (io_trps.svl 2023.06)
