@<TRIPOS>MOLECULE
NONAME
53 56 1 0 0 
SMALL
USER_CHARGES


@<TRIPOS>ATOM
  1 O       -0.8240     1.2480    -1.5870 O.2   1 <1>  -0.5700 
  2 C       -1.8290     1.4510    -0.9440 C.2   1 <1>   0.5690 
  3 N       -2.7730     0.4670    -0.7700 N.am  1 <1>  -0.6600 
  4 C       -2.0150     2.8330    -0.3160 C.3   1 <1>  -0.0190 
  5 C       -2.6200    -0.8430    -1.4740 C.3   1 <1>   0.1400 
  6 C       -3.9690     0.6200     0.1150 C.3   1 <1>   0.1400 
  7 C       -1.3060     3.9540    -1.0620 C.3   1 <1>   0.1200 
  8 C       -1.4250     2.9650     1.0850 C.3   1 <1>  -0.1600 
  9 C       -3.9860    -1.3970    -1.8900 C.3   1 <1>  -0.1600 
 10 C       -4.5170    -0.7460     0.5240 C.3   1 <1>  -0.1600 
 11 O       -1.1600     4.9580    -0.1120 O.3   1 <1>  -0.5600 
 12 C       -0.8900     4.3960     1.1320 C.3   1 <1>   0.1200 
 13 C       -4.9700    -1.5440    -0.7080 C.3   1 <1>   0.4240 
 14 O       -6.1750    -0.9310    -1.0930 O.3   1 <1>  -0.5600 
 15 C       -5.1840    -3.0280    -0.3330 C.ar  1 <1>  -0.1440 
 16 C       -7.0400    -1.6780    -1.8910 C.3   1 <1>   0.1200 
 17 C       -6.4170    -3.6440    -0.4990 C.ar  1 <1>  -0.1440 
 18 C       -4.1330    -3.7850     0.1680 C.ar  1 <1>  -0.1500 
 19 C       -7.5750    -2.8470    -1.0680 C.3   1 <1>  -0.0170 
 20 C       -6.5920    -4.9760    -0.1590 C.ar  1 <1>  -0.1500 
 21 C       -4.2890    -5.1160     0.5180 C.ar  1 <1>   0.0820 
 22 C       -5.5380    -5.7330     0.3460 C.ar  1 <1>   0.0820 
 23 O       -3.1630    -5.7070     1.0090 O.3   1 <1>  -0.3620 
 24 O       -5.6980    -7.0550     0.6530 O.3   1 <1>  -0.3620 
 25 C       -3.2300    -6.7640     1.9410 C.3   1 <1>   0.0400 
 26 C       -6.8910    -7.7550     0.3750 C.3   1 <1>   0.0400 
 27 H       -3.0580     3.0870    -0.2990 H     1 <1>   0.0800 
 28 H       -2.1220    -1.5360    -0.8180 H     1 <1>   0.0800 
 29 H       -2.0080    -0.7230    -2.3520 H     1 <1>   0.0800 
 30 H       -4.7310     1.1700    -0.4120 H     1 <1>   0.0800 
 31 H       -3.7030     1.1670     1.0020 H     1 <1>   0.0800 
 32 H       -1.8780     4.3260    -1.8940 H     1 <1>   0.0800 
 33 H       -0.3220     3.6620    -1.3880 H     1 <1>   0.0800 
 34 H       -0.6090     2.2780     1.2240 H     1 <1>   0.0800 
 35 H       -2.1600     2.7970     1.8500 H     1 <1>   0.0800 
 36 H       -3.8410    -2.3510    -2.3630 H     1 <1>   0.0800 
 37 H       -4.3920    -0.7280    -2.6270 H     1 <1>   0.0800 
 38 H       -5.3510    -0.6290     1.1930 H     1 <1>   0.0800 
 39 H       -3.7500    -1.2680     1.0640 H     1 <1>   0.0800 
 40 H        0.1760     4.4110     1.2840 H     1 <1>   0.0800 
 41 H       -1.3790     4.9900     1.8840 H     1 <1>   0.0800 
 42 H       -6.5080    -2.0260    -2.7600 H     1 <1>   0.0800 
 43 H       -7.8440    -1.0350    -2.2010 H     1 <1>   0.0800 
 44 H       -3.1600    -3.3500     0.2990 H     1 <1>   0.1500 
 45 H       -8.1850    -3.4710    -1.6960 H     1 <1>   0.0800 
 46 H       -8.1850    -2.4710    -0.2670 H     1 <1>   0.0800 
 47 H       -7.5630    -5.4070    -0.3000 H     1 <1>   0.1500 
 48 H       -2.2770    -6.8390     2.4320 H     1 <1>   0.0800 
 49 H       -3.4400    -7.6770     1.4140 H     1 <1>   0.0800 
 50 H       -4.0010    -6.5510     2.6600 H     1 <1>   0.0800 
 51 H       -6.7480    -8.7820     0.6570 H     1 <1>   0.0800 
 52 H       -7.0960    -7.6910    -0.6790 H     1 <1>   0.0800 
 53 H       -7.6910    -7.3270     0.9530 H     1 <1>   0.0800 
@<TRIPOS>BOND
  1   1   2  2   
  2   2   3  am  
  3   2   4  1   
  4   3   5  1   
  5   3   6  1   
  6   4   7  1   
  7   4   8  1   
  8   4  27  1   
  9   5   9  1   
 10   5  28  1   
 11   5  29  1   
 12   6  10  1   
 13   6  30  1   
 14   6  31  1   
 15   7  11  1   
 16   7  32  1   
 17   7  33  1   
 18   8  12  1   
 19   8  34  1   
 20   8  35  1   
 21   9  13  1   
 22   9  36  1   
 23   9  37  1   
 24  10  13  1   
 25  10  38  1   
 26  10  39  1   
 27  11  12  1   
 28  12  40  1   
 29  12  41  1   
 30  13  14  1   
 31  13  15  1   
 32  14  16  1   
 33  15  17  ar  
 34  15  18  ar  
 35  16  19  1   
 36  16  42  1   
 37  16  43  1   
 38  17  19  1   
 39  17  20  ar  
 40  18  21  ar  
 41  18  44  1   
 42  19  45  1   
 43  19  46  1   
 44  20  22  ar  
 45  20  47  1   
 46  21  22  ar  
 47  21  23  1   
 48  22  24  1   
 49  23  25  1   
 50  24  26  1   
 51  25  48  1   
 52  25  49  1   
 53  25  50  1   
 54  26  51  1   
 55  26  52  1   
 56  26  53  1   
@<TRIPOS>SUBSTRUCTURE
  1 ****  13 GROUP 4 **** **** 0

# MOE 2024.06 (io_trps.svl 2023.06)
