@<TRIPOS>MOLECULE
NONAME
42 43 1 0 0 
SMALL
USER_CHARGES


@<TRIPOS>ATOM
  1 S        0.9200    -0.8740     1.8630 S.o2  1 <1>   1.4470 
  2 O        2.1430    -1.6250     1.6800 O.2   1 <1>  -0.6500 
  3 O        0.6630    -0.2520     3.1380 O.2   1 <1>  -0.6500 
  4 N       -0.3370    -1.9630     1.6490 N.am  1 <1>  -0.9140 
  5 C        0.7210     0.3040     0.5090 C.ar  1 <1>  -0.0090 
  6 C       -0.0410    -3.1060     0.7980 C.3   1 <1>   0.2760 
  7 C       -0.4720     0.9810     0.3090 C.ar  1 <1>   0.1900 
  8 C        1.7540     0.5750    -0.3840 C.ar  1 <1>  -0.1500 
  9 C       -1.3460    -3.7350     0.3310 C.3   1 <1>  -0.0800 
 10 C        0.5270    -4.2490     1.6350 C.3   1 <1>   0.1200 
 11 F       -1.4800     0.7680     1.1100 F     1 <1>  -0.1900 
 12 C       -0.6620     1.8860    -0.7190 C.ar  1 <1>  -0.1500 
 13 C        1.5880     1.4790    -1.4230 C.ar  1 <1>  -0.1500 
 14 C       -1.7170    -4.6710     1.4900 C.3   1 <1>   0.1200 
 15 C       -2.4530    -2.7270    -0.0470 C.3   1 <1>  -0.0550 
 16 O       -0.5780    -4.7850     2.2930 O.3   1 <1>  -0.5600 
 17 C        0.3800     2.1350    -1.5930 C.ar  1 <1>  -0.1500 
 18 S       -3.8970    -3.5060    -0.7600 S.o2  1 <1>   1.3330 
 19 O       -4.5870    -4.2610     0.2620 O.2   1 <1>  -0.6500 
 20 O       -3.4750    -4.1680    -1.9740 O.2   1 <1>  -0.6500 
 21 N       -4.8760    -2.1870    -1.1870 N.am  1 <1>  -0.8490 
 22 C       -5.6060    -1.6130    -0.0520 C.3   1 <1>   0.1160 
 23 C       -5.8140    -2.5240    -2.2620 C.3   1 <1>   0.1160 
 24 H       -0.5060    -2.3440     2.5830 H     1 <1>   0.4200 
 25 H        0.5940    -2.8310    -0.0290 H     1 <1>   0.0800 
 26 H        2.7030     0.0760    -0.2660 H     1 <1>   0.1500 
 27 H       -1.1330    -4.3480    -0.5280 H     1 <1>   0.0800 
 28 H        1.2610    -3.9320     2.3560 H     1 <1>   0.0800 
 29 H        0.9440    -5.0150     1.0060 H     1 <1>   0.0800 
 30 H       -1.6090     2.3850    -0.8300 H     1 <1>   0.1500 
 31 H        2.4030     1.6730    -2.1010 H     1 <1>   0.1500 
 32 H       -1.9970    -5.6500     1.1390 H     1 <1>   0.0800 
 33 H       -2.5070    -4.2670     2.1000 H     1 <1>   0.0800 
 34 H       -2.0540    -2.0310    -0.7590 H     1 <1>   0.0800 
 35 H       -2.7460    -2.1700     0.8210 H     1 <1>   0.0800 
 36 H        0.2550     2.8370    -2.4010 H     1 <1>   0.1500 
 37 H       -6.1490    -0.7390    -0.3660 H     1 <1>   0.0800 
 38 H       -4.9190    -1.3220     0.7240 H     1 <1>   0.0800 
 39 H       -6.3010    -2.3310     0.3520 H     1 <1>   0.0800 
 40 H       -6.4050    -1.6640    -2.5260 H     1 <1>   0.0800 
 41 H       -6.4670    -3.3240    -1.9530 H     1 <1>   0.0800 
 42 H       -5.2720    -2.8400    -3.1390 H     1 <1>   0.0800 
@<TRIPOS>BOND
  1   1   2  2   
  2   1   3  2   
  3   1   4  am  
  4   1   5  1   
  5   4   6  1   
  6   4  24  1   
  7   5   7  ar  
  8   5   8  ar  
  9   6   9  1   
 10   6  10  1   
 11   6  25  1   
 12   7  11  1   
 13   7  12  ar  
 14   8  13  ar  
 15   8  26  1   
 16   9  14  1   
 17   9  15  1   
 18   9  27  1   
 19  10  16  1   
 20  10  28  1   
 21  10  29  1   
 22  12  17  ar  
 23  12  30  1   
 24  13  17  ar  
 25  13  31  1   
 26  14  16  1   
 27  14  32  1   
 28  14  33  1   
 29  15  18  1   
 30  15  34  1   
 31  15  35  1   
 32  17  36  1   
 33  18  19  2   
 34  18  20  2   
 35  18  21  am  
 36  21  22  1   
 37  21  23  1   
 38  22  37  1   
 39  22  38  1   
 40  22  39  1   
 41  23  40  1   
 42  23  41  1   
 43  23  42  1   
@<TRIPOS>SUBSTRUCTURE
  1 ****  15 GROUP 4 **** **** 0

# MOE 2024.06 (io_trps.svl 2023.06)
