@<TRIPOS>MOLECULE
NONAME
54 56 1 0 0 
SMALL
USER_CHARGES


@<TRIPOS>ATOM
  1 S       -0.4550     0.2590     1.0280 S.o2  1 <1>   1.3330 
  2 O       -0.9580     0.6240     2.3300 O.2   1 <1>  -0.6500 
  3 O        0.7390     0.8720     0.4970 O.2   1 <1>  -0.6500 
  4 N       -1.7140     0.5030    -0.1430 N.am  1 <1>  -0.6930 
  5 C       -0.2410    -1.5060     0.9600 C.3   1 <1>  -0.1350 
  6 C       -2.9940    -0.0110     0.0100 C.ar  1 <1>   0.1990 
  7 C       -1.3410     1.2080    -1.3940 C.3   1 <1>   0.1160 
  8 C       -3.7690     0.2850     1.1270 C.ar  1 <1>  -0.1500 
  9 C       -3.5400    -0.8500    -0.9560 C.ar  1 <1>  -0.1500 
 10 C       -5.0360    -0.2440     1.2760 C.ar  1 <1>  -0.1500 
 11 C       -4.8090    -1.3750    -0.8080 C.ar  1 <1>  -0.1500 
 12 C       -5.5930    -1.0820     0.3080 C.ar  1 <1>   0.0860 
 13 C       -6.9210    -1.6420     0.4520 C.2   1 <1>   0.5440 
 14 O       -7.0660    -2.8440     0.3210 O.2   1 <1>  -0.5700 
 15 N       -8.0260    -0.8590     0.7270 N.am  1 <1>  -0.6600 
 16 C       -9.3400    -1.4650     1.1040 C.3   1 <1>   0.1400 
 17 C       -8.0710     0.6160     0.5300 C.3   1 <1>   0.1400 
 18 C      -10.4410    -1.1520     0.0620 C.3   1 <1>   0.0000 
 19 C       -9.1390     0.9730    -0.5080 C.3   1 <1>  -0.1600 
 20 C      -11.7700    -1.7660     0.5490 C.3   1 <1>   0.2000 
 21 C      -10.5110     0.3800    -0.1500 C.3   1 <1>  -0.1600 
 22 C      -10.1800    -1.9120    -1.2500 C.3   1 <1>  -0.1600 
 23 O      -12.8430    -1.1670    -0.1230 O.3   1 <1>  -0.5600 
 24 C      -11.7020    -3.2430     0.1390 C.3   1 <1>  -0.1600 
 25 C      -10.7090    -3.3310    -1.0280 C.3   1 <1>  -0.1600 
 26 C      -14.0680    -1.2410     0.5340 C.3   1 <1>   0.0400 
 27 H       -1.1500    -2.0000     1.2440 H     1 <1>   0.0800 
 28 H        0.5380    -1.8070     1.6310 H     1 <1>   0.0800 
 29 H        0.0230    -1.8090    -0.0340 H     1 <1>   0.0800 
 30 H       -2.2090     1.3750    -2.0070 H     1 <1>   0.0800 
 31 H       -0.6220     0.6240    -1.9430 H     1 <1>   0.0800 
 32 H       -0.9010     2.1610    -1.1520 H     1 <1>   0.0800 
 33 H       -3.3730     0.9380     1.8850 H     1 <1>   0.1500 
 34 H       -2.9600    -1.0980    -1.8250 H     1 <1>   0.1500 
 35 H       -5.6110    -0.0120     2.1550 H     1 <1>   0.1500 
 36 H       -5.2150    -2.0310    -1.5600 H     1 <1>   0.1500 
 37 H       -9.2370    -2.5290     1.2240 H     1 <1>   0.0800 
 38 H       -9.6310    -1.0640     2.0580 H     1 <1>   0.0800 
 39 H       -8.3050     1.0870     1.4700 H     1 <1>   0.0800 
 40 H       -7.1210     0.9910     0.1940 H     1 <1>   0.0800 
 41 H       -9.2200     2.0430    -0.5790 H     1 <1>   0.0800 
 42 H       -8.8240     0.6080    -1.4700 H     1 <1>   0.0800 
 43 H      -11.9030    -1.6340     1.6100 H     1 <1>   0.0800 
 44 H      -11.2110     0.6130    -0.9340 H     1 <1>   0.0800 
 45 H      -10.8710     0.8420     0.7520 H     1 <1>   0.0800 
 46 H      -10.7490    -1.4570    -2.0420 H     1 <1>   0.0800 
 47 H       -9.1420    -1.9160    -1.5320 H     1 <1>   0.0800 
 48 H      -11.3230    -3.8220     0.9620 H     1 <1>   0.0800 
 49 H      -12.6660    -3.6310    -0.1370 H     1 <1>   0.0800 
 50 H       -9.8950    -3.9880    -0.7680 H     1 <1>   0.0800 
 51 H      -11.1850    -3.7010    -1.9200 H     1 <1>   0.0800 
 52 H      -14.8100    -0.7770    -0.0930 H     1 <1>   0.0800 
 53 H      -14.0020    -0.7110     1.4680 H     1 <1>   0.0800 
 54 H      -14.3280    -2.2710     0.7000 H     1 <1>   0.0800 
@<TRIPOS>BOND
  1   1   2  2   
  2   1   3  2   
  3   1   4  am  
  4   1   5  1   
  5   4   6  1   
  6   4   7  1   
  7   5  27  1   
  8   5  28  1   
  9   5  29  1   
 10   6   8  ar  
 11   6   9  ar  
 12   7  30  1   
 13   7  31  1   
 14   7  32  1   
 15   8  10  ar  
 16   8  33  1   
 17   9  11  ar  
 18   9  34  1   
 19  10  12  ar  
 20  10  35  1   
 21  11  12  ar  
 22  11  36  1   
 23  12  13  1   
 24  13  14  2   
 25  13  15  am  
 26  15  16  1   
 27  15  17  1   
 28  16  18  1   
 29  16  37  1   
 30  16  38  1   
 31  17  19  1   
 32  17  39  1   
 33  17  40  1   
 34  18  20  1   
 35  18  21  1   
 36  18  22  1   
 37  19  21  1   
 38  19  41  1   
 39  19  42  1   
 40  20  23  1   
 41  20  24  1   
 42  20  43  1   
 43  21  44  1   
 44  21  45  1   
 45  22  25  1   
 46  22  46  1   
 47  22  47  1   
 48  23  26  1   
 49  24  25  1   
 50  24  48  1   
 51  24  49  1   
 52  25  50  1   
 53  25  51  1   
 54  26  52  1   
 55  26  53  1   
 56  26  54  1   
@<TRIPOS>SUBSTRUCTURE
  1 ****  13 GROUP 4 **** **** 0

# MOE 2024.06 (io_trps.svl 2023.06)
