@<TRIPOS>MOLECULE
NONAME
43 45 1 0 0 
SMALL
USER_CHARGES


@<TRIPOS>ATOM
  1 CL      -1.2960     0.3680     1.2970 Cl    1 <1>  -0.1770 
  2 C       -2.1180    -0.7150     0.1950 C.ar  1 <1>   0.1770 
  3 C       -2.7260    -0.2340    -0.9520 C.ar  1 <1>   0.1900 
  4 C       -2.1570    -2.0650     0.4800 C.ar  1 <1>  -0.1500 
  5 F       -2.6950     1.0410    -1.2270 F     1 <1>  -0.1900 
  6 C       -3.3720    -1.0860    -1.8270 C.ar  1 <1>  -0.1500 
  7 C       -2.8110    -2.9560    -0.3750 C.ar  1 <1>   0.0860 
  8 C       -3.4060    -2.4400    -1.5320 C.ar  1 <1>  -0.1500 
  9 C       -2.8540    -4.3720    -0.0620 C.2   1 <1>   0.5440 
 10 O       -1.8330    -4.9410     0.2720 O.2   1 <1>  -0.5700 
 11 N       -4.0240    -5.0920    -0.1210 N.am  1 <1>  -0.6600 
 12 C       -5.3870    -4.5150    -0.1340 C.3   1 <1>   0.1400 
 13 C       -4.0750    -6.5470     0.1380 C.3   1 <1>   0.1400 
 14 C       -6.2810    -5.5790     0.5180 C.3   1 <1>  -0.0800 
 15 C       -5.5610    -6.9090     0.2230 C.3   1 <1>  -0.0800 
 16 C       -7.7900    -5.5440     0.1250 C.3   1 <1>   0.2800 
 17 C       -6.0880    -7.5420    -1.0740 C.3   1 <1>  -0.1600 
 18 O       -7.9490    -4.9770    -1.1270 O.3   1 <1>  -0.6800 
 19 C       -8.3480    -6.9760     0.0280 C.3   1 <1>  -0.1600 
 20 C       -8.6440    -4.7110     1.1070 C.3   1 <1>  -0.1600 
 21 C       -7.5890    -7.8690    -0.9780 C.3   1 <1>  -0.1600 
 22 C       -8.2510    -3.2290     1.2380 C.3   1 <1>  -0.2400 
 23 H       -1.6780    -2.4390     1.3680 H     1 <1>   0.1500 
 24 H       -3.8350    -0.6970    -2.7170 H     1 <1>   0.1500 
 25 H       -3.8960    -3.1180    -2.2110 H     1 <1>   0.1500 
 26 H       -5.4230    -3.5860     0.4060 H     1 <1>   0.0800 
 27 H       -5.6630    -4.3450    -1.1590 H     1 <1>   0.0800 
 28 H       -3.5710    -7.0850    -0.6460 H     1 <1>   0.0800 
 29 H       -3.5860    -6.7520     1.0760 H     1 <1>   0.0800 
 30 H       -6.2120    -5.4370     1.5810 H     1 <1>   0.0800 
 31 H       -5.7090    -7.6080     1.0280 H     1 <1>   0.0800 
 32 H       -5.9330    -6.8490    -1.8840 H     1 <1>   0.0800 
 33 H       -5.5380    -8.4380    -1.3050 H     1 <1>   0.0800 
 34 H       -8.8820    -5.0510    -1.3950 H     1 <1>   0.4000 
 35 H       -8.2680    -7.4270     1.0020 H     1 <1>   0.0800 
 36 H       -9.3940    -6.9600    -0.2200 H     1 <1>   0.0800 
 37 H       -9.6750    -4.7660     0.8050 H     1 <1>   0.0800 
 38 H       -8.5840    -5.1620     2.0820 H     1 <1>   0.0800 
 39 H       -7.7160    -8.8980    -0.6880 H     1 <1>   0.0800 
 40 H       -8.0240    -7.7540    -1.9570 H     1 <1>   0.0800 
 41 H       -8.2490    -2.7470     0.2750 H     1 <1>   0.0800 
 42 H       -7.2780    -3.1270     1.6810 H     1 <1>   0.0800 
 43 H       -8.9590    -2.7200     1.8680 H     1 <1>   0.0800 
@<TRIPOS>BOND
  1   1   2  1   
  2   2   3  ar  
  3   2   4  ar  
  4   3   5  1   
  5   3   6  ar  
  6   4   7  ar  
  7   4  23  1   
  8   6   8  ar  
  9   6  24  1   
 10   7   8  ar  
 11   7   9  1   
 12   8  25  1   
 13   9  10  2   
 14   9  11  am  
 15  11  12  1   
 16  11  13  1   
 17  12  14  1   
 18  12  26  1   
 19  12  27  1   
 20  13  15  1   
 21  13  28  1   
 22  13  29  1   
 23  14  15  1   
 24  14  16  1   
 25  14  30  1   
 26  15  17  1   
 27  15  31  1   
 28  16  18  1   
 29  16  19  1   
 30  16  20  1   
 31  17  21  1   
 32  17  32  1   
 33  17  33  1   
 34  18  34  1   
 35  19  21  1   
 36  19  35  1   
 37  19  36  1   
 38  20  22  1   
 39  20  37  1   
 40  20  38  1   
 41  21  39  1   
 42  21  40  1   
 43  22  41  1   
 44  22  42  1   
 45  22  43  1   
@<TRIPOS>SUBSTRUCTURE
  1 ****  12 GROUP 4 **** **** 0

# MOE 2024.06 (io_trps.svl 2023.06)
