@<TRIPOS>MOLECULE
NONAME
49 52 1 0 0 
SMALL
USER_CHARGES


@<TRIPOS>ATOM
  1 O        3.1180    -0.6240     1.6020 O.2   1 <1>  -0.5700 
  2 C        2.2670    -1.3020     1.0740 C.2   1 <1>   0.5690 
  3 N        1.9500    -1.2110    -0.2600 N.am  1 <1>  -0.4940 
  4 C        1.5330    -2.3080     1.9470 C.3   1 <1>   0.1570 
  5 C        2.3260    -0.3390    -1.3150 C.2   1 <1>  -0.0880 
  6 N        0.1920    -2.6120     1.4090 N.pl3 1 <1>   0.0480 
  7 N        3.4780     0.3720    -1.5110 N.pl3 1 <1>   0.3140 
  8 C        1.5340    -0.0650    -2.3780 C.2   1 <1>  -0.1500 
  9 C       -0.0810    -3.4370     0.3410 C.ar  1 <1>  -0.1520 
 10 C       -0.9640    -1.9600     1.7360 C.2   1 <1>  -0.3020 
 11 N        3.4140     1.0970    -2.6560 N.2   1 <1>  -0.7070 
 12 C        4.7010     0.4290    -0.6700 C.3   1 <1>   0.1760 
 13 C        2.2530     0.8240    -3.1620 C.2   1 <1>   0.1390 
 14 C       -1.4230    -3.2910     0.0060 C.ar  1 <1>   0.0000 
 15 C        0.7430    -4.3040    -0.3870 C.ar  1 <1>  -0.1500 
 16 C       -1.9610    -2.3540     0.9100 C.2   1 <1>  -0.1500 
 17 C        4.6720     1.6990     0.1920 C.3   1 <1>  -0.1600 
 18 C        5.9890     0.3950    -1.5100 C.3   1 <1>  -0.1600 
 19 C       -1.9560    -4.0120    -1.0670 C.ar  1 <1>  -0.1500 
 20 C        0.2070    -5.0050    -1.4420 C.ar  1 <1>  -0.1500 
 21 C        5.9090     1.7680     1.0760 C.3   1 <1>   0.3430 
 22 C        7.2170     0.5030    -0.6110 C.3   1 <1>   0.3430 
 23 C       -1.1430    -4.8590    -1.7830 C.ar  1 <1>  -0.1500 
 24 N        7.1310     1.7420     0.2180 N.4   1 <1>  -0.9590 
 25 C        8.3630     1.9190     1.0440 C.3   1 <1>   0.2630 
 26 H        1.1520    -1.8110    -0.5150 H     1 <1>   0.3700 
 27 H        1.4250    -1.9050     2.9360 H     1 <1>   0.0800 
 28 H        2.1020    -3.2160     2.0060 H     1 <1>   0.0800 
 29 H        0.5480    -0.4360    -2.5930 H     1 <1>   0.1500 
 30 H       -1.0120    -1.2450     2.5390 H     1 <1>   0.1500 
 31 H        4.7130    -0.4440    -0.0490 H     1 <1>   0.0800 
 32 H        1.8950     1.2450    -4.0880 H     1 <1>   0.1500 
 33 H        1.7780    -4.4260    -0.1250 H     1 <1>   0.1500 
 34 H       -2.9890    -2.0330     0.9060 H     1 <1>   0.1500 
 35 H        3.7970     1.6960     0.8180 H     1 <1>   0.0800 
 36 H        4.6230     2.5730    -0.4340 H     1 <1>   0.0800 
 37 H        6.0020     1.2040    -2.2200 H     1 <1>   0.0800 
 38 H        6.0320    -0.5290    -2.0590 H     1 <1>   0.0800 
 39 H       -2.9950    -3.8910    -1.3150 H     1 <1>   0.1500 
 40 H        0.8190    -5.6780    -2.0170 H     1 <1>   0.1500 
 41 H        5.9130     0.9280     1.7540 H     1 <1>   0.0800 
 42 H        5.8820     2.6750     1.6590 H     1 <1>   0.0800 
 43 H        8.1060     0.5280    -1.2220 H     1 <1>   0.0800 
 44 H        7.2710    -0.3620     0.0310 H     1 <1>   0.0800 
 45 H       -1.5390    -5.4200    -2.6110 H     1 <1>   0.1500 
 46 H        7.0590     2.5390    -0.4340 H     1 <1>   0.4500 
 47 H        8.4680     1.1030     1.7410 H     1 <1>   0.0800 
 48 H        8.3120     2.8410     1.6000 H     1 <1>   0.0800 
 49 H        9.2370     1.9480     0.4130 H     1 <1>   0.0800 
@<TRIPOS>BOND
  1   1   2  2   
  2   2   3  am  
  3   2   4  1   
  4   3   5  1   
  5   3  26  1   
  6   4   6  1   
  7   4  27  1   
  8   4  28  1   
  9   5   7  1   
 10   5   8  2   
 11   6   9  1   
 12   6  10  1   
 13   7  11  1   
 14   7  12  1   
 15   8  13  1   
 16   8  29  1   
 17   9  14  ar  
 18   9  15  ar  
 19  10  16  2   
 20  10  30  1   
 21  11  13  2   
 22  12  17  1   
 23  12  18  1   
 24  12  31  1   
 25  13  32  1   
 26  14  16  1   
 27  14  19  ar  
 28  15  20  ar  
 29  15  33  1   
 30  16  34  1   
 31  17  21  1   
 32  17  35  1   
 33  17  36  1   
 34  18  22  1   
 35  18  37  1   
 36  18  38  1   
 37  19  23  ar  
 38  19  39  1   
 39  20  23  ar  
 40  20  40  1   
 41  21  24  1   
 42  21  41  1   
 43  21  42  1   
 44  22  24  1   
 45  22  43  1   
 46  22  44  1   
 47  23  45  1   
 48  24  25  1   
 49  24  46  1   
 50  25  47  1   
 51  25  48  1   
 52  25  49  1   
@<TRIPOS>SUBSTRUCTURE
  1 ****   3 GROUP 4 **** **** 0

# MOE 2024.06 (io_trps.svl 2023.06)
