@<TRIPOS>MOLECULE
NONAME
37 39 1 0 0 
SMALL
USER_CHARGES


@<TRIPOS>ATOM
  1 S        0.0540    -2.3420    -2.3240 S.3   1 <1>  -0.0800 
  2 C       -0.1710    -3.6850    -1.2190 C.2   1 <1>  -0.1100 
  3 C       -0.9260    -1.2940    -1.3180 C.2   1 <1>  -0.1100 
  4 C       -0.9480    -3.3250    -0.1790 C.2   1 <1>  -0.1810 
  5 C       -1.3740    -1.9550    -0.2350 C.2   1 <1>  -0.1500 
  6 C       -1.3580    -4.2390     0.9560 C.3   1 <1>   0.5240 
  7 N       -2.5630    -4.9860     0.5250 N.4   1 <1>  -0.9590 
  8 C       -3.7680    -4.1480     0.2200 C.3   1 <1>   0.3430 
  9 C       -3.0040    -6.0700     1.4300 C.3   1 <1>   0.3430 
 10 C       -4.9780    -4.9440     0.7410 C.3   1 <1>   0.2000 
 11 C       -4.4390    -6.3570     0.9760 C.3   1 <1>  -0.0800 
 12 O       -5.4020    -4.4130     1.9530 O.3   1 <1>  -0.6800 
 13 C       -4.5370    -7.1910    -0.3320 C.3   1 <1>  -0.0160 
 14 C       -3.3020    -8.0200    -0.6650 C.ar  1 <1>   0.1670 
 15 N       -2.2710    -7.3560    -1.1760 N.ar  1 <1>  -0.6200 
 16 C       -3.3020    -9.3950    -0.4400 C.ar  1 <1>   0.1600 
 17 C       -1.2630    -8.1670    -1.4730 C.ar  1 <1>   0.1600 
 18 N       -2.2820   -10.1910    -0.7060 N.ar  1 <1>  -0.6200 
 19 C       -1.2680    -9.5370    -1.2420 C.ar  1 <1>   0.1600 
 20 H        0.3130    -4.6090    -1.4840 H     1 <1>   0.1500 
 21 H       -1.0590    -0.2780    -1.6490 H     1 <1>   0.1500 
 22 H       -1.9870    -1.5130     0.5330 H     1 <1>   0.1500 
 23 H       -1.5590    -3.6640     1.8450 H     1 <1>   0.0800 
 24 H       -0.5570    -4.9290     1.1620 H     1 <1>   0.0800 
 25 H       -2.3030    -5.4740    -0.3580 H     1 <1>   0.4500 
 26 H       -3.7220    -3.1880     0.7060 H     1 <1>   0.0800 
 27 H       -3.8450    -4.0030    -0.8460 H     1 <1>   0.0800 
 28 H       -2.3700    -6.9390     1.3520 H     1 <1>   0.0800 
 29 H       -3.0080    -5.7230     2.4500 H     1 <1>   0.0800 
 30 H       -5.8140    -4.9050     0.0620 H     1 <1>   0.0800 
 31 H       -4.9830    -6.8670     1.7530 H     1 <1>   0.0800 
 32 H       -4.7510    -4.5000     2.6750 H     1 <1>   0.4000 
 33 H       -4.7140    -6.5490    -1.1790 H     1 <1>   0.0800 
 34 H       -5.3960    -7.8360    -0.2670 H     1 <1>   0.0800 
 35 H       -4.1780    -9.8620    -0.0230 H     1 <1>   0.1500 
 36 H       -0.3870    -7.7320    -1.9220 H     1 <1>   0.1500 
 37 H       -0.4000   -10.1140    -1.5120 H     1 <1>   0.1500 
@<TRIPOS>BOND
  1   1   2  1   
  2   1   3  1   
  3   2   4  2   
  4   2  20  1   
  5   3   5  2   
  6   3  21  1   
  7   4   5  1   
  8   4   6  1   
  9   5  22  1   
 10   6   7  1   
 11   6  23  1   
 12   6  24  1   
 13   7   8  1   
 14   7   9  1   
 15   7  25  1   
 16   8  10  1   
 17   8  26  1   
 18   8  27  1   
 19   9  11  1   
 20   9  28  1   
 21   9  29  1   
 22  10  11  1   
 23  10  12  1   
 24  10  30  1   
 25  11  13  1   
 26  11  31  1   
 27  12  32  1   
 28  13  14  1   
 29  13  33  1   
 30  13  34  1   
 31  14  15  ar  
 32  14  16  ar  
 33  15  17  ar  
 34  16  18  ar  
 35  16  35  1   
 36  17  19  ar  
 37  17  36  1   
 38  18  19  ar  
 39  19  37  1   
@<TRIPOS>SUBSTRUCTURE
  1 ****   7 GROUP 4 **** **** 0

# MOE 2024.06 (io_trps.svl 2023.06)
