@<TRIPOS>MOLECULE
NONAME
48 50 1 0 0 
SMALL
USER_CHARGES


@<TRIPOS>ATOM
  1 CL      -0.0430    -0.2830    -0.6150 Cl    1 <1>  -0.1770 
  2 C       -0.9110    -1.7700    -0.3330 C.ar  1 <1>   0.1770 
  3 C       -2.2910    -1.7570    -0.2860 C.ar  1 <1>  -0.1500 
  4 C       -0.2070    -2.9460    -0.1590 C.ar  1 <1>  -0.1500 
  5 C       -2.9720    -2.9390    -0.0600 C.ar  1 <1>  -0.1500 
  6 C       -0.9000    -4.1220     0.0640 C.ar  1 <1>  -0.1500 
  7 C       -2.2970    -4.1500     0.1180 C.ar  1 <1>   0.0530 
  8 C       -3.0000    -5.3900     0.3530 C.2   1 <1>   0.0870 
  9 O       -2.3920    -6.3930     0.9450 O.3   1 <1>  -0.0190 
 10 C       -4.2610    -5.8080     0.0820 C.2   1 <1>  -0.2330 
 11 N       -3.1620    -7.4400     1.0900 N.2   1 <1>  -0.4100 
 12 C       -4.2960    -7.1100     0.5800 C.2   1 <1>   0.3720 
 13 C       -5.3350    -5.1330    -0.5650 C.2   1 <1>   1.0330 
 14 N       -5.3850    -7.9870     0.5630 N.pl3 1 <1>  -0.8210 
 15 O       -6.1010    -4.4040     0.0880 O.co2 1 <1>  -0.9000 
 16 O       -5.5180    -5.2550    -1.7880 O.co2 1 <1>  -0.9000 
 17 C       -5.8070    -8.3660    -0.8010 C.3   1 <1>   0.2090 
 18 C       -6.5350    -7.5040     1.3600 C.3   1 <1>   0.2090 
 19 C       -6.7670    -9.5550    -0.7130 C.3   1 <1>  -0.1600 
 20 C       -7.5380    -8.6460     1.5290 C.3   1 <1>  -0.1600 
 21 C       -7.9990    -9.3480     0.2190 C.3   1 <1>   0.0610 
 22 C       -8.6120   -10.7190     0.6110 C.2   1 <1>   0.5690 
 23 C       -9.1600    -8.5790    -0.4850 C.3   1 <1>  -0.1600 
 24 O       -9.3090   -10.8030     1.5970 O.2   1 <1>  -0.5700 
 25 N       -8.4020   -11.8130    -0.1780 N.am  1 <1>  -0.7300 
 26 C       -8.8740    -7.2720    -1.2430 C.3   1 <1>  -0.2400 
 27 C       -8.9360   -13.1760     0.0730 C.3   1 <1>   0.0600 
 28 H       -2.8270    -0.8360    -0.4240 H     1 <1>   0.1500 
 29 H        0.8670    -2.9360    -0.1990 H     1 <1>   0.1500 
 30 H       -4.0480    -2.9180    -0.0190 H     1 <1>   0.1500 
 31 H       -0.3540    -5.0400     0.1960 H     1 <1>   0.1500 
 32 H       -4.9390    -8.6390    -1.3760 H     1 <1>   0.0800 
 33 H       -6.2690    -7.5300    -1.2880 H     1 <1>   0.0800 
 34 H       -6.9930    -6.6570     0.8860 H     1 <1>   0.0800 
 35 H       -6.1850    -7.1850     2.3270 H     1 <1>   0.0800 
 36 H       -6.1790   -10.3750    -0.3390 H     1 <1>   0.0800 
 37 H       -7.0930    -9.8090    -1.7050 H     1 <1>   0.0800 
 38 H       -8.3920    -8.2820     2.0720 H     1 <1>   0.0800 
 39 H       -7.0600    -9.3760     2.1580 H     1 <1>   0.0800 
 40 H       -9.9160    -8.3710     0.2530 H     1 <1>   0.0800 
 41 H       -9.6150    -9.2480    -1.1950 H     1 <1>   0.0800 
 42 H       -7.8030   -11.7090    -0.9980 H     1 <1>   0.3700 
 43 H       -8.4180    -6.5290    -0.6170 H     1 <1>   0.0800 
 44 H       -9.7990    -6.8590    -1.6040 H     1 <1>   0.0800 
 45 H       -8.2460    -7.4440    -2.0970 H     1 <1>   0.0800 
 46 H       -9.5420   -13.1830     0.9640 H     1 <1>   0.0800 
 47 H       -8.1220   -13.8670     0.2030 H     1 <1>   0.0800 
 48 H       -9.5410   -13.4890    -0.7600 H     1 <1>   0.0800 
@<TRIPOS>BOND
  1   1   2  1   
  2   2   3  ar  
  3   2   4  ar  
  4   3   5  ar  
  5   3  28  1   
  6   4   6  ar  
  7   4  29  1   
  8   5   7  ar  
  9   5  30  1   
 10   6   7  ar  
 11   6  31  1   
 12   7   8  1   
 13   8   9  1   
 14   8  10  2   
 15   9  11  1   
 16  10  12  1   
 17  10  13  1   
 18  11  12  2   
 19  12  14  1   
 20  13  15  ar  
 21  13  16  ar  
 22  14  17  1   
 23  14  18  1   
 24  17  19  1   
 25  17  32  1   
 26  17  33  1   
 27  18  20  1   
 28  18  34  1   
 29  18  35  1   
 30  19  21  1   
 31  19  36  1   
 32  19  37  1   
 33  20  21  1   
 34  20  38  1   
 35  20  39  1   
 36  21  22  1   
 37  21  23  1   
 38  22  24  2   
 39  22  25  am  
 40  23  26  1   
 41  23  40  1   
 42  23  41  1   
 43  25  27  1   
 44  25  42  1   
 45  26  43  1   
 46  26  44  1   
 47  26  45  1   
 48  27  46  1   
 49  27  47  1   
 50  27  48  1   
@<TRIPOS>SUBSTRUCTURE
  1 ****  12 GROUP 4 **** **** 0

# MOE 2024.06 (io_trps.svl 2023.06)
