@<TRIPOS>MOLECULE
NONAME
47 49 1 0 0 
SMALL
USER_CHARGES


@<TRIPOS>ATOM
  1 O        1.1000     0.5910    -1.3180 O.2   1 <1>  -0.5700 
  2 C        1.3170     1.7280    -0.9860 C.2   1 <1>   0.5690 
  3 N        2.4620     2.3840    -1.1960 N.am  1 <1>  -0.7300 
  4 C        0.3540     2.5920    -0.2220 C.3   1 <1>  -0.0990 
  5 C        2.5420     3.6940    -0.5480 C.3   1 <1>   0.2200 
  6 C        1.0850     3.9480    -0.1170 C.3   1 <1>  -0.1600 
  7 C        3.5210     3.6470     0.6440 C.3   1 <1>   0.1100 
  8 N        4.8440     3.1080     0.2400 N.3   1 <1>  -0.8100 
  9 C        5.0540     1.7500     0.8010 C.3   1 <1>   0.2530 
 10 C        5.9770     4.0160     0.5870 C.3   1 <1>   0.2900 
 11 C        6.3310     1.0840     0.2930 C.ar  1 <1>   0.1670 
 12 C        5.9350     5.4120    -0.0450 C.2   1 <1>   0.2980 
 13 N        7.3600     1.0360     1.1320 N.ar  1 <1>  -0.6200 
 14 C        6.3590     0.5740    -0.9960 C.ar  1 <1>  -0.1500 
 15 O        6.9030     6.2320     0.2120 O.3   1 <1>  -0.2800 
 16 N        5.0590     5.9390    -0.8190 N.2   1 <1>  -0.3380 
 17 C        8.4520     0.4520     0.6640 C.ar  1 <1>   0.1600 
 18 C        7.5040    -0.0310    -1.4690 C.ar  1 <1>  -0.1500 
 19 C        6.5910     7.3040    -0.4440 C.2   1 <1>   0.2980 
 20 N        5.4860     7.1740    -1.0770 N.2   1 <1>  -0.3380 
 21 C        8.5750    -0.0880    -0.6040 C.ar  1 <1>  -0.1500 
 22 C        7.5220     8.5150    -0.3870 C.3   1 <1>   0.1000 
 23 C        6.8760     9.7790    -0.9760 C.3   1 <1>  -0.2400 
 24 C        8.8410     8.2180    -1.1140 C.3   1 <1>  -0.2400 
 25 H        3.3070     1.9620    -1.5810 H     1 <1>   0.3700 
 26 H       -0.5760     2.6770    -0.7520 H     1 <1>   0.0800 
 27 H        0.1900     2.1600     0.7480 H     1 <1>   0.0800 
 28 H        2.8640     4.4380    -1.2580 H     1 <1>   0.0800 
 29 H        1.0190     4.3690     0.8700 H     1 <1>   0.0800 
 30 H        0.6450     4.6450    -0.8100 H     1 <1>   0.0800 
 31 H        3.0920     3.0450     1.4270 H     1 <1>   0.0800 
 32 H        3.6190     4.6450     1.0360 H     1 <1>   0.0800 
 33 H        5.0910     1.8020     1.8760 H     1 <1>   0.0800 
 34 H        4.2210     1.1230     0.5340 H     1 <1>   0.0800 
 35 H        6.0270     4.1270     1.6550 H     1 <1>   0.0800 
 36 H        6.8990     3.5670     0.2650 H     1 <1>   0.0800 
 37 H        5.4900     0.6540    -1.6240 H     1 <1>   0.1500 
 38 H        9.2970     0.3990     1.3300 H     1 <1>   0.1500 
 39 H        7.5570    -0.4360    -2.4640 H     1 <1>   0.1500 
 40 H        9.4990    -0.5470    -0.9090 H     1 <1>   0.1500 
 41 H        7.7390     8.7040     0.6500 H     1 <1>   0.0800 
 42 H        6.6480     9.6330    -2.0170 H     1 <1>   0.0800 
 43 H        7.5370    10.6210    -0.8790 H     1 <1>   0.0800 
 44 H        5.9600    10.0000    -0.4560 H     1 <1>   0.0800 
 45 H        8.6540     8.0090    -2.1520 H     1 <1>   0.0800 
 46 H        9.3210     7.3610    -0.6740 H     1 <1>   0.0800 
 47 H        9.5080     9.0580    -1.0430 H     1 <1>   0.0800 
@<TRIPOS>BOND
  1   1   2  2   
  2   2   3  am  
  3   2   4  1   
  4   3   5  1   
  5   3  25  1   
  6   4   6  1   
  7   4  26  1   
  8   4  27  1   
  9   5   6  1   
 10   5   7  1   
 11   5  28  1   
 12   6  29  1   
 13   6  30  1   
 14   7   8  1   
 15   7  31  1   
 16   7  32  1   
 17   8   9  1   
 18   8  10  1   
 19   9  11  1   
 20   9  33  1   
 21   9  34  1   
 22  10  12  1   
 23  10  35  1   
 24  10  36  1   
 25  11  13  ar  
 26  11  14  ar  
 27  12  15  1   
 28  12  16  2   
 29  13  17  ar  
 30  14  18  ar  
 31  14  37  1   
 32  15  19  1   
 33  16  20  1   
 34  17  21  ar  
 35  17  38  1   
 36  18  21  ar  
 37  18  39  1   
 38  19  20  2   
 39  19  22  1   
 40  21  40  1   
 41  22  23  1   
 42  22  24  1   
 43  22  41  1   
 44  23  42  1   
 45  23  43  1   
 46  23  44  1   
 47  24  45  1   
 48  24  46  1   
 49  24  47  1   
@<TRIPOS>SUBSTRUCTURE
  1 ****   8 GROUP 4 **** **** 0

# MOE 2024.06 (io_trps.svl 2023.06)
