@<TRIPOS>MOLECULE
NONAME
53 55 1 0 0 
SMALL
USER_CHARGES


@<TRIPOS>ATOM
  1 O        1.7330    -0.3820     0.5290 O.2   1 <1>  -0.5700 
  2 C        1.9340    -0.6580    -0.6290 C.2   1 <1>   0.5690 
  3 N        1.1630    -1.5620    -1.2890 N.am  1 <1>  -0.7300 
  4 C        3.0910    -0.0020    -1.3800 C.3   1 <1>  -0.0190 
  5 C        0.0090    -2.2700    -0.6850 C.3   1 <1>   0.1400 
  6 C        4.4380    -0.6190    -0.9630 C.3   1 <1>  -0.1600 
  7 C        3.1250     1.5250    -1.1710 C.3   1 <1>  -0.1600 
  8 C        0.4650    -3.6080    -0.1030 C.3   1 <1>  -0.0170 
  9 C        5.6090     0.0420    -1.6940 C.3   1 <1>   0.2090 
 10 C        4.3110     2.1710    -1.8910 C.3   1 <1>   0.2090 
 11 C       -0.7170    -4.3440     0.5050 C.ar  1 <1>  -0.1440 
 12 N        5.5740     1.5120    -1.4530 N.pl3 1 <1>  -0.8380 
 13 C       -1.3840    -5.3260    -0.2120 C.ar  1 <1>  -0.1500 
 14 C       -1.1420    -4.0320     1.7870 C.ar  1 <1>  -0.1500 
 15 C        6.5970     2.1940    -0.8360 C.ar  1 <1>   0.7200 
 16 C       -2.4630    -5.9890     0.3470 C.ar  1 <1>  -0.1500 
 17 C       -2.2210    -4.6930     2.3470 C.ar  1 <1>  -0.1500 
 18 N        6.5460     3.5260    -0.8380 N.ar  1 <1>  -0.6200 
 19 N        7.5740     1.4780    -0.2820 N.ar  1 <1>  -0.6200 
 20 C       -2.8820    -5.6720     1.6280 C.ar  1 <1>  -0.1500 
 21 C        7.5050     4.1760    -0.2320 C.ar  1 <1>   0.1670 
 22 C        8.5180     2.1470     0.3290 C.ar  1 <1>   0.1600 
 23 C        8.5430     3.5270     0.4310 C.ar  1 <1>   0.0860 
 24 C        7.4120     5.6900    -0.3310 C.3   1 <1>  -0.0970 
 25 C        9.5960     4.1500     1.1830 C.2   1 <1>   0.4230 
 26 O       10.7430     3.7930     1.1090 O.2   1 <1>  -0.5700 
 27 C        9.2940     5.2570     2.1740 C.3   1 <1>  -0.1790 
 28 H        1.3760    -1.8020    -2.2570 H     1 <1>   0.3700 
 29 H        2.9510    -0.1830    -2.4300 H     1 <1>   0.0800 
 30 H       -0.7490    -2.4310    -1.4320 H     1 <1>   0.0800 
 31 H       -0.4150    -1.6650     0.1000 H     1 <1>   0.0800 
 32 H        4.4380    -1.6730    -1.1740 H     1 <1>   0.0800 
 33 H        4.5820    -0.4960     0.0970 H     1 <1>   0.0800 
 34 H        3.2050     1.7470    -0.1200 H     1 <1>   0.0800 
 35 H        2.2100     1.9610    -1.5280 H     1 <1>   0.0800 
 36 H        1.2040    -3.4300     0.6590 H     1 <1>   0.0800 
 37 H        0.9100    -4.2090    -0.8740 H     1 <1>   0.0800 
 38 H        5.5300    -0.1370    -2.7520 H     1 <1>   0.0800 
 39 H        6.5320    -0.3970    -1.3590 H     1 <1>   0.0800 
 40 H        4.3150     3.2260    -1.6780 H     1 <1>   0.0800 
 41 H        4.2060     2.0520    -2.9560 H     1 <1>   0.0800 
 42 H       -1.0680    -5.5820    -1.2080 H     1 <1>   0.1500 
 43 H       -0.6330    -3.2710     2.3540 H     1 <1>   0.1500 
 44 H       -2.9770    -6.7500    -0.2130 H     1 <1>   0.1500 
 45 H       -2.5440    -4.4450     3.3430 H     1 <1>   0.1500 
 46 H       -3.7210    -6.1870     2.0630 H     1 <1>   0.1500 
 47 H        9.3160     1.5830     0.7830 H     1 <1>   0.1500 
 48 H        6.8620     5.9650    -1.2140 H     1 <1>   0.0800 
 49 H        8.3870     6.1330    -0.4020 H     1 <1>   0.0800 
 50 H        6.8930     6.0840     0.5240 H     1 <1>   0.0800 
 51 H        8.2540     5.2560     2.4450 H     1 <1>   0.0800 
 52 H        9.5610     6.2070     1.7520 H     1 <1>   0.0800 
 53 H        9.8770     5.1040     3.0640 H     1 <1>   0.0800 
@<TRIPOS>BOND
  1   1   2  2   
  2   2   3  am  
  3   2   4  1   
  4   3   5  1   
  5   3  28  1   
  6   4   6  1   
  7   4   7  1   
  8   4  29  1   
  9   5   8  1   
 10   5  30  1   
 11   5  31  1   
 12   6   9  1   
 13   6  32  1   
 14   6  33  1   
 15   7  10  1   
 16   7  34  1   
 17   7  35  1   
 18   8  11  1   
 19   8  36  1   
 20   8  37  1   
 21   9  12  1   
 22   9  38  1   
 23   9  39  1   
 24  10  12  1   
 25  10  40  1   
 26  10  41  1   
 27  11  13  ar  
 28  11  14  ar  
 29  12  15  1   
 30  13  16  ar  
 31  13  42  1   
 32  14  17  ar  
 33  14  43  1   
 34  15  18  ar  
 35  15  19  ar  
 36  16  20  ar  
 37  16  44  1   
 38  17  20  ar  
 39  17  45  1   
 40  18  21  ar  
 41  19  22  ar  
 42  20  46  1   
 43  21  23  ar  
 44  21  24  1   
 45  22  23  ar  
 46  22  47  1   
 47  23  25  1   
 48  24  48  1   
 49  24  49  1   
 50  24  50  1   
 51  25  26  2   
 52  25  27  1   
 53  27  51  1   
 54  27  52  1   
 55  27  53  1   
@<TRIPOS>SUBSTRUCTURE
  1 ****   6 GROUP 4 **** **** 0

# MOE 2024.06 (io_trps.svl 2023.06)
