@<TRIPOS>MOLECULE
NONAME
45 46 1 0 0 
SMALL
USER_CHARGES


@<TRIPOS>ATOM
  1 CL      -4.4360    -3.4620     4.9570 Cl    1 <1>  -0.1770 
  2 C       -4.2790    -3.3070     3.2260 C.ar  1 <1>   0.1770 
  3 C       -4.3440    -4.4370     2.4350 C.ar  1 <1>  -0.1500 
  4 C       -4.0920    -2.0520     2.6750 C.ar  1 <1>  -0.1500 
  5 C       -4.2200    -4.3160     1.0600 C.ar  1 <1>   0.0830 
  6 C       -3.9670    -1.9290     1.3010 C.ar  1 <1>  -0.1500 
  7 O       -4.2940    -5.4630     0.3400 O.3   1 <1>  -0.3630 
  8 C       -4.0300    -3.0550     0.4950 C.ar  1 <1>  -0.1500 
  9 C       -4.1310    -5.4570    -1.0730 C.3   1 <1>   0.1810 
 10 C       -4.2610    -6.8620    -1.6500 C.2   1 <1>   0.5690 
 11 O       -4.4580    -6.9890    -2.8340 O.2   1 <1>  -0.5700 
 12 N       -4.1680    -7.9400    -0.8310 N.am  1 <1>  -0.7300 
 13 C       -4.2710    -9.3580    -1.2470 C.3   1 <1>   0.2200 
 14 C       -5.6390    -9.9250    -0.9010 C.3   1 <1>  -0.0800 
 15 C       -3.3820   -10.2030    -0.3460 C.3   1 <1>   0.1200 
 16 C       -5.4800   -10.3150     0.5740 C.3   1 <1>   0.1200 
 17 C       -6.8270    -8.9860    -1.2090 C.3   1 <1>  -0.0550 
 18 O       -4.1070   -10.3630     0.8350 O.3   1 <1>  -0.5600 
 19 S       -8.4410    -9.7320    -0.9720 S.o2  1 <1>   1.3330 
 20 O       -8.4210   -11.0460    -1.5740 O.2   1 <1>  -0.6500 
 21 O       -9.4630    -8.7830    -1.3540 O.2   1 <1>  -0.6500 
 22 N       -8.5520    -9.9330     0.7120 N.am  1 <1>  -0.8490 
 23 C       -9.4730   -11.0130     1.0780 C.3   1 <1>   0.1160 
 24 C       -8.9260    -8.7030     1.4210 C.3   1 <1>   0.1160 
 25 H       -4.4890    -5.4010     2.8840 H     1 <1>   0.1500 
 26 H       -4.0450    -1.1890     3.3140 H     1 <1>   0.1500 
 27 H       -3.8210    -0.9570     0.8610 H     1 <1>   0.1500 
 28 H       -3.9310    -2.9250    -0.5660 H     1 <1>   0.1500 
 29 H       -4.8920    -4.8300    -1.5010 H     1 <1>   0.0800 
 30 H       -3.1580    -5.0670    -1.3040 H     1 <1>   0.0800 
 31 H       -4.0430    -7.7930     0.1760 H     1 <1>   0.3700 
 32 H       -4.0240    -9.4680    -2.2900 H     1 <1>   0.0800 
 33 H       -5.7700   -10.8340    -1.4630 H     1 <1>   0.0800 
 34 H       -2.4360    -9.7370    -0.1330 H     1 <1>   0.0800 
 35 H       -3.2240   -11.1790    -0.7710 H     1 <1>   0.0800 
 36 H       -5.9130   -11.2790     0.7830 H     1 <1>   0.0800 
 37 H       -5.9060    -9.5770     1.2310 H     1 <1>   0.0800 
 38 H       -6.7470    -8.6810    -2.2350 H     1 <1>   0.0800 
 39 H       -6.7570    -8.1010    -0.6090 H     1 <1>   0.0800 
 40 H       -9.5130   -11.1250     2.1470 H     1 <1>   0.0800 
 41 H       -9.1360   -11.9450     0.6540 H     1 <1>   0.0800 
 42 H      -10.4630   -10.8030     0.7050 H     1 <1>   0.0800 
 43 H       -8.8970    -8.8670     2.4850 H     1 <1>   0.0800 
 44 H       -9.9200    -8.3930     1.1410 H     1 <1>   0.0800 
 45 H       -8.2380    -7.9110     1.1820 H     1 <1>   0.0800 
@<TRIPOS>BOND
  1   1   2  1   
  2   2   3  ar  
  3   2   4  ar  
  4   3   5  ar  
  5   3  25  1   
  6   4   6  ar  
  7   4  26  1   
  8   5   7  1   
  9   5   8  ar  
 10   6   8  ar  
 11   6  27  1   
 12   7   9  1   
 13   8  28  1   
 14   9  10  1   
 15   9  29  1   
 16   9  30  1   
 17  10  11  2   
 18  10  12  am  
 19  12  13  1   
 20  12  31  1   
 21  13  14  1   
 22  13  15  1   
 23  13  32  1   
 24  14  16  1   
 25  14  17  1   
 26  14  33  1   
 27  15  18  1   
 28  15  34  1   
 29  15  35  1   
 30  16  18  1   
 31  16  36  1   
 32  16  37  1   
 33  17  19  1   
 34  17  38  1   
 35  17  39  1   
 36  19  20  2   
 37  19  21  2   
 38  19  22  am  
 39  22  23  1   
 40  22  24  1   
 41  23  40  1   
 42  23  41  1   
 43  23  42  1   
 44  24  43  1   
 45  24  44  1   
 46  24  45  1   
@<TRIPOS>SUBSTRUCTURE
  1 ****  12 GROUP 4 **** **** 0

# MOE 2024.06 (io_trps.svl 2023.06)
