@<TRIPOS>MOLECULE
NONAME
60 63 1 0 0 
SMALL
USER_CHARGES


@<TRIPOS>ATOM
  1 O       -0.1130     0.9880    -2.0300 O.2   1 <1>  -0.5700 
  2 C       -0.1620     1.8180    -1.1470 C.2   1 <1>   0.5690 
  3 N       -1.3790     2.3750    -0.8110 N.am  1 <1>  -0.6600 
  4 C        1.1880     2.1450    -0.4370 C.3   1 <1>   0.2040 
  5 C       -2.5620     2.1310    -1.7010 C.3   1 <1>   0.1400 
  6 C       -1.6400     3.2330     0.3900 C.3   1 <1>   0.1400 
  7 C        1.2820     3.6390    -0.0270 C.ar  1 <1>  -0.1440 
  8 C        2.3750     1.8640    -1.4020 C.3   1 <1>  -0.1600 
  9 C        1.3610     1.1550     0.7440 C.3   1 <1>  -0.1600 
 10 C       -3.5000     3.3390    -1.7010 C.3   1 <1>  -0.1600 
 11 C       -3.1050     3.1420     0.8090 C.3   1 <1>  -0.1600 
 12 C        1.4150     4.0860     1.2880 C.ar  1 <1>  -0.1500 
 13 C        1.2040     4.6030    -1.0290 C.ar  1 <1>  -0.1500 
 14 C        3.7170     2.0350    -0.7090 C.3   1 <1>   0.3430 
 15 C        2.7530     1.1840     1.3890 C.3   1 <1>   0.3430 
 16 C       -4.0260     3.6830    -0.2970 C.3   1 <1>   0.4180 
 17 C        1.5070     5.4360     1.5790 C.ar  1 <1>  -0.1500 
 18 C        1.2940     5.9530    -0.7400 C.ar  1 <1>  -0.1500 
 19 N        3.8200     1.0100     0.3660 N.4   1 <1>  -0.9590 
 20 O       -4.0260     5.0880    -0.2360 O.3   1 <1>  -0.5600 
 21 C       -5.4430     3.1370    -0.1240 C.2   1 <1>  -0.2880 
 22 C        1.4520     6.3720     0.5660 C.ar  1 <1>  -0.1500 
 23 C        5.1740     1.0430     0.9960 C.3   1 <1>   0.2630 
 24 C       -4.8810     5.7090     0.6850 C.3   1 <1>   0.1200 
 25 C       -6.5090     3.8860     0.1650 C.2   1 <1>  -0.2760 
 26 C       -6.3470     5.3790     0.3770 C.3   1 <1>  -0.0220 
 27 C       -7.9260     3.3570     0.2950 C.3   1 <1>  -0.1020 
 28 H       -3.0870     1.2560    -1.3580 H     1 <1>   0.0800 
 29 H       -2.2330     1.9460    -2.7100 H     1 <1>   0.0800 
 30 H       -1.4000     4.2570     0.1560 H     1 <1>   0.0800 
 31 H       -1.0280     2.9130     1.2120 H     1 <1>   0.0800 
 32 H        2.3330     2.5180    -2.2530 H     1 <1>   0.0800 
 33 H        2.3230     0.8620    -1.7910 H     1 <1>   0.0800 
 34 H        1.1770     0.1550     0.3890 H     1 <1>   0.0800 
 35 H        0.6160     1.3470     1.4940 H     1 <1>   0.0800 
 36 H       -4.3260     3.1470    -2.3610 H     1 <1>   0.0800 
 37 H       -2.9550     4.1750    -2.1040 H     1 <1>   0.0800 
 38 H       -3.2610     3.6780     1.7240 H     1 <1>   0.0800 
 39 H       -3.3380     2.1110     1.0030 H     1 <1>   0.0800 
 40 H        1.4300     3.4160     2.1240 H     1 <1>   0.1500 
 41 H        1.0540     4.3210    -2.0570 H     1 <1>   0.1500 
 42 H        3.7920     3.0280    -0.2920 H     1 <1>   0.0800 
 43 H        4.5110     1.9020    -1.4260 H     1 <1>   0.0800 
 44 H        2.8190     0.3990     2.1250 H     1 <1>   0.0800 
 45 H        2.9040     2.1230     1.8940 H     1 <1>   0.0800 
 46 H        1.6130     5.7650     2.5990 H     1 <1>   0.1500 
 47 H        1.2320     6.6800    -1.5330 H     1 <1>   0.1500 
 48 H        3.6860     0.0880    -0.0760 H     1 <1>   0.4500 
 49 H       -5.4980     2.0740    -0.2740 H     1 <1>   0.1500 
 50 H        1.5220     7.4220     0.7910 H     1 <1>   0.1500 
 51 H        5.3480     2.0000     1.4610 H     1 <1>   0.0800 
 52 H        5.9370     0.8780     0.2520 H     1 <1>   0.0800 
 53 H        5.2570     0.2730     1.7470 H     1 <1>   0.0800 
 54 H       -4.7150     6.7700     0.6230 H     1 <1>   0.0800 
 55 H       -4.6240     5.3770     1.6750 H     1 <1>   0.0800 
 56 H       -6.6630     5.9100    -0.5030 H     1 <1>   0.0800 
 57 H       -6.9510     5.7070     1.2040 H     1 <1>   0.0800 
 58 H       -8.5670     3.8400    -0.4200 H     1 <1>   0.0800 
 59 H       -8.3040     3.5430     1.2850 H     1 <1>   0.0800 
 60 H       -7.9500     2.2970     0.1140 H     1 <1>   0.0800 
@<TRIPOS>BOND
  1   1   2  2   
  2   2   3  am  
  3   2   4  1   
  4   3   5  1   
  5   3   6  1   
  6   4   7  1   
  7   4   8  1   
  8   4   9  1   
  9   5  10  1   
 10   5  28  1   
 11   5  29  1   
 12   6  11  1   
 13   6  30  1   
 14   6  31  1   
 15   7  12  ar  
 16   7  13  ar  
 17   8  14  1   
 18   8  32  1   
 19   8  33  1   
 20   9  15  1   
 21   9  34  1   
 22   9  35  1   
 23  10  16  1   
 24  10  36  1   
 25  10  37  1   
 26  11  16  1   
 27  11  38  1   
 28  11  39  1   
 29  12  17  ar  
 30  12  40  1   
 31  13  18  ar  
 32  13  41  1   
 33  14  19  1   
 34  14  42  1   
 35  14  43  1   
 36  15  19  1   
 37  15  44  1   
 38  15  45  1   
 39  16  20  1   
 40  16  21  1   
 41  17  22  ar  
 42  17  46  1   
 43  18  22  ar  
 44  18  47  1   
 45  19  23  1   
 46  19  48  1   
 47  20  24  1   
 48  21  25  2   
 49  21  49  1   
 50  22  50  1   
 51  23  51  1   
 52  23  52  1   
 53  23  53  1   
 54  24  26  1   
 55  24  54  1   
 56  24  55  1   
 57  25  26  1   
 58  25  27  1   
 59  26  56  1   
 60  26  57  1   
 61  27  58  1   
 62  27  59  1   
 63  27  60  1   
@<TRIPOS>SUBSTRUCTURE
  1 ****   6 GROUP 4 **** **** 0

# MOE 2024.06 (io_trps.svl 2023.06)
