@<TRIPOS>MOLECULE
NONAME
41 44 1 0 0 
SMALL
USER_CHARGES


@<TRIPOS>ATOM
  1 O        3.4480     0.6550     1.2200 O.2   1 <1>  -0.5700 
  2 C        2.9020    -0.3880     0.9640 C.2   1 <1>   0.5950 
  3 C        2.9750    -1.0770    -0.2990 C.2   1 <1>  -0.0860 
  4 C        2.0310    -1.0170     2.0490 C.3   1 <1>  -0.0990 
  5 C        3.5830    -0.7920    -1.5620 C.2   1 <1>  -0.0860 
  6 C        2.3680    -2.2770    -0.4720 C.2   1 <1>  -0.0400 
  7 C        1.9750    -2.5590     1.9700 C.3   1 <1>  -0.1600 
  8 C        3.2410    -1.8580    -2.3460 C.2   1 <1>  -0.0400 
  9 C        4.3890     0.3550    -1.9400 C.2   1 <1>   0.7160 
 10 O        2.5210    -2.7270    -1.6820 O.3   1 <1>  -0.2800 
 11 C        1.5940    -3.0610     0.5660 C.3   1 <1>   0.0200 
 12 C        3.5320    -2.1980    -3.7960 C.3   1 <1>  -0.0600 
 13 O        5.1290     0.3060    -2.9070 O.2   1 <1>  -0.5700 
 14 N        4.3290     1.5040    -1.2200 N.am  1 <1>  -0.4930 
 15 C        5.0900     2.6950    -1.3050 C.2   1 <1>   0.0630 
 16 C        5.1410     3.6260    -0.3250 C.2   1 <1>  -0.0680 
 17 C        5.9220     3.1850    -2.3150 C.2   1 <1>   0.1390 
 18 N        5.9650     4.6040    -0.7780 N.pl3 1 <1>   0.3140 
 19 N        4.5130     3.6500     0.9430 N.pl3 1 <1>  -0.8530 
 20 N        6.4590     4.3320    -2.0110 N.2   1 <1>  -0.7070 
 21 C        6.3730     5.7560     0.0440 C.3   1 <1>   0.0960 
 22 C        5.1040     4.5830     1.9340 C.3   1 <1>   0.2090 
 23 C        5.4280     5.9230     1.2530 C.3   1 <1>  -0.1600 
 24 H        1.0390    -0.6160     1.9510 H     1 <1>   0.0800 
 25 H        2.4100    -0.7240     3.0120 H     1 <1>   0.0800 
 26 H        1.2770    -2.9420     2.6940 H     1 <1>   0.0800 
 27 H        2.9480    -2.9490     2.2170 H     1 <1>   0.0800 
 28 H        1.8260    -4.1080     0.4770 H     1 <1>   0.0800 
 29 H        0.5410    -2.9300     0.3890 H     1 <1>   0.0800 
 30 H        4.0260    -1.3920    -4.3050 H     1 <1>   0.0800 
 31 H        2.6110    -2.4070    -4.3080 H     1 <1>   0.0800 
 32 H        4.1590    -3.0700    -3.8420 H     1 <1>   0.0800 
 33 H        3.7860     1.4560    -0.3540 H     1 <1>   0.3700 
 34 H        6.1010     2.6680    -3.2430 H     1 <1>   0.1500 
 35 H        4.3320     2.7100     1.3340 H     1 <1>   0.4000 
 36 H        6.3660     6.6370    -0.5700 H     1 <1>   0.0800 
 37 H        7.3760     5.5740     0.3800 H     1 <1>   0.0800 
 38 H        6.0010     4.1460     2.3420 H     1 <1>   0.0800 
 39 H        4.4020     4.7390     2.7350 H     1 <1>   0.0800 
 40 H        4.5070     6.3690     0.9200 H     1 <1>   0.0800 
 41 H        5.8730     6.5930     1.9650 H     1 <1>   0.0800 
@<TRIPOS>BOND
  1   1   2  2   
  2   2   3  1   
  3   2   4  1   
  4   3   5  1   
  5   3   6  2   
  6   4   7  1   
  7   4  24  1   
  8   4  25  1   
  9   5   8  2   
 10   5   9  1   
 11   6  10  1   
 12   6  11  1   
 13   7  11  1   
 14   7  26  1   
 15   7  27  1   
 16   8  10  1   
 17   8  12  1   
 18   9  13  2   
 19   9  14  am  
 20  11  28  1   
 21  11  29  1   
 22  12  30  1   
 23  12  31  1   
 24  12  32  1   
 25  14  15  1   
 26  14  33  1   
 27  15  16  2   
 28  15  17  1   
 29  16  18  1   
 30  16  19  1   
 31  17  20  2   
 32  17  34  1   
 33  18  20  1   
 34  18  21  1   
 35  19  22  1   
 36  19  35  1   
 37  21  23  1   
 38  21  36  1   
 39  21  37  1   
 40  22  23  1   
 41  22  38  1   
 42  22  39  1   
 43  23  40  1   
 44  23  41  1   
@<TRIPOS>SUBSTRUCTURE
  1 ****  14 GROUP 4 **** **** 0

# MOE 2024.06 (io_trps.svl 2023.06)
