@<TRIPOS>MOLECULE
NONAME
35 37 1 0 0 
SMALL
USER_CHARGES


@<TRIPOS>ATOM
  1 S        1.4770     2.8540    -2.5370 S.3   1 <1>  -0.1570 
  2 C        2.6250     2.1300    -1.3950 C.2   1 <1>   0.2420 
  3 C        0.1090     2.1650    -1.6210 C.2   1 <1>  -0.0490 
  4 N        3.9150     2.1480    -1.3240 N.2   1 <1>  -0.5650 
  5 N        1.9650     1.4480    -0.4390 N.pl3 1 <1>   0.3340 
  6 C        0.5590     1.4670    -0.5650 C.2   1 <1>  -0.1810 
  7 C        4.1300     1.4050    -0.2100 C.2   1 <1>   0.0460 
  8 C        2.9640     0.9740     0.3370 C.2   1 <1>  -0.3020 
  9 C        5.5430     1.1370     0.2880 C.3   1 <1>   0.0820 
 10 C        6.2520     2.3930     0.7630 C.2   1 <1>   0.5690 
 11 O        7.0050     2.3020     1.7050 O.2   1 <1>  -0.5700 
 12 N        6.0220     3.5610     0.1020 N.am  1 <1>  -0.4930 
 13 C        6.5550     4.8530     0.3310 C.2   1 <1>   0.0630 
 14 C        7.4900     5.2720     1.2770 C.2   1 <1>   0.1390 
 15 C        6.2440     5.9710    -0.3540 C.2   1 <1>  -0.3020 
 16 N        7.7440     6.5460     1.1910 N.2   1 <1>  -0.7070 
 17 N        6.9700     6.9820     0.1780 N.pl3 1 <1>   0.3140 
 18 C        6.9680     8.4090    -0.2450 C.3   1 <1>   0.1760 
 19 C        5.5750     9.0290    -0.0640 C.3   1 <1>  -0.2400 
 20 C        7.4480     8.5470    -1.6960 C.3   1 <1>  -0.2400 
 21 H       -0.8790     2.3730    -1.9970 H     1 <1>   0.1500 
 22 H       -0.0190     0.9380     0.1700 H     1 <1>   0.1500 
 23 H        2.7820     0.3740     1.2090 H     1 <1>   0.1500 
 24 H        6.1200     0.6980    -0.5030 H     1 <1>   0.0800 
 25 H        5.5050     0.4360     1.1010 H     1 <1>   0.0800 
 26 H        5.3220     3.4930    -0.6480 H     1 <1>   0.3700 
 27 H        7.9510     4.6190     1.9980 H     1 <1>   0.1500 
 28 H        5.5620     6.1020    -1.1720 H     1 <1>   0.1500 
 29 H        7.6600     8.9280     0.3960 H     1 <1>   0.0800 
 30 H        4.8560     8.5470    -0.7020 H     1 <1>   0.0800 
 31 H        5.6040    10.0750    -0.3090 H     1 <1>   0.0800 
 32 H        5.2620     8.9300     0.9610 H     1 <1>   0.0800 
 33 H        6.7720     8.0530    -2.3720 H     1 <1>   0.0800 
 34 H        8.4290     8.1160    -1.7990 H     1 <1>   0.0800 
 35 H        7.5050     9.5850    -1.9680 H     1 <1>   0.0800 
@<TRIPOS>BOND
  1   1   2  1   
  2   1   3  1   
  3   2   4  2   
  4   2   5  1   
  5   3   6  2   
  6   3  21  1   
  7   4   7  1   
  8   5   6  1   
  9   5   8  1   
 10   6  22  1   
 11   7   8  2   
 12   7   9  1   
 13   8  23  1   
 14   9  10  1   
 15   9  24  1   
 16   9  25  1   
 17  10  11  2   
 18  10  12  am  
 19  12  13  1   
 20  12  26  1   
 21  13  14  1   
 22  13  15  2   
 23  14  16  2   
 24  14  27  1   
 25  15  17  1   
 26  15  28  1   
 27  16  17  1   
 28  17  18  1   
 29  18  19  1   
 30  18  20  1   
 31  18  29  1   
 32  19  30  1   
 33  19  31  1   
 34  19  32  1   
 35  20  33  1   
 36  20  34  1   
 37  20  35  1   
@<TRIPOS>SUBSTRUCTURE
  1 ****  12 GROUP 4 **** **** 0

# MOE 2024.06 (io_trps.svl 2023.06)
