@<TRIPOS>MOLECULE
NONAME
43 45 1 0 0 
SMALL
USER_CHARGES


@<TRIPOS>ATOM
  1 O       -0.3990    -0.0210    -0.5550 O.2   1 <1>  -0.5700 
  2 C        0.5460    -0.5500    -0.0220 C.2   1 <1>   0.5690 
  3 N        1.6920     0.1100     0.3030 N.am  1 <1>  -0.4930 
  4 C        0.4520    -2.0270     0.2980 C.3   1 <1>  -0.0990 
  5 C        2.0170     1.4730     0.0890 C.2   1 <1>   0.0630 
  6 C        0.0630    -2.8430    -0.9440 C.3   1 <1>   0.0200 
  7 C        1.2610     2.4860    -0.5030 C.2   1 <1>   0.1390 
  8 C        3.1740     2.0750     0.4320 C.2   1 <1>  -0.3020 
  9 C        0.0600    -4.3270    -0.6410 C.2   1 <1>   0.2980 
 10 N        1.8920     3.6230    -0.5290 N.2   1 <1>  -0.7070 
 11 N        3.0810     3.3720     0.0520 N.pl3 1 <1>   0.3140 
 12 O        1.2040    -4.9270    -0.4390 O.3   1 <1>  -0.0190 
 13 N       -0.9660    -5.0650    -0.5540 N.2   1 <1>  -0.5650 
 14 C        4.1070     4.4370     0.2190 C.3   1 <1>   0.1760 
 15 N        0.8760    -6.1570    -0.2010 N.2   1 <1>  -0.4100 
 16 C       -0.4060    -6.2470    -0.2700 C.2   1 <1>   0.4620 
 17 C        5.3870     4.0860    -0.5530 C.3   1 <1>  -0.2400 
 18 C        4.4080     4.6770     1.7050 C.3   1 <1>  -0.2400 
 19 C       -1.1860    -7.4580    -0.0690 C.ar  1 <1>   0.0540 
 20 C       -2.5800    -7.4580    -0.1580 C.ar  1 <1>  -0.1500 
 21 C       -0.5680    -8.6760     0.2230 C.ar  1 <1>  -0.1500 
 22 C       -3.3190    -8.6110     0.0350 C.ar  1 <1>  -0.1500 
 23 C       -1.3010    -9.8330     0.4170 C.ar  1 <1>  -0.1500 
 24 C       -2.6800    -9.8030     0.3230 C.ar  1 <1>  -0.1500 
 25 H        2.4220    -0.4250     0.7670 H     1 <1>   0.3700 
 26 H       -0.2950    -2.1630     1.0600 H     1 <1>   0.0800 
 27 H        1.3920    -2.3790     0.6820 H     1 <1>   0.0800 
 28 H        0.7540    -2.6520    -1.7450 H     1 <1>   0.0800 
 29 H       -0.9190    -2.5520    -1.2750 H     1 <1>   0.0800 
 30 H        0.2680     2.3490    -0.8970 H     1 <1>   0.1500 
 31 H        4.0430     1.6710     0.9140 H     1 <1>   0.1500 
 32 H        3.6940     5.3400    -0.1970 H     1 <1>   0.0800 
 33 H        5.8430     3.1970    -0.1560 H     1 <1>   0.0800 
 34 H        6.0930     4.8940    -0.4800 H     1 <1>   0.0800 
 35 H        5.1560     3.9330    -1.5930 H     1 <1>   0.0800 
 36 H        4.8400     3.8010     2.1550 H     1 <1>   0.0800 
 37 H        3.5000     4.9310     2.2240 H     1 <1>   0.0800 
 38 H        5.0980     5.4940     1.8130 H     1 <1>   0.0800 
 39 H       -3.0940    -6.5400    -0.3820 H     1 <1>   0.1500 
 40 H        0.5040    -8.7190     0.3000 H     1 <1>   0.1500 
 41 H       -4.3920    -8.5820    -0.0400 H     1 <1>   0.1500 
 42 H       -0.7980   -10.7580     0.6410 H     1 <1>   0.1500 
 43 H       -3.2530   -10.7020     0.4730 H     1 <1>   0.1500 
@<TRIPOS>BOND
  1   1   2  2   
  2   2   3  am  
  3   2   4  1   
  4   3   5  1   
  5   3  25  1   
  6   4   6  1   
  7   4  26  1   
  8   4  27  1   
  9   5   7  1   
 10   5   8  2   
 11   6   9  1   
 12   6  28  1   
 13   6  29  1   
 14   7  10  2   
 15   7  30  1   
 16   8  11  1   
 17   8  31  1   
 18   9  12  1   
 19   9  13  2   
 20  10  11  1   
 21  11  14  1   
 22  12  15  1   
 23  13  16  1   
 24  14  17  1   
 25  14  18  1   
 26  14  32  1   
 27  15  16  2   
 28  16  19  1   
 29  17  33  1   
 30  17  34  1   
 31  17  35  1   
 32  18  36  1   
 33  18  37  1   
 34  18  38  1   
 35  19  20  ar  
 36  19  21  ar  
 37  20  22  ar  
 38  20  39  1   
 39  21  23  ar  
 40  21  40  1   
 41  22  24  ar  
 42  22  41  1   
 43  23  24  ar  
 44  23  42  1   
 45  24  43  1   
@<TRIPOS>SUBSTRUCTURE
  1 ****   4 GROUP 4 **** **** 0

# MOE 2024.06 (io_trps.svl 2023.06)
