@<TRIPOS>MOLECULE
NONAME
40 41 1 0 0 
SMALL
USER_CHARGES


@<TRIPOS>ATOM
  1 O        1.2610    -0.7060     2.1240 O.co2 1 <1>  -0.9000 
  2 C        1.5530    -0.7890     0.9260 C.2   1 <1>   0.9060 
  3 O        1.3340    -1.8290     0.2820 O.co2 1 <1>  -0.9000 
  4 C        2.1670     0.4210     0.1890 C.3   1 <1>  -0.1060 
  5 C        3.3290    -0.1610    -0.6630 C.3   1 <1>   0.2000 
  6 C        2.7860     1.4170     1.2180 C.3   1 <1>  -0.1600 
  7 C        0.9860     1.0630    -0.6160 C.3   1 <1>  -0.1600 
  8 O        2.8300    -0.9370    -1.6970 O.3   1 <1>  -0.6800 
  9 C        4.3190     0.8650    -1.2240 C.3   1 <1>   0.2090 
 10 C        3.8120     2.4220     0.6680 C.3   1 <1>   0.2090 
 11 C        1.1560     2.4510    -1.2560 C.3   1 <1>  -0.1600 
 12 N        4.8550     1.7250    -0.1270 N.pl3 1 <1>  -0.8380 
 13 C       -0.0800     2.8220    -2.0800 C.3   1 <1>  -0.2400 
 14 C        6.1520     2.1830    -0.1540 C.ar  1 <1>   0.4100 
 15 N        6.3600     3.4750     0.0110 N.ar  1 <1>  -0.6200 
 16 C        7.2110     1.3180    -0.3470 C.ar  1 <1>  -0.1500 
 17 C        7.6170     3.8690    -0.0340 C.ar  1 <1>   0.4770 
 18 C        8.4730     1.8420    -0.3750 C.ar  1 <1>   0.1600 
 19 N        8.6980     3.1320    -0.2220 N.ar  1 <1>  -0.6200 
 20 C        7.8460     5.3500     0.1460 C.3   1 <1>  -0.0970 
 21 H        3.8960    -0.8280    -0.0350 H     1 <1>   0.0800 
 22 H        3.2970     0.8460     1.9740 H     1 <1>   0.0800 
 23 H        1.9970     1.9460     1.7220 H     1 <1>   0.0800 
 24 H        0.6820     0.3690    -1.3810 H     1 <1>   0.0800 
 25 H        0.1500     1.1340     0.0600 H     1 <1>   0.0800 
 26 H        2.1570    -1.5300    -1.2510 H     1 <1>   0.4000 
 27 H        3.8390     1.4810    -1.9570 H     1 <1>   0.0800 
 28 H        5.1210     0.3400    -1.7080 H     1 <1>   0.0800 
 29 H        4.2750     2.9320     1.4960 H     1 <1>   0.0800 
 30 H        3.3470     3.1660     0.0510 H     1 <1>   0.0800 
 31 H        1.2790     3.1910    -0.4860 H     1 <1>   0.0800 
 32 H        2.0120     2.4710    -1.9000 H     1 <1>   0.0800 
 33 H       -0.9580     2.8270    -1.4580 H     1 <1>   0.0800 
 34 H       -0.2250     2.1120    -2.8760 H     1 <1>   0.0800 
 35 H        0.0430     3.8000    -2.5100 H     1 <1>   0.0800 
 36 H        7.0330     0.2680    -0.4600 H     1 <1>   0.1500 
 37 H        9.3230     1.1990    -0.5230 H     1 <1>   0.1500 
 38 H        8.8490     5.5340     0.4840 H     1 <1>   0.0800 
 39 H        7.1570     5.7420     0.8710 H     1 <1>   0.0800 
 40 H        7.6920     5.8470    -0.7930 H     1 <1>   0.0800 
@<TRIPOS>BOND
  1   1   2  ar  
  2   2   3  ar  
  3   2   4  1   
  4   4   5  1   
  5   4   6  1   
  6   4   7  1   
  7   5   8  1   
  8   5   9  1   
  9   5  21  1   
 10   6  10  1   
 11   6  22  1   
 12   6  23  1   
 13   7  11  1   
 14   7  24  1   
 15   7  25  1   
 16   8  26  1   
 17   9  12  1   
 18   9  27  1   
 19   9  28  1   
 20  10  12  1   
 21  10  29  1   
 22  10  30  1   
 23  11  13  1   
 24  11  31  1   
 25  11  32  1   
 26  12  14  1   
 27  13  33  1   
 28  13  34  1   
 29  13  35  1   
 30  14  15  ar  
 31  14  16  ar  
 32  15  17  ar  
 33  16  18  ar  
 34  16  36  1   
 35  17  19  ar  
 36  17  20  1   
 37  18  19  ar  
 38  18  37  1   
 39  20  38  1   
 40  20  39  1   
 41  20  40  1   
@<TRIPOS>SUBSTRUCTURE
  1 ****  12 GROUP 4 **** **** 0

# MOE 2024.06 (io_trps.svl 2023.06)
