@<TRIPOS>MOLECULE
NONAME
52 54 1 0 0 
SMALL
USER_CHARGES


@<TRIPOS>ATOM
  1 O        3.0740    -1.5430    -1.4140 O.2   1 <1>  -0.5700 
  2 C        2.9190    -1.5810    -0.2070 C.2   1 <1>   0.7030 
  3 N        4.0310    -1.2960     0.5650 N.am  1 <1>  -0.6600 
  4 C        1.6140    -1.9080     0.3680 C.2   1 <1>   0.2770 
  5 C        5.3850    -1.7310     0.0900 C.3   1 <1>   0.1400 
  6 C        3.9880    -0.3600     1.7210 C.3   1 <1>   0.1400 
  7 N        0.3630    -1.8570    -0.2590 N.pl3 1 <1>  -0.7640 
  8 C        1.3630    -2.3500     1.6290 C.2   1 <1>   0.2000 
  9 C        5.9470    -0.8040    -1.0090 C.3   1 <1>   0.3430 
 10 C        4.9940     0.7900     1.5740 C.3   1 <1>  -0.1600 
 11 C       -0.5570    -2.2490     0.6120 C.cat 1 <1>   0.6500 
 12 C        0.1280    -1.4750    -1.6840 C.3   1 <1>   0.2740 
 13 N        0.0180    -2.5470     1.7660 N.pl3 1 <1>  -0.7000 
 14 N        6.2830     0.5910    -0.5530 N.4   1 <1>  -0.9590 
 15 C        5.1640     1.3070     0.1410 C.3   1 <1>   0.3430 
 16 C        6.7770     1.3830    -1.7200 C.3   1 <1>   0.4860 
 17 C        7.3780     2.6860    -1.2340 C.ar  1 <1>  -0.1440 
 18 C        8.6350     2.7010    -0.6470 C.ar  1 <1>   0.1600 
 19 C        6.6890     3.8790    -1.3670 C.ar  1 <1>  -0.1500 
 20 N        9.2310     3.7740    -0.1650 N.ar  1 <1>  -0.6200 
 21 C        7.3040     5.0090    -0.8780 C.ar  1 <1>  -0.1500 
 22 C        8.5560     4.9140    -0.2890 C.ar  1 <1>   0.3930 
 23 O        9.1000     6.0550     0.1760 O.3   1 <1>  -0.3620 
 24 C       10.3860     6.0640     0.7600 C.3   1 <1>   0.1200 
 25 C       10.7110     7.4970     1.1710 C.3   1 <1>  -0.2400 
 26 H        5.2970    -2.7210    -0.3250 H     1 <1>   0.0800 
 27 H        6.0730    -1.7930     0.9170 H     1 <1>   0.0800 
 28 H        4.1920    -0.9000     2.6320 H     1 <1>   0.0800 
 29 H        2.9990     0.0610     1.8010 H     1 <1>   0.0800 
 30 H        2.0680    -2.5410     2.4230 H     1 <1>   0.1500 
 31 H        5.2270    -0.7590    -1.8110 H     1 <1>   0.0800 
 32 H        6.8370    -1.2640    -1.4080 H     1 <1>   0.0800 
 33 H        5.9450     0.5120     1.9910 H     1 <1>   0.0800 
 34 H        4.6310     1.6040     2.1770 H     1 <1>   0.0800 
 35 H       -1.6190    -2.3220     0.4110 H     1 <1>   0.1500 
 36 H        0.5070    -0.4840    -1.8680 H     1 <1>   0.0800 
 37 H       -0.9240    -1.4910    -1.9130 H     1 <1>   0.0800 
 38 H        0.6340    -2.1660    -2.3380 H     1 <1>   0.0800 
 39 H       -0.4650    -2.8840     2.6070 H     1 <1>   0.4500 
 40 H        7.0610     0.5450     0.1170 H     1 <1>   0.4500 
 41 H        5.3980     2.3580     0.2000 H     1 <1>   0.0800 
 42 H        4.2440     1.2010    -0.4120 H     1 <1>   0.0800 
 43 H        5.9660     1.5850    -2.4020 H     1 <1>   0.0800 
 44 H        7.5320     0.8260    -2.2530 H     1 <1>   0.0800 
 45 H        9.1930     1.7840    -0.5620 H     1 <1>   0.1500 
 46 H        5.7190     3.9450    -1.8300 H     1 <1>   0.1500 
 47 H        6.8350     5.9740    -0.9430 H     1 <1>   0.1500 
 48 H       11.0920     5.7030     0.0320 H     1 <1>   0.0800 
 49 H       10.3770     5.4110     1.6150 H     1 <1>   0.0800 
 50 H       10.7050     8.1400     0.3090 H     1 <1>   0.0800 
 51 H       11.6880     7.5330     1.6190 H     1 <1>   0.0800 
 52 H        9.9910     7.8480     1.8880 H     1 <1>   0.0800 
@<TRIPOS>BOND
  1   1   2  2   
  2   2   3  am  
  3   2   4  1   
  4   3   5  1   
  5   3   6  1   
  6   4   7  1   
  7   4   8  2   
  8   5   9  1   
  9   5  26  1   
 10   5  27  1   
 11   6  10  1   
 12   6  28  1   
 13   6  29  1   
 14   7  11  ar  
 15   7  12  1   
 16   8  13  1   
 17   8  30  1   
 18   9  14  1   
 19   9  31  1   
 20   9  32  1   
 21  10  15  1   
 22  10  33  1   
 23  10  34  1   
 24  11  13  ar  
 25  11  35  1   
 26  12  36  1   
 27  12  37  1   
 28  12  38  1   
 29  13  39  1   
 30  14  15  1   
 31  14  16  1   
 32  14  40  1   
 33  15  41  1   
 34  15  42  1   
 35  16  17  1   
 36  16  43  1   
 37  16  44  1   
 38  17  18  ar  
 39  17  19  ar  
 40  18  20  ar  
 41  18  45  1   
 42  19  21  ar  
 43  19  46  1   
 44  20  22  ar  
 45  21  22  ar  
 46  21  47  1   
 47  22  23  1   
 48  23  24  1   
 49  24  25  1   
 50  24  48  1   
 51  24  49  1   
 52  25  50  1   
 53  25  51  1   
 54  25  52  1   
@<TRIPOS>SUBSTRUCTURE
  1 ****  15 GROUP 4 **** **** 0

# MOE 2024.06 (io_trps.svl 2023.06)
