@<TRIPOS>MOLECULE
NONAME
39 41 1 0 0 
SMALL
USER_CHARGES


@<TRIPOS>ATOM
  1 O        0.8270     0.5770    -1.3880 O.2   1 <1>  -0.5700 
  2 C        0.8480     1.7780    -1.2930 C.2   1 <1>   0.4230 
  3 C        1.9310     2.4950    -0.6660 C.ar  1 <1>   0.0860 
  4 C       -0.3410     2.5190    -1.8740 C.3   1 <1>  -0.1790 
  5 C        1.9730     3.8890    -0.5700 C.ar  1 <1>   0.1600 
  6 C        3.0140     1.8160    -0.1110 C.ar  1 <1>  -0.1500 
  7 N        2.9300     4.6070    -0.0150 N.ar  1 <1>  -0.6200 
  8 C        4.0200     2.5450     0.4730 C.ar  1 <1>  -0.1500 
  9 C        3.9580     3.9370     0.5020 C.ar  1 <1>   0.4100 
 10 N        4.9670     4.6640     1.0890 N.3   1 <1>  -0.5900 
 11 C        6.4130     4.4020     0.7650 C.3   1 <1>   0.2450 
 12 C        5.1850     6.1250     0.7800 C.3   1 <1>   0.2450 
 13 C        6.6940     5.8990     1.0170 C.3   1 <1>   0.2580 
 14 O        7.5030     6.4510    -0.0060 O.3   1 <1>  -0.3400 
 15 C        7.7650     7.7810    -0.0540 C.ar  1 <1>   0.0830 
 16 C        8.4710     8.2370    -1.1560 C.ar  1 <1>  -0.1500 
 17 C        7.3670     8.6860     0.9270 C.ar  1 <1>  -0.1500 
 18 C        8.7830     9.5800    -1.2930 C.ar  1 <1>  -0.1430 
 19 C        7.6750    10.0280     0.7920 C.ar  1 <1>  -0.1500 
 20 C        8.3800    10.4730    -0.3140 C.ar  1 <1>  -0.1500 
 21 C        9.5540    10.0730    -2.5040 C.3   1 <1>  -0.0970 
 22 H       -0.0200     3.1730    -2.6630 H     1 <1>   0.0800 
 23 H       -0.8360     3.0860    -1.1080 H     1 <1>   0.0800 
 24 H       -1.0440     1.8150    -2.2830 H     1 <1>   0.0800 
 25 H        1.1580     4.4560    -0.9810 H     1 <1>   0.1500 
 26 H        3.0500     0.7390    -0.1410 H     1 <1>   0.1500 
 27 H        4.8620     2.0500     0.9170 H     1 <1>   0.1500 
 28 H        6.5350     4.0940    -0.2590 H     1 <1>   0.0000 
 29 H        6.8650     3.7480     1.4890 H     1 <1>   0.0000 
 30 H        4.7200     6.7570     1.5150 H     1 <1>   0.0000 
 31 H        4.9370     6.3620    -0.2410 H     1 <1>   0.0000 
 32 H        7.0630     6.1230     2.0020 H     1 <1>   0.0000 
 33 H        8.7710     7.5280    -1.9060 H     1 <1>   0.1500 
 34 H        6.8230     8.3710     1.7970 H     1 <1>   0.1500 
 35 H        7.3670    10.7290     1.5480 H     1 <1>   0.1500 
 36 H        8.6130    11.5190    -0.4090 H     1 <1>   0.1500 
 37 H       10.1010     9.2670    -2.9590 H     1 <1>   0.0800 
 38 H       10.2530    10.8360    -2.2140 H     1 <1>   0.0800 
 39 H        8.8710    10.4810    -3.2270 H     1 <1>   0.0800 
@<TRIPOS>BOND
  1   1   2  2   
  2   2   3  1   
  3   2   4  1   
  4   3   5  ar  
  5   3   6  ar  
  6   4  22  1   
  7   4  23  1   
  8   4  24  1   
  9   5   7  ar  
 10   5  25  1   
 11   6   8  ar  
 12   6  26  1   
 13   7   9  ar  
 14   8   9  ar  
 15   8  27  1   
 16   9  10  1   
 17  10  11  1   
 18  10  12  1   
 19  11  13  1   
 20  11  28  1   
 21  11  29  1   
 22  12  13  1   
 23  12  30  1   
 24  12  31  1   
 25  13  14  1   
 26  13  32  1   
 27  14  15  1   
 28  15  16  ar  
 29  15  17  ar  
 30  16  18  ar  
 31  16  33  1   
 32  17  19  ar  
 33  17  34  1   
 34  18  20  ar  
 35  18  21  1   
 36  19  20  ar  
 37  19  35  1   
 38  20  36  1   
 39  21  37  1   
 40  21  38  1   
 41  21  39  1   
@<TRIPOS>SUBSTRUCTURE
  1 ****  12 GROUP 4 **** **** 0

# MOE 2024.06 (io_trps.svl 2023.06)
