@<TRIPOS>MOLECULE
NONAME
50 53 1 0 0 
SMALL
USER_CHARGES


@<TRIPOS>ATOM
  1 F       -4.5070    -0.7970    -1.0980 F     1 <1>  -0.1900 
  2 C       -4.5740     0.4980    -0.9680 C.ar  1 <1>   0.1900 
  3 C       -3.5500     1.1610    -0.3360 C.ar  1 <1>  -0.1500 
  4 C       -5.6800     1.1580    -1.4770 C.ar  1 <1>  -0.1500 
  5 C       -3.6260     2.5440    -0.1970 C.ar  1 <1>   0.1170 
  6 C       -5.7560     2.5280    -1.3360 C.ar  1 <1>  -0.1500 
  7 N       -2.5960     3.2450     0.4170 N.am  1 <1>  -0.5470 
  8 C       -4.7450     3.2510    -0.6850 C.ar  1 <1>   0.0280 
  9 C       -2.6010     4.5960     0.5610 C.2   1 <1>   0.6160 
 10 C       -4.7910     4.6840    -0.4980 C.2   1 <1>  -0.0140 
 11 O       -1.6460     5.1270     1.0960 O.2   1 <1>  -0.5700 
 12 C       -3.7320     5.3080     0.0900 C.2   1 <1>  -0.1360 
 13 C       -5.9490     5.4300    -0.9300 C.2   1 <1>   0.6160 
 14 O       -5.8620     6.1240    -1.9240 O.2   1 <1>  -0.5700 
 15 N       -7.1420     5.3720    -0.2410 N.am  1 <1>  -0.6600 
 16 C       -8.3720     6.0500    -0.7260 C.3   1 <1>   0.1400 
 17 C       -7.3130     4.7240     1.0870 C.3   1 <1>   0.1400 
 18 C       -9.5050     5.0250    -0.8280 C.3   1 <1>  -0.1600 
 19 C       -8.4400     3.6920     1.0060 C.3   1 <1>  -0.1600 
 20 C       -9.7650     4.3010     0.5120 C.3   1 <1>   0.2800 
 21 O      -10.1420     5.2300     1.4920 O.3   1 <1>  -0.5600 
 22 C      -10.8270     3.1810     0.4210 C.3   1 <1>  -0.1600 
 23 C      -11.4080     5.8170     1.4150 C.3   1 <1>   0.1200 
 24 C      -12.2810     3.6630     0.4190 C.3   1 <1>   0.2800 
 25 C      -12.4860     4.7350     1.4880 C.3   1 <1>  -0.1600 
 26 O      -12.5640     4.2160    -0.8050 O.3   1 <1>  -0.6800 
 27 C      -13.2600     2.5030     0.5920 C.3   1 <1>  -0.2400 
 28 H       -2.7050     0.6150     0.0400 H     1 <1>   0.1500 
 29 H       -6.4540     0.6000    -1.9730 H     1 <1>   0.1500 
 30 H       -6.6100     3.0450    -1.7400 H     1 <1>   0.1500 
 31 H       -1.7610     2.7760     0.7660 H     1 <1>   0.3700 
 32 H       -3.7090     6.3720     0.2280 H     1 <1>   0.1500 
 33 H       -8.2060     6.5020    -1.6900 H     1 <1>   0.0800 
 34 H       -8.6400     6.8300    -0.0330 H     1 <1>   0.0800 
 35 H       -7.5660     5.4790     1.8130 H     1 <1>   0.0800 
 36 H       -6.4060     4.2460     1.4100 H     1 <1>   0.0800 
 37 H       -9.2330     4.3000    -1.5740 H     1 <1>   0.0800 
 38 H      -10.3810     5.5230    -1.1880 H     1 <1>   0.0800 
 39 H       -8.5860     3.2600     1.9800 H     1 <1>   0.0800 
 40 H       -8.1370     2.9000     0.3460 H     1 <1>   0.0800 
 41 H      -10.7060     2.5490     1.2820 H     1 <1>   0.0800 
 42 H      -10.6460     2.5630    -0.4400 H     1 <1>   0.0800 
 43 H      -11.4810     6.3930     0.5110 H     1 <1>   0.0800 
 44 H      -11.5030     6.4880     2.2520 H     1 <1>   0.0800 
 45 H      -13.4620     5.1750     1.3880 H     1 <1>   0.0800 
 46 H      -12.4350     4.2820     2.4620 H     1 <1>   0.0800 
 47 H      -11.9920     4.9880    -0.9490 H     1 <1>   0.4000 
 48 H      -13.1060     2.0220     1.5410 H     1 <1>   0.0800 
 49 H      -13.1150     1.7750    -0.1860 H     1 <1>   0.0800 
 50 H      -14.2730     2.8620     0.5530 H     1 <1>   0.0800 
@<TRIPOS>BOND
  1   1   2  1   
  2   2   3  ar  
  3   2   4  ar  
  4   3   5  ar  
  5   3  28  1   
  6   4   6  ar  
  7   4  29  1   
  8   5   7  1   
  9   5   8  ar  
 10   6   8  ar  
 11   6  30  1   
 12   7   9  am  
 13   7  31  1   
 14   8  10  1   
 15   9  11  2   
 16   9  12  1   
 17  10  12  2   
 18  10  13  1   
 19  12  32  1   
 20  13  14  2   
 21  13  15  am  
 22  15  16  1   
 23  15  17  1   
 24  16  18  1   
 25  16  33  1   
 26  16  34  1   
 27  17  19  1   
 28  17  35  1   
 29  17  36  1   
 30  18  20  1   
 31  18  37  1   
 32  18  38  1   
 33  19  20  1   
 34  19  39  1   
 35  19  40  1   
 36  20  21  1   
 37  20  22  1   
 38  21  23  1   
 39  22  24  1   
 40  22  41  1   
 41  22  42  1   
 42  23  25  1   
 43  23  43  1   
 44  23  44  1   
 45  24  25  1   
 46  24  26  1   
 47  24  27  1   
 48  25  45  1   
 49  25  46  1   
 50  26  47  1   
 51  27  48  1   
 52  27  49  1   
 53  27  50  1   
@<TRIPOS>SUBSTRUCTURE
  1 ****  17 GROUP 4 **** **** 0

# MOE 2024.06 (io_trps.svl 2023.06)
