@<TRIPOS>MOLECULE
NONAME
53 56 1 0 0 
SMALL
USER_CHARGES


@<TRIPOS>ATOM
  1 O        2.7150     0.6570    -2.5010 O.2   1 <1>  -0.5700 
  2 C        2.6850    -0.2390    -1.6660 C.2   1 <1>   0.4690 
  3 C        2.9250     0.0130    -0.2680 C.ar  1 <1>   0.0860 
  4 C        2.4050    -1.5690    -2.0740 C.2   1 <1>  -0.1360 
  5 C        2.8730    -1.0670     0.6290 C.ar  1 <1>   0.1000 
  6 C        3.2060     1.2850     0.2420 C.ar  1 <1>  -0.1500 
  7 C        2.3630    -2.5920    -1.1850 C.2   1 <1>  -0.0380 
  8 N        2.5930    -2.3380     0.1440 N.pl3 1 <1>  -0.6000 
  9 C        3.0970    -0.8550     1.9880 C.ar  1 <1>  -0.1500 
 10 C        3.4260     1.4830     1.5890 C.ar  1 <1>  -0.1500 
 11 C        2.0670    -4.0360    -1.5800 C.3   1 <1>   0.2480 
 12 C        3.3710     0.4080     2.4660 C.ar  1 <1>  -0.1500 
 13 N        1.1160    -4.6750    -0.6390 N.3   1 <1>  -0.8100 
 14 C        1.0180    -6.1220    -0.8850 C.3   1 <1>   0.1100 
 15 C       -0.2050    -4.0180    -0.6960 C.3   1 <1>   0.1100 
 16 C        0.0940    -6.7940     0.1610 C.3   1 <1>   0.4230 
 17 C       -1.1280    -4.6250     0.3650 C.3   1 <1>  -0.1600 
 18 N        0.0830    -8.3150     0.0910 N.4   1 <1>  -0.9590 
 19 C       -1.3230    -6.1550     0.1970 C.3   1 <1>   0.0000 
 20 C       -1.0790    -8.9480     0.7990 C.3   1 <1>   0.3430 
 21 C        0.2140    -8.9000    -1.2840 C.3   1 <1>   0.2630 
 22 C       -2.1020    -6.7030     1.4290 C.3   1 <1>  -0.1600 
 23 C       -2.0920    -6.4650    -1.1190 C.3   1 <1>   0.1200 
 24 C       -1.5810    -8.0610     1.9370 C.3   1 <1>  -0.1600 
 25 O       -3.2700    -5.7440    -1.2100 O.3   1 <1>  -0.6800 
 26 H        2.2320    -1.7110    -3.1230 H     1 <1>   0.1500 
 27 H        3.2480     2.1180    -0.4390 H     1 <1>   0.1500 
 28 H        2.4610    -3.1150     0.8020 H     1 <1>   0.4000 
 29 H        3.0550    -1.6870     2.6650 H     1 <1>   0.1500 
 30 H        3.6410     2.4690     1.9650 H     1 <1>   0.1500 
 31 H        2.9980    -4.5760    -1.5630 H     1 <1>   0.0800 
 32 H        1.6770    -4.0700    -2.5830 H     1 <1>   0.0800 
 33 H        3.5440     0.5680     3.5160 H     1 <1>   0.1500 
 34 H        0.6520    -6.2850    -1.8830 H     1 <1>   0.0800 
 35 H        2.0030    -6.5490    -0.8010 H     1 <1>   0.0800 
 36 H       -0.1000    -2.9650    -0.4910 H     1 <1>   0.0800 
 37 H       -0.6370    -4.1190    -1.6790 H     1 <1>   0.0800 
 38 H        0.5320    -6.5410     1.1130 H     1 <1>   0.0800 
 39 H       -0.6950    -4.4070     1.3260 H     1 <1>   0.0800 
 40 H       -2.0750    -4.1150     0.3310 H     1 <1>   0.0800 
 41 H        0.9200    -8.6040     0.6180 H     1 <1>   0.4500 
 42 H       -1.8900    -9.1010     0.1050 H     1 <1>   0.0800 
 43 H       -0.7900    -9.9130     1.1870 H     1 <1>   0.0800 
 44 H       -0.6170    -8.6040    -1.9030 H     1 <1>   0.0800 
 45 H        0.2350    -9.9770    -1.2310 H     1 <1>   0.0800 
 46 H        1.1280    -8.5690    -1.7510 H     1 <1>   0.0800 
 47 H       -2.0470    -6.0100     2.2510 H     1 <1>   0.0800 
 48 H       -3.1480    -6.7970     1.1920 H     1 <1>   0.0800 
 49 H       -2.3500    -7.5060    -1.1900 H     1 <1>   0.0800 
 50 H       -1.5100    -6.2010    -1.9840 H     1 <1>   0.0800 
 51 H       -2.3740    -8.5690     2.4590 H     1 <1>   0.0800 
 52 H       -0.7840    -7.9120     2.6450 H     1 <1>   0.0800 
 53 H       -3.8890    -5.9500    -0.4820 H     1 <1>   0.4000 
@<TRIPOS>BOND
  1   1   2  2   
  2   2   3  1   
  3   2   4  1   
  4   3   5  ar  
  5   3   6  ar  
  6   4   7  2   
  7   4  26  1   
  8   5   8  1   
  9   5   9  ar  
 10   6  10  ar  
 11   6  27  1   
 12   7   8  1   
 13   7  11  1   
 14   8  28  1   
 15   9  12  ar  
 16   9  29  1   
 17  10  12  ar  
 18  10  30  1   
 19  11  13  1   
 20  11  31  1   
 21  11  32  1   
 22  12  33  1   
 23  13  14  1   
 24  13  15  1   
 25  14  16  1   
 26  14  34  1   
 27  14  35  1   
 28  15  17  1   
 29  15  36  1   
 30  15  37  1   
 31  16  18  1   
 32  16  19  1   
 33  16  38  1   
 34  17  19  1   
 35  17  39  1   
 36  17  40  1   
 37  18  20  1   
 38  18  21  1   
 39  18  41  1   
 40  19  22  1   
 41  19  23  1   
 42  20  24  1   
 43  20  42  1   
 44  20  43  1   
 45  21  44  1   
 46  21  45  1   
 47  21  46  1   
 48  22  24  1   
 49  22  47  1   
 50  22  48  1   
 51  23  25  1   
 52  23  49  1   
 53  23  50  1   
 54  24  51  1   
 55  24  52  1   
 56  25  53  1   
@<TRIPOS>SUBSTRUCTURE
  1 ****  13 GROUP 4 **** **** 0

# MOE 2024.06 (io_trps.svl 2023.06)
