@<TRIPOS>MOLECULE
NONAME
44 47 1 0 0 
SMALL
USER_CHARGES


@<TRIPOS>ATOM
  1 O        0.5780    -0.5550     1.9150 O.3   1 <1>  -0.0190 
  2 N        0.6900     0.7360     1.8300 N.2   1 <1>  -0.4100 
  3 C        1.0550    -0.9880     0.7750 C.2   1 <1>   0.2980 
  4 C        1.2020     0.9920     0.6950 C.2   1 <1>   0.3350 
  5 N        1.4610    -0.0850    -0.0290 N.2   1 <1>  -0.5650 
  6 C        1.0880    -2.4910     0.5150 C.3   1 <1>   0.2900 
  7 C        1.5090     2.3740     0.1710 C.3   1 <1>  -0.0590 
  8 N       -0.2610    -3.0920     0.3950 N.3   1 <1>  -0.8100 
  9 C       -1.0760    -2.4770    -0.6630 C.3   1 <1>   0.1100 
 10 C       -0.2340    -4.5370     0.1170 C.3   1 <1>   0.1100 
 11 C       -2.1660    -3.5070    -0.9270 C.3   1 <1>   0.2000 
 12 C       -1.3840    -4.8230    -0.8660 C.3   1 <1>  -0.0800 
 13 O       -3.0530    -3.4400     0.1330 O.3   1 <1>  -0.6800 
 14 C       -2.2250    -6.0640    -0.4960 C.3   1 <1>  -0.0170 
 15 C       -1.5000    -7.4160    -0.5350 C.ar  1 <1>  -0.1440 
 16 C       -2.1090    -8.5580     0.0450 C.ar  1 <1>   0.0000 
 17 C       -0.2760    -7.5990    -1.1170 C.ar  1 <1>  -0.1500 
 18 C       -1.3960    -9.7820     0.0120 C.ar  1 <1>   0.3100 
 19 C       -3.3880    -8.5610     0.6510 C.ar  1 <1>  -0.1500 
 20 C        0.3380    -8.8560    -1.1040 C.ar  1 <1>   0.1600 
 21 N       -0.1750    -9.9140    -0.5640 N.ar  1 <1>  -0.6200 
 22 C       -1.9700   -10.9240     0.5930 C.ar  1 <1>  -0.1500 
 23 C       -3.9210    -9.6920     1.2070 C.ar  1 <1>  -0.1500 
 24 C       -3.2050   -10.8900     1.1810 C.ar  1 <1>  -0.1500 
 25 H        1.6120    -2.9630     1.3270 H     1 <1>   0.0800 
 26 H        1.6420    -2.6660    -0.3900 H     1 <1>   0.0800 
 27 H        0.9580     2.5450    -0.7350 H     1 <1>   0.0800 
 28 H        2.5600     2.4560    -0.0330 H     1 <1>   0.0800 
 29 H        1.2310     3.1140     0.8980 H     1 <1>   0.0800 
 30 H       -1.4860    -1.5300    -0.3540 H     1 <1>   0.0800 
 31 H       -0.4870    -2.3380    -1.5540 H     1 <1>   0.0800 
 32 H        0.7050    -4.8330    -0.3190 H     1 <1>   0.0800 
 33 H       -0.3720    -5.0750     1.0410 H     1 <1>   0.0800 
 34 H       -2.7020    -3.3560    -1.8470 H     1 <1>   0.0800 
 35 H       -0.9610    -4.9710    -1.8430 H     1 <1>   0.0800 
 36 H       -2.5080    -3.3130     0.9400 H     1 <1>   0.4000 
 37 H       -3.0730    -6.1150    -1.1560 H     1 <1>   0.0800 
 38 H       -2.6000    -5.9160     0.5010 H     1 <1>   0.0800 
 39 H        0.2610    -6.8090    -1.6020 H     1 <1>   0.1500 
 40 H       -3.9660    -7.6560     0.6790 H     1 <1>   0.1500 
 41 H        1.3030    -8.9500    -1.5730 H     1 <1>   0.1500 
 42 H       -1.4010   -11.8340     0.5580 H     1 <1>   0.1500 
 43 H       -4.8950    -9.6750     1.6660 H     1 <1>   0.1500 
 44 H       -3.6330   -11.7740     1.6230 H     1 <1>   0.1500 
@<TRIPOS>BOND
  1   1   2  1   
  2   1   3  1   
  3   2   4  2   
  4   3   5  2   
  5   3   6  1   
  6   4   5  1   
  7   4   7  1   
  8   6   8  1   
  9   6  25  1   
 10   6  26  1   
 11   7  27  1   
 12   7  28  1   
 13   7  29  1   
 14   8   9  1   
 15   8  10  1   
 16   9  11  1   
 17   9  30  1   
 18   9  31  1   
 19  10  12  1   
 20  10  32  1   
 21  10  33  1   
 22  11  12  1   
 23  11  13  1   
 24  11  34  1   
 25  12  14  1   
 26  12  35  1   
 27  13  36  1   
 28  14  15  1   
 29  14  37  1   
 30  14  38  1   
 31  15  16  ar  
 32  15  17  ar  
 33  16  18  ar  
 34  16  19  ar  
 35  17  20  ar  
 36  17  39  1   
 37  18  21  ar  
 38  18  22  ar  
 39  19  23  ar  
 40  19  40  1   
 41  20  21  ar  
 42  20  41  1   
 43  22  24  ar  
 44  22  42  1   
 45  23  24  ar  
 46  23  43  1   
 47  24  44  1   
@<TRIPOS>SUBSTRUCTURE
  1 ****  10 GROUP 4 **** **** 0

# MOE 2024.06 (io_trps.svl 2023.06)
