@<TRIPOS>MOLECULE
NONAME
49 51 1 0 0 
SMALL
USER_CHARGES


@<TRIPOS>ATOM
  1 O       -4.4590     1.6220    -0.5140 O.co2 1 <1>  -0.9000 
  2 C       -3.5090     2.1180     0.1040 C.2   1 <1>   0.9060 
  3 O       -3.5540     2.2270     1.3340 O.co2 1 <1>  -0.9000 
  4 C       -2.4090     2.8400    -0.6630 C.3   1 <1>   0.0140 
  5 O       -2.8660     4.0590    -1.2720 O.3   1 <1>  -0.3630 
  6 C       -2.8930     5.1840    -0.5200 C.ar  1 <1>   0.0830 
  7 C       -3.9700     5.4810     0.3110 C.ar  1 <1>  -0.1440 
  8 C       -1.8300     6.0660    -0.6270 C.ar  1 <1>  -0.1500 
  9 C       -3.9560     6.6580     1.0470 C.ar  1 <1>  -0.1500 
 10 C       -5.1240     4.5010     0.4060 C.3   1 <1>   0.4870 
 11 C       -1.8280     7.2410     0.1030 C.ar  1 <1>  -0.1500 
 12 C       -2.8900     7.5350     0.9410 C.ar  1 <1>  -0.1500 
 13 N       -6.4240     5.1290     0.0860 N.4   1 <1>  -0.9590 
 14 C       -7.4910     4.1140     0.2240 C.3   1 <1>   0.3430 
 15 C       -6.3910     5.7420    -1.2710 C.3   1 <1>   0.3430 
 16 C       -8.8660     4.7740     0.0760 C.3   1 <1>  -0.1600 
 17 C       -7.7990     6.1020    -1.7600 C.3   1 <1>  -0.1600 
 18 C       -8.8250     6.1420    -0.6220 C.3   1 <1>   0.4180 
 19 O       -8.3920     7.0660     0.3520 O.3   1 <1>  -0.5600 
 20 C      -10.2160     6.5080    -1.1290 C.2   1 <1>  -0.2880 
 21 C       -8.6770     8.4210     0.1270 C.3   1 <1>   0.1200 
 22 C      -10.8580     7.6330    -0.8050 C.2   1 <1>  -0.2760 
 23 C      -10.1930     8.6580     0.0940 C.3   1 <1>  -0.0220 
 24 C      -12.2590     7.9890    -1.2710 C.3   1 <1>  -0.1020 
 25 H       -2.0640     2.1940    -1.4460 H     1 <1>   0.0800 
 26 H       -1.5970     3.0660     0.0010 H     1 <1>   0.0800 
 27 H       -1.0110     5.8250    -1.2810 H     1 <1>   0.1500 
 28 H       -4.7660     6.8980     1.7130 H     1 <1>   0.1500 
 29 H       -5.1390     4.0420     1.3830 H     1 <1>   0.0800 
 30 H       -4.9750     3.7300    -0.3220 H     1 <1>   0.0800 
 31 H       -0.9990     7.9230     0.0210 H     1 <1>   0.1500 
 32 H       -2.8810     8.4460     1.5150 H     1 <1>   0.1500 
 33 H       -6.6260     5.8850     0.7560 H     1 <1>   0.4500 
 34 H       -7.4220     3.6270     1.1840 H     1 <1>   0.0800 
 35 H       -7.3600     3.3610    -0.5380 H     1 <1>   0.0800 
 36 H       -5.9310     5.0600    -1.9690 H     1 <1>   0.0800 
 37 H       -5.7860     6.6330    -1.2350 H     1 <1>   0.0800 
 38 H       -9.3270     4.8860     1.0410 H     1 <1>   0.0800 
 39 H       -9.4850     4.1000    -0.4870 H     1 <1>   0.0800 
 40 H       -8.1080     5.3610    -2.4750 H     1 <1>   0.0800 
 41 H       -7.7770     7.0400    -2.2830 H     1 <1>   0.0800 
 42 H      -10.6410     5.7620    -1.7760 H     1 <1>   0.1500 
 43 H       -8.2320     8.7180    -0.8060 H     1 <1>   0.0800 
 44 H       -8.2300     8.9920     0.9220 H     1 <1>   0.0800 
 45 H      -10.3760     9.6520    -0.2750 H     1 <1>   0.0800 
 46 H      -10.5970     8.5900     1.0880 H     1 <1>   0.0800 
 47 H      -12.9080     8.1230    -0.4240 H     1 <1>   0.0800 
 48 H      -12.6640     7.2070    -1.8890 H     1 <1>   0.0800 
 49 H      -12.2420     8.8990    -1.8430 H     1 <1>   0.0800 
@<TRIPOS>BOND
  1   1   2  ar  
  2   2   3  ar  
  3   2   4  1   
  4   4   5  1   
  5   4  25  1   
  6   4  26  1   
  7   5   6  1   
  8   6   7  ar  
  9   6   8  ar  
 10   7   9  ar  
 11   7  10  1   
 12   8  11  ar  
 13   8  27  1   
 14   9  12  ar  
 15   9  28  1   
 16  10  13  1   
 17  10  29  1   
 18  10  30  1   
 19  11  12  ar  
 20  11  31  1   
 21  12  32  1   
 22  13  14  1   
 23  13  15  1   
 24  13  33  1   
 25  14  16  1   
 26  14  34  1   
 27  14  35  1   
 28  15  17  1   
 29  15  36  1   
 30  15  37  1   
 31  16  18  1   
 32  16  38  1   
 33  16  39  1   
 34  17  18  1   
 35  17  40  1   
 36  17  41  1   
 37  18  19  1   
 38  18  20  1   
 39  19  21  1   
 40  20  22  2   
 41  20  42  1   
 42  21  23  1   
 43  21  43  1   
 44  21  44  1   
 45  22  23  1   
 46  22  24  1   
 47  23  45  1   
 48  23  46  1   
 49  24  47  1   
 50  24  48  1   
 51  24  49  1   
@<TRIPOS>SUBSTRUCTURE
  1 ****  13 GROUP 4 **** **** 0

# MOE 2024.06 (io_trps.svl 2023.06)
