@<TRIPOS>MOLECULE
NONAME
47 49 1 0 0 
SMALL
USER_CHARGES


@<TRIPOS>ATOM
  1 S        0.0550     0.8630    -1.7280 S.o2  1 <1>   1.4470 
  2 O       -0.4370     0.2140    -2.9240 O.2   1 <1>  -0.6500 
  3 O        0.8770     2.0450    -1.8540 O.2   1 <1>  -0.6500 
  4 N       -1.2890     1.2520    -0.7680 N.am  1 <1>  -0.8490 
  5 C        0.9450    -0.3320    -0.6950 C.ar  1 <1>  -0.0090 
  6 C       -2.4000     0.2850    -0.8180 C.3   1 <1>   0.1960 
  7 C       -1.6720     2.6670    -0.8840 C.3   1 <1>   0.1960 
  8 C        1.3560    -0.0040     0.6000 C.ar  1 <1>   0.0730 
  9 C        1.2380    -1.5990    -1.1900 C.ar  1 <1>  -0.1500 
 10 C       -3.6500     0.8950    -1.4540 C.3   1 <1>  -0.1600 
 11 C       -2.9490     2.9200    -0.0880 C.3   1 <1>  -0.1600 
 12 C        1.0910     1.2780     1.1930 C.1   1 <1>   0.4840 
 13 C        2.0430    -0.9510     1.3550 C.ar  1 <1>  -0.1500 
 14 C        1.9200    -2.5310    -0.4300 C.ar  1 <1>  -0.1500 
 15 C       -4.1490     2.1300    -0.6710 C.3   1 <1>   0.2800 
 16 N        0.8770     2.2740     1.7060 N.1   1 <1>  -0.5570 
 17 C        2.3240    -2.2050     0.8480 C.ar  1 <1>  -0.1500 
 18 O       -4.7480     2.9270    -1.6510 O.3   1 <1>  -0.5600 
 19 C       -5.1740     1.7030     0.4250 C.3   1 <1>  -0.1600 
 20 C       -5.5530     4.0380    -1.3250 C.3   1 <1>   0.1200 
 21 C       -6.5130     2.4580     0.4140 C.3   1 <1>   0.2800 
 22 C       -6.2770     3.9340     0.0300 C.3   1 <1>   0.2000 
 23 O       -7.3320     1.8790    -0.5380 O.3   1 <1>  -0.6800 
 24 C       -7.2600     2.2990     1.7420 C.3   1 <1>  -0.2400 
 25 O       -5.5070     4.5770     1.0040 O.3   1 <1>  -0.6800 
 26 H       -2.1170    -0.6050    -1.3560 H     1 <1>   0.0800 
 27 H       -2.6340    -0.0130     0.1900 H     1 <1>   0.0800 
 28 H       -0.8780     3.2860    -0.4970 H     1 <1>   0.0800 
 29 H       -1.8280     2.9270    -1.9200 H     1 <1>   0.0800 
 30 H        0.9300    -1.8640    -2.1900 H     1 <1>   0.1500 
 31 H       -4.4220     0.1510    -1.5270 H     1 <1>   0.0800 
 32 H       -3.3980     1.1730    -2.4630 H     1 <1>   0.0800 
 33 H       -3.1430     3.9750    -0.0830 H     1 <1>   0.0800 
 34 H       -2.7410     2.6240     0.9240 H     1 <1>   0.0800 
 35 H        2.3640    -0.7050     2.3540 H     1 <1>   0.1500 
 36 H        2.1360    -3.5070    -0.8340 H     1 <1>   0.1500 
 37 H        2.8570    -2.9260     1.4460 H     1 <1>   0.1500 
 38 H       -5.3710     0.6480     0.3830 H     1 <1>   0.0800 
 39 H       -4.7210     1.8550     1.3860 H     1 <1>   0.0800 
 40 H       -4.9510     4.9280    -1.3710 H     1 <1>   0.0800 
 41 H       -6.2950     4.0990    -2.1010 H     1 <1>   0.0800 
 42 H       -7.2150     4.4590    -0.0140 H     1 <1>   0.0800 
 43 H       -7.4760     0.9400    -0.3260 H     1 <1>   0.4000 
 44 H       -6.6920     2.7350     2.5440 H     1 <1>   0.0800 
 45 H       -7.4220     1.2610     1.9710 H     1 <1>   0.0800 
 46 H       -8.2070     2.8070     1.6960 H     1 <1>   0.0800 
 47 H       -4.6190     4.1750     1.0340 H     1 <1>   0.4000 
@<TRIPOS>BOND
  1   1   2  2   
  2   1   3  2   
  3   1   4  am  
  4   1   5  1   
  5   4   6  1   
  6   4   7  1   
  7   5   8  ar  
  8   5   9  ar  
  9   6  10  1   
 10   6  26  1   
 11   6  27  1   
 12   7  11  1   
 13   7  28  1   
 14   7  29  1   
 15   8  12  1   
 16   8  13  ar  
 17   9  14  ar  
 18   9  30  1   
 19  10  15  1   
 20  10  31  1   
 21  10  32  1   
 22  11  15  1   
 23  11  33  1   
 24  11  34  1   
 25  12  16  3   
 26  13  17  ar  
 27  13  35  1   
 28  14  17  ar  
 29  14  36  1   
 30  15  18  1   
 31  15  19  1   
 32  17  37  1   
 33  18  20  1   
 34  19  21  1   
 35  19  38  1   
 36  19  39  1   
 37  20  22  1   
 38  20  40  1   
 39  20  41  1   
 40  21  22  1   
 41  21  23  1   
 42  21  24  1   
 43  22  25  1   
 44  22  42  1   
 45  23  43  1   
 46  24  44  1   
 47  24  45  1   
 48  24  46  1   
 49  25  47  1   
@<TRIPOS>SUBSTRUCTURE
  1 ****   4 GROUP 4 **** **** 0

# MOE 2024.06 (io_trps.svl 2023.06)
