@<TRIPOS>MOLECULE
NONAME
41 43 1 0 0 
SMALL
USER_CHARGES


@<TRIPOS>ATOM
  1 S        0.4980     0.5150     0.9810 S.3   1 <1>  -0.0800 
  2 C        1.7020     1.3570    -0.0010 C.2   1 <1>  -0.0450 
  3 C        0.9800    -1.0510     0.3670 C.2   1 <1>  -0.1100 
  4 C        1.7890     2.7950     0.0910 C.2   1 <1>   0.7150 
  5 C        2.3840     0.4330    -0.7290 C.2   1 <1>  -0.1500 
  6 C        1.9820    -0.9180    -0.5210 C.2   1 <1>  -0.1500 
  7 O        0.7960     3.4560     0.3390 O.2   1 <1>  -0.5700 
  8 N        2.9840     3.4560    -0.1030 N.am  1 <1>  -0.6600 
  9 C        4.3110     2.8700     0.2780 C.3   1 <1>   0.1400 
 10 C        3.0300     4.9330    -0.3620 C.3   1 <1>   0.1400 
 11 C        4.9560     3.6550     1.4350 C.3   1 <1>   0.2090 
 12 C        3.6870     5.6910     0.8050 C.3   1 <1>   0.2090 
 13 N        5.0330     5.1100     1.1050 N.pl3 1 <1>  -0.8380 
 14 C        6.1730     5.6740     0.5650 C.ar  1 <1>   0.7200 
 15 N        6.1760     6.9980     0.4420 N.ar  1 <1>  -0.6200 
 16 N        7.1490     4.8370     0.2100 N.ar  1 <1>  -0.6200 
 17 C        7.2530     7.5580    -0.0730 C.ar  1 <1>   0.4100 
 18 C        8.2280     5.3990    -0.2980 C.ar  1 <1>   0.1600 
 19 N        7.2360     8.9470    -0.1990 N.pl3 1 <1>  -0.8380 
 20 C        8.3230     6.7520    -0.4560 C.ar  1 <1>   0.1900 
 21 C        7.7200     9.6220    -1.4330 C.3   1 <1>   0.1290 
 22 C        6.3860     9.7810     0.6950 C.3   1 <1>   0.1290 
 23 F        9.4310     7.2570    -0.9590 F     1 <1>  -0.1900 
 24 H        0.4560    -1.9140     0.7380 H     1 <1>   0.1500 
 25 H        3.1680     0.6690    -1.4270 H     1 <1>   0.1500 
 26 H        2.4570    -1.7290    -1.0460 H     1 <1>   0.1500 
 27 H        4.9700     2.9010    -0.5730 H     1 <1>   0.0800 
 28 H        4.2050     1.8460     0.5820 H     1 <1>   0.0800 
 29 H        2.0390     5.3220    -0.5230 H     1 <1>   0.0800 
 30 H        3.6000     5.1140    -1.2560 H     1 <1>   0.0800 
 31 H        5.9320     3.2560     1.6500 H     1 <1>   0.0800 
 32 H        4.3590     3.5300     2.3220 H     1 <1>   0.0800 
 33 H        3.0620     5.6090     1.6770 H     1 <1>   0.0800 
 34 H        3.7560     6.7350     0.5550 H     1 <1>   0.0800 
 35 H        9.0470     4.7670    -0.5900 H     1 <1>   0.1500 
 36 H        7.9100     8.9010    -2.2090 H     1 <1>   0.0800 
 37 H        8.6300    10.1550    -1.2190 H     1 <1>   0.0800 
 38 H        6.9790    10.3160    -1.7890 H     1 <1>   0.0800 
 39 H        6.2630     9.2970     1.6490 H     1 <1>   0.0800 
 40 H        5.4170     9.9210     0.2490 H     1 <1>   0.0800 
 41 H        6.8500    10.7390     0.8550 H     1 <1>   0.0800 
@<TRIPOS>BOND
  1   1   2  1   
  2   1   3  1   
  3   2   4  1   
  4   2   5  2   
  5   3   6  2   
  6   3  24  1   
  7   4   7  2   
  8   4   8  am  
  9   5   6  1   
 10   5  25  1   
 11   6  26  1   
 12   8   9  1   
 13   8  10  1   
 14   9  11  1   
 15   9  27  1   
 16   9  28  1   
 17  10  12  1   
 18  10  29  1   
 19  10  30  1   
 20  11  13  1   
 21  11  31  1   
 22  11  32  1   
 23  12  13  1   
 24  12  33  1   
 25  12  34  1   
 26  13  14  1   
 27  14  15  ar  
 28  14  16  ar  
 29  15  17  ar  
 30  16  18  ar  
 31  17  19  1   
 32  17  20  ar  
 33  18  20  ar  
 34  18  35  1   
 35  19  21  1   
 36  19  22  1   
 37  20  23  1   
 38  21  36  1   
 39  21  37  1   
 40  21  38  1   
 41  22  39  1   
 42  22  40  1   
 43  22  41  1   
@<TRIPOS>SUBSTRUCTURE
  1 ****  13 GROUP 4 **** **** 0

# MOE 2024.06 (io_trps.svl 2023.06)
