@<TRIPOS>MOLECULE
NONAME
50 53 1 0 0 
SMALL
USER_CHARGES


@<TRIPOS>ATOM
  1 O        4.4070    -0.1430     2.2560 O.2   1 <1>  -0.5700 
  2 C        3.7850    -0.8010     1.4530 C.2   1 <1>   0.9370 
  3 N        3.1090    -0.1590     0.4170 N.pl3 1 <1>  -0.5760 
  4 C        3.7160    -2.2240     1.5580 C.2   1 <1>  -0.1360 
  5 C        2.4490    -0.9280    -0.4540 C.cat 1 <1>   0.7390 
  6 C        3.0490     1.2070     0.2200 C.2   1 <1>   0.1910 
  7 C        3.0340    -2.9540     0.6430 C.2   1 <1>   0.2030 
  8 N        2.4450    -2.2490    -0.3640 N.pl3 1 <1>  -0.6450 
  9 C        1.6800    -0.4490    -1.5200 C.2   1 <1>  -0.1800 
 10 C        2.3210     1.7430    -0.8210 C.2   1 <1>  -0.1500 
 11 C        2.8430    -4.4760     0.6400 C.3   1 <1>   0.4810 
 12 O        1.0750    -1.2990    -2.2480 O.3   1 <1>  -0.8500 
 13 C        1.6210     0.9220    -1.7090 C.2   1 <1>  -0.1500 
 14 N        1.3860    -4.8540     0.5930 N.4   1 <1>  -0.8520 
 15 C        1.0040    -6.0180     1.4420 C.3   1 <1>   0.2960 
 16 C        0.8960    -5.0530    -0.8120 C.3   1 <1>   0.5240 
 17 C        1.6140    -6.2350     2.7860 C.3   1 <1>  -0.2000 
 18 C        1.9440    -7.1590     1.6460 C.3   1 <1>  -0.2000 
 19 C       -0.6000    -5.2740    -0.7800 C.2   1 <1>  -0.1810 
 20 C       -1.5720    -4.2780    -0.7420 C.2   1 <1>   0.1080 
 21 C       -1.2930    -6.4380    -0.7790 C.2   1 <1>  -0.3320 
 22 N       -2.7620    -4.7760    -0.6760 N.2   1 <1>  -0.7070 
 23 C       -1.3600    -2.7790    -0.7970 C.3   1 <1>  -0.0590 
 24 N       -2.6030    -6.1050    -0.7140 N.pl3 1 <1>   0.3140 
 25 C       -0.8040    -7.8780    -0.8500 C.3   1 <1>  -0.0600 
 26 C       -3.7660    -7.0030    -0.7040 C.3   1 <1>   0.0160 
 27 H        4.2290    -2.6530     2.3980 H     1 <1>   0.1500 
 28 H        3.5870     1.8470     0.9040 H     1 <1>   0.1500 
 29 H        1.8860    -2.5130    -1.2090 H     1 <1>   0.4500 
 30 H        2.2820     2.8080    -0.9640 H     1 <1>   0.1500 
 31 H        3.3010    -4.8730     1.5280 H     1 <1>   0.0800 
 32 H        3.3560    -4.9000    -0.2070 H     1 <1>   0.0800 
 33 H        1.0430     1.3210    -2.5250 H     1 <1>   0.1500 
 34 H        0.8240    -4.0660     0.9410 H     1 <1>   0.4500 
 35 H       -0.0510    -6.2450     1.3690 H     1 <1>   0.1000 
 36 H        1.3720    -5.9120    -1.2530 H     1 <1>   0.0800 
 37 H        1.1070    -4.1910    -1.4230 H     1 <1>   0.0800 
 38 H        0.9900    -6.6260     3.5730 H     1 <1>   0.1000 
 39 H        2.3810    -5.5910     3.1740 H     1 <1>   0.1000 
 40 H        2.9430    -7.1470     1.2510 H     1 <1>   0.1000 
 41 H        1.5410    -8.1570     1.6870 H     1 <1>   0.1000 
 42 H       -0.4980    -2.4760    -0.2370 H     1 <1>   0.0800 
 43 H       -2.2220    -2.2750    -0.3990 H     1 <1>   0.0800 
 44 H       -1.2370    -2.4690    -1.8200 H     1 <1>   0.0800 
 45 H        0.2660    -7.9220    -0.9350 H     1 <1>   0.0800 
 46 H       -1.2270    -8.3660    -1.7120 H     1 <1>   0.0800 
 47 H       -1.1030    -8.4190     0.0300 H     1 <1>   0.0800 
 48 H       -3.6930    -7.6710     0.1320 H     1 <1>   0.0800 
 49 H       -3.7900    -7.5580    -1.6230 H     1 <1>   0.0800 
 50 H       -4.6620    -6.4160    -0.6180 H     1 <1>   0.0800 
@<TRIPOS>BOND
  1   1   2  2   
  2   2   3  1   
  3   2   4  1   
  4   3   5  ar  
  5   3   6  1   
  6   4   7  2   
  7   4  27  1   
  8   5   8  ar  
  9   5   9  1   
 10   6  10  2   
 11   6  28  1   
 12   7   8  1   
 13   7  11  1   
 14   8  29  1   
 15   9  12  1   
 16   9  13  2   
 17  10  13  1   
 18  10  30  1   
 19  11  14  1   
 20  11  31  1   
 21  11  32  1   
 22  13  33  1   
 23  14  15  1   
 24  14  16  1   
 25  14  34  1   
 26  15  17  1   
 27  15  18  1   
 28  15  35  1   
 29  16  19  1   
 30  16  36  1   
 31  16  37  1   
 32  17  18  1   
 33  17  38  1   
 34  17  39  1   
 35  18  40  1   
 36  18  41  1   
 37  19  20  1   
 38  19  21  2   
 39  20  22  2   
 40  20  23  1   
 41  21  24  1   
 42  21  25  1   
 43  22  24  1   
 44  23  42  1   
 45  23  43  1   
 46  23  44  1   
 47  24  26  1   
 48  25  45  1   
 49  25  46  1   
 50  25  47  1   
 51  26  48  1   
 52  26  49  1   
 53  26  50  1   
@<TRIPOS>SUBSTRUCTURE
  1 ****  14 GROUP 4 **** **** 0

# MOE 2024.06 (io_trps.svl 2023.06)
