@<TRIPOS>MOLECULE
NONAME
48 51 1 0 0 
SMALL
USER_CHARGES


@<TRIPOS>ATOM
  1 S        1.6150    -0.9140     0.2550 S.3   1 <1>  -0.0800 
  2 C        0.6720    -2.3220    -0.1760 C.ar  1 <1>   0.0400 
  3 C        1.4760    -1.3680     1.9490 C.2   1 <1>   0.2280 
  4 C        0.3480    -2.9960     0.9850 C.ar  1 <1>   0.2270 
  5 C        0.2810    -2.7520    -1.4290 C.ar  1 <1>  -0.1500 
  6 N        0.8140    -2.4310     2.1680 N.2   1 <1>  -0.5650 
  7 C       -0.4030    -4.1540     0.8890 C.ar  1 <1>  -0.1500 
  8 C       -0.4730    -3.9100    -1.5010 C.ar  1 <1>  -0.1500 
  9 C       -0.8350    -4.6320    -0.3500 C.ar  1 <1>   0.0860 
 10 C       -1.6410    -5.8380    -0.4340 C.2   1 <1>   0.5440 
 11 O       -1.7360    -6.6130     0.5020 O.2   1 <1>  -0.5700 
 12 N       -2.4090    -6.1250    -1.5360 N.am  1 <1>  -0.6600 
 13 C       -3.7690    -5.5060    -1.5790 C.3   1 <1>   0.1400 
 14 C       -2.4160    -7.5410    -2.0370 C.3   1 <1>   0.1400 
 15 C       -4.7740    -6.2990    -0.6950 C.3   1 <1>   0.4230 
 16 C       -3.5970    -8.3600    -1.4580 C.3   1 <1>   0.3430 
 17 N       -4.2270    -7.6520    -0.2900 N.4   1 <1>  -0.9590 
 18 C       -6.1460    -6.4450    -1.3920 C.3   1 <1>   0.1200 
 19 C       -5.2440    -8.4200     0.4970 C.3   1 <1>   0.4230 
 20 O       -7.0270    -7.1880    -0.5980 O.3   1 <1>  -0.5600 
 21 C       -6.5930    -8.4780    -0.2600 C.3   1 <1>   0.1200 
 22 C       -4.7020    -9.8070     0.8760 C.3   1 <1>  -0.1600 
 23 C       -5.5440   -10.4880     1.9670 C.3   1 <1>  -0.1600 
 24 C       -4.9250   -11.8270     2.3760 C.3   1 <1>  -0.2400 
 25 H        1.9560    -0.7210     2.6630 H     1 <1>   0.1500 
 26 H        0.5610    -2.1980    -2.3090 H     1 <1>   0.1500 
 27 H       -0.6460    -4.6790     1.7960 H     1 <1>   0.1500 
 28 H       -0.7840    -4.2670    -2.4670 H     1 <1>   0.1500 
 29 H       -3.7210    -4.4870    -1.2330 H     1 <1>   0.0800 
 30 H       -4.1070    -5.4800    -2.6010 H     1 <1>   0.0800 
 31 H       -2.4610    -7.5450    -3.1130 H     1 <1>   0.0800 
 32 H       -1.4920    -8.0190    -1.7560 H     1 <1>   0.0800 
 33 H       -4.9370    -5.7210     0.1990 H     1 <1>   0.0800 
 34 H       -3.2250    -9.3250    -1.1560 H     1 <1>   0.0800 
 35 H       -4.3330    -8.5190    -2.2290 H     1 <1>   0.0800 
 36 H       -3.4190    -7.4300     0.3310 H     1 <1>   0.4500 
 37 H       -6.0520    -6.9310    -2.3470 H     1 <1>   0.0800 
 38 H       -6.5890    -5.4760    -1.5430 H     1 <1>   0.0800 
 39 H       -5.4250    -7.8870     1.4160 H     1 <1>   0.0800 
 40 H       -7.3520    -8.9150     0.3640 H     1 <1>   0.0800 
 41 H       -6.5130    -9.0650    -1.1590 H     1 <1>   0.0800 
 42 H       -4.6790   -10.4480     0.0120 H     1 <1>   0.0800 
 43 H       -3.6990    -9.6970     1.2520 H     1 <1>   0.0800 
 44 H       -5.6020    -9.8530     2.8370 H     1 <1>   0.0800 
 45 H       -6.5470   -10.6670     1.6180 H     1 <1>   0.0800 
 46 H       -3.9320   -11.6860     2.7660 H     1 <1>   0.0800 
 47 H       -4.8760   -12.4980     1.5350 H     1 <1>   0.0800 
 48 H       -5.5240   -12.2900     3.1410 H     1 <1>   0.0800 
@<TRIPOS>BOND
  1   1   2  1   
  2   1   3  1   
  3   2   4  ar  
  4   2   5  ar  
  5   3   6  2   
  6   3  25  1   
  7   4   6  1   
  8   4   7  ar  
  9   5   8  ar  
 10   5  26  1   
 11   7   9  ar  
 12   7  27  1   
 13   8   9  ar  
 14   8  28  1   
 15   9  10  1   
 16  10  11  2   
 17  10  12  am  
 18  12  13  1   
 19  12  14  1   
 20  13  15  1   
 21  13  29  1   
 22  13  30  1   
 23  14  16  1   
 24  14  31  1   
 25  14  32  1   
 26  15  17  1   
 27  15  18  1   
 28  15  33  1   
 29  16  17  1   
 30  16  34  1   
 31  16  35  1   
 32  17  19  1   
 33  17  36  1   
 34  18  20  1   
 35  18  37  1   
 36  18  38  1   
 37  19  21  1   
 38  19  22  1   
 39  19  39  1   
 40  20  21  1   
 41  21  40  1   
 42  21  41  1   
 43  22  23  1   
 44  22  42  1   
 45  22  43  1   
 46  23  24  1   
 47  23  44  1   
 48  23  45  1   
 49  24  46  1   
 50  24  47  1   
 51  24  48  1   
@<TRIPOS>SUBSTRUCTURE
  1 ****  10 GROUP 4 **** **** 0

# MOE 2024.06 (io_trps.svl 2023.06)
