@<TRIPOS>MOLECULE
NONAME
62 67 1 0 0 
SMALL
USER_CHARGES


@<TRIPOS>ATOM
  1 O        0.1250    -0.1000     0.0490 O.2   1 <1>  -0.5700 
  2 C       -0.3330     0.9960     0.2720 C.2   1 <1>   0.5690 
  3 N       -1.6920     1.1760     0.3600 N.am  1 <1>  -0.6600 
  4 C        0.6020     2.1910     0.4660 C.3   1 <1>  -0.0990 
  5 C       -2.3860     2.4710     0.6500 C.3   1 <1>   0.1400 
  6 C       -2.6040     0.0020     0.1850 C.3   1 <1>   0.1400 
  7 C        2.1290     2.0210     0.2600 C.3   1 <1>   0.0000 
  8 C       -3.3620     2.8480    -0.4880 C.3   1 <1>   0.1440 
  9 C       -4.0640     0.4210    -0.0590 C.3   1 <1>  -0.1600 
 10 C        2.7460     1.0230     1.2720 C.3   1 <1>  -0.1600 
 11 C        2.4700     1.5620    -1.1810 C.3   1 <1>  -0.1600 
 12 C        2.8040     3.3990     0.4870 C.3   1 <1>  -0.1600 
 13 C       -4.2770     3.9340     0.0510 C.ar  1 <1>   0.1660 
 14 C       -4.1400     1.6150    -1.0230 C.3   1 <1>  -0.1600 
 15 C       -2.6320     3.5890    -1.6410 C.3   1 <1>  -0.1600 
 16 C        4.2630     0.9340     1.0580 C.3   1 <1>   0.2800 
 17 C        3.9950     1.4580    -1.3800 C.3   1 <1>  -0.0800 
 18 C        4.3310     3.3160     0.2950 C.3   1 <1>  -0.0800 
 19 N       -5.2700     3.7480     0.8930 N.ar  1 <1>  -0.6200 
 20 C       -3.9350     5.1640    -0.4270 C.ar  1 <1>  -0.1440 
 21 C       -2.7500     5.0960    -1.3560 C.3   1 <1>  -0.0170 
 22 O        4.7850     0.0350     1.9560 O.3   1 <1>  -0.6800 
 23 C        4.5680     0.4480    -0.3660 C.3   1 <1>  -0.1600 
 24 C        4.9110     2.3020     1.2990 C.3   1 <1>  -0.1600 
 25 C        4.6320     2.8390    -1.1390 C.3   1 <1>  -0.1600 
 26 C       -5.9210     4.8530     1.2270 C.ar  1 <1>   0.4770 
 27 C       -4.6770     6.2420    -0.0120 C.ar  1 <1>   0.1600 
 28 N       -5.6840     6.0940     0.8240 N.ar  1 <1>  -0.6200 
 29 C       -7.0780     4.6820     2.1820 C.3   1 <1>  -0.0970 
 30 H        0.4420     2.5510     1.4660 H     1 <1>   0.0800 
 31 H        0.2740     2.9570    -0.2090 H     1 <1>   0.0800 
 32 H       -1.6930     3.2740     0.8150 H     1 <1>   0.0800 
 33 H       -2.9450     2.3490     1.5620 H     1 <1>   0.0800 
 34 H       -2.5430    -0.6270     1.0570 H     1 <1>   0.0800 
 35 H       -2.2600    -0.5730    -0.6590 H     1 <1>   0.0800 
 36 H       -4.5280     0.6800     0.8770 H     1 <1>   0.0800 
 37 H       -4.6070    -0.4140    -0.4650 H     1 <1>   0.0800 
 38 H        2.3190     0.0470     1.1400 H     1 <1>   0.0800 
 39 H        2.5420     1.3490     2.2760 H     1 <1>   0.0800 
 40 H        2.0620     2.2570    -1.8940 H     1 <1>   0.0800 
 41 H        2.0330     0.6020    -1.3840 H     1 <1>   0.0800 
 42 H        2.5950     3.7500     1.4820 H     1 <1>   0.0800 
 43 H        2.4040     4.1220    -0.2020 H     1 <1>   0.0800 
 44 H       -3.7180     1.2960    -1.9600 H     1 <1>   0.0800 
 45 H       -5.1680     1.8770    -1.2040 H     1 <1>   0.0800 
 46 H       -3.1420     3.3970    -2.5690 H     1 <1>   0.0800 
 47 H       -1.6100     3.2720    -1.7500 H     1 <1>   0.0800 
 48 H        4.2090     1.1280    -2.3820 H     1 <1>   0.0800 
 49 H        4.7750     4.2830     0.4580 H     1 <1>   0.0800 
 50 H       -2.9160     5.6580    -2.2580 H     1 <1>   0.0800 
 51 H       -1.8720     5.4600    -0.8520 H     1 <1>   0.0800 
 52 H        4.3440    -0.8240     1.8320 H     1 <1>   0.4000 
 53 H        4.1230    -0.5160    -0.5320 H     1 <1>   0.0800 
 54 H        5.6320     0.3640    -0.5020 H     1 <1>   0.0800 
 55 H        5.9760     2.2290     1.1700 H     1 <1>   0.0800 
 56 H        4.7110     2.6280     2.3040 H     1 <1>   0.0800 
 57 H        4.2450     3.5490    -1.8490 H     1 <1>   0.0800 
 58 H        5.6970     2.7800    -1.2860 H     1 <1>   0.0800 
 59 H       -4.4470     7.2330    -0.3650 H     1 <1>   0.1500 
 60 H       -6.9830     3.7590     2.7230 H     1 <1>   0.0800 
 61 H       -7.9960     4.6730     1.6260 H     1 <1>   0.0800 
 62 H       -7.0970     5.4970     2.8820 H     1 <1>   0.0800 
@<TRIPOS>BOND
  1   1   2  2   
  2   2   3  am  
  3   2   4  1   
  4   3   5  1   
  5   3   6  1   
  6   4   7  1   
  7   4  30  1   
  8   4  31  1   
  9   5   8  1   
 10   5  32  1   
 11   5  33  1   
 12   6   9  1   
 13   6  34  1   
 14   6  35  1   
 15   7  10  1   
 16   7  11  1   
 17   7  12  1   
 18   8  13  1   
 19   8  14  1   
 20   8  15  1   
 21   9  14  1   
 22   9  36  1   
 23   9  37  1   
 24  10  16  1   
 25  10  38  1   
 26  10  39  1   
 27  11  17  1   
 28  11  40  1   
 29  11  41  1   
 30  12  18  1   
 31  12  42  1   
 32  12  43  1   
 33  13  19  ar  
 34  13  20  ar  
 35  14  44  1   
 36  14  45  1   
 37  15  21  1   
 38  15  46  1   
 39  15  47  1   
 40  16  22  1   
 41  16  23  1   
 42  16  24  1   
 43  17  23  1   
 44  17  25  1   
 45  17  48  1   
 46  18  24  1   
 47  18  25  1   
 48  18  49  1   
 49  19  26  ar  
 50  20  21  1   
 51  20  27  ar  
 52  21  50  1   
 53  21  51  1   
 54  22  52  1   
 55  23  53  1   
 56  23  54  1   
 57  24  55  1   
 58  24  56  1   
 59  25  57  1   
 60  25  58  1   
 61  26  28  ar  
 62  26  29  1   
 63  27  28  ar  
 64  27  59  1   
 65  29  60  1   
 66  29  61  1   
 67  29  62  1   
@<TRIPOS>SUBSTRUCTURE
  1 ****   4 GROUP 4 **** **** 0

# MOE 2024.06 (io_trps.svl 2023.06)
