@<TRIPOS>MOLECULE
NONAME
37 39 1 0 0 
SMALL
USER_CHARGES


@<TRIPOS>ATOM
  1 CL      -0.5770    -0.3570    -1.6590 Cl    1 <1>  -0.1240 
  2 C       -1.4180    -1.5050    -0.6520 C.2   1 <1>   0.2640 
  3 O       -1.1840    -2.7820    -0.8250 O.3   1 <1>  -0.2800 
  4 C       -2.3180    -1.2840     0.3250 C.2   1 <1>  -0.1500 
  5 C       -1.9350    -3.4570     0.0460 C.2   1 <1>   0.0550 
  6 C       -2.6550    -2.5590     0.7840 C.2   1 <1>  -0.1500 
  7 C       -1.8900    -4.9030     0.0950 C.2   1 <1>   0.7150 
  8 O       -0.8220    -5.4880     0.0890 O.2   1 <1>  -0.5700 
  9 N       -3.0440    -5.6560     0.1670 N.am  1 <1>  -0.6600 
 10 C       -4.4050    -5.1670    -0.1750 C.3   1 <1>   0.1400 
 11 C       -3.0250    -7.1450     0.1480 C.3   1 <1>   0.1400 
 12 C       -5.3180    -6.3600     0.0980 C.3   1 <1>   0.2000 
 13 C       -4.4430    -7.5640    -0.2570 C.3   1 <1>  -0.0800 
 14 O       -5.6040    -6.3740     1.4550 O.3   1 <1>  -0.6800 
 15 C       -4.8900    -8.9110     0.3400 C.3   1 <1>   0.0210 
 16 C       -3.9420   -10.0230    -0.0670 C.2   1 <1>   0.1080 
 17 N       -3.7240   -10.3440    -1.3040 N.2   1 <1>  -0.7070 
 18 C       -3.2020   -10.8020     0.8170 C.2   1 <1>  -0.1500 
 19 N       -2.8300   -11.3480    -1.2430 N.pl3 1 <1>   0.3000 
 20 C       -2.4970   -11.6430     0.0320 C.2   1 <1>  -0.3320 
 21 C       -1.5110   -12.7270     0.4270 C.3   1 <1>  -0.0600 
 22 H       -2.6980    -0.3440     0.6840 H     1 <1>   0.1500 
 23 H       -3.3480    -2.7680     1.5800 H     1 <1>   0.1500 
 24 H       -4.6950    -4.3140     0.4120 H     1 <1>   0.0800 
 25 H       -4.4340    -4.9140    -1.2210 H     1 <1>   0.0800 
 26 H       -2.2980    -7.5170    -0.5560 H     1 <1>   0.0800 
 27 H       -2.7800    -7.5070     1.1310 H     1 <1>   0.0800 
 28 H       -6.2440    -6.3240    -0.4510 H     1 <1>   0.0800 
 29 H       -4.4470    -7.6630    -1.3290 H     1 <1>   0.0800 
 30 H       -4.7630    -6.3050     1.9510 H     1 <1>   0.4000 
 31 H       -5.8750    -9.1530    -0.0160 H     1 <1>   0.0800 
 32 H       -4.9280    -8.8590     1.4130 H     1 <1>   0.0800 
 33 H       -3.2100   -10.7270     1.8890 H     1 <1>   0.1500 
 34 H       -2.4680   -11.8100    -2.0850 H     1 <1>   0.2700 
 35 H       -1.4160   -12.7680     1.4970 H     1 <1>   0.0800 
 36 H       -0.5440   -12.5220     0.0050 H     1 <1>   0.0800 
 37 H       -1.8520   -13.6850     0.0760 H     1 <1>   0.0800 
@<TRIPOS>BOND
  1   1   2  1   
  2   2   3  1   
  3   2   4  2   
  4   3   5  1   
  5   4   6  1   
  6   4  22  1   
  7   5   6  2   
  8   5   7  1   
  9   6  23  1   
 10   7   8  2   
 11   7   9  am  
 12   9  10  1   
 13   9  11  1   
 14  10  12  1   
 15  10  24  1   
 16  10  25  1   
 17  11  13  1   
 18  11  26  1   
 19  11  27  1   
 20  12  13  1   
 21  12  14  1   
 22  12  28  1   
 23  13  15  1   
 24  13  29  1   
 25  14  30  1   
 26  15  16  1   
 27  15  31  1   
 28  15  32  1   
 29  16  17  2   
 30  16  18  1   
 31  17  19  1   
 32  18  20  2   
 33  18  33  1   
 34  19  20  1   
 35  19  34  1   
 36  20  21  1   
 37  21  35  1   
 38  21  36  1   
 39  21  37  1   
@<TRIPOS>SUBSTRUCTURE
  1 ****  11 GROUP 4 **** **** 0

# MOE 2024.06 (io_trps.svl 2023.06)
