@<TRIPOS>MOLECULE
NONAME
49 51 1 0 0 
SMALL
USER_CHARGES


@<TRIPOS>ATOM
  1 O        2.2920    -0.1710     1.7820 O.2   1 <1>  -0.5700 
  2 C        2.1310    -0.4970     0.6250 C.2   1 <1>   0.5440 
  3 N        2.0200     0.5010    -0.3200 N.am  1 <1>  -0.6600 
  4 C        2.1360    -1.8890     0.2440 C.ar  1 <1>   0.0860 
  5 C        2.3680     0.2990    -1.7640 C.3   1 <1>   0.1400 
  6 C        1.6990     1.9050     0.0660 C.3   1 <1>   0.1400 
  7 C        3.2870    -2.6700     0.2710 C.ar  1 <1>   0.1660 
  8 C        0.9900    -2.5160    -0.2310 C.ar  1 <1>   0.1660 
  9 C        3.8860     0.4640    -1.9990 C.3   1 <1>   0.3430 
 10 C        2.9750     2.7270     0.2990 C.3   1 <1>  -0.1600 
 11 N        3.3130    -3.8960    -0.1950 N.ar  1 <1>  -0.6200 
 12 C        4.6200    -2.1850     0.8230 C.3   1 <1>  -0.0960 
 13 N        1.0010    -3.7440    -0.6960 N.ar  1 <1>  -0.6200 
 14 C       -0.3640    -1.8250    -0.2600 C.3   1 <1>  -0.0970 
 15 N        4.5380     1.2700    -0.9120 N.4   1 <1>  -0.9590 
 16 C        4.0040     2.6580    -0.8320 C.3   1 <1>   0.3430 
 17 C        2.1640    -4.3690    -0.6490 C.ar  1 <1>   0.4700 
 18 C        6.0280     1.1940    -0.9630 C.3   1 <1>   0.3430 
 19 C        6.6370     1.3880     0.4300 C.3   1 <1>   0.0000 
 20 C        6.7510     2.8500     0.9390 C.3   1 <1>   0.0000 
 21 C        8.1870     1.3480     0.4390 C.3   1 <1>   0.0000 
 22 C        8.1290     2.4520     1.5260 C.3   1 <1>   0.0000 
 23 H        1.8360     1.0160    -2.3650 H     1 <1>   0.0800 
 24 H        2.0590    -0.6770    -2.0990 H     1 <1>   0.0800 
 25 H        1.1100     1.9020     0.9700 H     1 <1>   0.0800 
 26 H        1.0980     2.3610    -0.7030 H     1 <1>   0.0800 
 27 H        4.0580     0.9160    -2.9620 H     1 <1>   0.0800 
 28 H        4.3260    -0.5200    -2.0190 H     1 <1>   0.0800 
 29 H        3.4290     2.4210     1.2250 H     1 <1>   0.0800 
 30 H        2.6830     3.7550     0.4270 H     1 <1>   0.0800 
 31 H        4.5320    -1.2800     1.3910 H     1 <1>   0.0800 
 32 H        5.3150    -2.0380     0.0180 H     1 <1>   0.0800 
 33 H        5.0200    -2.9390     1.4780 H     1 <1>   0.0800 
 34 H       -0.4450    -1.0800     0.5110 H     1 <1>   0.0800 
 35 H       -1.1440    -2.5490    -0.1000 H     1 <1>   0.0800 
 36 H       -0.5200    -1.3640    -1.2170 H     1 <1>   0.0800 
 37 H        4.2160     0.8310    -0.0310 H     1 <1>   0.4500 
 38 H        4.8020     3.3500    -0.6190 H     1 <1>   0.0800 
 39 H        3.5530     2.9460    -1.7680 H     1 <1>   0.0800 
 40 H        2.1780    -5.3800    -1.0230 H     1 <1>   0.1500 
 41 H        6.4190     1.9320    -1.6440 H     1 <1>   0.0800 
 42 H        6.3240     0.2200    -1.3200 H     1 <1>   0.0800 
 43 H        6.2280     0.7190     1.1700 H     1 <1>   0.0000 
 44 H        6.0200     3.1130     1.6830 H     1 <1>   0.0000 
 45 H        6.8390     3.5710     0.1440 H     1 <1>   0.0000 
 46 H        8.6260     1.6980    -0.4800 H     1 <1>   0.0000 
 47 H        8.5970     0.4160     0.7860 H     1 <1>   0.0000 
 48 H        8.0570     2.0510     2.5230 H     1 <1>   0.0000 
 49 H        8.8850     3.2100     1.4190 H     1 <1>   0.0000 
@<TRIPOS>BOND
  1   1   2  2   
  2   2   3  am  
  3   2   4  1   
  4   3   5  1   
  5   3   6  1   
  6   4   7  ar  
  7   4   8  ar  
  8   5   9  1   
  9   5  23  1   
 10   5  24  1   
 11   6  10  1   
 12   6  25  1   
 13   6  26  1   
 14   7  11  ar  
 15   7  12  1   
 16   8  13  ar  
 17   8  14  1   
 18   9  15  1   
 19   9  27  1   
 20   9  28  1   
 21  10  16  1   
 22  10  29  1   
 23  10  30  1   
 24  11  17  ar  
 25  12  31  1   
 26  12  32  1   
 27  12  33  1   
 28  13  17  ar  
 29  14  34  1   
 30  14  35  1   
 31  14  36  1   
 32  15  16  1   
 33  15  18  1   
 34  15  37  1   
 35  16  38  1   
 36  16  39  1   
 37  17  40  1   
 38  18  19  1   
 39  18  41  1   
 40  18  42  1   
 41  19  20  1   
 42  19  21  1   
 43  19  43  1   
 44  20  22  1   
 45  20  44  1   
 46  20  45  1   
 47  21  22  1   
 48  21  46  1   
 49  21  47  1   
 50  22  48  1   
 51  22  49  1   
@<TRIPOS>SUBSTRUCTURE
  1 ****   2 GROUP 4 **** **** 0

# MOE 2024.06 (io_trps.svl 2023.06)
