@<TRIPOS>MOLECULE
NONAME
46 48 1 0 0 
SMALL
USER_CHARGES


@<TRIPOS>ATOM
  1 O       -0.7670     0.1180    -0.5220 O.2   1 <1>  -0.5700 
  2 C       -1.5670     0.8150     0.0720 C.2   1 <1>   0.7160 
  3 N       -2.6970     0.2260     0.5930 N.am  1 <1>  -0.6600 
  4 C       -1.3320     2.2330     0.1950 C.2   1 <1>  -0.0860 
  5 C       -2.7880    -1.2570     0.7780 C.3   1 <1>   0.1400 
  6 C       -4.0400     0.8800     0.5370 C.3   1 <1>   0.1400 
  7 C       -1.7590     3.0590     1.2390 C.2   1 <1>   0.1390 
  8 C       -0.6560     3.0910    -0.6190 C.2   1 <1>  -0.3020 
  9 C       -3.7690    -1.8790    -0.2300 C.3   1 <1>   0.3440 
 10 C       -4.9670     0.1490    -0.4660 C.3   1 <1>   0.2000 
 11 N       -1.4100     4.2970     1.0850 N.2   1 <1>  -0.7070 
 12 N       -0.7180     4.3120    -0.0690 N.pl3 1 <1>   0.3000 
 13 O       -5.0060    -1.2210    -0.1550 O.3   1 <1>  -0.5600 
 14 C       -3.9620    -3.3650     0.0580 C.ar  1 <1>  -0.1440 
 15 C       -6.4230     0.7030    -0.5280 C.3   1 <1>   0.0000 
 16 C       -3.1370    -4.2940    -0.5630 C.ar  1 <1>  -0.1500 
 17 C       -4.9360    -3.8140     0.9390 C.ar  1 <1>  -0.1500 
 18 C       -7.2120    -0.0530    -1.6120 C.3   1 <1>  -0.2400 
 19 C       -7.1660     0.5380     0.8120 C.3   1 <1>  -0.2400 
 20 C       -6.4270     2.1960    -0.9060 C.3   1 <1>  -0.2400 
 21 C       -3.2830    -5.6460    -0.3060 C.ar  1 <1>  -0.1500 
 22 C       -5.0830    -5.1660     1.1970 C.ar  1 <1>  -0.1500 
 23 C       -4.2560    -6.0830     0.5750 C.ar  1 <1>  -0.1500 
 24 H       -1.8220    -1.7150     0.6610 H     1 <1>   0.0800 
 25 H       -3.1300    -1.4700     1.7750 H     1 <1>   0.0800 
 26 H       -4.4780     0.8630     1.5180 H     1 <1>   0.0800 
 27 H       -3.9400     1.9050     0.2330 H     1 <1>   0.0800 
 28 H       -2.3180     2.7060     2.0900 H     1 <1>   0.1500 
 29 H       -0.1460     2.8750    -1.5400 H     1 <1>   0.1500 
 30 H       -3.3870    -1.7570    -1.2290 H     1 <1>   0.0800 
 31 H       -4.5370     0.2430    -1.4490 H     1 <1>   0.0800 
 32 H       -0.3000     5.1740    -0.4430 H     1 <1>   0.2700 
 33 H       -2.3750    -3.9690    -1.2490 H     1 <1>   0.1500 
 34 H       -5.5870    -3.1070     1.4260 H     1 <1>   0.1500 
 35 H       -8.2130     0.3320    -1.6980 H     1 <1>   0.0800 
 36 H       -7.2780    -1.1000    -1.3710 H     1 <1>   0.0800 
 37 H       -6.7290     0.0410    -2.5690 H     1 <1>   0.0800 
 38 H       -8.1860     0.8680     0.7190 H     1 <1>   0.0800 
 39 H       -6.7020     1.1130     1.5910 H     1 <1>   0.0800 
 40 H       -7.1750    -0.4950     1.1100 H     1 <1>   0.0800 
 41 H       -7.4360     2.5440    -1.0470 H     1 <1>   0.0800 
 42 H       -5.8880     2.3550    -1.8230 H     1 <1>   0.0800 
 43 H       -5.9810     2.7980    -0.1360 H     1 <1>   0.0800 
 44 H       -2.6390    -6.3580    -0.7920 H     1 <1>   0.1500 
 45 H       -5.8430    -5.5020     1.8810 H     1 <1>   0.1500 
 46 H       -4.3710    -7.1340     0.7750 H     1 <1>   0.1500 
@<TRIPOS>BOND
  1   1   2  2   
  2   2   3  am  
  3   2   4  1   
  4   3   5  1   
  5   3   6  1   
  6   4   7  1   
  7   4   8  2   
  8   5   9  1   
  9   5  24  1   
 10   5  25  1   
 11   6  10  1   
 12   6  26  1   
 13   6  27  1   
 14   7  11  2   
 15   7  28  1   
 16   8  12  1   
 17   8  29  1   
 18   9  13  1   
 19   9  14  1   
 20   9  30  1   
 21  10  13  1   
 22  10  15  1   
 23  10  31  1   
 24  11  12  1   
 25  12  32  1   
 26  14  16  ar  
 27  14  17  ar  
 28  15  18  1   
 29  15  19  1   
 30  15  20  1   
 31  16  21  ar  
 32  16  33  1   
 33  17  22  ar  
 34  17  34  1   
 35  18  35  1   
 36  18  36  1   
 37  18  37  1   
 38  19  38  1   
 39  19  39  1   
 40  19  40  1   
 41  20  41  1   
 42  20  42  1   
 43  20  43  1   
 44  21  23  ar  
 45  21  44  1   
 46  22  23  ar  
 47  22  45  1   
 48  23  46  1   
@<TRIPOS>SUBSTRUCTURE
  1 ****   3 GROUP 4 **** **** 0

# MOE 2024.06 (io_trps.svl 2023.06)
