@<TRIPOS>MOLECULE
NONAME
68 73 1 0 0 
SMALL
USER_CHARGES


@<TRIPOS>ATOM
  1 O        0.1740     2.2310    -1.9500 O.2   1 <1>  -0.5700 
  2 C        0.3720     2.3260    -0.7540 C.2   1 <1>   0.5440 
  3 N       -0.5140     1.9140     0.2070 N.am  1 <1>  -0.6600 
  4 C        1.5050     2.9590    -0.1460 C.ar  1 <1>   0.0860 
  5 C       -1.9140     1.4280    -0.0360 C.3   1 <1>   0.3000 
  6 C       -0.0280     2.3590     1.5490 C.3   1 <1>   0.2840 
  7 C        1.3090     2.9990     1.2190 C.ar  1 <1>  -0.1440 
  8 C        2.6600     3.5040    -0.6920 C.ar  1 <1>  -0.1500 
  9 C       -2.6110     1.1120     1.3110 C.3   1 <1>  -0.1600 
 10 C       -1.8140     0.1210    -0.8690 C.3   1 <1>  -0.1600 
 11 C       -2.7030     2.5060    -0.8220 C.3   1 <1>  -0.0990 
 12 C        2.2400     3.5720     2.0640 C.ar  1 <1>  -0.1500 
 13 C        3.6010     4.0830     0.1430 C.ar  1 <1>  -0.1500 
 14 C       -4.0170     0.5180     1.1320 C.3   1 <1>   0.1400 
 15 C       -2.7830    -0.9910    -0.4500 C.3   1 <1>   0.1400 
 16 C       -2.5630     3.8920    -0.2370 C.2   1 <1>   0.5690 
 17 C        3.3920     4.1160     1.5160 C.ar  1 <1>  -0.1500 
 18 N       -4.0820    -0.3990    -0.0430 N.am  1 <1>  -0.6600 
 19 O       -3.2540     4.2090     0.7010 O.2   1 <1>  -0.5700 
 20 N       -1.6460     4.7150    -0.8060 N.am  1 <1>  -0.7300 
 21 C       -5.2810    -0.6180    -0.6710 C.2   1 <1>   0.5690 
 22 C       -1.2510     6.0770    -0.4260 C.3   1 <1>   0.3000 
 23 O       -6.3090    -0.1260    -0.2750 O.2   1 <1>  -0.5700 
 24 C       -5.3620    -1.4920    -1.9010 C.3   1 <1>  -0.1790 
 25 C       -2.4280     7.0520    -0.6050 C.3   1 <1>  -0.1600 
 26 C       -0.1010     6.5000    -1.3590 C.3   1 <1>  -0.1600 
 27 C       -0.7500     6.1260     1.0300 C.3   1 <1>  -0.1600 
 28 C       -1.9800     8.4850    -0.2570 C.3   1 <1>  -0.0800 
 29 C        0.3620     7.9300    -1.0220 C.3   1 <1>  -0.0800 
 30 C       -0.2970     7.5550     1.3850 C.3   1 <1>  -0.0800 
 31 C       -0.8260     8.8970    -1.1910 C.3   1 <1>  -0.1600 
 32 C       -1.4850     8.5200     1.2020 C.3   1 <1>  -0.1600 
 33 C        0.8460     7.9700     0.4400 C.3   1 <1>  -0.1600 
 34 H        0.0980     1.5170     2.2080 H     1 <1>   0.0800 
 35 H       -0.6980     3.0860     1.9750 H     1 <1>   0.0800 
 36 H        2.8070     3.4710    -1.7580 H     1 <1>   0.1500 
 37 H       -2.7100     1.9940     1.9150 H     1 <1>   0.0800 
 38 H       -2.0220     0.4010     1.8610 H     1 <1>   0.0800 
 39 H       -0.8220    -0.2860    -0.7920 H     1 <1>   0.0800 
 40 H       -1.9730     0.3330    -1.9100 H     1 <1>   0.0800 
 41 H       -3.7460     2.2610    -0.8660 H     1 <1>   0.0800 
 42 H       -2.3660     2.5380    -1.8400 H     1 <1>   0.0800 
 43 H        2.0780     3.6010     3.1280 H     1 <1>   0.1500 
 44 H        4.4990     4.5070    -0.2720 H     1 <1>   0.1500 
 45 H       -4.7240     1.3200     0.9930 H     1 <1>   0.0800 
 46 H       -4.3070    -0.0190     2.0190 H     1 <1>   0.0800 
 47 H       -2.3760    -1.5260     0.3910 H     1 <1>   0.0800 
 48 H       -2.8970    -1.6950    -1.2540 H     1 <1>   0.0800 
 49 H        4.1300     4.5680     2.1580 H     1 <1>   0.1500 
 50 H       -1.0640     4.3150    -1.5470 H     1 <1>   0.3700 
 51 H       -4.7150    -1.1070    -2.6660 H     1 <1>   0.0800 
 52 H       -6.3690    -1.4980    -2.2740 H     1 <1>   0.0800 
 53 H       -5.0810    -2.4970    -1.6520 H     1 <1>   0.0800 
 54 H       -3.2390     6.7660     0.0420 H     1 <1>   0.0800 
 55 H       -2.7800     7.0160    -1.6200 H     1 <1>   0.0800 
 56 H       -0.4310     6.4650    -2.3820 H     1 <1>   0.0800 
 57 H        0.7280     5.8240    -1.2470 H     1 <1>   0.0800 
 58 H        0.0750     5.4520     1.1540 H     1 <1>   0.0800 
 59 H       -1.5360     5.8300     1.7010 H     1 <1>   0.0800 
 60 H       -2.8080     9.1640    -0.3780 H     1 <1>   0.0800 
 61 H        1.1640     8.2180    -1.6800 H     1 <1>   0.0800 
 62 H        0.0440     7.5860     2.4060 H     1 <1>   0.0800 
 63 H       -0.5130     9.9010    -0.9620 H     1 <1>   0.0800 
 64 H       -1.1630     8.8860    -2.2130 H     1 <1>   0.0800 
 65 H       -2.2870     8.2390     1.8630 H     1 <1>   0.0800 
 66 H       -1.1850     9.5200     1.4600 H     1 <1>   0.0800 
 67 H        1.1780     8.9630     0.6860 H     1 <1>   0.0800 
 68 H        1.6820     7.3050     0.5660 H     1 <1>   0.0800 
@<TRIPOS>BOND
  1   1   2  2   
  2   2   3  am  
  3   2   4  1   
  4   3   5  1   
  5   3   6  1   
  6   4   7  ar  
  7   4   8  ar  
  8   5   9  1   
  9   5  10  1   
 10   5  11  1   
 11   6   7  1   
 12   6  34  1   
 13   6  35  1   
 14   7  12  ar  
 15   8  13  ar  
 16   8  36  1   
 17   9  14  1   
 18   9  37  1   
 19   9  38  1   
 20  10  15  1   
 21  10  39  1   
 22  10  40  1   
 23  11  16  1   
 24  11  41  1   
 25  11  42  1   
 26  12  17  ar  
 27  12  43  1   
 28  13  17  ar  
 29  13  44  1   
 30  14  18  1   
 31  14  45  1   
 32  14  46  1   
 33  15  18  1   
 34  15  47  1   
 35  15  48  1   
 36  16  19  2   
 37  16  20  am  
 38  17  49  1   
 39  18  21  am  
 40  20  22  1   
 41  20  50  1   
 42  21  23  2   
 43  21  24  1   
 44  22  25  1   
 45  22  26  1   
 46  22  27  1   
 47  24  51  1   
 48  24  52  1   
 49  24  53  1   
 50  25  28  1   
 51  25  54  1   
 52  25  55  1   
 53  26  29  1   
 54  26  56  1   
 55  26  57  1   
 56  27  30  1   
 57  27  58  1   
 58  27  59  1   
 59  28  31  1   
 60  28  32  1   
 61  28  60  1   
 62  29  31  1   
 63  29  33  1   
 64  29  61  1   
 65  30  32  1   
 66  30  33  1   
 67  30  62  1   
 68  31  63  1   
 69  31  64  1   
 70  32  65  1   
 71  32  66  1   
 72  33  67  1   
 73  33  68  1   
@<TRIPOS>SUBSTRUCTURE
  1 ****  20 GROUP 4 **** **** 0

# MOE 2024.06 (io_trps.svl 2023.06)
