@<TRIPOS>MOLECULE
NONAME
57 59 1 0 0 
SMALL
USER_CHARGES


@<TRIPOS>ATOM
  1 O       -0.7900     0.3850     1.4230 O.2   1 <1>  -0.5700 
  2 C       -1.4750     1.0730     0.6900 C.2   1 <1>   0.5440 
  3 N       -2.3640     0.4490    -0.1610 N.am  1 <1>  -0.6600 
  4 C       -1.3440     2.5160     0.7430 C.ar  1 <1>   0.0860 
  5 C       -3.6370     1.0770    -0.6300 C.3   1 <1>   0.1400 
  6 C       -2.3080    -1.0230    -0.4260 C.3   1 <1>   0.1400 
  7 C       -1.3100     3.2980    -0.4130 C.ar  1 <1>  -0.1500 
  8 C       -1.2360     3.1830     1.9640 C.ar  1 <1>  -0.1500 
  9 C       -4.8590     0.2590    -0.1680 C.3   1 <1>   0.2950 
 10 C       -3.6080    -1.7190     0.0310 C.3   1 <1>   0.2000 
 11 C       -1.1880     4.6730    -0.3520 C.ar  1 <1>  -0.1500 
 12 C       -1.1100     4.5580     2.0290 C.ar  1 <1>  -0.1500 
 13 O       -4.7170    -1.0820    -0.5380 O.3   1 <1>  -0.5600 
 14 C       -6.1540     0.7780    -0.8020 C.3   1 <1>  -0.1950 
 15 C       -3.6840    -3.1930    -0.3890 C.3   1 <1>  -0.1600 
 16 C       -1.0780     5.3230     0.8710 C.ar  1 <1>   0.1170 
 17 C       -6.9180     1.9080    -0.1850 C.3   1 <1>  -0.2000 
 18 C       -7.4850     0.5160    -0.1710 C.3   1 <1>  -0.2000 
 19 C       -2.6100    -4.0660     0.2800 C.3   1 <1>  -0.1600 
 20 N       -0.9470     6.7080     0.9550 N.am  1 <1>  -0.5470 
 21 C       -2.7900    -5.5420    -0.0960 C.3   1 <1>  -0.1600 
 22 C       -0.0220     7.5440     0.4000 C.2   1 <1>   0.5690 
 23 C       -1.7200    -6.4130     0.5670 C.3   1 <1>  -0.2400 
 24 O       -0.0820     8.7240     0.6440 O.2   1 <1>  -0.5700 
 25 C        1.1300     7.0130    -0.4570 C.3   1 <1>   0.1810 
 26 O        0.7330     6.7430    -1.7780 O.3   1 <1>  -0.5600 
 27 C        1.7640     6.2960    -2.5970 C.3   1 <1>   0.0400 
 28 H       -3.7330     2.0770    -0.2490 H     1 <1>   0.0800 
 29 H       -3.6310     1.1270    -1.7050 H     1 <1>   0.0800 
 30 H       -2.1730    -1.1840    -1.4810 H     1 <1>   0.0800 
 31 H       -1.4680    -1.4630     0.0800 H     1 <1>   0.0800 
 32 H       -1.3770     2.8150    -1.3720 H     1 <1>   0.1500 
 33 H       -1.2470     2.6020     2.8710 H     1 <1>   0.1500 
 34 H       -4.9410     0.3030     0.9040 H     1 <1>   0.0800 
 35 H       -3.6950    -1.6520     1.1020 H     1 <1>   0.0800 
 36 H       -1.1820     5.2500    -1.2600 H     1 <1>   0.1500 
 37 H       -1.0270     5.0430     2.9860 H     1 <1>   0.1500 
 38 H       -6.1120     0.7460    -1.8770 H     1 <1>   0.1000 
 39 H       -4.6550    -3.5680    -0.1140 H     1 <1>   0.0800 
 40 H       -3.5890    -3.2610    -1.4590 H     1 <1>   0.0800 
 41 H       -6.5890     2.3300     0.7490 H     1 <1>   0.1000 
 42 H       -7.3740     2.6400    -0.8300 H     1 <1>   0.1000 
 43 H       -8.3160     0.2800    -0.8130 H     1 <1>   0.1000 
 44 H       -7.5150    -0.0310     0.7560 H     1 <1>   0.1000 
 45 H       -1.6300    -3.7450    -0.0270 H     1 <1>   0.0800 
 46 H       -2.6780    -3.9610     1.3500 H     1 <1>   0.0800 
 47 H       -1.5950     7.2000     1.5710 H     1 <1>   0.3700 
 48 H       -3.7640    -5.8790     0.2170 H     1 <1>   0.0800 
 49 H       -2.7260    -5.6540    -1.1650 H     1 <1>   0.0800 
 50 H       -1.7800    -6.3330     1.6380 H     1 <1>   0.0800 
 51 H       -0.7380    -6.1090     0.2510 H     1 <1>   0.0800 
 52 H       -1.8630    -7.4440     0.2930 H     1 <1>   0.0800 
 53 H        1.5130     6.1070    -0.0220 H     1 <1>   0.0800 
 54 H        1.9100     7.7530    -0.4830 H     1 <1>   0.0800 
 55 H        1.3600     6.1210    -3.5780 H     1 <1>   0.0800 
 56 H        2.1620     5.3780    -2.2000 H     1 <1>   0.0800 
 57 H        2.5290     7.0510    -2.6500 H     1 <1>   0.0800 
@<TRIPOS>BOND
  1   1   2  2   
  2   2   3  am  
  3   2   4  1   
  4   3   5  1   
  5   3   6  1   
  6   4   7  ar  
  7   4   8  ar  
  8   5   9  1   
  9   5  28  1   
 10   5  29  1   
 11   6  10  1   
 12   6  30  1   
 13   6  31  1   
 14   7  11  ar  
 15   7  32  1   
 16   8  12  ar  
 17   8  33  1   
 18   9  13  1   
 19   9  14  1   
 20   9  34  1   
 21  10  13  1   
 22  10  15  1   
 23  10  35  1   
 24  11  16  ar  
 25  11  36  1   
 26  12  16  ar  
 27  12  37  1   
 28  14  17  1   
 29  14  18  1   
 30  14  38  1   
 31  15  19  1   
 32  15  39  1   
 33  15  40  1   
 34  16  20  1   
 35  17  18  1   
 36  17  41  1   
 37  17  42  1   
 38  18  43  1   
 39  18  44  1   
 40  19  21  1   
 41  19  45  1   
 42  19  46  1   
 43  20  22  am  
 44  20  47  1   
 45  21  23  1   
 46  21  48  1   
 47  21  49  1   
 48  22  24  2   
 49  22  25  1   
 50  23  50  1   
 51  23  51  1   
 52  23  52  1   
 53  25  26  1   
 54  25  53  1   
 55  25  54  1   
 56  26  27  1   
 57  27  55  1   
 58  27  56  1   
 59  27  57  1   
@<TRIPOS>SUBSTRUCTURE
  1 ****   2 GROUP 4 **** **** 0

# MOE 2024.06 (io_trps.svl 2023.06)
