@<TRIPOS>MOLECULE
NONAME
46 47 1 0 0 
SMALL
USER_CHARGES


@<TRIPOS>ATOM
  1 S       -0.1560    -0.0140     0.2430 S.o2  1 <1>   1.3330 
  2 O       -0.0060    -0.7250     1.4930 O.2   1 <1>  -0.6500 
  3 O       -0.8980     1.2250     0.2120 O.2   1 <1>  -0.6500 
  4 N       -0.8500    -1.0810    -0.8800 N.am  1 <1>  -0.8490 
  5 C        1.4600     0.3010    -0.4680 C.3   1 <1>  -0.0550 
  6 C       -2.3080    -0.9420    -0.9540 C.3   1 <1>   0.1160 
  7 C       -0.4930    -2.4850    -0.6490 C.3   1 <1>   0.1160 
  8 C        2.2890     1.3360     0.3200 C.3   1 <1>  -0.0800 
  9 C        3.5500     1.7190    -0.4390 C.3   1 <1>   0.2200 
 10 C        2.8480     0.7580     1.6300 C.3   1 <1>   0.1200 
 11 N        3.9750     3.0710    -0.0190 N.am  1 <1>  -0.7300 
 12 C        4.5470     0.6950     0.0820 C.3   1 <1>   0.1200 
 13 O        4.2050     0.4950     1.4180 O.3   1 <1>  -0.5600 
 14 C        4.0670     4.1450    -0.8380 C.2   1 <1>   0.5690 
 15 O        3.7950     4.0820    -2.0110 O.2   1 <1>  -0.5700 
 16 C        4.5440     5.4580    -0.2620 C.3   1 <1>  -0.0990 
 17 C        6.0300     5.6810    -0.5610 C.3   1 <1>  -0.0170 
 18 C        6.5090     6.9770     0.0690 C.ar  1 <1>  -0.1440 
 19 C        7.1210     7.0080     1.3060 C.ar  1 <1>  -0.1500 
 20 C        6.3510     8.1930    -0.5640 C.ar  1 <1>  -0.1500 
 21 C        7.5330     8.2200     1.8350 C.ar  1 <1>   0.1600 
 22 C        6.7990     9.3490     0.0530 C.ar  1 <1>   0.1600 
 23 N        7.3850     9.3920     1.2380 N.ar  1 <1>  -0.6200 
 24 H        2.0060    -0.6190    -0.5410 H     1 <1>   0.0800 
 25 H        1.3120     0.6730    -1.4630 H     1 <1>   0.0800 
 26 H       -2.7110    -1.6210    -1.6860 H     1 <1>   0.0800 
 27 H       -2.5680     0.0610    -1.2480 H     1 <1>   0.0800 
 28 H       -2.7520    -1.1470     0.0060 H     1 <1>   0.0800 
 29 H       -0.8810    -3.1010    -1.4420 H     1 <1>   0.0800 
 30 H       -0.8980    -2.8270     0.2900 H     1 <1>   0.0800 
 31 H        0.5770    -2.5980    -0.6240 H     1 <1>   0.0800 
 32 H        1.6730     2.2000     0.5050 H     1 <1>   0.0800 
 33 H        3.4380     1.6720    -1.5100 H     1 <1>   0.0800 
 34 H        2.3690    -0.1570     1.9310 H     1 <1>   0.0800 
 35 H        2.7750     1.4750     2.4300 H     1 <1>   0.0800 
 36 H        4.2450     3.1350     0.9640 H     1 <1>   0.3700 
 37 H        5.5660     1.0340     0.0140 H     1 <1>   0.0800 
 38 H        4.4380    -0.2440    -0.4310 H     1 <1>   0.0800 
 39 H        3.9650     6.2520    -0.6970 H     1 <1>   0.0800 
 40 H        4.3780     5.4690     0.8000 H     1 <1>   0.0800 
 41 H        6.1820     5.7170    -1.6260 H     1 <1>   0.0800 
 42 H        6.6070     4.8560    -0.1780 H     1 <1>   0.0800 
 43 H        7.2830     6.1040     1.8630 H     1 <1>   0.1500 
 44 H        5.8840     8.2510    -1.5310 H     1 <1>   0.1500 
 45 H        8.0090     8.2260     2.8000 H     1 <1>   0.1500 
 46 H        6.6670    10.2890    -0.4560 H     1 <1>   0.1500 
@<TRIPOS>BOND
  1   1   2  2   
  2   1   3  2   
  3   1   4  am  
  4   1   5  1   
  5   4   6  1   
  6   4   7  1   
  7   5   8  1   
  8   5  24  1   
  9   5  25  1   
 10   6  26  1   
 11   6  27  1   
 12   6  28  1   
 13   7  29  1   
 14   7  30  1   
 15   7  31  1   
 16   8   9  1   
 17   8  10  1   
 18   8  32  1   
 19   9  11  1   
 20   9  12  1   
 21   9  33  1   
 22  10  13  1   
 23  10  34  1   
 24  10  35  1   
 25  11  14  am  
 26  11  36  1   
 27  12  13  1   
 28  12  37  1   
 29  12  38  1   
 30  14  15  2   
 31  14  16  1   
 32  16  17  1   
 33  16  39  1   
 34  16  40  1   
 35  17  18  1   
 36  17  41  1   
 37  17  42  1   
 38  18  19  ar  
 39  18  20  ar  
 40  19  21  ar  
 41  19  43  1   
 42  20  22  ar  
 43  20  44  1   
 44  21  23  ar  
 45  21  45  1   
 46  22  23  ar  
 47  22  46  1   
@<TRIPOS>SUBSTRUCTURE
  1 ****  11 GROUP 4 **** **** 0

# MOE 2024.06 (io_trps.svl 2023.06)
