@<TRIPOS>MOLECULE
NONAME
48 51 1 0 0 
SMALL
USER_CHARGES


@<TRIPOS>ATOM
  1 S        3.4890    -1.6910     0.8560 S.3   1 <1>  -0.0800 
  2 C        1.8140    -1.6230     0.3710 C.2   1 <1>   0.1980 
  3 C        3.5700     0.0370     0.6980 C.2   1 <1>  -0.1100 
  4 N        1.3860    -0.4480     0.1210 N.2   1 <1>  -0.5650 
  5 C        1.0580    -2.9440     0.3040 C.3   1 <1>   0.5230 
  6 C        2.3740     0.5260     0.3060 C.2   1 <1>   0.1730 
  7 N       -0.3310    -2.7280    -0.2280 N.4   1 <1>  -0.9590 
  8 C        2.0510     1.9230     0.0780 C.ar  1 <1>   0.0540 
  9 C       -0.3230    -2.4150    -1.6970 C.3   1 <1>   0.3430 
 10 C       -1.1830    -3.9340    -0.0280 C.3   1 <1>   0.3430 
 11 C        2.7260     2.9350     0.7680 C.ar  1 <1>  -0.1500 
 12 C        1.0610     2.3030    -0.8340 C.ar  1 <1>  -0.1500 
 13 C       -1.2650    -3.4320    -2.3590 C.3   1 <1>   0.2000 
 14 C       -1.2740    -4.6170    -1.3960 C.3   1 <1>  -0.0800 
 15 C        2.4340     4.2720     0.5570 C.ar  1 <1>  -0.1500 
 16 C        0.7550     3.6340    -1.0570 C.ar  1 <1>  -0.1500 
 17 O       -2.5480    -2.9060    -2.4400 O.3   1 <1>  -0.6800 
 18 C       -0.0840    -5.5600    -1.6870 C.3   1 <1>   0.0210 
 19 C        1.4500     4.5980    -0.3550 C.ar  1 <1>   0.1900 
 20 C        0.3090    -6.3990    -0.4870 C.2   1 <1>   0.1080 
 21 F        1.1690     5.8560    -0.5590 F     1 <1>  -0.1900 
 22 N        1.0730    -5.9490     0.4640 N.2   1 <1>  -0.7070 
 23 C       -0.0830    -7.7150    -0.2750 C.2   1 <1>  -0.1500 
 24 N        1.2060    -6.9980     1.3100 N.pl3 1 <1>   0.3000 
 25 C        0.5060    -8.0690     0.8850 C.2   1 <1>  -0.3320 
 26 C        0.4500    -9.3970     1.6200 C.3   1 <1>  -0.0600 
 27 H        4.5060     0.5180     0.9120 H     1 <1>   0.1500 
 28 H        1.0090    -3.3640     1.2950 H     1 <1>   0.0800 
 29 H        1.5950    -3.6380    -0.3220 H     1 <1>   0.0800 
 30 H       -0.6950    -1.9090     0.2810 H     1 <1>   0.4500 
 31 H       -0.6470    -1.4060    -1.8930 H     1 <1>   0.0800 
 32 H        0.6710    -2.5430    -2.0900 H     1 <1>   0.0800 
 33 H       -0.7950    -4.5870     0.7360 H     1 <1>   0.0800 
 34 H       -2.1720    -3.6240     0.2690 H     1 <1>   0.0800 
 35 H        3.4880     2.6780     1.4820 H     1 <1>   0.1500 
 36 H        0.5270     1.5450    -1.3780 H     1 <1>   0.1500 
 37 H       -0.9540    -3.6910    -3.3580 H     1 <1>   0.0800 
 38 H       -2.1850    -5.1870    -1.4700 H     1 <1>   0.0800 
 39 H        2.9530     5.0490     1.0880 H     1 <1>   0.1500 
 40 H       -0.0050     3.9260    -1.7590 H     1 <1>   0.1500 
 41 H       -2.9210    -2.6510    -1.5750 H     1 <1>   0.4000 
 42 H        0.7860    -5.0050    -1.9870 H     1 <1>   0.0800 
 43 H       -0.3380    -6.2120    -2.5040 H     1 <1>   0.0800 
 44 H       -0.7150    -8.3070    -0.9140 H     1 <1>   0.1500 
 45 H        1.7830    -6.9650     2.1600 H     1 <1>   0.2700 
 46 H       -0.1680   -10.0940     1.0820 H     1 <1>   0.0800 
 47 H        0.0350    -9.2640     2.6040 H     1 <1>   0.0800 
 48 H        1.4360    -9.8170     1.7100 H     1 <1>   0.0800 
@<TRIPOS>BOND
  1   1   2  1   
  2   1   3  1   
  3   2   4  2   
  4   2   5  1   
  5   3   6  2   
  6   3  27  1   
  7   4   6  1   
  8   5   7  1   
  9   5  28  1   
 10   5  29  1   
 11   6   8  1   
 12   7   9  1   
 13   7  10  1   
 14   7  30  1   
 15   8  11  ar  
 16   8  12  ar  
 17   9  13  1   
 18   9  31  1   
 19   9  32  1   
 20  10  14  1   
 21  10  33  1   
 22  10  34  1   
 23  11  15  ar  
 24  11  35  1   
 25  12  16  ar  
 26  12  36  1   
 27  13  14  1   
 28  13  17  1   
 29  13  37  1   
 30  14  18  1   
 31  14  38  1   
 32  15  19  ar  
 33  15  39  1   
 34  16  19  ar  
 35  16  40  1   
 36  17  41  1   
 37  18  20  1   
 38  18  42  1   
 39  18  43  1   
 40  19  21  1   
 41  20  22  2   
 42  20  23  1   
 43  22  24  1   
 44  23  25  2   
 45  23  44  1   
 46  24  25  1   
 47  24  45  1   
 48  25  26  1   
 49  26  46  1   
 50  26  47  1   
 51  26  48  1   
@<TRIPOS>SUBSTRUCTURE
  1 ****   5 GROUP 4 **** **** 0

# MOE 2024.06 (io_trps.svl 2023.06)
