@<TRIPOS>MOLECULE
NONAME
39 40 1 0 0 
SMALL
USER_CHARGES


@<TRIPOS>ATOM
  1 O        0.1950    -0.5880     0.6290 O.3   1 <1>  -0.5600 
  2 C       -0.0480    -1.8190     0.0130 C.3   1 <1>   0.2000 
  3 C        0.3230     0.4880    -0.2420 C.3   1 <1>   0.1200 
  4 C       -0.8730    -2.6880     0.9750 C.3   1 <1>   0.2090 
  5 C        1.3000    -2.4770    -0.3200 C.3   1 <1>  -0.1600 
  6 C        0.5940     1.7360     0.5940 C.3   1 <1>  -0.1600 
  7 N       -1.0110    -4.0880     0.4570 N.pl3 1 <1>  -0.8380 
  8 C        1.0940    -3.9150    -0.8230 C.3   1 <1>  -0.1600 
  9 C        0.7450     2.9800    -0.2890 C.3   1 <1>  -0.2400 
 10 C       -2.1450    -4.4660    -0.2710 C.ar  1 <1>   0.4100 
 11 C        0.2800    -4.7610     0.1630 C.3   1 <1>   0.2090 
 12 N       -2.6810    -3.5050    -1.0160 N.ar  1 <1>  -0.6200 
 13 C       -2.6850    -5.7880    -0.2310 C.ar  1 <1>   0.3930 
 14 C       -3.7410    -3.9130    -1.6950 C.ar  1 <1>   0.1600 
 15 O       -2.0850    -6.7170     0.5690 O.3   1 <1>  -0.3630 
 16 N       -3.7460    -6.1790    -0.9240 N.ar  1 <1>  -0.6200 
 17 C       -4.2540    -5.1970    -1.6530 C.ar  1 <1>   0.1600 
 18 C       -2.6090    -8.0240     0.6930 C.3   1 <1>   0.0400 
 19 H       -0.6300    -1.6630    -0.8810 H     1 <1>   0.0800 
 20 H       -0.5950     0.5950    -0.7960 H     1 <1>   0.0800 
 21 H        1.1410     0.3000    -0.9160 H     1 <1>   0.0800 
 22 H       -1.8460    -2.2500     1.1070 H     1 <1>   0.0800 
 23 H       -0.3820    -2.7220     1.9310 H     1 <1>   0.0800 
 24 H        1.9070    -2.4980     0.5690 H     1 <1>   0.0800 
 25 H        1.8110    -1.9080    -1.0750 H     1 <1>   0.0800 
 26 H        1.4960     1.5910     1.1620 H     1 <1>   0.0800 
 27 H       -0.2230     1.8840     1.2800 H     1 <1>   0.0800 
 28 H        2.0480    -4.3820    -0.9840 H     1 <1>   0.0800 
 29 H        0.5740    -3.8960    -1.7650 H     1 <1>   0.0800 
 30 H        1.5680     2.8590    -0.9710 H     1 <1>   0.0800 
 31 H        0.9330     3.8440     0.3240 H     1 <1>   0.0800 
 32 H       -0.1540     3.1510    -0.8540 H     1 <1>   0.0800 
 33 H        0.1050    -5.7360    -0.2600 H     1 <1>   0.0800 
 34 H        0.8250    -4.8880     1.0820 H     1 <1>   0.0800 
 35 H       -4.2260    -3.1830    -2.3180 H     1 <1>   0.1500 
 36 H       -5.1210    -5.4290    -2.2450 H     1 <1>   0.1500 
 37 H       -1.9890    -8.5720     1.3780 H     1 <1>   0.0800 
 38 H       -2.6010    -8.4960    -0.2740 H     1 <1>   0.0800 
 39 H       -3.6140    -7.9600     1.0720 H     1 <1>   0.0800 
@<TRIPOS>BOND
  1   1   2  1   
  2   1   3  1   
  3   2   4  1   
  4   2   5  1   
  5   2  19  1   
  6   3   6  1   
  7   3  20  1   
  8   3  21  1   
  9   4   7  1   
 10   4  22  1   
 11   4  23  1   
 12   5   8  1   
 13   5  24  1   
 14   5  25  1   
 15   6   9  1   
 16   6  26  1   
 17   6  27  1   
 18   7  10  1   
 19   7  11  1   
 20   8  11  1   
 21   8  28  1   
 22   8  29  1   
 23   9  30  1   
 24   9  31  1   
 25   9  32  1   
 26  10  12  ar  
 27  10  13  ar  
 28  11  33  1   
 29  11  34  1   
 30  12  14  ar  
 31  13  15  1   
 32  13  16  ar  
 33  14  17  ar  
 34  14  35  1   
 35  15  18  1   
 36  16  17  ar  
 37  17  36  1   
 38  18  37  1   
 39  18  38  1   
 40  18  39  1   
@<TRIPOS>SUBSTRUCTURE
  1 ****   7 GROUP 4 **** **** 0

# MOE 2024.06 (io_trps.svl 2023.06)
