@<TRIPOS>MOLECULE
NONAME
48 50 1 0 0 
SMALL
USER_CHARGES


@<TRIPOS>ATOM
  1 O       -1.4460     0.7400     2.5650 O.2   1 <1>  -0.5700 
  2 C       -1.7710     0.8620     1.4050 C.2   1 <1>   0.5690 
  3 N       -2.2020    -0.2260     0.6750 N.am  1 <1>  -0.5090 
  4 C       -1.6290     2.2820     0.8270 C.3   1 <1>  -0.0190 
  5 C       -1.9810    -1.6070     1.1740 C.3   1 <1>   0.0490 
  6 C       -3.0910    -0.1600    -0.5170 C.3   1 <1>   0.2840 
  7 C       -2.9510     2.9830     0.4610 C.3   1 <1>  -0.1600 
  8 C       -0.5990     2.3700    -0.3240 C.3   1 <1>  -0.1600 
  9 C       -0.5970    -2.0390     1.5460 C.3   1 <1>  -0.2000 
 10 C       -1.2350    -2.5730     0.3050 C.3   1 <1>  -0.2000 
 11 C       -4.5240     0.2550    -0.1740 C.ar  1 <1>  -0.1440 
 12 C       -2.7600     4.4840     0.1670 C.3   1 <1>   0.2000 
 13 C       -0.7590     3.6360    -1.1920 C.3   1 <1>  -0.1600 
 14 C       -5.2930     0.8620    -1.1580 C.ar  1 <1>  -0.1500 
 15 C       -5.0790     0.0650     1.0870 C.ar  1 <1>  -0.1500 
 16 O       -3.7270     4.8700    -0.7820 O.3   1 <1>  -0.5600 
 17 C       -1.3440     4.8040    -0.3890 C.3   1 <1>   0.2000 
 18 C       -6.5820     1.2850    -0.8750 C.ar  1 <1>   0.0820 
 19 C       -6.3710     0.4810     1.3640 C.ar  1 <1>  -0.1500 
 20 C       -5.0340     4.9710    -0.2990 C.3   1 <1>   0.0400 
 21 O       -1.4250     5.8970    -1.2260 O.3   1 <1>  -0.6800 
 22 O       -7.3160     1.8930    -1.8180 O.3   1 <1>  -0.5330 
 23 C       -7.1250     1.0950     0.3820 C.ar  1 <1>  -0.1500 
 24 H       -1.2170     2.8650     1.6340 H     1 <1>   0.0800 
 25 H       -2.7970    -1.9690     1.7770 H     1 <1>   0.1000 
 26 H       -2.6750     0.5290    -1.2290 H     1 <1>   0.0800 
 27 H       -3.1240    -1.1240    -0.9940 H     1 <1>   0.0800 
 28 H       -3.6620     2.8570     1.2580 H     1 <1>   0.0800 
 29 H       -3.3400     2.5380    -0.4290 H     1 <1>   0.0800 
 30 H        0.3870     2.3630     0.1110 H     1 <1>   0.0800 
 31 H       -0.6630     1.5070    -0.9620 H     1 <1>   0.0800 
 32 H        0.1990    -1.3210     1.4680 H     1 <1>   0.1000 
 33 H       -0.4800    -2.6940     2.3910 H     1 <1>   0.1000 
 34 H       -1.5340    -3.6060     0.2980 H     1 <1>   0.1000 
 35 H       -0.8410    -2.2470    -0.6410 H     1 <1>   0.1000 
 36 H       -2.9050     5.0620     1.0630 H     1 <1>   0.0800 
 37 H       -1.4250     3.4200    -2.0100 H     1 <1>   0.0800 
 38 H        0.1960     3.9170    -1.6000 H     1 <1>   0.0800 
 39 H       -4.8890     1.0170    -2.1410 H     1 <1>   0.1500 
 40 H       -4.5120    -0.4030     1.8740 H     1 <1>   0.1500 
 41 H       -0.6750     5.0530     0.4170 H     1 <1>   0.0800 
 42 H       -6.7860     0.3270     2.3450 H     1 <1>   0.1500 
 43 H       -5.6560     5.3430    -1.0920 H     1 <1>   0.0800 
 44 H       -5.0570     5.6560     0.5300 H     1 <1>   0.0800 
 45 H       -5.3860     3.9990     0.0030 H     1 <1>   0.0800 
 46 H       -2.3470     5.8960    -1.5730 H     1 <1>   0.4000 
 47 H       -6.8570     1.9730    -2.6730 H     1 <1>   0.4500 
 48 H       -8.1280     1.4250     0.5830 H     1 <1>   0.1500 
@<TRIPOS>BOND
  1   1   2  2   
  2   2   3  am  
  3   2   4  1   
  4   3   5  1   
  5   3   6  1   
  6   4   7  1   
  7   4   8  1   
  8   4  24  1   
  9   5   9  1   
 10   5  10  1   
 11   5  25  1   
 12   6  11  1   
 13   6  26  1   
 14   6  27  1   
 15   7  12  1   
 16   7  28  1   
 17   7  29  1   
 18   8  13  1   
 19   8  30  1   
 20   8  31  1   
 21   9  10  1   
 22   9  32  1   
 23   9  33  1   
 24  10  34  1   
 25  10  35  1   
 26  11  14  ar  
 27  11  15  ar  
 28  12  16  1   
 29  12  17  1   
 30  12  36  1   
 31  13  17  1   
 32  13  37  1   
 33  13  38  1   
 34  14  18  ar  
 35  14  39  1   
 36  15  19  ar  
 37  15  40  1   
 38  16  20  1   
 39  17  21  1   
 40  17  41  1   
 41  18  22  1   
 42  18  23  ar  
 43  19  23  ar  
 44  19  42  1   
 45  20  43  1   
 46  20  44  1   
 47  20  45  1   
 48  21  46  1   
 49  22  47  1   
 50  23  48  1   
@<TRIPOS>SUBSTRUCTURE
  1 ****   7 GROUP 4 **** **** 0

# MOE 2024.06 (io_trps.svl 2023.06)
