@<TRIPOS>MOLECULE
NONAME
41 41 1 0 0 
SMALL
USER_CHARGES


@<TRIPOS>ATOM
  1 O        0.3710    -0.2670     1.6910 O.2   1 <1>  -0.5700 
  2 C        1.1540    -0.6470     0.8560 C.2   1 <1>   0.5690 
  3 N        1.9660     0.1760     0.1280 N.am  1 <1>  -0.4940 
  4 C        1.2370    -2.1320     0.5860 C.3   1 <1>  -0.0990 
  5 C        2.1660     1.5800     0.1540 C.2   1 <1>  -0.0880 
  6 C        0.1930    -2.5650    -0.4530 C.3   1 <1>  -0.0990 
  7 N        1.2720     2.5560     0.4850 N.pl3 1 <1>   0.3140 
  8 C        3.3160     2.2170    -0.1750 C.2   1 <1>  -0.1810 
  9 C        0.3170    -4.0400    -0.7610 C.2   1 <1>   0.5690 
 10 N        1.8240     3.7840     0.3780 N.2   1 <1>  -0.7070 
 11 C       -0.1500     2.4390     0.8290 C.3   1 <1>   0.0160 
 12 C        3.0410     3.5730    -0.0100 C.2   1 <1>   0.1080 
 13 C        4.6330     1.6030    -0.6210 C.3   1 <1>   0.0210 
 14 O        1.2150    -4.4020    -1.4800 O.2   1 <1>  -0.5700 
 15 N       -0.5740    -4.9010    -0.2070 N.am  1 <1>  -0.7300 
 16 C        4.0100     4.7190    -0.2440 C.3   1 <1>   0.0210 
 17 C        5.5200     1.3080     0.5900 C.3   1 <1>  -0.2400 
 18 C       -0.5780    -6.3720    -0.4130 C.3   1 <1>   0.0600 
 19 C        3.9530     5.2050    -1.6960 C.3   1 <1>  -0.2400 
 20 H        2.6190    -0.3120    -0.4820 H     1 <1>   0.3700 
 21 H        1.0680    -2.6600     1.5080 H     1 <1>   0.0800 
 22 H        2.2240    -2.3840     0.2410 H     1 <1>   0.0800 
 23 H        0.3380    -2.0180    -1.3670 H     1 <1>   0.0800 
 24 H       -0.7960    -2.3490    -0.0900 H     1 <1>   0.0800 
 25 H       -0.5970     1.6620     0.2390 H     1 <1>   0.0800 
 26 H       -0.6400     3.3730     0.6270 H     1 <1>   0.0800 
 27 H       -0.2380     2.2050     1.8730 H     1 <1>   0.0800 
 28 H        5.1400     2.2730    -1.2910 H     1 <1>   0.0800 
 29 H        4.4430     0.6910    -1.1580 H     1 <1>   0.0800 
 30 H       -1.3060    -4.5370     0.4060 H     1 <1>   0.3700 
 31 H        5.0080     4.4070     0.0010 H     1 <1>   0.0800 
 32 H        3.7470     5.5290     0.4140 H     1 <1>   0.0800 
 33 H        5.7310     2.2160     1.1260 H     1 <1>   0.0800 
 34 H        6.4480     0.8670     0.2740 H     1 <1>   0.0800 
 35 H        5.0200     0.6270     1.2570 H     1 <1>   0.0800 
 36 H        0.2240    -6.6610    -1.0710 H     1 <1>   0.0800 
 37 H       -1.5120    -6.6760    -0.8520 H     1 <1>   0.0800 
 38 H       -0.4480    -6.8720     0.5310 H     1 <1>   0.0800 
 39 H        4.2160     4.4080    -2.3680 H     1 <1>   0.0800 
 40 H        4.6320     6.0250    -1.8410 H     1 <1>   0.0800 
 41 H        2.9540     5.5340    -1.9280 H     1 <1>   0.0800 
@<TRIPOS>BOND
  1   1   2  2   
  2   2   3  am  
  3   2   4  1   
  4   3   5  1   
  5   3  20  1   
  6   4   6  1   
  7   4  21  1   
  8   4  22  1   
  9   5   7  1   
 10   5   8  2   
 11   6   9  1   
 12   6  23  1   
 13   6  24  1   
 14   7  10  1   
 15   7  11  1   
 16   8  12  1   
 17   8  13  1   
 18   9  14  2   
 19   9  15  am  
 20  10  12  2   
 21  11  25  1   
 22  11  26  1   
 23  11  27  1   
 24  12  16  1   
 25  13  17  1   
 26  13  28  1   
 27  13  29  1   
 28  15  18  1   
 29  15  30  1   
 30  16  19  1   
 31  16  31  1   
 32  16  32  1   
 33  17  33  1   
 34  17  34  1   
 35  17  35  1   
 36  18  36  1   
 37  18  37  1   
 38  18  38  1   
 39  19  39  1   
 40  19  40  1   
 41  19  41  1   
@<TRIPOS>SUBSTRUCTURE
  1 ****   3 GROUP 4 **** **** 0

# MOE 2024.06 (io_trps.svl 2023.06)
