@<TRIPOS>MOLECULE
NONAME
50 53 1 0 0 
SMALL
USER_CHARGES


@<TRIPOS>ATOM
  1 S       -0.2520    -0.4980     0.2830 S.3   1 <1>  -0.0800 
  2 C       -0.2290     1.2440     0.5680 C.2   1 <1>  -0.0130 
  3 C       -1.9550    -0.6250     0.6720 C.2   1 <1>  -0.1400 
  4 C        1.0030     1.9800     0.4010 C.ar  1 <1>   0.0530 
  5 C       -1.4740     1.6320     0.9370 C.2   1 <1>  -0.1500 
  6 C       -2.4440     0.5880     0.9980 C.2   1 <1>  -0.1500 
  7 C       -2.5390    -2.0200     0.5760 C.3   1 <1>   0.5230 
  8 C        2.0400     1.5300    -0.4180 C.ar  1 <1>  -0.1500 
  9 C        1.1940     3.1920     1.0640 C.ar  1 <1>  -0.1500 
 10 N       -4.0100    -1.9400     0.3570 N.4   1 <1>  -0.9590 
 11 C        3.2100     2.2530    -0.5650 C.ar  1 <1>  -0.1500 
 12 C        2.3610     3.9210     0.9200 C.ar  1 <1>  -0.1500 
 13 C       -4.6480    -3.2890     0.5500 C.3   1 <1>   0.3430 
 14 C       -4.3010    -1.3820    -1.0000 C.3   1 <1>   0.3430 
 15 C        3.3730     3.4520     0.1040 C.ar  1 <1>  -0.1500 
 16 C       -6.1910    -3.2770     0.6570 C.3   1 <1>   0.1400 
 17 C       -5.5070    -0.4450    -0.9670 C.3   1 <1>  -0.1600 
 18 N       -6.8650    -2.4410    -0.3940 N.am  1 <1>  -0.6600 
 19 C       -6.7170    -0.9730    -0.1940 C.3   1 <1>   0.1400 
 20 C       -7.7420    -2.8990    -1.3550 C.2   1 <1>   0.5690 
 21 O       -8.1210    -2.1690    -2.2370 O.2   1 <1>  -0.5700 
 22 C       -8.2930    -4.3090    -1.3710 C.3   1 <1>   0.1570 
 23 N       -9.1630    -4.4860    -0.2060 N.pl3 1 <1>   0.3140 
 24 N       -8.8430    -5.2530     0.8130 N.2   1 <1>  -0.4180 
 25 C      -10.3150    -3.9100     0.0740 C.2   1 <1>   0.0360 
 26 N       -9.7930    -5.1290     1.6700 N.2   1 <1>   0.0000 
 27 N      -10.7210    -4.2890     1.2240 N.2   1 <1>  -0.3380 
 28 H       -1.7450     2.6470     1.1720 H     1 <1>   0.1500 
 29 H       -3.4530     0.8230     1.2900 H     1 <1>   0.1500 
 30 H       -2.3200    -2.5520     1.4880 H     1 <1>   0.0800 
 31 H       -2.0750    -2.5450    -0.2430 H     1 <1>   0.0800 
 32 H        1.9380     0.6060    -0.9550 H     1 <1>   0.1500 
 33 H        0.4220     3.5710     1.7080 H     1 <1>   0.1500 
 34 H       -4.3720    -1.2830     1.0560 H     1 <1>   0.4500 
 35 H        3.9950     1.8840    -1.2030 H     1 <1>   0.1500 
 36 H        2.4830     4.8540     1.4440 H     1 <1>   0.1500 
 37 H       -4.2620    -3.7430     1.4480 H     1 <1>   0.0800 
 38 H       -4.3730    -3.9300    -0.2720 H     1 <1>   0.0800 
 39 H       -4.5000    -2.1880    -1.6890 H     1 <1>   0.0800 
 40 H       -3.4510    -0.8310    -1.3730 H     1 <1>   0.0800 
 41 H        4.2820     4.0160    -0.0100 H     1 <1>   0.1500 
 42 H       -6.4810    -2.9190     1.6310 H     1 <1>   0.0800 
 43 H       -6.5180    -4.2980     0.5970 H     1 <1>   0.0800 
 44 H       -5.8130    -0.2670    -1.9830 H     1 <1>   0.0800 
 45 H       -5.2180     0.5100    -0.5660 H     1 <1>   0.0800 
 46 H       -7.6060    -0.4600    -0.5280 H     1 <1>   0.0800 
 47 H       -6.6100    -0.7600     0.8560 H     1 <1>   0.0800 
 48 H       -7.4970    -5.0270    -1.3410 H     1 <1>   0.0800 
 49 H       -8.8720    -4.4650    -2.2610 H     1 <1>   0.0800 
 50 H      -10.8220    -3.2200    -0.5760 H     1 <1>   0.1500 
@<TRIPOS>BOND
  1   1   2  1   
  2   1   3  1   
  3   2   4  1   
  4   2   5  2   
  5   3   6  2   
  6   3   7  1   
  7   4   8  ar  
  8   4   9  ar  
  9   5   6  1   
 10   5  28  1   
 11   6  29  1   
 12   7  10  1   
 13   7  30  1   
 14   7  31  1   
 15   8  11  ar  
 16   8  32  1   
 17   9  12  ar  
 18   9  33  1   
 19  10  13  1   
 20  10  14  1   
 21  10  34  1   
 22  11  15  ar  
 23  11  35  1   
 24  12  15  ar  
 25  12  36  1   
 26  13  16  1   
 27  13  37  1   
 28  13  38  1   
 29  14  17  1   
 30  14  39  1   
 31  14  40  1   
 32  15  41  1   
 33  16  18  1   
 34  16  42  1   
 35  16  43  1   
 36  17  19  1   
 37  17  44  1   
 38  17  45  1   
 39  18  19  1   
 40  18  20  am  
 41  19  46  1   
 42  19  47  1   
 43  20  21  2   
 44  20  22  1   
 45  22  23  1   
 46  22  48  1   
 47  22  49  1   
 48  23  24  1   
 49  23  25  1   
 50  24  26  2   
 51  25  27  2   
 52  25  50  1   
 53  26  27  1   
@<TRIPOS>SUBSTRUCTURE
  1 ****  10 GROUP 4 **** **** 0

# MOE 2024.06 (io_trps.svl 2023.06)
