@<TRIPOS>MOLECULE
NONAME
31 32 1 0 0 
SMALL
USER_CHARGES


@<TRIPOS>ATOM
  1 O       -0.4230    -0.1700    -0.5960 O.2   1 <1>  -0.5700 
  2 C       -1.4970    -0.7370    -0.4700 C.2   1 <1>   0.6160 
  3 N       -1.5260    -2.0960    -0.5370 N.am  1 <1>  -0.5390 
  4 C       -2.7170    -0.0550    -0.2570 C.2   1 <1>  -0.1360 
  5 C       -2.6870    -2.8230    -0.4010 C.2   1 <1>  -0.0290 
  6 C       -3.9060    -0.7230    -0.1190 C.2   1 <1>   0.0140 
  7 C       -3.8560    -2.1510    -0.2010 C.2   1 <1>  -0.1500 
  8 C       -2.5480    -4.3440    -0.5040 C.3   1 <1>   0.0580 
  9 C       -5.1730    -0.0520     0.1000 C.2   1 <1>   0.7060 
 10 C       -3.8100    -5.1540    -0.2060 C.3   1 <1>  -0.1600 
 11 C       -1.5320    -4.9210     0.4830 C.3   1 <1>  -0.1600 
 12 O       -6.2280    -0.6380     0.2210 O.2   1 <1>  -0.5700 
 13 O       -5.1640     1.2830     0.1700 O.3   1 <1>  -0.4300 
 14 C       -3.3020    -6.5690     0.0590 C.3   1 <1>  -0.1600 
 15 C       -1.8960    -6.4020     0.6450 C.3   1 <1>  -0.1600 
 16 C       -6.3480     2.0280     0.3810 C.3   1 <1>   0.0400 
 17 H       -0.6200    -2.5400    -0.6870 H     1 <1>   0.3700 
 18 H       -2.6530     1.0150    -0.2100 H     1 <1>   0.1500 
 19 H       -4.7910    -2.6740    -0.0990 H     1 <1>   0.1500 
 20 H       -2.2260    -4.5880    -1.5020 H     1 <1>   0.0800 
 21 H       -4.5140    -5.1220    -1.0190 H     1 <1>   0.0800 
 22 H       -4.2790    -4.7850     0.6900 H     1 <1>   0.0800 
 23 H       -1.6390    -4.4250     1.4330 H     1 <1>   0.0800 
 24 H       -0.5210    -4.7960     0.1360 H     1 <1>   0.0800 
 25 H       -3.2400    -7.1080    -0.8710 H     1 <1>   0.0800 
 26 H       -3.9540    -7.1040     0.7290 H     1 <1>   0.0800 
 27 H       -1.8790    -6.6760     1.6860 H     1 <1>   0.0800 
 28 H       -1.1990    -7.0250     0.1110 H     1 <1>   0.0800 
 29 H       -6.0950     3.0730     0.4000 H     1 <1>   0.0800 
 30 H       -6.7820     1.7340     1.3210 H     1 <1>   0.0800 
 31 H       -7.0340     1.8270    -0.4240 H     1 <1>   0.0800 
@<TRIPOS>BOND
  1   1   2  2   
  2   2   3  am  
  3   2   4  1   
  4   3   5  1   
  5   3  17  1   
  6   4   6  2   
  7   4  18  1   
  8   5   7  2   
  9   5   8  1   
 10   6   7  1   
 11   6   9  1   
 12   7  19  1   
 13   8  10  1   
 14   8  11  1   
 15   8  20  1   
 16   9  12  2   
 17   9  13  1   
 18  10  14  1   
 19  10  21  1   
 20  10  22  1   
 21  11  15  1   
 22  11  23  1   
 23  11  24  1   
 24  13  16  1   
 25  14  15  1   
 26  14  25  1   
 27  14  26  1   
 28  15  27  1   
 29  15  28  1   
 30  16  29  1   
 31  16  30  1   
 32  16  31  1   
@<TRIPOS>SUBSTRUCTURE
  1 ****   7 GROUP 4 **** **** 0

# MOE 2024.06 (io_trps.svl 2023.06)
