@<TRIPOS>MOLECULE
NONAME
48 50 1 0 0 
SMALL
USER_CHARGES


@<TRIPOS>ATOM
  1 S       -0.8770     0.3170     0.2580 S.o2  1 <1>   1.0900 
  2 O       -0.6540     1.1940     1.3820 O.2   1 <1>  -0.6500 
  3 O        0.0640     0.2190    -0.8330 O.2   1 <1>  -0.6500 
  4 C       -1.2270    -1.3290     0.8060 C.3   1 <1>  -0.0550 
  5 C       -2.5000     0.5850    -0.4400 C.3   1 <1>  -0.0550 
  6 C       -2.1770    -1.8790    -0.2540 C.3   1 <1>   0.1760 
  7 C       -3.2120    -0.7760    -0.5570 C.3   1 <1>  -0.1600 
  8 N       -2.8210    -3.1360     0.2030 N.pl3 1 <1>   0.3140 
  9 N       -3.4770    -3.1890     1.3770 N.2   1 <1>  -0.7070 
 10 C       -2.8340    -4.3390    -0.4280 C.2   1 <1>  -0.3320 
 11 C       -3.8820    -4.4160     1.4810 C.2   1 <1>   0.1080 
 12 C       -3.5080    -5.1890     0.3780 C.2   1 <1>   0.0630 
 13 C       -2.1800    -4.6140    -1.7760 C.3   1 <1>  -0.0600 
 14 C       -4.6770    -4.8860     2.6790 C.3   1 <1>  -0.0590 
 15 N       -3.7730    -6.5550     0.1070 N.am  1 <1>  -0.4930 
 16 C       -3.6750    -7.6280     0.9390 C.2   1 <1>   0.5690 
 17 O       -3.3200    -7.5540     2.0900 O.2   1 <1>  -0.5700 
 18 C       -4.0240    -8.9950     0.3810 C.3   1 <1>  -0.0990 
 19 C       -5.5340    -9.1500     0.1340 C.3   1 <1>  -0.1600 
 20 C       -5.8830   -10.5500    -0.3880 C.3   1 <1>   0.0200 
 21 C       -7.3720   -10.6750    -0.6400 C.2   1 <1>  -0.1400 
 22 S       -8.0490    -9.7840    -1.9970 S.3   1 <1>  -0.0800 
 23 C       -8.3360   -11.3720    -0.0090 C.2   1 <1>  -0.1500 
 24 C       -9.6570   -10.3960    -1.6540 C.2   1 <1>  -0.1100 
 25 C       -9.6360   -11.2120    -0.5840 C.2   1 <1>  -0.1500 
 26 H       -1.7220    -1.2940     1.7590 H     1 <1>   0.0800 
 27 H       -0.3340    -1.9180     0.8820 H     1 <1>   0.0800 
 28 H       -2.4100     1.0480    -1.4050 H     1 <1>   0.0800 
 29 H       -3.0730     1.2350     0.1950 H     1 <1>   0.0800 
 30 H       -1.6090    -2.0800    -1.1450 H     1 <1>   0.0800 
 31 H       -3.6360    -0.9070    -1.5370 H     1 <1>   0.0800 
 32 H       -4.0040    -0.8110     0.1730 H     1 <1>   0.0800 
 33 H       -2.6180    -3.9920    -2.5360 H     1 <1>   0.0800 
 34 H       -2.3130    -5.6420    -2.0590 H     1 <1>   0.0800 
 35 H       -1.1240    -4.4160    -1.7230 H     1 <1>   0.0800 
 36 H       -5.2140    -4.0610     3.1090 H     1 <1>   0.0800 
 37 H       -4.0070    -5.2890     3.4160 H     1 <1>   0.0800 
 38 H       -5.3770    -5.6450     2.3880 H     1 <1>   0.0800 
 39 H       -4.0280    -6.7480    -0.8580 H     1 <1>   0.3700 
 40 H       -3.6970    -9.7400     1.0850 H     1 <1>   0.0800 
 41 H       -3.4800    -9.1450    -0.5330 H     1 <1>   0.0800 
 42 H       -5.8630    -8.4130    -0.5780 H     1 <1>   0.0800 
 43 H       -6.0650    -8.9780     1.0550 H     1 <1>   0.0800 
 44 H       -5.5880   -11.2880     0.3380 H     1 <1>   0.0800 
 45 H       -5.3540   -10.7510    -1.3030 H     1 <1>   0.0800 
 46 H       -8.1910   -12.0020     0.8510 H     1 <1>   0.1500 
 47 H      -10.4560   -10.0750    -2.2980 H     1 <1>   0.1500 
 48 H      -10.4900   -11.7170    -0.1670 H     1 <1>   0.1500 
@<TRIPOS>BOND
  1   1   2  2   
  2   1   3  2   
  3   1   4  1   
  4   1   5  1   
  5   4   6  1   
  6   4  26  1   
  7   4  27  1   
  8   5   7  1   
  9   5  28  1   
 10   5  29  1   
 11   6   7  1   
 12   6   8  1   
 13   6  30  1   
 14   7  31  1   
 15   7  32  1   
 16   8   9  1   
 17   8  10  1   
 18   9  11  2   
 19  10  12  2   
 20  10  13  1   
 21  11  12  1   
 22  11  14  1   
 23  12  15  1   
 24  13  33  1   
 25  13  34  1   
 26  13  35  1   
 27  14  36  1   
 28  14  37  1   
 29  14  38  1   
 30  15  16  am  
 31  15  39  1   
 32  16  17  2   
 33  16  18  1   
 34  18  19  1   
 35  18  40  1   
 36  18  41  1   
 37  19  20  1   
 38  19  42  1   
 39  19  43  1   
 40  20  21  1   
 41  20  44  1   
 42  20  45  1   
 43  21  22  1   
 44  21  23  2   
 45  22  24  1   
 46  23  25  1   
 47  23  46  1   
 48  24  25  2   
 49  24  47  1   
 50  25  48  1   
@<TRIPOS>SUBSTRUCTURE
  1 ****  12 GROUP 4 **** **** 0

# MOE 2024.06 (io_trps.svl 2023.06)
