@<TRIPOS>MOLECULE
NONAME
39 41 1 0 0 
SMALL
USER_CHARGES


@<TRIPOS>ATOM
  1 F       -0.8210    -0.8280    -1.9070 F     1 <1>  -0.1900 
  2 C       -1.9340    -1.3130    -1.4110 C.ar  1 <1>   0.1900 
  3 C       -3.0960    -0.5840    -1.4600 C.ar  1 <1>   0.1600 
  4 C       -1.9570    -2.5570    -0.8330 C.ar  1 <1>   0.1600 
  5 N       -4.2170    -1.0590    -0.9640 N.ar  1 <1>  -0.6200 
  6 N       -3.0680    -3.0530    -0.3320 N.ar  1 <1>  -0.6200 
  7 C       -4.1560    -2.2800    -0.4210 C.ar  1 <1>   0.7200 
  8 N       -5.3190    -2.7850     0.1060 N.pl3 1 <1>  -0.8380 
  9 C       -6.6390    -2.1490    -0.1000 C.3   1 <1>   0.2090 
 10 C       -5.4760    -4.1980     0.5090 C.3   1 <1>   0.2090 
 11 C       -7.6300    -3.0530     0.6430 C.3   1 <1>  -0.0800 
 12 C       -6.9860    -4.4520     0.5820 C.3   1 <1>  -0.0800 
 13 C       -9.1140    -2.9860     0.1700 C.3   1 <1>   0.2800 
 14 C       -7.5090    -5.2440    -0.6270 C.3   1 <1>  -0.1600 
 15 O       -9.1810    -2.6190    -1.1610 O.3   1 <1>  -0.6800 
 16 C       -9.7650    -4.3780     0.2710 C.3   1 <1>  -0.1600 
 17 C       -9.9490    -1.9560     0.9640 C.3   1 <1>  -0.1600 
 18 C       -9.0310    -5.4640    -0.5460 C.3   1 <1>  -0.1600 
 19 C       -9.4620    -0.4990     0.8820 C.3   1 <1>  -0.2400 
 20 H       -3.1000     0.3940    -1.9080 H     1 <1>   0.1500 
 21 H       -1.0580    -3.1440    -0.7840 H     1 <1>   0.1500 
 22 H       -6.6430    -1.1460     0.2880 H     1 <1>   0.0800 
 23 H       -6.8360    -2.1210    -1.1580 H     1 <1>   0.0800 
 24 H       -4.9980    -4.8530    -0.1990 H     1 <1>   0.0800 
 25 H       -5.0250    -4.3340     1.4770 H     1 <1>   0.0800 
 26 H       -7.5980    -2.7590     1.6770 H     1 <1>   0.0800 
 27 H       -7.2060    -5.0090     1.4760 H     1 <1>   0.0800 
 28 H       -7.2830    -4.6900    -1.5230 H     1 <1>   0.0800 
 29 H       -7.0100    -6.1950    -0.6990 H     1 <1>   0.0800 
 30 H      -10.1080    -2.6420    -1.4550 H     1 <1>   0.4000 
 31 H       -9.7530    -4.6730     1.3060 H     1 <1>   0.0800 
 32 H      -10.7970    -4.3370    -0.0280 H     1 <1>   0.0800 
 33 H      -10.9680    -1.9950     0.6200 H     1 <1>   0.0800 
 34 H       -9.9620    -2.2490     1.9990 H     1 <1>   0.0800 
 35 H       -9.2340    -6.4240    -0.1030 H     1 <1>   0.0800 
 36 H       -9.4230    -5.4830    -1.5490 H     1 <1>   0.0800 
 37 H       -9.3770    -0.1800    -0.1420 H     1 <1>   0.0800 
 38 H       -8.5060    -0.3870     1.3610 H     1 <1>   0.0800 
 39 H      -10.1610     0.1480     1.3820 H     1 <1>   0.0800 
@<TRIPOS>BOND
  1   1   2  1   
  2   2   3  ar  
  3   2   4  ar  
  4   3   5  ar  
  5   3  20  1   
  6   4   6  ar  
  7   4  21  1   
  8   5   7  ar  
  9   6   7  ar  
 10   7   8  1   
 11   8   9  1   
 12   8  10  1   
 13   9  11  1   
 14   9  22  1   
 15   9  23  1   
 16  10  12  1   
 17  10  24  1   
 18  10  25  1   
 19  11  12  1   
 20  11  13  1   
 21  11  26  1   
 22  12  14  1   
 23  12  27  1   
 24  13  15  1   
 25  13  16  1   
 26  13  17  1   
 27  14  18  1   
 28  14  28  1   
 29  14  29  1   
 30  15  30  1   
 31  16  18  1   
 32  16  31  1   
 33  16  32  1   
 34  17  19  1   
 35  17  33  1   
 36  17  34  1   
 37  18  35  1   
 38  18  36  1   
 39  19  37  1   
 40  19  38  1   
 41  19  39  1   
@<TRIPOS>SUBSTRUCTURE
  1 ****   9 GROUP 4 **** **** 0

# MOE 2024.06 (io_trps.svl 2023.06)
