@<TRIPOS>MOLECULE
NONAME
40 42 1 0 0 
SMALL
USER_CHARGES


@<TRIPOS>ATOM
  1 O       -0.5980    -0.2870    -0.3690 O.2   1 <1>  -0.5700 
  2 C       -1.5230     0.4580    -0.0970 C.2   1 <1>   0.5440 
  3 N       -2.6500    -0.0620     0.4850 N.am  1 <1>  -0.6600 
  4 C       -1.3990     1.8730    -0.3890 C.ar  1 <1>   0.0860 
  5 C       -3.8080     0.7080     1.0240 C.3   1 <1>   0.2350 
  6 C       -3.0470    -1.4910     0.3450 C.3   1 <1>   0.2350 
  7 C       -0.3550     2.6240     0.1480 C.ar  1 <1>  -0.1500 
  8 C       -2.3020     2.5270    -1.2250 C.ar  1 <1>  -0.1500 
  9 C       -5.0330    -0.0820     0.6040 C.3   1 <1>  -0.2420 
 10 C       -4.5610    -1.4590     0.2020 C.3   1 <1>  -0.2420 
 11 C       -0.2130     3.9770    -0.1150 C.ar  1 <1>  -0.1430 
 12 C       -2.1770     3.8760    -1.4970 C.ar  1 <1>  -0.1500 
 13 C       -6.2650     0.4110     1.3660 C.2   1 <1>   0.9470 
 14 C       -5.2100    -0.5580    -0.8170 C.3   1 <1>  -0.2000 
 15 C       -5.1620    -2.8430     0.4620 C.2   1 <1>   0.9470 
 16 C       -1.1360     4.5990    -0.9430 C.ar  1 <1>  -0.1500 
 17 C        0.9470     4.7530     0.5060 C.3   1 <1>   0.0630 
 18 O       -6.1980     0.5340     2.5960 O.co2 1 <1>  -0.9000 
 19 O       -7.2370     0.8470     0.7330 O.co2 1 <1>  -0.9000 
 20 O       -5.8340    -3.3910    -0.4220 O.co2 1 <1>  -0.9000 
 21 O       -4.8370    -3.4550     1.4890 O.co2 1 <1>  -0.9000 
 22 C        0.4290     5.8610     1.4290 C.3   1 <1>  -0.2400 
 23 C        1.8620     5.3310    -0.5790 C.3   1 <1>  -0.2400 
 24 H       -3.7440     0.7310     2.0990 H     1 <1>   0.0800 
 25 H       -3.8590     1.7130     0.6510 H     1 <1>   0.0800 
 26 H       -2.5880    -1.9450    -0.5160 H     1 <1>   0.0800 
 27 H       -2.7650    -2.0280     1.2340 H     1 <1>   0.0800 
 28 H        0.3490     2.1150     0.7820 H     1 <1>   0.1500 
 29 H       -3.1120     1.9630    -1.6560 H     1 <1>   0.1500 
 30 H       -2.8920     4.3620    -2.1390 H     1 <1>   0.1500 
 31 H       -4.6140    -0.1380    -1.6040 H     1 <1>   0.1000 
 32 H       -6.2070    -0.8080    -1.1430 H     1 <1>   0.1000 
 33 H       -1.0500     5.6480    -1.1610 H     1 <1>   0.1500 
 34 H        1.5350     4.0770     1.1030 H     1 <1>   0.0800 
 35 H       -0.1240     6.5960     0.8740 H     1 <1>   0.0800 
 36 H        1.2500     6.3480     1.9230 H     1 <1>   0.0800 
 37 H       -0.2190     5.4380     2.1770 H     1 <1>   0.0800 
 38 H        1.3390     6.0540    -1.1780 H     1 <1>   0.0800 
 39 H        2.2080     4.5400    -1.2210 H     1 <1>   0.0800 
 40 H        2.7150     5.8070    -0.1310 H     1 <1>   0.0800 
@<TRIPOS>BOND
  1   1   2  2   
  2   2   3  am  
  3   2   4  1   
  4   3   5  1   
  5   3   6  1   
  6   4   7  ar  
  7   4   8  ar  
  8   5   9  1   
  9   5  24  1   
 10   5  25  1   
 11   6  10  1   
 12   6  26  1   
 13   6  27  1   
 14   7  11  ar  
 15   7  28  1   
 16   8  12  ar  
 17   8  29  1   
 18   9  10  1   
 19   9  13  1   
 20   9  14  1   
 21  10  14  1   
 22  10  15  1   
 23  11  16  ar  
 24  11  17  1   
 25  12  16  ar  
 26  12  30  1   
 27  13  18  ar  
 28  13  19  ar  
 29  14  31  1   
 30  14  32  1   
 31  15  20  ar  
 32  15  21  ar  
 33  16  33  1   
 34  17  22  1   
 35  17  23  1   
 36  17  34  1   
 37  22  35  1   
 38  22  36  1   
 39  22  37  1   
 40  23  38  1   
 41  23  39  1   
 42  23  40  1   
@<TRIPOS>SUBSTRUCTURE
  1 ****   3 GROUP 4 **** **** 0

# MOE 2024.06 (io_trps.svl 2023.06)
