@<TRIPOS>MOLECULE
NONAME
50 52 1 0 0 
SMALL
USER_CHARGES


@<TRIPOS>ATOM
  1 CL       3.5170    -0.5020     2.3260 Cl    1 <1>  -0.1770 
  2 C        2.9480    -1.3410     0.9010 C.ar  1 <1>   0.1770 
  3 C        2.8530    -0.6820    -0.3150 C.ar  1 <1>   0.1770 
  4 C        2.5950    -2.6730     1.0130 C.ar  1 <1>  -0.1500 
  5 CL       3.2980     1.0030    -0.4600 Cl    1 <1>  -0.1770 
  6 C        2.4020    -1.3530    -1.4380 C.ar  1 <1>  -0.1500 
  7 C        2.1380    -3.3520    -0.1150 C.ar  1 <1>   0.0830 
  8 C        2.0470    -2.6880    -1.3310 C.ar  1 <1>  -0.1500 
  9 O        1.7660    -4.6550    -0.1070 O.3   1 <1>  -0.3630 
 10 C        1.8370    -5.4390     1.0770 C.3   1 <1>   0.1810 
 11 C        1.3910    -6.8780     0.8210 C.2   1 <1>   0.5690 
 12 O        2.1230    -7.7580     1.2120 O.2   1 <1>  -0.5700 
 13 N        0.1990    -7.1880     0.2020 N.am  1 <1>  -0.6600 
 14 C       -0.1020    -8.5960    -0.2020 C.3   1 <1>   0.1400 
 15 C       -0.8770    -6.2020    -0.1030 C.3   1 <1>   0.1400 
 16 C       -1.4080    -9.0560     0.4690 C.3   1 <1>   0.4230 
 17 C       -2.2110    -6.6890     0.4920 C.3   1 <1>  -0.1600 
 18 N       -1.6600   -10.5540     0.3990 N.4   1 <1>  -0.9590 
 19 C       -2.6070    -8.1340     0.0790 C.3   1 <1>   0.0000 
 20 C       -3.0940   -10.9260     0.6140 C.3   1 <1>   0.3430 
 21 C       -1.1660   -11.2160    -0.8510 C.3   1 <1>   0.2630 
 22 C       -3.8800    -8.5330     0.8840 C.3   1 <1>  -0.1600 
 23 C       -2.9180    -8.0930    -1.4470 C.3   1 <1>   0.1200 
 24 C       -3.7890    -9.9250     1.5360 C.3   1 <1>  -0.1600 
 25 O       -3.3490    -9.3180    -1.9340 O.3   1 <1>  -0.6800 
 26 H        2.6860    -3.1440     1.9730 H     1 <1>   0.1500 
 27 H        2.3320    -0.8350    -2.3780 H     1 <1>   0.1500 
 28 H        1.6970    -3.2240    -2.1960 H     1 <1>   0.1500 
 29 H        2.8570    -5.4410     1.4150 H     1 <1>   0.0800 
 30 H        1.2060    -4.9930     1.8220 H     1 <1>   0.0800 
 31 H       -0.1830    -8.6400    -1.2730 H     1 <1>   0.0800 
 32 H        0.6990    -9.2470     0.1000 H     1 <1>   0.0800 
 33 H       -0.6450    -5.2390     0.3160 H     1 <1>   0.0800 
 34 H       -0.9520    -6.0790    -1.1700 H     1 <1>   0.0800 
 35 H       -1.2510    -8.8530     1.5150 H     1 <1>   0.0800 
 36 H       -2.1220    -6.6290     1.5640 H     1 <1>   0.0800 
 37 H       -2.9870    -5.9990     0.2070 H     1 <1>   0.0800 
 38 H       -1.1320   -10.9560     1.1850 H     1 <1>   0.4500 
 39 H       -3.6140   -10.9360    -0.3300 H     1 <1>   0.0800 
 40 H       -3.1560   -11.9160     1.0360 H     1 <1>   0.0800 
 41 H       -1.6480   -10.7980    -1.7180 H     1 <1>   0.0800 
 42 H       -1.3770   -12.2720    -0.8210 H     1 <1>   0.0800 
 43 H       -0.1010   -11.0860    -0.9540 H     1 <1>   0.0800 
 44 H       -4.0890    -7.8210     1.6650 H     1 <1>   0.0800 
 45 H       -4.7380    -8.5170     0.2320 H     1 <1>   0.0800 
 46 H       -2.0610    -7.7980    -2.0260 H     1 <1>   0.0800 
 47 H       -3.7060    -7.3820    -1.6340 H     1 <1>   0.0800 
 48 H       -4.7840   -10.2760     1.7480 H     1 <1>   0.0800 
 49 H       -3.2620    -9.8720     2.4730 H     1 <1>   0.0800 
 50 H       -3.7430    -9.2090    -2.8270 H     1 <1>   0.4000 
@<TRIPOS>BOND
  1   1   2  1   
  2   2   3  ar  
  3   2   4  ar  
  4   3   5  1   
  5   3   6  ar  
  6   4   7  ar  
  7   4  26  1   
  8   6   8  ar  
  9   6  27  1   
 10   7   8  ar  
 11   7   9  1   
 12   8  28  1   
 13   9  10  1   
 14  10  11  1   
 15  10  29  1   
 16  10  30  1   
 17  11  12  2   
 18  11  13  am  
 19  13  14  1   
 20  13  15  1   
 21  14  16  1   
 22  14  31  1   
 23  14  32  1   
 24  15  17  1   
 25  15  33  1   
 26  15  34  1   
 27  16  18  1   
 28  16  19  1   
 29  16  35  1   
 30  17  19  1   
 31  17  36  1   
 32  17  37  1   
 33  18  20  1   
 34  18  21  1   
 35  18  38  1   
 36  19  22  1   
 37  19  23  1   
 38  20  24  1   
 39  20  39  1   
 40  20  40  1   
 41  21  41  1   
 42  21  42  1   
 43  21  43  1   
 44  22  24  1   
 45  22  44  1   
 46  22  45  1   
 47  23  25  1   
 48  23  46  1   
 49  23  47  1   
 50  24  48  1   
 51  24  49  1   
 52  25  50  1   
@<TRIPOS>SUBSTRUCTURE
  1 ****  15 GROUP 4 **** **** 0

# MOE 2024.06 (io_trps.svl 2023.06)
