@<TRIPOS>MOLECULE
NONAME
46 47 1 0 0 
SMALL
USER_CHARGES


@<TRIPOS>ATOM
  1 O        1.7650    -0.2450    -2.0600 O.2   1 <1>  -0.5700 
  2 C        1.8580    -0.6860    -0.9380 C.2   1 <1>   0.5690 
  3 N        1.9520     0.1340     0.1620 N.am  1 <1>  -0.6600 
  4 C        1.8680    -2.2010    -0.8070 C.3   1 <1>  -0.0990 
  5 C        1.9860     1.6120    -0.0110 C.3   1 <1>   0.1400 
  6 C        2.0540    -0.3270     1.5780 C.3   1 <1>   0.0600 
  7 C        0.4600    -2.7580    -0.5380 C.3   1 <1>  -0.1600 
  8 C        3.4360     2.1000     0.0020 C.3   1 <1>  -0.1600 
  9 C        0.4660    -4.2910    -0.4770 C.3   1 <1>   0.0960 
 10 C        3.5200     3.6010    -0.2920 C.3   1 <1>   0.0210 
 11 N       -0.8680    -4.8030    -0.1110 N.pl3 1 <1>   0.3140 
 12 C        4.9680     4.0570    -0.2710 C.2   1 <1>  -0.1810 
 13 N       -1.2210    -5.0500     1.1420 N.2   1 <1>  -0.7070 
 14 C       -1.9000    -5.0890    -0.9100 C.2   1 <1>   0.0360 
 15 C        5.6650     4.5900     0.8120 C.2   1 <1>   0.1080 
 16 C        5.8670     4.0350    -1.2800 C.2   1 <1>  -0.3320 
 17 C       -2.4370    -5.4680     1.0090 C.2   1 <1>   0.3660 
 18 N       -2.9110    -5.5140    -0.2420 N.2   1 <1>  -0.5650 
 19 N        6.8900     4.8830     0.5130 N.2   1 <1>  -0.7070 
 20 C        5.1050     4.8220     2.1970 C.3   1 <1>  -0.0590 
 21 N        7.0140     4.5400    -0.7810 N.pl3 1 <1>   0.3000 
 22 C        5.7230     3.5550    -2.7150 C.3   1 <1>  -0.0600 
 23 H        2.5530    -2.4950    -0.0340 H     1 <1>   0.0800 
 24 H        2.2390    -2.6070    -1.7310 H     1 <1>   0.0800 
 25 H        1.4250     2.0840     0.7770 H     1 <1>   0.0800 
 26 H        1.5240     1.8800    -0.9460 H     1 <1>   0.0800 
 27 H        1.7340    -1.3470     1.6860 H     1 <1>   0.0800 
 28 H        1.4290     0.2840     2.2060 H     1 <1>   0.0800 
 29 H        3.0730    -0.2440     1.9120 H     1 <1>   0.0800 
 30 H       -0.2010    -2.4310    -1.3230 H     1 <1>   0.0800 
 31 H        0.0920    -2.3660     0.3950 H     1 <1>   0.0800 
 32 H        3.9930     1.5700    -0.7500 H     1 <1>   0.0800 
 33 H        3.8810     1.9030     0.9600 H     1 <1>   0.0800 
 34 H        1.1650    -4.6300     0.2660 H     1 <1>   0.0800 
 35 H        0.7460    -4.7050    -1.4290 H     1 <1>   0.0800 
 36 H        2.9560     4.1570     0.4350 H     1 <1>   0.0800 
 37 H        3.0990     3.8050    -1.2610 H     1 <1>   0.0800 
 38 H       -1.8670    -4.9710    -1.9780 H     1 <1>   0.1500 
 39 H       -3.0530    -5.7680     1.8420 H     1 <1>   0.1500 
 40 H        4.5630     3.9560     2.5260 H     1 <1>   0.0800 
 41 H        4.4500     5.6730     2.1830 H     1 <1>   0.0800 
 42 H        5.9080     5.0120     2.8860 H     1 <1>   0.0800 
 43 H        7.8950     4.6600    -1.2930 H     1 <1>   0.2700 
 44 H        4.7400     3.1520    -2.8840 H     1 <1>   0.0800 
 45 H        6.4430     2.7830    -2.9200 H     1 <1>   0.0800 
 46 H        5.8790     4.3720    -3.3960 H     1 <1>   0.0800 
@<TRIPOS>BOND
  1   1   2  2   
  2   2   3  am  
  3   2   4  1   
  4   3   5  1   
  5   3   6  1   
  6   4   7  1   
  7   4  23  1   
  8   4  24  1   
  9   5   8  1   
 10   5  25  1   
 11   5  26  1   
 12   6  27  1   
 13   6  28  1   
 14   6  29  1   
 15   7   9  1   
 16   7  30  1   
 17   7  31  1   
 18   8  10  1   
 19   8  32  1   
 20   8  33  1   
 21   9  11  1   
 22   9  34  1   
 23   9  35  1   
 24  10  12  1   
 25  10  36  1   
 26  10  37  1   
 27  11  13  1   
 28  11  14  1   
 29  12  15  1   
 30  12  16  2   
 31  13  17  2   
 32  14  18  2   
 33  14  38  1   
 34  15  19  2   
 35  15  20  1   
 36  16  21  1   
 37  16  22  1   
 38  17  18  1   
 39  17  39  1   
 40  19  21  1   
 41  20  40  1   
 42  20  41  1   
 43  20  42  1   
 44  21  43  1   
 45  22  44  1   
 46  22  45  1   
 47  22  46  1   
@<TRIPOS>SUBSTRUCTURE
  1 ****   3 GROUP 4 **** **** 0

# MOE 2024.06 (io_trps.svl 2023.06)
