@<TRIPOS>MOLECULE
NONAME
41 41 1 0 0 
SMALL
USER_CHARGES


@<TRIPOS>ATOM
  1 O       -1.4440    -0.5630    -0.9890 O.2   1 <1>  -0.5700 
  2 C       -2.0480     0.3160    -0.4160 C.2   1 <1>   0.5690 
  3 N       -2.8720     0.0230     0.6410 N.am  1 <1>  -0.6600 
  4 C       -1.8750     1.7330    -0.9490 C.3   1 <1>  -0.0990 
  5 C       -2.9480    -1.3790     1.1490 C.3   1 <1>   0.3200 
  6 C       -3.8590     0.9620     1.2510 C.3   1 <1>   0.1400 
  7 C       -0.5770     2.4190    -0.4700 C.3   1 <1>  -0.0800 
  8 C       -3.9240    -2.1850     0.3110 C.2   1 <1>   0.0060 
  9 C       -5.1630     0.9730     0.4450 C.3   1 <1>   0.1200 
 10 C       -0.5780     2.5740     1.0690 C.3   1 <1>  -0.1600 
 11 C       -0.4090     3.7730    -1.2010 C.3   1 <1>  -0.1600 
 12 N       -5.0480    -2.6750     0.7310 N.2   1 <1>  -0.5650 
 13 N       -3.6700    -2.4440    -0.9880 N.pl3 1 <1>   0.0330 
 14 O       -6.0270     1.9090     0.9940 O.3   1 <1>  -0.6800 
 15 C        0.7100     3.1720     1.6460 C.3   1 <1>  -0.2400 
 16 C        1.0410     4.0520    -1.6210 C.3   1 <1>  -0.2400 
 17 C       -5.5520    -3.2900    -0.3570 C.2   1 <1>   0.0770 
 18 C       -4.7250    -3.1580    -1.4180 C.2   1 <1>  -0.3020 
 19 H       -2.7240     2.3450    -0.7160 H     1 <1>   0.0800 
 20 H       -1.8420     1.6500    -2.0210 H     1 <1>   0.0800 
 21 H       -3.2660    -1.3870     2.1770 H     1 <1>   0.0800 
 22 H       -1.9760    -1.8380     1.1040 H     1 <1>   0.0800 
 23 H       -3.4500     1.9550     1.2850 H     1 <1>   0.0800 
 24 H       -4.0680     0.6580     2.2620 H     1 <1>   0.0800 
 25 H        0.2400     1.7720    -0.7460 H     1 <1>   0.0800 
 26 H       -5.6470     0.0120     0.4630 H     1 <1>   0.0800 
 27 H       -4.9730     1.2630    -0.5740 H     1 <1>   0.0800 
 28 H       -0.7080     1.6060     1.5210 H     1 <1>   0.0800 
 29 H       -1.4090     3.1880     1.3710 H     1 <1>   0.0800 
 30 H       -0.7710     4.5770    -0.5820 H     1 <1>   0.0800 
 31 H       -1.0020     3.7840    -2.1000 H     1 <1>   0.0800 
 32 H       -2.8390    -2.1150    -1.5010 H     1 <1>   0.2700 
 33 H       -6.4730     1.5430     1.7830 H     1 <1>   0.4000 
 34 H        1.5680     2.6190     1.3040 H     1 <1>   0.0800 
 35 H        0.6830     3.1270     2.7210 H     1 <1>   0.0800 
 36 H        0.8160     4.2020     1.3600 H     1 <1>   0.0800 
 37 H        1.6990     4.0820    -0.7740 H     1 <1>   0.0800 
 38 H        1.0980     5.0010    -2.1260 H     1 <1>   0.0800 
 39 H        1.3860     3.2890    -2.2960 H     1 <1>   0.0800 
 40 H       -6.4990    -3.8040    -0.3200 H     1 <1>   0.1500 
 41 H       -4.8260    -3.5220    -2.4240 H     1 <1>   0.1500 
@<TRIPOS>BOND
  1   1   2  2   
  2   2   3  am  
  3   2   4  1   
  4   3   5  1   
  5   3   6  1   
  6   4   7  1   
  7   4  19  1   
  8   4  20  1   
  9   5   8  1   
 10   5  21  1   
 11   5  22  1   
 12   6   9  1   
 13   6  23  1   
 14   6  24  1   
 15   7  10  1   
 16   7  11  1   
 17   7  25  1   
 18   8  12  2   
 19   8  13  1   
 20   9  14  1   
 21   9  26  1   
 22   9  27  1   
 23  10  15  1   
 24  10  28  1   
 25  10  29  1   
 26  11  16  1   
 27  11  30  1   
 28  11  31  1   
 29  12  17  1   
 30  13  18  1   
 31  13  32  1   
 32  14  33  1   
 33  15  34  1   
 34  15  35  1   
 35  15  36  1   
 36  16  37  1   
 37  16  38  1   
 38  16  39  1   
 39  17  18  2   
 40  17  40  1   
 41  18  41  1   
@<TRIPOS>SUBSTRUCTURE
  1 ****   3 GROUP 4 **** **** 0

# MOE 2024.06 (io_trps.svl 2023.06)
