@<TRIPOS>MOLECULE
NONAME
44 46 1 0 0 
SMALL
USER_CHARGES


@<TRIPOS>ATOM
  1 O       -0.9180     0.5250    -0.1060 O.co2 1 <1>  -0.9000 
  2 C       -1.3450     1.3460     0.7210 C.2   1 <1>   0.9060 
  3 O       -1.7650     0.9840     1.8280 O.co2 1 <1>  -0.9000 
  4 C       -1.2060     2.8510     0.4390 C.3   1 <1>   0.0940 
  5 O       -2.3150     3.4530    -0.2240 O.3   1 <1>  -0.5600 
  6 C        0.0800     3.0770    -0.3690 C.3   1 <1>   0.2090 
  7 C       -2.1740     4.8340    -0.3820 C.3   1 <1>   0.1200 
  8 N        0.3010     4.5390    -0.6720 N.pl3 1 <1>  -0.8380 
  9 C       -0.9410     5.1620    -1.2410 C.3   1 <1>   0.2090 
 10 C        1.4400     5.2280    -0.3980 C.ar  1 <1>   0.4100 
 11 N        1.3590     6.5410    -0.2810 N.ar  1 <1>  -0.6200 
 12 C        2.6720     4.5610    -0.2450 C.ar  1 <1>  -0.1500 
 13 C        2.4550     7.2150     0.0270 C.ar  1 <1>   0.7710 
 14 C        3.7820     5.2690     0.0700 C.ar  1 <1>   0.2180 
 15 N        3.6380     6.6060     0.2080 N.ar  1 <1>  -0.1790 
 16 N        2.3880     8.5630     0.1620 N.pl3 1 <1>  -0.8380 
 17 C        5.1570     4.6410     0.2640 C.3   1 <1>  -0.0170 
 18 C        1.1100     9.3000    -0.0500 C.3   1 <1>   0.2090 
 19 C        3.4630     9.5150     0.5550 C.3   1 <1>   0.2090 
 20 C        6.1760     5.1450    -0.7670 C.3   1 <1>  -0.2400 
 21 C        1.4840    10.7740     0.0040 C.3   1 <1>  -0.1600 
 22 C        2.7410    10.8200     0.8640 C.3   1 <1>  -0.1600 
 23 H       -1.1070     3.3250     1.3970 H     1 <1>   0.0800 
 24 H        0.0120     2.5250    -1.2920 H     1 <1>   0.0800 
 25 H        0.8910     2.6650     0.2010 H     1 <1>   0.0800 
 26 H       -2.0890     5.2850     0.5900 H     1 <1>   0.0800 
 27 H       -3.0660     5.1980    -0.8580 H     1 <1>   0.0800 
 28 H       -0.8410     6.2290    -1.3200 H     1 <1>   0.0800 
 29 H       -1.1010     4.7750    -2.2320 H     1 <1>   0.0800 
 30 H        2.7130     3.4990    -0.3940 H     1 <1>   0.1500 
 31 H        4.4140     7.2130     0.4280 H     1 <1>   0.4570 
 32 H        5.0750     3.5710     0.1730 H     1 <1>   0.0800 
 33 H        5.5120     4.8490     1.2590 H     1 <1>   0.0800 
 34 H        0.4240     9.0570     0.7460 H     1 <1>   0.0800 
 35 H        0.6630     9.0440    -0.9970 H     1 <1>   0.0800 
 36 H        4.1340     9.6630    -0.2750 H     1 <1>   0.0800 
 37 H        4.0060     9.1730     1.4200 H     1 <1>   0.0800 
 38 H        5.8300     4.9430    -1.7670 H     1 <1>   0.0800 
 39 H        7.1140     4.6340    -0.6300 H     1 <1>   0.0800 
 40 H        6.3540     6.2010    -0.6660 H     1 <1>   0.0800 
 41 H        0.6860    11.3730     0.4100 H     1 <1>   0.0800 
 42 H        1.7040    11.1170    -0.9920 H     1 <1>   0.0800 
 43 H        3.3510    11.6790     0.6490 H     1 <1>   0.0800 
 44 H        2.4690    10.8360     1.9050 H     1 <1>   0.0800 
@<TRIPOS>BOND
  1   1   2  ar  
  2   2   3  ar  
  3   2   4  1   
  4   4   5  1   
  5   4   6  1   
  6   4  23  1   
  7   5   7  1   
  8   6   8  1   
  9   6  24  1   
 10   6  25  1   
 11   7   9  1   
 12   7  26  1   
 13   7  27  1   
 14   8   9  1   
 15   8  10  1   
 16   9  28  1   
 17   9  29  1   
 18  10  11  ar  
 19  10  12  ar  
 20  11  13  ar  
 21  12  14  ar  
 22  12  30  1   
 23  13  15  ar  
 24  13  16  1   
 25  14  15  ar  
 26  14  17  1   
 27  15  31  1   
 28  16  18  1   
 29  16  19  1   
 30  17  20  1   
 31  17  32  1   
 32  17  33  1   
 33  18  21  1   
 34  18  34  1   
 35  18  35  1   
 36  19  22  1   
 37  19  36  1   
 38  19  37  1   
 39  20  38  1   
 40  20  39  1   
 41  20  40  1   
 42  21  22  1   
 43  21  41  1   
 44  21  42  1   
 45  22  43  1   
 46  22  44  1   
@<TRIPOS>SUBSTRUCTURE
  1 ****  10 GROUP 4 **** **** 0

# MOE 2024.06 (io_trps.svl 2023.06)
