@<TRIPOS>MOLECULE
NONAME
49 52 1 0 0 
SMALL
USER_CHARGES


@<TRIPOS>ATOM
  1 O       -0.9680     0.3030     0.4830 O.3   1 <1>  -0.3400 
  2 C       -0.6570     1.5280    -0.0100 C.ar  1 <1>   0.0830 
  3 C       -2.1290     0.1080     1.2710 C.3   1 <1>   0.2580 
  4 C        0.3640     1.5810    -0.9460 C.ar  1 <1>  -0.1500 
  5 C       -1.3030     2.7020     0.3680 C.ar  1 <1>  -0.1500 
  6 C       -2.4040    -1.3940     1.5000 C.3   1 <1>   0.2450 
  7 C       -3.4300     0.1240     0.4380 C.3   1 <1>   0.2450 
  8 C        0.7450     2.7870    -1.5100 C.ar  1 <1>  -0.1440 
  9 C       -0.9250     3.9080    -0.1960 C.ar  1 <1>  -0.1500 
 10 N       -3.8450    -1.1410     1.1500 N.3   1 <1>  -0.5900 
 11 C        0.0940     3.9500    -1.1320 C.ar  1 <1>  -0.1500 
 12 C        1.8610     2.8400    -2.5380 C.3   1 <1>  -0.0970 
 13 C       -4.5760    -2.1130     0.4940 C.ar  1 <1>   0.4100 
 14 N       -5.2790    -1.7570    -0.5680 N.ar  1 <1>  -0.6200 
 15 C       -4.5890    -3.4140     0.9410 C.ar  1 <1>  -0.1500 
 16 C       -5.9620    -2.7240    -1.1470 C.ar  1 <1>   0.4700 
 17 C       -5.3320    -4.3430     0.2520 C.ar  1 <1>   0.4100 
 18 N       -6.0340    -3.9950    -0.8100 N.ar  1 <1>  -0.6200 
 19 N       -5.3660    -5.6680     0.6450 N.pl3 1 <1>  -0.8380 
 20 C       -6.5870    -6.4930     0.4190 C.3   1 <1>   0.2090 
 21 C       -4.1010    -6.4310     0.8030 C.3   1 <1>   0.2090 
 22 C       -6.3860    -7.3970    -0.7980 C.3   1 <1>  -0.1600 
 23 C       -3.8880    -7.3270    -0.4180 C.3   1 <1>  -0.1600 
 24 C       -5.1080    -8.2190    -0.6450 C.3   1 <1>   0.2000 
 25 O       -4.9110    -8.9390    -1.8010 O.3   1 <1>  -0.6800 
 26 H       -2.1260     0.7040     2.1670 H     1 <1>   0.0000 
 27 H        0.8540     0.6680    -1.2280 H     1 <1>   0.1500 
 28 H       -2.0920     2.7010     1.0960 H     1 <1>   0.1500 
 29 H       -2.2980    -1.7030     2.5240 H     1 <1>   0.0000 
 30 H       -1.9330    -2.0440     0.7830 H     1 <1>   0.0000 
 31 H       -3.2710    -0.0360    -0.6140 H     1 <1>   0.0000 
 32 H       -4.0860     0.9420     0.6760 H     1 <1>   0.0000 
 33 H       -1.4230     4.8160     0.0940 H     1 <1>   0.1500 
 34 H        0.3780     4.8930    -1.5660 H     1 <1>   0.1500 
 35 H        2.4760     1.9600    -2.4770 H     1 <1>   0.0800 
 36 H        2.4830     3.7010    -2.3670 H     1 <1>   0.0800 
 37 H        1.4420     2.9030    -3.5260 H     1 <1>   0.0800 
 38 H       -4.0450    -3.6980     1.8160 H     1 <1>   0.1500 
 39 H       -6.5370    -2.4360    -2.0110 H     1 <1>   0.1500 
 40 H       -7.4430    -5.8570     0.2670 H     1 <1>   0.0800 
 41 H       -6.7710    -7.0910     1.2950 H     1 <1>   0.0800 
 42 H       -4.1600    -7.0300     1.6960 H     1 <1>   0.0800 
 43 H       -3.2660    -5.7590     0.9030 H     1 <1>   0.0800 
 44 H       -6.3290    -6.7750    -1.6730 H     1 <1>   0.0800 
 45 H       -7.2320    -8.0530    -0.8930 H     1 <1>   0.0800 
 46 H       -3.0170    -7.9370    -0.2620 H     1 <1>   0.0800 
 47 H       -3.7230    -6.6980    -1.2750 H     1 <1>   0.0800 
 48 H       -5.2110    -8.9210     0.1660 H     1 <1>   0.0800 
 49 H       -4.8500    -8.3270    -2.5590 H     1 <1>   0.4000 
@<TRIPOS>BOND
  1   1   2  1   
  2   1   3  1   
  3   2   4  ar  
  4   2   5  ar  
  5   3   6  1   
  6   3   7  1   
  7   3  26  1   
  8   4   8  ar  
  9   4  27  1   
 10   5   9  ar  
 11   5  28  1   
 12   6  10  1   
 13   6  29  1   
 14   6  30  1   
 15   7  10  1   
 16   7  31  1   
 17   7  32  1   
 18   8  11  ar  
 19   8  12  1   
 20   9  11  ar  
 21   9  33  1   
 22  10  13  1   
 23  11  34  1   
 24  12  35  1   
 25  12  36  1   
 26  12  37  1   
 27  13  14  ar  
 28  13  15  ar  
 29  14  16  ar  
 30  15  17  ar  
 31  15  38  1   
 32  16  18  ar  
 33  16  39  1   
 34  17  18  ar  
 35  17  19  1   
 36  19  20  1   
 37  19  21  1   
 38  20  22  1   
 39  20  40  1   
 40  20  41  1   
 41  21  23  1   
 42  21  42  1   
 43  21  43  1   
 44  22  24  1   
 45  22  44  1   
 46  22  45  1   
 47  23  24  1   
 48  23  46  1   
 49  23  47  1   
 50  24  25  1   
 51  24  48  1   
 52  25  49  1   
@<TRIPOS>SUBSTRUCTURE
  1 ****  13 GROUP 4 **** **** 0

# MOE 2024.06 (io_trps.svl 2023.06)
