@<TRIPOS>MOLECULE
NONAME
53 57 1 0 0 
SMALL
USER_CHARGES


@<TRIPOS>ATOM
  1 O       -1.7290     1.7180     1.5920 O.2   1 <1>  -0.5700 
  2 C       -2.0800     1.4910     0.4580 C.2   1 <1>   0.6300 
  3 N       -3.2620     0.8480     0.1810 N.am  1 <1>  -0.6600 
  4 C       -1.1590     1.9220    -0.6780 C.3   1 <1>  -0.1000 
  5 C       -3.7310     0.4650    -1.1800 C.3   1 <1>   0.1400 
  6 C       -4.2020     0.4510     1.2650 C.3   1 <1>   0.1400 
  7 C       -0.3710     3.2190    -0.6010 C.3   1 <1>   0.0000 
  8 C       -1.5310     3.0380    -1.5490 C.3   1 <1>  -0.2000 
  9 C       -3.9220    -1.0520    -1.2380 C.3   1 <1>  -0.1600 
 10 C       -4.3960    -1.0670     1.2340 C.3   1 <1>  -0.1600 
 11 C        0.8830     3.1170     0.2390 C.3   1 <1>  -0.2000 
 12 C        0.4470     4.4310    -0.2200 C.3   1 <1>  -0.2000 
 13 C       -4.8780    -1.5530    -0.1440 C.3   1 <1>   0.4240 
 14 O       -6.1120    -0.9350    -0.4240 O.3   1 <1>  -0.5600 
 15 C       -4.9870    -3.0920    -0.1900 C.ar  1 <1>  -0.1440 
 16 C       -7.2600    -1.5230     0.1040 C.3   1 <1>   0.1200 
 17 C       -6.2080    -3.7230    -0.3910 C.ar  1 <1>  -0.1440 
 18 C       -3.8590    -3.8840    -0.0220 C.ar  1 <1>  -0.1500 
 19 C       -7.4610    -2.8850    -0.5530 C.3   1 <1>  -0.0170 
 20 C       -6.2870    -5.1060    -0.4440 C.ar  1 <1>  -0.1500 
 21 C       -3.9200    -5.2670    -0.0590 C.ar  1 <1>   0.0820 
 22 C       -5.1520    -5.8980    -0.2910 C.ar  1 <1>   0.0820 
 23 O       -2.7230    -5.8920     0.1360 O.3   1 <1>  -0.3630 
 24 O       -5.2230    -7.2590    -0.3770 O.3   1 <1>  -0.3620 
 25 C       -2.6460    -7.1780     0.7110 C.3   1 <1>   0.0400 
 26 C       -6.3640    -7.9170    -0.8840 C.3   1 <1>   0.0400 
 27 H       -0.6090     1.0840    -1.0630 H     1 <1>   0.1000 
 28 H       -3.0290     0.7630    -1.9370 H     1 <1>   0.0800 
 29 H       -4.6660     0.9610    -1.3800 H     1 <1>   0.0800 
 30 H       -5.1450     0.9480     1.1130 H     1 <1>   0.0800 
 31 H       -3.8220     0.7460     2.2290 H     1 <1>   0.0800 
 32 H       -2.4020     3.6370    -1.3480 H     1 <1>   0.1000 
 33 H       -1.3000     3.0120    -2.5990 H     1 <1>   0.1000 
 34 H       -2.9600    -1.5160    -1.1300 H     1 <1>   0.0800 
 35 H       -4.3110    -1.3350    -2.1990 H     1 <1>   0.0800 
 36 H       -5.0900    -1.3650     1.9950 H     1 <1>   0.0800 
 37 H       -3.4550    -1.5260     1.4700 H     1 <1>   0.0800 
 38 H        1.7540     2.6700    -0.2070 H     1 <1>   0.1000 
 39 H        0.7560     2.8140     1.2650 H     1 <1>   0.1000 
 40 H       -0.0060     5.1210     0.4700 H     1 <1>   0.1000 
 41 H        0.9510     4.9410    -1.0210 H     1 <1>   0.1000 
 42 H       -8.0920    -0.8750    -0.1110 H     1 <1>   0.0800 
 43 H       -7.1530    -1.6190     1.1700 H     1 <1>   0.0800 
 44 H       -2.8980    -3.4350     0.1470 H     1 <1>   0.1500 
 45 H       -7.6740    -2.7500    -1.5980 H     1 <1>   0.0800 
 46 H       -8.3000    -3.3770    -0.0960 H     1 <1>   0.0800 
 47 H       -7.2490    -5.5500    -0.6060 H     1 <1>   0.1500 
 48 H       -1.6440    -7.3240     1.0710 H     1 <1>   0.0800 
 49 H       -2.8700    -7.9090    -0.0440 H     1 <1>   0.0800 
 50 H       -3.3450    -7.2410     1.5260 H     1 <1>   0.0800 
 51 H       -6.1330    -8.9640    -0.9690 H     1 <1>   0.0800 
 52 H       -6.5970    -7.5150    -1.8540 H     1 <1>   0.0800 
 53 H       -7.1810    -7.7790    -0.1980 H     1 <1>   0.0800 
@<TRIPOS>BOND
  1   1   2  2   
  2   2   3  am  
  3   2   4  1   
  4   3   5  1   
  5   3   6  1   
  6   4   7  1   
  7   4   8  1   
  8   4  27  1   
  9   5   9  1   
 10   5  28  1   
 11   5  29  1   
 12   6  10  1   
 13   6  30  1   
 14   6  31  1   
 15   7   8  1   
 16   7  11  1   
 17   7  12  1   
 18   8  32  1   
 19   8  33  1   
 20   9  13  1   
 21   9  34  1   
 22   9  35  1   
 23  10  13  1   
 24  10  36  1   
 25  10  37  1   
 26  11  12  1   
 27  11  38  1   
 28  11  39  1   
 29  12  40  1   
 30  12  41  1   
 31  13  14  1   
 32  13  15  1   
 33  14  16  1   
 34  15  17  ar  
 35  15  18  ar  
 36  16  19  1   
 37  16  42  1   
 38  16  43  1   
 39  17  19  1   
 40  17  20  ar  
 41  18  21  ar  
 42  18  44  1   
 43  19  45  1   
 44  19  46  1   
 45  20  22  ar  
 46  20  47  1   
 47  21  22  ar  
 48  21  23  1   
 49  22  24  1   
 50  23  25  1   
 51  24  26  1   
 52  25  48  1   
 53  25  49  1   
 54  25  50  1   
 55  26  51  1   
 56  26  52  1   
 57  26  53  1   
@<TRIPOS>SUBSTRUCTURE
  1 ****  13 GROUP 4 **** **** 0

# MOE 2024.06 (io_trps.svl 2023.06)
