@<TRIPOS>MOLECULE
NONAME
39 41 1 0 0 
SMALL
USER_CHARGES


@<TRIPOS>ATOM
  1 CL       5.2900     2.6750    -1.3170 Cl    1 <1>  -0.1770 
  2 C        3.8100     3.2950    -0.6330 C.ar  1 <1>   0.1770 
  3 C        2.9650     4.0500    -1.4230 C.ar  1 <1>  -0.1500 
  4 C        3.5140     3.0330     0.6910 C.ar  1 <1>  -0.1500 
  5 C        1.7970     4.5660    -0.8790 C.ar  1 <1>  -0.1440 
  6 C        2.3460     3.5400     1.2330 C.ar  1 <1>  -0.1500 
  7 C        1.4940     4.3030     0.4500 C.ar  1 <1>  -0.1500 
  8 C        0.8770     5.4490    -1.7220 C.3   1 <1>   0.0450 
  9 C        1.2910     6.9130    -1.6890 C.2   1 <1>   0.5690 
 10 O        0.6450     7.7070    -2.3280 O.2   1 <1>  -0.5700 
 11 N        2.3820     7.2500    -0.9350 N.am  1 <1>  -0.4940 
 12 C        3.0240     8.4960    -0.7470 C.2   1 <1>  -0.0880 
 13 N        4.1640     8.6750    -0.0230 N.pl3 1 <1>   0.3140 
 14 C        2.6760     9.7150    -1.2190 C.2   1 <1>  -0.1500 
 15 N        4.5450     9.9780    -0.0260 N.2   1 <1>  -0.7070 
 16 C        4.9130     7.5890     0.6790 C.3   1 <1>   0.1760 
 17 C        3.6480    10.5830    -0.7420 C.2   1 <1>   0.1390 
 18 C        5.9520     8.0610     1.6990 C.3   1 <1>  -0.1600 
 19 C        5.7300     6.7290    -0.2850 C.3   1 <1>  -0.1600 
 20 C        6.8830     6.8600     1.8800 C.3   1 <1>  -0.1600 
 21 C        6.7780     6.0340     0.5900 C.3   1 <1>  -0.1600 
 22 H        3.2300     4.2320    -2.4500 H     1 <1>   0.1500 
 23 H        4.1880     2.4390     1.2840 H     1 <1>   0.1500 
 24 H        2.0990     3.3400     2.2620 H     1 <1>   0.1500 
 25 H        0.5890     4.6930     0.8880 H     1 <1>   0.1500 
 26 H       -0.1340     5.3740    -1.3670 H     1 <1>   0.0800 
 27 H        0.8870     5.1170    -2.7440 H     1 <1>   0.0800 
 28 H        2.8000     6.4490    -0.4570 H     1 <1>   0.3700 
 29 H        1.8330     9.9740    -1.8330 H     1 <1>   0.1500 
 30 H        4.2010     6.9660     1.1890 H     1 <1>   0.0800 
 31 H        3.6650    11.6420    -0.9400 H     1 <1>   0.1500 
 32 H        5.4960     8.3640     2.6250 H     1 <1>   0.0800 
 33 H        6.5210     8.8800     1.2930 H     1 <1>   0.0800 
 34 H        6.2320     7.3690    -0.9920 H     1 <1>   0.0800 
 35 H        5.1230     6.0180    -0.8150 H     1 <1>   0.0800 
 36 H        6.5540     6.2660     2.7160 H     1 <1>   0.0800 
 37 H        7.8950     7.1820     2.0620 H     1 <1>   0.0800 
 38 H        7.7250     5.9870     0.0800 H     1 <1>   0.0800 
 39 H        6.4620     5.0320     0.8240 H     1 <1>   0.0800 
@<TRIPOS>BOND
  1   1   2  1   
  2   2   3  ar  
  3   2   4  ar  
  4   3   5  ar  
  5   3  22  1   
  6   4   6  ar  
  7   4  23  1   
  8   5   7  ar  
  9   5   8  1   
 10   6   7  ar  
 11   6  24  1   
 12   7  25  1   
 13   8   9  1   
 14   8  26  1   
 15   8  27  1   
 16   9  10  2   
 17   9  11  am  
 18  11  12  1   
 19  11  28  1   
 20  12  13  1   
 21  12  14  2   
 22  13  15  1   
 23  13  16  1   
 24  14  17  1   
 25  14  29  1   
 26  15  17  2   
 27  16  18  1   
 28  16  19  1   
 29  16  30  1   
 30  17  31  1   
 31  18  20  1   
 32  18  32  1   
 33  18  33  1   
 34  19  21  1   
 35  19  34  1   
 36  19  35  1   
 37  20  21  1   
 38  20  36  1   
 39  20  37  1   
 40  21  38  1   
 41  21  39  1   
@<TRIPOS>SUBSTRUCTURE
  1 ****  11 GROUP 4 **** **** 0

# MOE 2024.06 (io_trps.svl 2023.06)
