@<TRIPOS>MOLECULE
NONAME
46 47 1 0 0 
SMALL
USER_CHARGES


@<TRIPOS>ATOM
  1 CL       0.5980     0.1660    -2.2770 Cl    1 <1>  -0.1770 
  2 C        1.6380    -0.7860    -1.2460 C.ar  1 <1>   0.1770 
  3 C        1.4610    -2.1490    -1.1810 C.ar  1 <1>  -0.1500 
  4 C        2.6200    -0.1540    -0.5070 C.ar  1 <1>  -0.1500 
  5 C        2.2670    -2.9350    -0.3550 C.ar  1 <1>   0.0860 
  6 C        3.4390    -0.9160     0.3010 C.ar  1 <1>  -0.1500 
  7 C        3.2900    -2.3020     0.3790 C.ar  1 <1>   0.1000 
  8 C        2.0400    -4.3630    -0.2690 C.2   1 <1>   0.5440 
  9 N        4.1440    -3.0490     1.1820 N.pl3 1 <1>  -0.8690 
 10 O        2.9660    -5.1360    -0.4500 O.2   1 <1>  -0.5700 
 11 N        0.7900    -4.8790     0.0040 N.am  1 <1>  -0.6600 
 12 C        5.5880    -2.7270     1.2830 C.3   1 <1>   0.1290 
 13 C        0.5030    -6.3430    -0.1850 C.3   1 <1>   0.1400 
 14 C       -0.3130    -4.0600     0.5980 C.3   1 <1>   0.1400 
 15 C       -0.9970    -6.5500    -0.4260 C.3   1 <1>   0.2000 
 16 C       -1.2010    -4.9110     1.5140 C.3   1 <1>  -0.1600 
 17 O       -1.2380    -7.8550    -0.8180 O.3   1 <1>  -0.6800 
 18 C       -1.8340    -6.1670     0.8330 C.3   1 <1>  -0.1060 
 19 C       -1.8320    -7.2960     1.8960 C.2   1 <1>   0.9060 
 20 C       -3.3140    -5.8970     0.4250 C.3   1 <1>  -0.1600 
 21 O       -2.3840    -7.0840     2.9820 O.co2 1 <1>  -0.9000 
 22 O       -1.2870    -8.3870     1.6650 O.co2 1 <1>  -0.9000 
 23 C       -3.5750    -4.6910    -0.4980 C.3   1 <1>  -0.1600 
 24 C       -5.0700    -4.5570    -0.8020 C.3   1 <1>  -0.2400 
 25 H        0.6940    -2.6140    -1.7730 H     1 <1>   0.1500 
 26 H        2.7350     0.9130    -0.5680 H     1 <1>   0.1500 
 27 H        4.2020    -0.4350     0.8850 H     1 <1>   0.1500 
 28 H        3.9970    -4.0690     1.0500 H     1 <1>   0.4000 
 29 H        5.9570    -2.3800     0.3320 H     1 <1>   0.0800 
 30 H        6.1360    -3.6070     1.5700 H     1 <1>   0.0800 
 31 H        5.7400    -1.9630     2.0260 H     1 <1>   0.0800 
 32 H        1.0550    -6.7110    -1.0320 H     1 <1>   0.0800 
 33 H        0.8100    -6.8830     0.6940 H     1 <1>   0.0800 
 34 H        0.1030    -3.2510     1.1730 H     1 <1>   0.0800 
 35 H       -0.9070    -3.6440    -0.1960 H     1 <1>   0.0800 
 36 H       -1.2640    -5.9390    -1.2660 H     1 <1>   0.0800 
 37 H       -0.5760    -5.2310     2.3320 H     1 <1>   0.0800 
 38 H       -1.9710    -4.3040     1.9550 H     1 <1>   0.0800 
 39 H       -1.2400    -8.3820     0.0420 H     1 <1>   0.4000 
 40 H       -3.6960    -6.7870    -0.0450 H     1 <1>   0.0800 
 41 H       -3.8880    -5.7580     1.3270 H     1 <1>   0.0800 
 42 H       -3.2400    -3.7850    -0.0260 H     1 <1>   0.0800 
 43 H       -3.0480    -4.8060    -1.4280 H     1 <1>   0.0800 
 44 H       -5.6250    -4.4190     0.1090 H     1 <1>   0.0800 
 45 H       -5.4300    -5.4430    -1.2950 H     1 <1>   0.0800 
 46 H       -5.2430    -3.7120    -1.4440 H     1 <1>   0.0800 
@<TRIPOS>BOND
  1   1   2  1   
  2   2   3  ar  
  3   2   4  ar  
  4   3   5  ar  
  5   3  25  1   
  6   4   6  ar  
  7   4  26  1   
  8   5   7  ar  
  9   5   8  1   
 10   6   7  ar  
 11   6  27  1   
 12   7   9  1   
 13   8  10  2   
 14   8  11  am  
 15   9  12  1   
 16   9  28  1   
 17  11  13  1   
 18  11  14  1   
 19  12  29  1   
 20  12  30  1   
 21  12  31  1   
 22  13  15  1   
 23  13  32  1   
 24  13  33  1   
 25  14  16  1   
 26  14  34  1   
 27  14  35  1   
 28  15  17  1   
 29  15  18  1   
 30  15  36  1   
 31  16  18  1   
 32  16  37  1   
 33  16  38  1   
 34  17  39  1   
 35  18  19  1   
 36  18  20  1   
 37  19  21  ar  
 38  19  22  ar  
 39  20  23  1   
 40  20  40  1   
 41  20  41  1   
 42  23  24  1   
 43  23  42  1   
 44  23  43  1   
 45  24  44  1   
 46  24  45  1   
 47  24  46  1   
@<TRIPOS>SUBSTRUCTURE
  1 ****  11 GROUP 4 **** **** 0

# MOE 2024.06 (io_trps.svl 2023.06)
