@<TRIPOS>MOLECULE
NONAME
48 51 1 0 0 
SMALL
USER_CHARGES


@<TRIPOS>ATOM
  1 O       -0.6140     0.0950    -0.1960 O.2   1 <1>  -0.5700 
  2 C       -1.5820     0.7470     0.1490 C.2   1 <1>   0.5440 
  3 N       -2.7370     0.0800     0.4940 N.am  1 <1>  -0.6600 
  4 C       -1.5050     2.1970     0.1630 C.ar  1 <1>   0.0860 
  5 C       -2.7600    -1.4010     0.7130 C.3   1 <1>   0.1400 
  6 C       -4.1030     0.6440     0.2680 C.3   1 <1>   0.1400 
  7 C       -2.0040     2.9450     1.2290 C.ar  1 <1>  -0.1500 
  8 C       -0.9290     2.8950    -0.8960 C.ar  1 <1>  -0.1500 
  9 C       -3.5830    -2.1060    -0.3800 C.3   1 <1>   0.3440 
 10 C       -4.8620    -0.1690    -0.8070 C.3   1 <1>   0.2950 
 11 C       -1.9480     4.3270     1.2300 C.ar  1 <1>  -0.1500 
 12 C       -0.8710     4.2770    -0.9010 C.ar  1 <1>  -0.1500 
 13 O       -4.8600    -1.5260    -0.4710 O.3   1 <1>  -0.5600 
 14 C       -3.7140    -3.5960    -0.0760 C.ar  1 <1>  -0.1440 
 15 C       -6.3320     0.2400    -1.0030 C.3   1 <1>  -0.1950 
 16 C       -1.3840     5.0050     0.1600 C.ar  1 <1>  -0.1430 
 17 C       -2.7470    -4.4750    -0.5440 C.ar  1 <1>  -0.1500 
 18 C       -4.7710    -4.0960     0.6730 C.ar  1 <1>  -0.1500 
 19 C       -6.8380     1.6400    -0.8200 C.3   1 <1>  -0.2000 
 20 C       -7.2700     0.5510     0.1230 C.3   1 <1>  -0.2000 
 21 C       -1.3200     6.5230     0.1490 C.3   1 <1>   0.2630 
 22 C       -2.8350    -5.8290    -0.2700 C.ar  1 <1>  -0.1500 
 23 C       -4.8610    -5.4490     0.9480 C.ar  1 <1>  -0.1500 
 24 O        0.0090     6.8910     0.2040 O.3   1 <1>  -0.6800 
 25 C       -3.8920    -6.3170     0.4770 C.ar  1 <1>  -0.1500 
 26 H       -1.7620    -1.8030     0.7190 H     1 <1>   0.0800 
 27 H       -3.2000    -1.6120     1.6720 H     1 <1>   0.0800 
 28 H       -4.6480     0.6180     1.1940 H     1 <1>   0.0800 
 29 H       -4.0390     1.6660    -0.0550 H     1 <1>   0.0800 
 30 H       -2.4360     2.4300     2.0690 H     1 <1>   0.1500 
 31 H       -0.5190     2.3390    -1.7220 H     1 <1>   0.1500 
 32 H       -3.0940    -1.9830    -1.3320 H     1 <1>   0.0800 
 33 H       -4.3520    -0.0590    -1.7490 H     1 <1>   0.0800 
 34 H       -2.3440     4.8730     2.0690 H     1 <1>   0.1500 
 35 H       -0.4190     4.7900    -1.7340 H     1 <1>   0.1500 
 36 H       -6.7550    -0.3030    -1.8300 H     1 <1>   0.1000 
 37 H       -1.9180    -4.1090    -1.1250 H     1 <1>   0.1500 
 38 H       -5.5330    -3.4290     1.0410 H     1 <1>   0.1500 
 39 H       -6.2010     2.4160    -0.4330 H     1 <1>   0.1000 
 40 H       -7.5570     2.0220    -1.5240 H     1 <1>   0.1000 
 41 H       -8.2770     0.1750     0.0600 H     1 <1>   0.1000 
 42 H       -6.9040     0.5550     1.1350 H     1 <1>   0.1000 
 43 H       -1.8210     6.9430     1.0040 H     1 <1>   0.0800 
 44 H       -1.7460     6.9270    -0.7520 H     1 <1>   0.0800 
 45 H       -2.0800    -6.5020    -0.6370 H     1 <1>   0.1500 
 46 H       -5.6860    -5.8250     1.5270 H     1 <1>   0.1500 
 47 H        0.4860     6.2670     0.7840 H     1 <1>   0.4000 
 48 H       -3.9610    -7.3690     0.6910 H     1 <1>   0.1500 
@<TRIPOS>BOND
  1   1   2  2   
  2   2   3  am  
  3   2   4  1   
  4   3   5  1   
  5   3   6  1   
  6   4   7  ar  
  7   4   8  ar  
  8   5   9  1   
  9   5  26  1   
 10   5  27  1   
 11   6  10  1   
 12   6  28  1   
 13   6  29  1   
 14   7  11  ar  
 15   7  30  1   
 16   8  12  ar  
 17   8  31  1   
 18   9  13  1   
 19   9  14  1   
 20   9  32  1   
 21  10  13  1   
 22  10  15  1   
 23  10  33  1   
 24  11  16  ar  
 25  11  34  1   
 26  12  16  ar  
 27  12  35  1   
 28  14  17  ar  
 29  14  18  ar  
 30  15  19  1   
 31  15  20  1   
 32  15  36  1   
 33  16  21  1   
 34  17  22  ar  
 35  17  37  1   
 36  18  23  ar  
 37  18  38  1   
 38  19  20  1   
 39  19  39  1   
 40  19  40  1   
 41  20  41  1   
 42  20  42  1   
 43  21  24  1   
 44  21  43  1   
 45  21  44  1   
 46  22  25  ar  
 47  22  45  1   
 48  23  25  ar  
 49  23  46  1   
 50  24  47  1   
 51  25  48  1   
@<TRIPOS>SUBSTRUCTURE
  1 ****   3 GROUP 4 **** **** 0

# MOE 2024.06 (io_trps.svl 2023.06)
