@<TRIPOS>MOLECULE
NONAME
58 61 1 0 0 
SMALL
USER_CHARGES


@<TRIPOS>ATOM
  1 CL      -2.9590    -2.6940    -2.0230 Cl    1 <1>  -0.1770 
  2 C       -3.2250    -1.0730    -1.4210 C.ar  1 <1>   0.1770 
  3 C       -3.4000    -0.8650    -0.0610 C.ar  1 <1>  -0.1440 
  4 C       -3.2640    -0.0300    -2.3250 C.ar  1 <1>  -0.1500 
  5 C       -3.6330     0.4260     0.3900 C.ar  1 <1>  -0.1500 
  6 C       -3.3420    -2.0200     0.9200 C.3   1 <1>   0.4870 
  7 C       -3.4840     1.2580    -1.8680 C.ar  1 <1>   0.0820 
  8 C       -3.6960     1.4850    -0.5020 C.ar  1 <1>   0.0820 
  9 N       -4.5130    -2.9090     0.7010 N.4   1 <1>  -0.9590 
 10 O       -3.4740     2.2510    -2.7850 O.3   1 <1>  -0.3620 
 11 O       -3.9670     2.7030     0.0310 O.3   1 <1>  -0.3620 
 12 C       -5.8050    -2.2080     1.0040 C.3   1 <1>   0.3430 
 13 C       -4.4440    -4.1060     1.5940 C.3   1 <1>   0.3430 
 14 C       -2.3390     3.0900    -2.7730 C.3   1 <1>   0.0400 
 15 C       -5.0070     3.4710    -0.5370 C.3   1 <1>   0.1200 
 16 C       -6.3280    -2.8290     2.3040 C.3   1 <1>   0.2000 
 17 C       -5.8340    -4.2690     2.2210 C.3   1 <1>  -0.0800 
 18 C       -5.4620     4.4900     0.5030 C.3   1 <1>  -0.2400 
 19 O       -5.6800    -2.2120     3.3680 O.3   1 <1>  -0.6800 
 20 C       -6.7840    -5.1600     1.3890 C.3   1 <1>  -0.0170 
 21 C       -6.0900    -6.4530     0.9740 C.ar  1 <1>  -0.1440 
 22 C       -5.4330    -6.6160    -0.2720 C.ar  1 <1>   0.0000 
 23 C       -6.0610    -7.5030     1.8450 C.ar  1 <1>  -0.1500 
 24 C       -4.7380    -7.8320    -0.4900 C.ar  1 <1>   0.3100 
 25 C       -5.4090    -5.6510    -1.3080 C.ar  1 <1>  -0.1500 
 26 C       -5.3730    -8.6760     1.5150 C.ar  1 <1>   0.1600 
 27 N       -4.7220    -8.8450     0.4100 N.ar  1 <1>  -0.6200 
 28 C       -4.0230    -8.0040    -1.6850 C.ar  1 <1>  -0.1500 
 29 C       -4.7050    -5.8520    -2.4640 C.ar  1 <1>  -0.1500 
 30 C       -3.9960    -7.0400    -2.6540 C.ar  1 <1>  -0.1500 
 31 H       -3.1180    -0.2080    -3.3750 H     1 <1>   0.1500 
 32 H       -3.7740     0.6370     1.4370 H     1 <1>   0.1500 
 33 H       -3.3520    -1.6430     1.9310 H     1 <1>   0.0800 
 34 H       -2.4270    -2.5700     0.7680 H     1 <1>   0.0800 
 35 H       -4.4840    -3.2060    -0.2850 H     1 <1>   0.4500 
 36 H       -5.6800    -1.1430     1.1140 H     1 <1>   0.0800 
 37 H       -6.5090    -2.3980     0.2120 H     1 <1>   0.0800 
 38 H       -4.1280    -4.9860     1.0570 H     1 <1>   0.0800 
 39 H       -3.7380    -3.9200     2.3870 H     1 <1>   0.0800 
 40 H       -2.4610     3.8340    -3.5390 H     1 <1>   0.0800 
 41 H       -1.4650     2.4950    -2.9740 H     1 <1>   0.0800 
 42 H       -2.2560     3.5630    -1.8110 H     1 <1>   0.0800 
 43 H       -4.6340     3.9700    -1.4130 H     1 <1>   0.0800 
 44 H       -5.8150     2.8140    -0.8090 H     1 <1>   0.0800 
 45 H       -7.3930    -2.7200     2.4280 H     1 <1>   0.0800 
 46 H       -5.7380    -4.7090     3.1990 H     1 <1>   0.0800 
 47 H       -4.6440     5.1340     0.7710 H     1 <1>   0.0800 
 48 H       -5.8260     3.9880     1.3810 H     1 <1>   0.0800 
 49 H       -6.2540     5.0930     0.0980 H     1 <1>   0.0800 
 50 H       -6.1080    -2.4320     4.2230 H     1 <1>   0.4000 
 51 H       -7.1680    -4.6450     0.5290 H     1 <1>   0.0800 
 52 H       -7.6410    -5.4060     1.9930 H     1 <1>   0.0800 
 53 H       -6.5510    -7.4630     2.8020 H     1 <1>   0.1500 
 54 H       -5.9620    -4.7400    -1.2090 H     1 <1>   0.1500 
 55 H       -5.3780    -9.4840     2.2280 H     1 <1>   0.1500 
 56 H       -3.4940    -8.9310    -1.8150 H     1 <1>   0.1500 
 57 H       -4.6900    -5.1120    -3.2470 H     1 <1>   0.1500 
 58 H       -3.4430    -7.1880    -3.5660 H     1 <1>   0.1500 
@<TRIPOS>BOND
  1   1   2  1   
  2   2   3  ar  
  3   2   4  ar  
  4   3   5  ar  
  5   3   6  1   
  6   4   7  ar  
  7   4  31  1   
  8   5   8  ar  
  9   5  32  1   
 10   6   9  1   
 11   6  33  1   
 12   6  34  1   
 13   7   8  ar  
 14   7  10  1   
 15   8  11  1   
 16   9  12  1   
 17   9  13  1   
 18   9  35  1   
 19  10  14  1   
 20  11  15  1   
 21  12  16  1   
 22  12  36  1   
 23  12  37  1   
 24  13  17  1   
 25  13  38  1   
 26  13  39  1   
 27  14  40  1   
 28  14  41  1   
 29  14  42  1   
 30  15  18  1   
 31  15  43  1   
 32  15  44  1   
 33  16  17  1   
 34  16  19  1   
 35  16  45  1   
 36  17  20  1   
 37  17  46  1   
 38  18  47  1   
 39  18  48  1   
 40  18  49  1   
 41  19  50  1   
 42  20  21  1   
 43  20  51  1   
 44  20  52  1   
 45  21  22  ar  
 46  21  23  ar  
 47  22  24  ar  
 48  22  25  ar  
 49  23  26  ar  
 50  23  53  1   
 51  24  27  ar  
 52  24  28  ar  
 53  25  29  ar  
 54  25  54  1   
 55  26  27  ar  
 56  26  55  1   
 57  28  30  ar  
 58  28  56  1   
 59  29  30  ar  
 60  29  57  1   
 61  30  58  1   
@<TRIPOS>SUBSTRUCTURE
  1 ****   9 GROUP 4 **** **** 0

# MOE 2024.06 (io_trps.svl 2023.06)
