@<TRIPOS>MOLECULE
NONAME
51 53 1 0 0 
SMALL
USER_CHARGES


@<TRIPOS>ATOM
  1 O        0.6460     0.6920     0.3500 O.2   1 <1>  -0.5700 
  2 C        0.4830     1.8800     0.5030 C.2   1 <1>   0.5690 
  3 N       -0.7290     2.4840     0.2910 N.am  1 <1>  -0.6600 
  4 C        1.6920     2.7210     0.9230 C.3   1 <1>   0.1810 
  5 C       -0.9040     3.9610     0.4940 C.3   1 <1>   0.3640 
  6 C       -1.9670     1.7060    -0.0030 C.3   1 <1>   0.0600 
  7 O        1.3390     3.9640     1.4770 O.3   1 <1>  -0.5600 
  8 C       -1.6380     4.5770    -0.7070 C.ar  1 <1>  -0.1440 
  9 C        0.4380     4.7040     0.6790 C.3   1 <1>   0.2610 
 10 C       -2.7560     5.3980    -0.5650 C.ar  1 <1>  -0.1440 
 11 C       -1.1500     4.3190    -1.9850 C.ar  1 <1>  -0.1500 
 12 C        0.1700     6.0950     1.2830 C.2   1 <1>   0.5690 
 13 C       -3.3450     5.9530    -1.6920 C.ar  1 <1>  -0.1500 
 14 C       -3.3730     5.7180     0.7910 C.3   1 <1>  -0.0960 
 15 C       -1.7440     4.8750    -3.1020 C.ar  1 <1>  -0.1500 
 16 O       -0.2940     6.1430     2.4000 O.2   1 <1>  -0.5700 
 17 N        0.4280     7.2580     0.5900 N.am  1 <1>  -0.6600 
 18 C       -2.8430     5.6970    -2.9540 C.ar  1 <1>  -0.1500 
 19 C        0.8320     7.2980    -0.8460 C.3   1 <1>   0.3200 
 20 C        0.2770     8.5920     1.2480 C.3   1 <1>   0.1400 
 21 C        2.2830     6.8820    -1.0300 C.2   1 <1>  -0.0400 
 22 C        1.6180     9.0580     1.8230 C.3   1 <1>   0.1200 
 23 O        2.7690     6.8620    -2.2560 O.3   1 <1>  -0.2800 
 24 C        3.2300     6.4960    -0.1450 C.2   1 <1>  -0.1500 
 25 O        1.5050    10.3680     2.2690 O.3   1 <1>  -0.6800 
 26 C        4.0250     6.4700    -2.1840 C.2   1 <1>  -0.0100 
 27 C        4.3750     6.2260    -0.9040 C.2   1 <1>  -0.1500 
 28 H        2.3220     2.8950     0.0690 H     1 <1>   0.0800 
 29 H        2.2560     2.1830     1.6640 H     1 <1>   0.0800 
 30 H       -1.4780     4.0900     1.3920 H     1 <1>   0.0800 
 31 H       -2.7370     1.9610     0.7040 H     1 <1>   0.0800 
 32 H       -1.7770     0.6480     0.0630 H     1 <1>   0.0800 
 33 H       -2.3150     1.9290    -0.9970 H     1 <1>   0.0800 
 34 H        0.9020     4.8090    -0.2800 H     1 <1>   0.0800 
 35 H       -0.2980     3.6740    -2.1210 H     1 <1>   0.1500 
 36 H       -4.2060     6.5910    -1.5970 H     1 <1>   0.1500 
 37 H       -4.2890     6.2710     0.6780 H     1 <1>   0.0800 
 38 H       -2.7010     6.3130     1.3810 H     1 <1>   0.0800 
 39 H       -3.6030     4.8130     1.3230 H     1 <1>   0.0800 
 40 H       -1.3540     4.6660    -4.0830 H     1 <1>   0.1500 
 41 H       -3.3110     6.1330    -3.8200 H     1 <1>   0.1500 
 42 H        0.1960     6.6470    -1.4190 H     1 <1>   0.0800 
 43 H        0.7050     8.2910    -1.2390 H     1 <1>   0.0800 
 44 H       -0.0880     9.3070     0.5330 H     1 <1>   0.0800 
 45 H       -0.4400     8.5280     2.0490 H     1 <1>   0.0800 
 46 H        2.3960     9.0250     1.0800 H     1 <1>   0.0800 
 47 H        1.8910     8.4440     2.6640 H     1 <1>   0.0800 
 48 H        3.1580     6.3990     0.9260 H     1 <1>   0.1500 
 49 H        1.4270    10.9900     1.5210 H     1 <1>   0.4000 
 50 H        4.5990     6.3920    -3.0910 H     1 <1>   0.1500 
 51 H        5.3210     5.8950    -0.5130 H     1 <1>   0.1500 
@<TRIPOS>BOND
  1   1   2  2   
  2   2   3  am  
  3   2   4  1   
  4   3   5  1   
  5   3   6  1   
  6   4   7  1   
  7   4  28  1   
  8   4  29  1   
  9   5   8  1   
 10   5   9  1   
 11   5  30  1   
 12   6  31  1   
 13   6  32  1   
 14   6  33  1   
 15   7   9  1   
 16   8  10  ar  
 17   8  11  ar  
 18   9  12  1   
 19   9  34  1   
 20  10  13  ar  
 21  10  14  1   
 22  11  15  ar  
 23  11  35  1   
 24  12  16  2   
 25  12  17  am  
 26  13  18  ar  
 27  13  36  1   
 28  14  37  1   
 29  14  38  1   
 30  14  39  1   
 31  15  18  ar  
 32  15  40  1   
 33  17  19  1   
 34  17  20  1   
 35  18  41  1   
 36  19  21  1   
 37  19  42  1   
 38  19  43  1   
 39  20  22  1   
 40  20  44  1   
 41  20  45  1   
 42  21  23  1   
 43  21  24  2   
 44  22  25  1   
 45  22  46  1   
 46  22  47  1   
 47  23  26  1   
 48  24  27  1   
 49  24  48  1   
 50  25  49  1   
 51  26  27  2   
 52  26  50  1   
 53  27  51  1   
@<TRIPOS>SUBSTRUCTURE
  1 ****   9 GROUP 4 **** **** 0

# MOE 2024.06 (io_trps.svl 2023.06)
