@<TRIPOS>MOLECULE
NONAME
58 60 1 0 0 
SMALL
USER_CHARGES


@<TRIPOS>ATOM
  1 O       -0.9950     0.9080     0.3990 O.2   1 <1>  -0.5700 
  2 C       -0.7240     2.0730     0.2670 C.2   1 <1>   0.5690 
  3 N       -1.3680     3.0180     0.9850 N.am  1 <1>  -0.7300 
  4 C        0.3390     2.5080    -0.7420 C.3   1 <1>   0.1810 
  5 C       -1.1040     4.4730     0.8700 C.3   1 <1>   0.3640 
  6 O        0.8850     3.7730    -0.4320 O.3   1 <1>  -0.5600 
  7 C       -2.4350     5.1740     0.6280 C.ar  1 <1>  -0.1440 
  8 C       -0.0750     4.8100    -0.2470 C.3   1 <1>   0.2610 
  9 C       -3.3130     4.7240    -0.3510 C.ar  1 <1>   0.1600 
 10 C       -2.7940     6.2820     1.3720 C.ar  1 <1>  -0.1500 
 11 C        0.6490     6.1250     0.0750 C.2   1 <1>   0.5690 
 12 N       -4.4780     5.2780    -0.6420 N.ar  1 <1>  -0.6200 
 13 C       -4.0070     6.8690     1.0850 C.ar  1 <1>  -0.1500 
 14 O        0.0230     7.1230     0.3410 O.2   1 <1>  -0.5700 
 15 N        2.0090     6.1590     0.0480 N.am  1 <1>  -0.7300 
 16 C       -4.7990     6.3360     0.0830 C.ar  1 <1>   0.1600 
 17 C        2.8350     7.3520     0.3910 C.3   1 <1>   0.1400 
 18 C        3.2840     8.1950    -0.8450 C.3   1 <1>   0.5030 
 19 N        3.9440     9.4790    -0.4310 N.4   1 <1>  -0.9590 
 20 C        2.0980     8.5540    -1.7550 C.3   1 <1>  -0.2400 
 21 C        4.2800     7.3920    -1.6940 C.3   1 <1>  -0.2400 
 22 C        5.2130     9.2990     0.3460 C.3   1 <1>   0.3430 
 23 C        3.0230    10.4250     0.2840 C.3   1 <1>   0.3430 
 24 C        5.9240    10.6420     0.5120 C.3   1 <1>  -0.1600 
 25 C        3.6930    11.7890     0.4480 C.3   1 <1>  -0.1600 
 26 C        5.0260    11.6780     1.1990 C.3   1 <1>  -0.0800 
 27 C        5.7240    13.0400     1.2660 C.3   1 <1>  -0.2400 
 28 H       -2.0890     2.7190     1.6450 H     1 <1>   0.3700 
 29 H       -0.0920     2.5500    -1.7260 H     1 <1>   0.0800 
 30 H        1.1410     1.7930    -0.7430 H     1 <1>   0.0800 
 31 H       -0.7020     4.8070     1.8120 H     1 <1>   0.0800 
 32 H       -0.5910     4.9400    -1.1810 H     1 <1>   0.0800 
 33 H       -3.0480     3.8560    -0.9310 H     1 <1>   0.1500 
 34 H       -2.1570     6.6850     2.1410 H     1 <1>   0.1500 
 35 H       -4.3380     7.7350     1.6300 H     1 <1>   0.1500 
 36 H        2.4850     5.2690    -0.1550 H     1 <1>   0.3700 
 37 H       -5.7440     6.8050    -0.1340 H     1 <1>   0.1500 
 38 H        2.2550     7.9740     1.0500 H     1 <1>   0.0800 
 39 H        3.6990     7.0150     0.9360 H     1 <1>   0.0800 
 40 H        4.2040     9.9450    -1.3070 H     1 <1>   0.4500 
 41 H        1.7170     7.6690    -2.2330 H     1 <1>   0.0800 
 42 H        2.3920     9.2380    -2.5300 H     1 <1>   0.0800 
 43 H        1.2800     8.9710    -1.1960 H     1 <1>   0.0800 
 44 H        3.7850     6.5440    -2.1340 H     1 <1>   0.0800 
 45 H        5.0900     7.0020    -1.1040 H     1 <1>   0.0800 
 46 H        4.6750     7.9890    -2.4960 H     1 <1>   0.0800 
 47 H        4.9930     8.8890     1.3190 H     1 <1>   0.0800 
 48 H        5.8770     8.6220    -0.1650 H     1 <1>   0.0800 
 49 H        2.1090    10.5580    -0.2700 H     1 <1>   0.0800 
 50 H        2.7720    10.0320     1.2560 H     1 <1>   0.0800 
 51 H        6.8120    10.4930     1.1030 H     1 <1>   0.0800 
 52 H        6.2380    11.0000    -0.4540 H     1 <1>   0.0800 
 53 H        3.8440    12.2300    -0.5220 H     1 <1>   0.0800 
 54 H        3.0300    12.4370     0.9950 H     1 <1>   0.0800 
 55 H        4.8290    11.3510     2.2080 H     1 <1>   0.0800 
 56 H        5.9430    13.4120     0.2800 H     1 <1>   0.0800 
 57 H        6.6480    12.9620     1.8130 H     1 <1>   0.0800 
 58 H        5.0990    13.7570     1.7690 H     1 <1>   0.0800 
@<TRIPOS>BOND
  1   1   2  2   
  2   2   3  am  
  3   2   4  1   
  4   3   5  1   
  5   3  28  1   
  6   4   6  1   
  7   4  29  1   
  8   4  30  1   
  9   5   7  1   
 10   5   8  1   
 11   5  31  1   
 12   6   8  1   
 13   7   9  ar  
 14   7  10  ar  
 15   8  11  1   
 16   8  32  1   
 17   9  12  ar  
 18   9  33  1   
 19  10  13  ar  
 20  10  34  1   
 21  11  14  2   
 22  11  15  am  
 23  12  16  ar  
 24  13  16  ar  
 25  13  35  1   
 26  15  17  1   
 27  15  36  1   
 28  16  37  1   
 29  17  18  1   
 30  17  38  1   
 31  17  39  1   
 32  18  19  1   
 33  18  20  1   
 34  18  21  1   
 35  19  22  1   
 36  19  23  1   
 37  19  40  1   
 38  20  41  1   
 39  20  42  1   
 40  20  43  1   
 41  21  44  1   
 42  21  45  1   
 43  21  46  1   
 44  22  24  1   
 45  22  47  1   
 46  22  48  1   
 47  23  25  1   
 48  23  49  1   
 49  23  50  1   
 50  24  26  1   
 51  24  51  1   
 52  24  52  1   
 53  25  26  1   
 54  25  53  1   
 55  25  54  1   
 56  26  27  1   
 57  26  55  1   
 58  27  56  1   
 59  27  57  1   
 60  27  58  1   
@<TRIPOS>SUBSTRUCTURE
  1 ****  11 GROUP 4 **** **** 0

# MOE 2024.06 (io_trps.svl 2023.06)
