@<TRIPOS>MOLECULE
NONAME
45 47 1 0 0 
SMALL
USER_CHARGES


@<TRIPOS>ATOM
  1 O       -2.2540     0.7530    -2.2020 O.2   1 <1>  -0.5700 
  2 C       -1.9720     0.7550    -1.0190 C.2   1 <1>   0.5440 
  3 N       -1.8890    -0.4510    -0.3830 N.am  1 <1>  -0.7300 
  4 C       -1.7360     1.9990    -0.3020 C.ar  1 <1>   0.0860 
  5 C       -2.0720    -1.7750    -1.0240 C.3   1 <1>   0.2200 
  6 C       -1.4030     3.1670    -0.9880 C.ar  1 <1>  -0.1500 
  7 C       -1.8290     2.0870     1.0870 C.ar  1 <1>  -0.1500 
  8 C       -3.4330    -2.3680    -0.6870 C.3   1 <1>  -0.0800 
  9 C       -1.1560    -2.7800    -0.3410 C.3   1 <1>   0.1200 
 10 C       -1.1640     4.3660    -0.3360 C.ar  1 <1>  -0.1430 
 11 C       -1.5910     3.2760     1.7500 C.ar  1 <1>  -0.1500 
 12 C       -3.1950    -3.0280     0.6760 C.3   1 <1>   0.1200 
 13 C       -4.6220    -1.3900    -0.7200 C.3   1 <1>  -0.0160 
 14 O       -1.8080    -3.1200     0.8450 O.3   1 <1>  -0.5600 
 15 C       -1.2570     4.4220     1.0490 C.ar  1 <1>  -0.1430 
 16 C       -0.8050     5.5950    -1.1600 C.3   1 <1>  -0.0970 
 17 C       -5.9310    -2.1190    -0.4600 C.ar  1 <1>  -0.1430 
 18 C       -1.0020     5.7140     1.8140 C.3   1 <1>  -0.0970 
 19 C       -6.5330    -2.1280     0.7820 C.ar  1 <1>  -0.1500 
 20 C       -6.5850    -2.8120    -1.4590 C.ar  1 <1>  -0.1500 
 21 C       -7.7220    -2.8160     0.9610 C.ar  1 <1>   0.1600 
 22 C       -7.7710    -3.4680    -1.1740 C.ar  1 <1>   0.1600 
 23 N       -8.3540    -3.4890     0.0130 N.ar  1 <1>  -0.6200 
 24 H       -1.6220    -0.5030     0.6010 H     1 <1>   0.3700 
 25 H       -1.8950    -1.7140    -2.0850 H     1 <1>   0.0800 
 26 H       -1.3340     3.1210    -2.0610 H     1 <1>   0.1500 
 27 H       -2.0950     1.2210     1.6630 H     1 <1>   0.1500 
 28 H       -3.6300    -3.1560    -1.3940 H     1 <1>   0.0800 
 29 H       -0.1830    -2.3770    -0.1210 H     1 <1>   0.0800 
 30 H       -1.0590    -3.6730    -0.9330 H     1 <1>   0.0800 
 31 H       -1.6710     3.3050     2.8230 H     1 <1>   0.1500 
 32 H       -3.6210    -4.0150     0.7210 H     1 <1>   0.0800 
 33 H       -3.5800    -2.4280     1.4810 H     1 <1>   0.0800 
 34 H       -4.6640    -0.9130    -1.6850 H     1 <1>   0.0800 
 35 H       -4.4940    -0.6150     0.0140 H     1 <1>   0.0800 
 36 H       -0.7860     5.3650    -2.2100 H     1 <1>   0.0800 
 37 H        0.1660     5.9580    -0.8770 H     1 <1>   0.0800 
 38 H       -1.5310     6.3710    -0.9990 H     1 <1>   0.0800 
 39 H       -1.1120     5.5650     2.8720 H     1 <1>   0.0800 
 40 H       -1.7020     6.4690     1.5050 H     1 <1>   0.0800 
 41 H       -0.0030     6.0630     1.6250 H     1 <1>   0.0800 
 42 H       -6.0920    -1.6070     1.6110 H     1 <1>   0.1500 
 43 H       -6.1830    -2.8480    -2.4550 H     1 <1>   0.1500 
 44 H       -8.1770    -2.8130     1.9370 H     1 <1>   0.1500 
 45 H       -8.2660    -4.0040    -1.9660 H     1 <1>   0.1500 
@<TRIPOS>BOND
  1   1   2  2   
  2   2   3  am  
  3   2   4  1   
  4   3   5  1   
  5   3  24  1   
  6   4   6  ar  
  7   4   7  ar  
  8   5   8  1   
  9   5   9  1   
 10   5  25  1   
 11   6  10  ar  
 12   6  26  1   
 13   7  11  ar  
 14   7  27  1   
 15   8  12  1   
 16   8  13  1   
 17   8  28  1   
 18   9  14  1   
 19   9  29  1   
 20   9  30  1   
 21  10  15  ar  
 22  10  16  1   
 23  11  15  ar  
 24  11  31  1   
 25  12  14  1   
 26  12  32  1   
 27  12  33  1   
 28  13  17  1   
 29  13  34  1   
 30  13  35  1   
 31  15  18  1   
 32  16  36  1   
 33  16  37  1   
 34  16  38  1   
 35  17  19  ar  
 36  17  20  ar  
 37  18  39  1   
 38  18  40  1   
 39  18  41  1   
 40  19  21  ar  
 41  19  42  1   
 42  20  22  ar  
 43  20  43  1   
 44  21  23  ar  
 45  21  44  1   
 46  22  23  ar  
 47  22  45  1   
@<TRIPOS>SUBSTRUCTURE
  1 ****   3 GROUP 4 **** **** 0

# MOE 2024.06 (io_trps.svl 2023.06)
