@<TRIPOS>MOLECULE
NONAME
54 56 1 0 0 
SMALL
USER_CHARGES


@<TRIPOS>ATOM
  1 O        1.0170     1.2240    -0.6050 O.3   1 <1>  -0.5600 
  2 C       -0.3790     1.1800    -0.4850 C.3   1 <1>   0.1200 
  3 C        1.6670     0.1740     0.0380 C.3   1 <1>   0.0400 
  4 C       -1.0600     2.3540    -1.2240 C.3   1 <1>   0.4690 
  5 N       -0.8100     3.6690    -0.6020 N.pl3 1 <1>  -0.8690 
  6 C       -2.5650     2.1760    -1.2630 C.2   1 <1>  -0.3320 
  7 C        0.2900     4.4340    -0.5980 C.ar  1 <1>   0.4100 
  8 N       -3.3960     2.0810    -0.1950 N.pl3 1 <1>   0.3140 
  9 C       -3.3420     2.0770    -2.3660 C.2   1 <1>  -0.1500 
 10 N        0.1990     5.5210     0.1320 N.ar  1 <1>  -0.6200 
 11 C        1.4540     4.1150    -1.3190 C.ar  1 <1>  -0.1500 
 12 N       -4.6690     1.9160    -0.5860 N.2   1 <1>  -0.7070 
 13 C       -3.0880     2.1330     1.2440 C.3   1 <1>   0.0160 
 14 C       -4.6320     1.9170    -1.8820 C.2   1 <1>   0.1390 
 15 C        1.2620     6.3120     0.2160 C.ar  1 <1>   0.7710 
 16 C        2.5290     4.9320    -1.2260 C.ar  1 <1>   0.2180 
 17 N        2.4010     6.0280    -0.4430 N.ar  1 <1>  -0.1790 
 18 N        1.2080     7.4410     0.9760 N.pl3 1 <1>  -0.8380 
 19 C        3.8450     4.6800    -1.9500 C.3   1 <1>  -0.0170 
 20 C       -0.0810     7.9270     1.5720 C.3   1 <1>   0.2090 
 21 C        2.3380     8.3620     1.3120 C.3   1 <1>   0.2090 
 22 C        5.0030     4.4380    -0.9720 C.3   1 <1>  -0.2400 
 23 C       -0.4140     9.3040     0.9870 C.3   1 <1>  -0.1600 
 24 C        2.0600     9.7390     0.7010 C.3   1 <1>  -0.1600 
 25 C        0.7260    10.3110     1.2020 C.3   1 <1>  -0.1600 
 26 H       -0.6320     1.2020     0.5590 H     1 <1>   0.0800 
 27 H       -0.7210     0.2530    -0.9130 H     1 <1>   0.0800 
 28 H        2.7260     0.2890    -0.1130 H     1 <1>   0.0800 
 29 H        1.3420    -0.7610    -0.3860 H     1 <1>   0.0800 
 30 H        1.4470     0.2090     1.0910 H     1 <1>   0.0800 
 31 H       -0.6990     2.3680    -2.2380 H     1 <1>   0.0800 
 32 H       -1.6600     4.0930    -0.2240 H     1 <1>   0.4000 
 33 H       -3.0640     2.1090    -3.4040 H     1 <1>   0.1500 
 34 H        1.4710     3.2310    -1.9260 H     1 <1>   0.1500 
 35 H       -2.2590     2.7900     1.4250 H     1 <1>   0.0800 
 36 H       -2.8580     1.1430     1.5890 H     1 <1>   0.0800 
 37 H       -3.9510     2.4980     1.7710 H     1 <1>   0.0800 
 38 H       -5.5080     1.8050    -2.4990 H     1 <1>   0.1500 
 39 H        3.1490     6.6970    -0.3330 H     1 <1>   0.4570 
 40 H        4.0760     5.5150    -2.5890 H     1 <1>   0.0800 
 41 H        3.7430     3.8130    -2.5810 H     1 <1>   0.0800 
 42 H        0.0270     8.0020     2.6410 H     1 <1>   0.0800 
 43 H       -0.9010     7.2570     1.3770 H     1 <1>   0.0800 
 44 H        3.2840     7.9920     0.9620 H     1 <1>   0.0800 
 45 H        2.4060     8.4570     2.3840 H     1 <1>   0.0800 
 46 H        5.1950     5.3030    -0.3630 H     1 <1>   0.0800 
 47 H        5.9010     4.2090    -1.5210 H     1 <1>   0.0800 
 48 H        4.7830     3.6010    -0.3300 H     1 <1>   0.0800 
 49 H       -1.3130     9.6750     1.4470 H     1 <1>   0.0800 
 50 H       -0.6110     9.1940    -0.0650 H     1 <1>   0.0800 
 51 H        2.0390     9.6580    -0.3710 H     1 <1>   0.0800 
 52 H        2.8550    10.4150     0.9640 H     1 <1>   0.0800 
 53 H        0.8060    10.5350     2.2530 H     1 <1>   0.0800 
 54 H        0.5030    11.2290     0.6860 H     1 <1>   0.0800 
@<TRIPOS>BOND
  1   1   2  1   
  2   1   3  1   
  3   2   4  1   
  4   2  26  1   
  5   2  27  1   
  6   3  28  1   
  7   3  29  1   
  8   3  30  1   
  9   4   5  1   
 10   4   6  1   
 11   4  31  1   
 12   5   7  1   
 13   5  32  1   
 14   6   8  1   
 15   6   9  2   
 16   7  10  ar  
 17   7  11  ar  
 18   8  12  1   
 19   8  13  1   
 20   9  14  1   
 21   9  33  1   
 22  10  15  ar  
 23  11  16  ar  
 24  11  34  1   
 25  12  14  2   
 26  13  35  1   
 27  13  36  1   
 28  13  37  1   
 29  14  38  1   
 30  15  17  ar  
 31  15  18  1   
 32  16  17  ar  
 33  16  19  1   
 34  17  39  1   
 35  18  20  1   
 36  18  21  1   
 37  19  22  1   
 38  19  40  1   
 39  19  41  1   
 40  20  23  1   
 41  20  42  1   
 42  20  43  1   
 43  21  24  1   
 44  21  44  1   
 45  21  45  1   
 46  22  46  1   
 47  22  47  1   
 48  22  48  1   
 49  23  25  1   
 50  23  49  1   
 51  23  50  1   
 52  24  25  1   
 53  24  51  1   
 54  24  52  1   
 55  25  53  1   
 56  25  54  1   
@<TRIPOS>SUBSTRUCTURE
  1 ****   7 GROUP 4 **** **** 0

# MOE 2024.06 (io_trps.svl 2023.06)
