@<TRIPOS>MOLECULE
NONAME
39 40 1 0 0 
SMALL
USER_CHARGES


@<TRIPOS>ATOM
  1 O        1.1410     0.7960     2.2550 O.2   1 <1>  -0.5700 
  2 C        1.5450     0.8550     1.1070 C.2   1 <1>   0.5440 
  3 N        1.0320     1.8320     0.2660 N.am  1 <1>  -0.6600 
  4 C        2.5790    -0.0440     0.6630 C.ar  1 <1>   0.0860 
  5 C        1.3860     1.9420    -1.1770 C.3   1 <1>   0.0600 
  6 C        0.0340     2.8350     0.7350 C.3   1 <1>   0.0600 
  7 C        2.3480    -1.3910     0.2990 C.ar  1 <1>   0.4100 
  8 C        3.8780     0.4430     0.5980 C.ar  1 <1>  -0.1500 
  9 N        3.3360    -2.1980    -0.0960 N.ar  1 <1>  -0.6200 
 10 N        1.0970    -1.9980     0.3190 N.pl3 1 <1>  -0.8380 
 11 C        4.8790    -0.4020     0.1830 C.ar  1 <1>  -0.1500 
 12 C        4.5530    -1.7020    -0.1480 C.ar  1 <1>   0.1600 
 13 C        0.9340    -3.3390     0.9930 C.3   1 <1>   0.2090 
 14 C       -0.1680    -1.2950    -0.0420 C.3   1 <1>   0.2090 
 15 C       -0.1600    -4.2490     0.3870 C.3   1 <1>   0.2000 
 16 C       -1.1690    -2.2280    -0.7280 C.3   1 <1>  -0.1600 
 17 O        0.2740    -4.8090    -0.8050 O.3   1 <1>  -0.6800 
 18 C       -1.4560    -3.4740     0.1300 C.3   1 <1>  -0.1860 
 19 C       -2.5260    -4.3690    -0.4640 C.2   1 <1>   0.9060 
 20 O       -3.6300    -4.4060     0.0850 O.co2 1 <1>  -0.9000 
 21 O       -2.2610    -5.0430    -1.4690 O.co2 1 <1>  -0.9000 
 22 H        0.4900     2.0560    -1.7630 H     1 <1>   0.0800 
 23 H        1.9000     1.0620    -1.5220 H     1 <1>   0.0800 
 24 H        2.0180     2.7990    -1.3300 H     1 <1>   0.0800 
 25 H       -0.9150     2.6490     0.2630 H     1 <1>   0.0800 
 26 H        0.3680     3.8260     0.4840 H     1 <1>   0.0800 
 27 H       -0.0980     2.7800     1.8020 H     1 <1>   0.0800 
 28 H        4.0880     1.4620     0.8740 H     1 <1>   0.1500 
 29 H        5.8980    -0.0660     0.1190 H     1 <1>   0.1500 
 30 H        5.3340    -2.3690    -0.4720 H     1 <1>   0.1500 
 31 H        1.8630    -3.8810     0.9920 H     1 <1>   0.0800 
 32 H        0.6740    -3.1520     2.0190 H     1 <1>   0.0800 
 33 H       -0.6120    -0.8930     0.8540 H     1 <1>   0.0800 
 34 H        0.0490    -0.4840    -0.7110 H     1 <1>   0.0800 
 35 H       -0.3590    -5.0680     1.0570 H     1 <1>   0.0800 
 36 H       -2.0880    -1.6980    -0.9000 H     1 <1>   0.0800 
 37 H       -0.7780    -2.5240    -1.6860 H     1 <1>   0.0800 
 38 H       -0.5590    -5.0490    -1.3110 H     1 <1>   0.4000 
 39 H       -1.8320    -3.1430     1.0790 H     1 <1>   0.0800 
@<TRIPOS>BOND
  1   1   2  2   
  2   2   3  am  
  3   2   4  1   
  4   3   5  1   
  5   3   6  1   
  6   4   7  ar  
  7   4   8  ar  
  8   5  22  1   
  9   5  23  1   
 10   5  24  1   
 11   6  25  1   
 12   6  26  1   
 13   6  27  1   
 14   7   9  ar  
 15   7  10  1   
 16   8  11  ar  
 17   8  28  1   
 18   9  12  ar  
 19  10  13  1   
 20  10  14  1   
 21  11  12  ar  
 22  11  29  1   
 23  12  30  1   
 24  13  15  1   
 25  13  31  1   
 26  13  32  1   
 27  14  16  1   
 28  14  33  1   
 29  14  34  1   
 30  15  17  1   
 31  15  18  1   
 32  15  35  1   
 33  16  18  1   
 34  16  36  1   
 35  16  37  1   
 36  17  38  1   
 37  18  19  1   
 38  18  39  1   
 39  19  20  ar  
 40  19  21  ar  
@<TRIPOS>SUBSTRUCTURE
  1 ****  10 GROUP 4 **** **** 0

# MOE 2024.06 (io_trps.svl 2023.06)
