@<TRIPOS>MOLECULE
NONAME
60 62 1 0 0 
SMALL
USER_CHARGES


@<TRIPOS>ATOM
  1 O       -1.6170    -1.3010     1.2260 O.3   1 <1>  -0.5600 
  2 C       -2.4890    -2.2310     0.6510 C.3   1 <1>   0.1200 
  3 C       -0.4720    -1.8670     1.7870 C.3   1 <1>   0.1200 
  4 C       -1.7900    -2.9940    -0.4870 C.3   1 <1>   0.2090 
  5 C        0.3490    -2.6000     0.7090 C.3   1 <1>   0.2090 
  6 N       -0.4920    -3.6140    -0.0240 N.pl3 1 <1>  -0.8380 
  7 C       -0.1880    -4.9160    -0.2730 C.ar  1 <1>   0.7710 
  8 N       -1.1130    -5.7140    -0.7900 N.ar  1 <1>  -0.6200 
  9 N        1.0480    -5.3670     0.0060 N.ar  1 <1>  -0.1790 
 10 C       -0.8000    -6.9710    -1.0280 C.ar  1 <1>   0.4100 
 11 C        1.4170    -6.6510    -0.2180 C.ar  1 <1>   0.2180 
 12 N       -1.7650    -7.7510    -1.5800 N.pl3 1 <1>  -0.8380 
 13 C        0.4800    -7.4790    -0.7410 C.ar  1 <1>  -0.1500 
 14 C        2.8410    -7.0820     0.1120 C.3   1 <1>  -0.0170 
 15 C       -2.0960    -9.1290    -1.1140 C.3   1 <1>   0.2090 
 16 C       -2.6240    -7.2140    -2.6850 C.3   1 <1>   0.1290 
 17 C        3.8810    -6.3430    -0.7400 C.3   1 <1>  -0.2400 
 18 C       -3.3950    -9.1050    -0.2830 C.3   1 <1>   0.3430 
 19 N       -3.8830   -10.4690     0.1150 N.4   1 <1>  -0.9590 
 20 C       -5.2660   -10.3840     0.6620 C.3   1 <1>   0.3430 
 21 C       -2.9980   -11.1390     1.1050 C.3   1 <1>   0.3430 
 22 C       -6.0190   -11.7020     0.4570 C.3   1 <1>  -0.1600 
 23 C       -2.8080   -12.6090     0.7300 C.3   1 <1>  -0.1600 
 24 C       -5.3500   -12.9660     1.0300 C.3   1 <1>  -0.1600 
 25 C       -4.0710   -13.3650     0.2770 C.3   1 <1>  -0.1600 
 26 H       -3.3370    -1.6910     0.2700 H     1 <1>   0.0800 
 27 H       -2.8270    -2.9090     1.4150 H     1 <1>   0.0800 
 28 H       -0.7690    -2.5400     2.5720 H     1 <1>   0.0800 
 29 H        0.1060    -1.0680     2.2170 H     1 <1>   0.0800 
 30 H       -1.5860    -2.3030    -1.2870 H     1 <1>   0.0800 
 31 H       -2.4760    -3.7300    -0.8700 H     1 <1>   0.0800 
 32 H        1.1950    -3.0570     1.1870 H     1 <1>   0.0800 
 33 H        0.7160    -1.8700     0.0070 H     1 <1>   0.0800 
 34 H        1.7040    -4.6800     0.3510 H     1 <1>   0.4570 
 35 H        0.6930    -8.5060    -0.9690 H     1 <1>   0.1500 
 36 H        2.9450    -8.1400    -0.0630 H     1 <1>   0.0800 
 37 H        3.0410    -6.9120     1.1560 H     1 <1>   0.0800 
 38 H       -1.2930    -9.5120    -0.5120 H     1 <1>   0.0800 
 39 H       -2.2180    -9.7670    -1.9730 H     1 <1>   0.0800 
 40 H       -2.1750    -6.3330    -3.1130 H     1 <1>   0.0800 
 41 H       -3.5960    -6.9490    -2.3080 H     1 <1>   0.0800 
 42 H       -2.7290    -7.9460    -3.4670 H     1 <1>   0.0800 
 43 H        3.6950    -6.5060    -1.7890 H     1 <1>   0.0800 
 44 H        4.8660    -6.7170    -0.5170 H     1 <1>   0.0800 
 45 H        3.8760    -5.2860    -0.5460 H     1 <1>   0.0800 
 46 H       -4.1540    -8.6230    -0.8770 H     1 <1>   0.0800 
 47 H       -3.2330    -8.5050     0.5970 H     1 <1>   0.0800 
 48 H       -3.9340   -11.0770    -0.7130 H     1 <1>   0.4500 
 49 H       -5.8120    -9.6020     0.1580 H     1 <1>   0.0800 
 50 H       -5.2330   -10.1410     1.7120 H     1 <1>   0.0800 
 51 H       -3.4390   -11.0760     2.0870 H     1 <1>   0.0800 
 52 H       -2.0350   -10.6590     1.1450 H     1 <1>   0.0800 
 53 H       -6.2130   -11.8390    -0.5920 H     1 <1>   0.0800 
 54 H       -6.9810   -11.5950     0.9300 H     1 <1>   0.0800 
 55 H       -2.4080   -13.1070     1.5970 H     1 <1>   0.0800 
 56 H       -2.0580   -12.6880    -0.0380 H     1 <1>   0.0800 
 57 H       -6.0540   -13.7770     0.9300 H     1 <1>   0.0800 
 58 H       -5.1540   -12.8550     2.0830 H     1 <1>   0.0800 
 59 H       -3.8980   -14.4180     0.4330 H     1 <1>   0.0800 
 60 H       -4.2220   -13.2380    -0.7820 H     1 <1>   0.0800 
@<TRIPOS>BOND
  1   1   2  1   
  2   1   3  1   
  3   2   4  1   
  4   2  26  1   
  5   2  27  1   
  6   3   5  1   
  7   3  28  1   
  8   3  29  1   
  9   4   6  1   
 10   4  30  1   
 11   4  31  1   
 12   5   6  1   
 13   5  32  1   
 14   5  33  1   
 15   6   7  1   
 16   7   8  ar  
 17   7   9  ar  
 18   8  10  ar  
 19   9  11  ar  
 20   9  34  1   
 21  10  12  1   
 22  10  13  ar  
 23  11  13  ar  
 24  11  14  1   
 25  12  15  1   
 26  12  16  1   
 27  13  35  1   
 28  14  17  1   
 29  14  36  1   
 30  14  37  1   
 31  15  18  1   
 32  15  38  1   
 33  15  39  1   
 34  16  40  1   
 35  16  41  1   
 36  16  42  1   
 37  17  43  1   
 38  17  44  1   
 39  17  45  1   
 40  18  19  1   
 41  18  46  1   
 42  18  47  1   
 43  19  20  1   
 44  19  21  1   
 45  19  48  1   
 46  20  22  1   
 47  20  49  1   
 48  20  50  1   
 49  21  23  1   
 50  21  51  1   
 51  21  52  1   
 52  22  24  1   
 53  22  53  1   
 54  22  54  1   
 55  23  25  1   
 56  23  55  1   
 57  23  56  1   
 58  24  25  1   
 59  24  57  1   
 60  24  58  1   
 61  25  59  1   
 62  25  60  1   
@<TRIPOS>SUBSTRUCTURE
  1 ****  10 GROUP 4 **** **** 0

# MOE 2024.06 (io_trps.svl 2023.06)
