@<TRIPOS>MOLECULE
NONAME
46 47 1 0 0 
SMALL
USER_CHARGES


@<TRIPOS>ATOM
  1 S        0.3710     0.0700    -0.4690 S.o2  1 <1>   1.3330 
  2 O        1.5910     0.0320     0.3050 O.2   1 <1>  -0.6500 
  3 O        0.4370     0.0930    -1.9130 O.2   1 <1>  -0.6500 
  4 N       -0.5850    -1.2510     0.0010 N.am  1 <1>  -0.8490 
  5 C       -0.6060     1.4790     0.0460 C.3   1 <1>  -0.0550 
  6 C       -0.3380    -2.4340    -0.8280 C.3   1 <1>   0.1160 
  7 C       -0.4430    -1.5980     1.4190 C.3   1 <1>   0.1160 
  8 C       -0.0130     2.8280    -0.4090 C.3   1 <1>  -0.0800 
  9 C       -0.8960     4.0380    -0.0980 C.3   1 <1>   0.2000 
 10 C        1.3420     3.1720     0.2240 C.3   1 <1>   0.1400 
 11 O       -1.3590     3.9380     1.2060 O.3   1 <1>  -0.6800 
 12 C        0.0720     5.2160    -0.1680 C.3   1 <1>   0.1400 
 13 N        1.3650     4.6570     0.3100 N.am  1 <1>  -0.6600 
 14 C        2.5340     5.3700     0.4470 C.2   1 <1>   0.5440 
 15 O        3.5770     4.7620     0.5780 O.2   1 <1>  -0.5700 
 16 C        2.5460     6.8140     0.4230 C.ar  1 <1>   0.0860 
 17 C        1.7950     7.5520     1.3300 C.ar  1 <1>   0.1600 
 18 C        3.2980     7.5270    -0.4970 C.ar  1 <1>  -0.1500 
 19 N        1.7060     8.8690     1.3690 N.ar  1 <1>  -0.6200 
 20 C        3.2380     8.9060    -0.4750 C.ar  1 <1>  -0.1440 
 21 C        2.4220     9.5250     0.4700 C.ar  1 <1>   0.1670 
 22 C        4.0680     9.6940    -1.4800 C.3   1 <1>  -0.0970 
 23 C        2.3030    11.0370     0.5420 C.3   1 <1>  -0.0970 
 24 H       -1.5900     1.3830    -0.3710 H     1 <1>   0.0800 
 25 H       -0.7050     1.4690     1.1140 H     1 <1>   0.0800 
 26 H       -0.9710    -3.2470    -0.5170 H     1 <1>   0.0800 
 27 H        0.6940    -2.7360    -0.7510 H     1 <1>   0.0800 
 28 H       -0.5570    -2.2140    -1.8600 H     1 <1>   0.0800 
 29 H       -1.1310    -2.3840     1.6780 H     1 <1>   0.0800 
 30 H       -0.6590    -0.7430     2.0350 H     1 <1>   0.0800 
 31 H        0.5620    -1.9290     1.6270 H     1 <1>   0.0800 
 32 H        0.1300     2.7930    -1.4760 H     1 <1>   0.0800 
 33 H       -1.7400     4.1400    -0.7580 H     1 <1>   0.0800 
 34 H        2.1610     2.8080    -0.3750 H     1 <1>   0.0800 
 35 H        1.4260     2.7630     1.2170 H     1 <1>   0.0800 
 36 H       -0.5980     4.0310     1.8150 H     1 <1>   0.4000 
 37 H       -0.2690     6.0400     0.4350 H     1 <1>   0.0800 
 38 H        0.1860     5.5390    -1.1890 H     1 <1>   0.0800 
 39 H        1.2310     7.0090     2.0690 H     1 <1>   0.1500 
 40 H        3.9130     6.9960    -1.2020 H     1 <1>   0.1500 
 41 H        4.7450     9.0480    -2.0100 H     1 <1>   0.0800 
 42 H        4.6510    10.4440    -0.9760 H     1 <1>   0.0800 
 43 H        3.4250    10.1720    -2.1970 H     1 <1>   0.0800 
 44 H        2.2630    11.4680    -0.4400 H     1 <1>   0.0800 
 45 H        3.1440    11.4380     1.0760 H     1 <1>   0.0800 
 46 H        1.4040    11.3140     1.0630 H     1 <1>   0.0800 
@<TRIPOS>BOND
  1   1   2  2   
  2   1   3  2   
  3   1   4  am  
  4   1   5  1   
  5   4   6  1   
  6   4   7  1   
  7   5   8  1   
  8   5  24  1   
  9   5  25  1   
 10   6  26  1   
 11   6  27  1   
 12   6  28  1   
 13   7  29  1   
 14   7  30  1   
 15   7  31  1   
 16   8   9  1   
 17   8  10  1   
 18   8  32  1   
 19   9  11  1   
 20   9  12  1   
 21   9  33  1   
 22  10  13  1   
 23  10  34  1   
 24  10  35  1   
 25  11  36  1   
 26  12  13  1   
 27  12  37  1   
 28  12  38  1   
 29  13  14  am  
 30  14  15  2   
 31  14  16  1   
 32  16  17  ar  
 33  16  18  ar  
 34  17  19  ar  
 35  17  39  1   
 36  18  20  ar  
 37  18  40  1   
 38  19  21  ar  
 39  20  21  ar  
 40  20  22  1   
 41  21  23  1   
 42  22  41  1   
 43  22  42  1   
 44  22  43  1   
 45  23  44  1   
 46  23  45  1   
 47  23  46  1   
@<TRIPOS>SUBSTRUCTURE
  1 ****  13 GROUP 4 **** **** 0

# MOE 2024.06 (io_trps.svl 2023.06)
