@<TRIPOS>MOLECULE
NONAME
45 47 1 0 0 
SMALL
USER_CHARGES


@<TRIPOS>ATOM
  1 CL       0.9720    -1.4960     0.2380 Cl    1 <1>  -0.1770 
  2 C       -0.2840    -2.6830    -0.0030 C.ar  1 <1>   0.1770 
  3 C       -1.5570    -2.2700    -0.3450 C.ar  1 <1>  -0.1500 
  4 C        0.0100    -4.0240     0.1500 C.ar  1 <1>  -0.1500 
  5 C       -2.5460    -3.2170    -0.5370 C.ar  1 <1>  -0.1500 
  6 C       -0.9900    -4.9610    -0.0430 C.ar  1 <1>  -0.1500 
  7 C       -2.2910    -4.5830    -0.3890 C.ar  1 <1>   0.0530 
  8 C       -3.3140    -5.5840    -0.5850 C.2   1 <1>   0.0870 
  9 O       -2.9780    -6.7850    -0.9870 O.3   1 <1>  -0.0190 
 10 C       -4.6630    -5.5870    -0.4320 C.2   1 <1>  -0.2330 
 11 N       -4.0030    -7.5830    -1.1130 N.2   1 <1>  -0.4100 
 12 C       -5.0400    -6.8890    -0.7800 C.2   1 <1>   0.3720 
 13 C       -5.5080    -4.5190    -0.0060 C.2   1 <1>   1.0330 
 14 N       -6.3430    -7.4310    -0.7950 N.pl3 1 <1>  -0.8210 
 15 O       -5.8870    -4.4460     1.1770 O.co2 1 <1>  -0.9000 
 16 O       -5.8490    -3.6220    -0.7960 O.co2 1 <1>  -0.9000 
 17 C       -6.5630    -8.8210    -1.3040 C.3   1 <1>   0.2090 
 18 C       -7.3220    -6.9440     0.2240 C.3   1 <1>   0.2090 
 19 C       -6.7670    -9.8560    -0.1710 C.3   1 <1>   0.0610 
 20 C       -8.4290    -7.9730     0.4890 C.3   1 <1>  -0.1600 
 21 C       -7.2290   -11.1340    -0.9060 C.2   1 <1>   0.5690 
 22 C       -7.8290    -9.3390     0.8590 C.3   1 <1>  -0.1600 
 23 C       -5.4130   -10.0790     0.5710 C.3   1 <1>  -0.1600 
 24 O       -8.3990   -11.3890    -1.0430 O.2   1 <1>  -0.5700 
 25 N       -6.3270   -11.9700    -1.4620 N.am  1 <1>  -0.8000 
 26 C       -5.4110   -11.2080     1.6190 C.3   1 <1>  -0.2400 
 27 H       -1.7730    -1.2240    -0.4600 H     1 <1>   0.1500 
 28 H        1.0060    -4.3260     0.4170 H     1 <1>   0.1500 
 29 H       -3.5340    -2.8870    -0.8110 H     1 <1>   0.1500 
 30 H       -0.7660    -6.0050     0.0800 H     1 <1>   0.1500 
 31 H       -5.7470    -9.1240    -1.9370 H     1 <1>   0.0800 
 32 H       -7.4400    -8.8050    -1.9280 H     1 <1>   0.0800 
 33 H       -7.7570    -6.0190    -0.1150 H     1 <1>   0.0800 
 34 H       -6.8000    -6.7500     1.1470 H     1 <1>   0.0800 
 35 H       -9.0530    -8.0580    -0.3830 H     1 <1>   0.0800 
 36 H       -9.0460    -7.6170     1.2940 H     1 <1>   0.0800 
 37 H       -7.3740    -9.2170     1.8250 H     1 <1>   0.0800 
 38 H       -8.6260   -10.0500     0.9900 H     1 <1>   0.0800 
 39 H       -5.1360    -9.1610     1.0630 H     1 <1>   0.0800 
 40 H       -4.6370   -10.2750    -0.1470 H     1 <1>   0.0800 
 41 H       -6.6510   -12.8050    -1.9500 H     1 <1>   0.3700 
 42 H       -5.3190   -11.8340    -1.3860 H     1 <1>   0.3700 
 43 H       -6.1260   -11.0180     2.3990 H     1 <1>   0.0800 
 44 H       -4.4370   -11.2750     2.0720 H     1 <1>   0.0800 
 45 H       -5.6390   -12.1590     1.1730 H     1 <1>   0.0800 
@<TRIPOS>BOND
  1   1   2  1   
  2   2   3  ar  
  3   2   4  ar  
  4   3   5  ar  
  5   3  27  1   
  6   4   6  ar  
  7   4  28  1   
  8   5   7  ar  
  9   5  29  1   
 10   6   7  ar  
 11   6  30  1   
 12   7   8  1   
 13   8   9  1   
 14   8  10  2   
 15   9  11  1   
 16  10  12  1   
 17  10  13  1   
 18  11  12  2   
 19  12  14  1   
 20  13  15  ar  
 21  13  16  ar  
 22  14  17  1   
 23  14  18  1   
 24  17  19  1   
 25  17  31  1   
 26  17  32  1   
 27  18  20  1   
 28  18  33  1   
 29  18  34  1   
 30  19  21  1   
 31  19  22  1   
 32  19  23  1   
 33  20  22  1   
 34  20  35  1   
 35  20  36  1   
 36  21  24  2   
 37  21  25  am  
 38  22  37  1   
 39  22  38  1   
 40  23  26  1   
 41  23  39  1   
 42  23  40  1   
 43  25  41  1   
 44  25  42  1   
 45  26  43  1   
 46  26  44  1   
 47  26  45  1   
@<TRIPOS>SUBSTRUCTURE
  1 ****  12 GROUP 4 **** **** 0

# MOE 2024.06 (io_trps.svl 2023.06)
