@<TRIPOS>MOLECULE
NONAME
42 44 1 0 0 
SMALL
USER_CHARGES


@<TRIPOS>ATOM
  1 S        0.3920    -0.2850    -0.5580 S.3   1 <1>  -0.3320 
  2 C        1.7360     0.8640    -0.2210 C.ar  1 <1>   0.1020 
  3 C        0.9600    -1.9670    -0.0440 C.3   1 <1>  -0.0100 
  4 C        1.5220     2.1830    -0.5310 C.ar  1 <1>  -0.1500 
  5 C        2.9430     0.4390     0.3290 C.ar  1 <1>  -0.1500 
  6 C        2.5160     3.1500    -0.3020 C.ar  1 <1>   0.0000 
  7 C        3.9330     1.3660     0.5630 C.ar  1 <1>  -0.1500 
  8 C        3.7360     2.7180     0.2550 C.ar  1 <1>   0.3610 
  9 C        2.3670     4.5400    -0.5990 C.ar  1 <1>  -0.1440 
 10 N        4.7300     3.6520     0.4900 N.ar  1 <1>  -0.1790 
 11 C        3.3930     5.3980    -0.3390 C.ar  1 <1>  -0.1500 
 12 C        1.0650     5.0580    -1.2000 C.3   1 <1>  -0.0970 
 13 C        4.6150     4.9510     0.2200 C.ar  1 <1>   0.4610 
 14 N        5.6490     5.7520     0.4880 N.pl3 1 <1>  -0.8690 
 15 C        5.8580     7.1810     0.1860 C.3   1 <1>   0.4690 
 16 C        7.3660     7.4020     0.0990 C.2   1 <1>   0.0060 
 17 C        5.2520     8.0000     1.3210 C.3   1 <1>  -0.2400 
 18 N        8.2550     6.5400     0.4730 N.2   1 <1>  -0.3380 
 19 N        7.9440     8.5090    -0.3740 N.pl3 1 <1>   0.0330 
 20 N        9.4490     7.0820     0.2440 N.2   1 <1>  -0.3380 
 21 C        9.2460     8.2490    -0.2580 C.2   1 <1>   0.0060 
 22 C       10.3410     9.2130    -0.6670 C.3   1 <1>  -0.0600 
 23 H        0.1560    -2.6540    -0.2440 H     1 <1>   0.0800 
 24 H        1.1810    -1.9390     1.0080 H     1 <1>   0.0800 
 25 H        1.8280    -2.2200    -0.6260 H     1 <1>   0.0800 
 26 H        0.5740     2.4620    -0.9540 H     1 <1>   0.1500 
 27 H        3.1020    -0.5960     0.5680 H     1 <1>   0.1500 
 28 H        4.8650     1.0390     0.9880 H     1 <1>   0.1500 
 29 H        5.6110     3.3330     0.8840 H     1 <1>   0.4570 
 30 H        3.2940     6.4450    -0.5540 H     1 <1>   0.1500 
 31 H        0.8760     4.5810    -2.1460 H     1 <1>   0.0800 
 32 H        1.1060     6.1200    -1.3640 H     1 <1>   0.0800 
 33 H        0.2410     4.8550    -0.5380 H     1 <1>   0.0800 
 34 H        6.5500     5.4140     0.8620 H     1 <1>   0.4000 
 35 H        5.3970     7.4320    -0.7550 H     1 <1>   0.0800 
 36 H        5.7350     7.7580     2.2510 H     1 <1>   0.0800 
 37 H        4.1980     7.8090     1.4070 H     1 <1>   0.0800 
 38 H        5.3900     9.0490     1.1320 H     1 <1>   0.0800 
 39 H        7.5150     9.3610    -0.7390 H     1 <1>   0.2700 
 40 H       10.2630    10.1250    -0.1040 H     1 <1>   0.0800 
 41 H       10.2700     9.4330    -1.7160 H     1 <1>   0.0800 
 42 H       11.3030     8.7730    -0.4740 H     1 <1>   0.0800 
@<TRIPOS>BOND
  1   1   2  1   
  2   1   3  1   
  3   2   4  ar  
  4   2   5  ar  
  5   3  23  1   
  6   3  24  1   
  7   3  25  1   
  8   4   6  ar  
  9   4  26  1   
 10   5   7  ar  
 11   5  27  1   
 12   6   8  ar  
 13   6   9  ar  
 14   7   8  ar  
 15   7  28  1   
 16   8  10  ar  
 17   9  11  ar  
 18   9  12  1   
 19  10  13  ar  
 20  10  29  1   
 21  11  13  ar  
 22  11  30  1   
 23  12  31  1   
 24  12  32  1   
 25  12  33  1   
 26  13  14  1   
 27  14  15  1   
 28  14  34  1   
 29  15  16  1   
 30  15  17  1   
 31  15  35  1   
 32  16  18  2   
 33  16  19  1   
 34  17  36  1   
 35  17  37  1   
 36  17  38  1   
 37  18  20  1   
 38  19  21  1   
 39  19  39  1   
 40  20  21  2   
 41  21  22  1   
 42  22  40  1   
 43  22  41  1   
 44  22  42  1   
@<TRIPOS>SUBSTRUCTURE
  1 ****  13 GROUP 4 **** **** 0

# MOE 2024.06 (io_trps.svl 2023.06)
