@<TRIPOS>MOLECULE
NONAME
49 53 1 0 0 
SMALL
USER_CHARGES


@<TRIPOS>ATOM
  1 O       -0.9450    -1.3380     1.8340 O.2   1 <1>  -0.5700 
  2 C       -1.3450    -1.3670     0.6870 C.2   1 <1>   0.5440 
  3 N       -0.6980    -2.1800    -0.2050 N.am  1 <1>  -0.7300 
  4 C       -2.4760    -0.5580     0.2700 C.ar  1 <1>   0.0860 
  5 C        0.5080    -2.9820     0.1040 C.3   1 <1>   0.1400 
  6 C       -2.7680     0.6420     0.9280 C.ar  1 <1>  -0.1500 
  7 C       -3.3110    -0.9470    -0.7930 C.ar  1 <1>  -0.1500 
  8 C        0.1340    -4.2110     0.9520 C.3   1 <1>  -0.0800 
  9 C       -3.8420     1.3980     0.5090 C.ar  1 <1>   0.0830 
 10 C       -4.3880    -0.1760    -1.2040 C.ar  1 <1>  -0.1500 
 11 C       -0.7880    -5.1720     0.1890 C.3   1 <1>   0.2000 
 12 C        1.3120    -5.1540     1.2800 C.3   1 <1>  -0.0800 
 13 O       -4.2780     2.5640     0.9980 O.3   1 <1>  -0.3620 
 14 C       -4.6320     1.0030    -0.5300 C.ar  1 <1>   0.0830 
 15 O        0.1470    -5.9130    -0.4960 O.3   1 <1>  -0.5600 
 16 C       -1.3890    -6.2440     1.1140 C.3   1 <1>  -0.1600 
 17 C        0.8820    -6.4310     0.5550 C.3   1 <1>   0.2800 
 18 C        2.7150    -4.8490     0.7260 C.3   1 <1>   0.3430 
 19 C       -5.4190     2.9310     0.2250 C.3   1 <1>   0.4000 
 20 O       -5.5960     1.8980    -0.7420 O.3   1 <1>  -0.3630 
 21 C       -0.1960    -7.1880     1.3270 C.3   1 <1>  -0.1600 
 22 C        2.1650    -7.0820     0.0460 C.3   1 <1>   0.3430 
 23 N        3.0100    -5.9090    -0.2770 N.4   1 <1>  -0.9590 
 24 C        4.5000    -6.1050    -0.4970 C.3   1 <1>   0.2370 
 25 C        5.2030    -4.8430    -1.0140 C.2   1 <1>   0.9060 
 26 O        4.4850    -3.9630    -1.5120 O.co2 1 <1>  -0.9000 
 27 O        6.4180    -4.7310    -0.8630 O.co2 1 <1>  -0.9000 
 28 H       -0.9040    -2.0710    -1.2000 H     1 <1>   0.3700 
 29 H        0.9710    -3.2860    -0.8200 H     1 <1>   0.0800 
 30 H        1.2040    -2.3620     0.6460 H     1 <1>   0.0800 
 31 H       -2.1630     0.9740     1.7530 H     1 <1>   0.1500 
 32 H       -3.1200    -1.8750    -1.3020 H     1 <1>   0.1500 
 33 H       -0.3400    -3.8770     1.8590 H     1 <1>   0.0800 
 34 H       -5.0260    -0.4740    -2.0170 H     1 <1>   0.1500 
 35 H       -1.4930    -4.7090    -0.4790 H     1 <1>   0.0800 
 36 H        1.3880    -5.3150     2.3410 H     1 <1>   0.0800 
 37 H       -1.7530    -5.8150     2.0320 H     1 <1>   0.0800 
 38 H       -2.1970    -6.7510     0.6150 H     1 <1>   0.0800 
 39 H        3.4350    -4.8960     1.5270 H     1 <1>   0.0800 
 40 H        2.7820    -3.8750     0.2680 H     1 <1>   0.0800 
 41 H       -6.2840     2.9840     0.8610 H     1 <1>   0.0800 
 42 H       -5.2320     3.8650    -0.2740 H     1 <1>   0.0800 
 43 H       -0.3800    -8.1470     0.8760 H     1 <1>   0.0800 
 44 H        0.0530    -7.3150     2.3660 H     1 <1>   0.0800 
 45 H        1.9780    -7.7000    -0.8170 H     1 <1>   0.0800 
 46 H        2.6200    -7.6610     0.8300 H     1 <1>   0.0800 
 47 H        2.6760    -5.4910    -1.1660 H     1 <1>   0.4500 
 48 H        4.9810    -6.3910     0.4210 H     1 <1>   0.0800 
 49 H        4.6650    -6.8790    -1.2240 H     1 <1>   0.0800 
@<TRIPOS>BOND
  1   1   2  2   
  2   2   3  am  
  3   2   4  1   
  4   3   5  1   
  5   3  28  1   
  6   4   6  ar  
  7   4   7  ar  
  8   5   8  1   
  9   5  29  1   
 10   5  30  1   
 11   6   9  ar  
 12   6  31  1   
 13   7  10  ar  
 14   7  32  1   
 15   8  11  1   
 16   8  12  1   
 17   8  33  1   
 18   9  13  1   
 19   9  14  ar  
 20  10  14  ar  
 21  10  34  1   
 22  11  15  1   
 23  11  16  1   
 24  11  35  1   
 25  12  17  1   
 26  12  18  1   
 27  12  36  1   
 28  13  19  1   
 29  14  20  1   
 30  15  17  1   
 31  16  21  1   
 32  16  37  1   
 33  16  38  1   
 34  17  21  1   
 35  17  22  1   
 36  18  23  1   
 37  18  39  1   
 38  18  40  1   
 39  19  20  1   
 40  19  41  1   
 41  19  42  1   
 42  21  43  1   
 43  21  44  1   
 44  22  23  1   
 45  22  45  1   
 46  22  46  1   
 47  23  24  1   
 48  23  47  1   
 49  24  25  1   
 50  24  48  1   
 51  24  49  1   
 52  25  26  ar  
 53  25  27  ar  
@<TRIPOS>SUBSTRUCTURE
  1 ****   3 GROUP 4 **** **** 0

# MOE 2024.06 (io_trps.svl 2023.06)
