@<TRIPOS>MOLECULE
NONAME
41 43 1 0 0 
SMALL
USER_CHARGES


@<TRIPOS>ATOM
  1 O        0.0630    -0.1610    -0.9370 O.2   1 <1>  -0.5700 
  2 C        1.0820    -0.6790    -0.5240 C.2   1 <1>   0.5440 
  3 N        2.1490     0.0990    -0.1390 N.am  1 <1>  -0.4940 
  4 C        1.1740    -2.1220    -0.4200 C.ar  1 <1>   0.0860 
  5 C        2.3870     1.4930    -0.2210 C.2   1 <1>  -0.0880 
  6 C        0.0490    -2.8850    -0.1220 C.ar  1 <1>  -0.1500 
  7 C        2.4000    -2.7960    -0.6170 C.ar  1 <1>  -0.1500 
  8 N        1.4950     2.5130    -0.0630 N.pl3 1 <1>   0.3140 
  9 C        3.5900     2.0760    -0.4440 C.2   1 <1>  -0.1810 
 10 C        0.1400    -4.2690    -0.0030 C.ar  1 <1>   0.0000 
 11 C        2.5020    -4.1670    -0.5010 C.ar  1 <1>  -0.1500 
 12 N        2.1000     3.7160    -0.1740 N.2   1 <1>  -0.7070 
 13 C        0.0720     2.4520     0.2930 C.3   1 <1>   0.0160 
 14 C        3.3440     3.4450    -0.4030 C.2   1 <1>   0.1080 
 15 C        4.9270     1.3990    -0.6950 C.3   1 <1>   0.0210 
 16 C        1.3610    -4.8900    -0.1890 C.ar  1 <1>   0.1400 
 17 C       -0.7540    -5.3210     0.2840 C.2   1 <1>  -0.1500 
 18 C        4.3700     4.5380    -0.5990 C.3   1 <1>  -0.0590 
 19 C        5.6660     1.1630     0.6240 C.3   1 <1>  -0.2400 
 20 O        1.2440    -6.2060    -0.0310 O.3   1 <1>  -0.2800 
 21 C       -0.0300    -6.4550     0.2530 C.2   1 <1>  -0.0400 
 22 C       -0.4350    -7.8950     0.4790 C.3   1 <1>  -0.0600 
 23 H        2.9530    -0.4270     0.1980 H     1 <1>   0.3700 
 24 H       -0.9050    -2.4070     0.0190 H     1 <1>   0.1500 
 25 H        3.2770    -2.2310    -0.8780 H     1 <1>   0.1500 
 26 H        3.4310    -4.6880    -0.6490 H     1 <1>   0.1500 
 27 H       -0.0930     1.6310     0.9640 H     1 <1>   0.0800 
 28 H       -0.5050     2.3150    -0.6020 H     1 <1>   0.0800 
 29 H       -0.2120     3.3710     0.7690 H     1 <1>   0.0800 
 30 H        5.5260     2.0120    -1.3450 H     1 <1>   0.0800 
 31 H        4.7650     0.4600    -1.1940 H     1 <1>   0.0800 
 32 H       -1.8020    -5.1910     0.4820 H     1 <1>   0.1500 
 33 H        5.2580     4.3180    -0.0380 H     1 <1>   0.0800 
 34 H        3.9690     5.4760    -0.2610 H     1 <1>   0.0800 
 35 H        4.6140     4.6190    -1.6410 H     1 <1>   0.0800 
 36 H        5.8480     2.1010     1.1190 H     1 <1>   0.0800 
 37 H        6.6090     0.6800     0.4400 H     1 <1>   0.0800 
 38 H        5.0770     0.5430     1.2760 H     1 <1>   0.0800 
 39 H       -1.4860    -7.9570     0.6980 H     1 <1>   0.0800 
 40 H        0.1200    -8.3020     1.3050 H     1 <1>   0.0800 
 41 H       -0.2250    -8.4740    -0.4020 H     1 <1>   0.0800 
@<TRIPOS>BOND
  1   1   2  2   
  2   2   3  am  
  3   2   4  1   
  4   3   5  1   
  5   3  23  1   
  6   4   6  ar  
  7   4   7  ar  
  8   5   8  1   
  9   5   9  2   
 10   6  10  ar  
 11   6  24  1   
 12   7  11  ar  
 13   7  25  1   
 14   8  12  1   
 15   8  13  1   
 16   9  14  1   
 17   9  15  1   
 18  10  16  ar  
 19  10  17  1   
 20  11  16  ar  
 21  11  26  1   
 22  12  14  2   
 23  13  27  1   
 24  13  28  1   
 25  13  29  1   
 26  14  18  1   
 27  15  19  1   
 28  15  30  1   
 29  15  31  1   
 30  16  20  1   
 31  17  21  2   
 32  17  32  1   
 33  18  33  1   
 34  18  34  1   
 35  18  35  1   
 36  19  36  1   
 37  19  37  1   
 38  19  38  1   
 39  20  21  1   
 40  21  22  1   
 41  22  39  1   
 42  22  40  1   
 43  22  41  1   
@<TRIPOS>SUBSTRUCTURE
  1 ****   2 GROUP 4 **** **** 0

# MOE 2024.06 (io_trps.svl 2023.06)
