@<TRIPOS>MOLECULE
NONAME
50 52 1 0 0 
SMALL
USER_CHARGES


@<TRIPOS>ATOM
  1 CL       0.4580     0.0130    -1.5590 Cl    1 <1>  -0.1770 
  2 C        0.1470    -1.6090    -0.9890 C.ar  1 <1>   0.1770 
  3 C       -1.0500    -2.2170    -1.2930 C.ar  1 <1>  -0.1500 
  4 C        1.1080    -2.2550    -0.2350 C.ar  1 <1>  -0.1500 
  5 C       -1.3260    -3.5090    -0.8420 C.ar  1 <1>   0.0860 
  6 C        0.8580    -3.5380     0.2070 C.ar  1 <1>  -0.1500 
  7 C       -0.3400    -4.1870    -0.0980 C.ar  1 <1>   0.1000 
  8 C       -2.6060    -4.1180    -1.1370 C.2   1 <1>   0.5440 
  9 N       -0.5630    -5.4880     0.3360 N.pl3 1 <1>  -0.8690 
 10 O       -2.6570    -5.2300    -1.6380 O.2   1 <1>  -0.5700 
 11 N       -3.7940    -3.4710    -0.8620 N.am  1 <1>  -0.6600 
 12 C        0.5360    -6.4800     0.4370 C.3   1 <1>   0.1290 
 13 C       -5.0750    -3.9810    -1.4310 C.3   1 <1>   0.1400 
 14 C       -3.8900    -2.3750     0.1470 C.3   1 <1>   0.1400 
 15 C       -6.1360    -2.8780    -1.4440 C.3   1 <1>  -0.1600 
 16 C       -5.2150    -2.4880     0.8990 C.3   1 <1>  -0.1600 
 17 C       -6.4170    -2.2780    -0.0450 C.3   1 <1>   0.2800 
 18 O       -6.5390    -0.8990    -0.2660 O.3   1 <1>  -0.5600 
 19 C       -7.7080    -2.8710     0.5800 C.3   1 <1>  -0.1600 
 20 C       -7.2810    -0.1230     0.6340 C.3   1 <1>   0.1200 
 21 C       -8.9740    -2.0510     0.2920 C.3   1 <1>   0.2800 
 22 C       -8.7530    -0.5750     0.7340 C.3   1 <1>   0.2000 
 23 O       -9.2120    -2.0730    -1.0680 O.3   1 <1>  -0.6800 
 24 C      -10.2140    -2.7100     0.9120 C.3   1 <1>  -0.2400 
 25 O       -9.1490    -0.3740     2.0610 O.3   1 <1>  -0.6800 
 26 H       -1.7780    -1.6910    -1.8820 H     1 <1>   0.1500 
 27 H        2.0320    -1.7560    -0.0030 H     1 <1>   0.1500 
 28 H        1.5960    -4.0440     0.8010 H     1 <1>   0.1500 
 29 H       -1.4020    -5.9030    -0.1130 H     1 <1>   0.4000 
 30 H        1.2160    -6.3630    -0.3890 H     1 <1>   0.0800 
 31 H        0.1290    -7.4760     0.4160 H     1 <1>   0.0800 
 32 H        1.0680    -6.3410     1.3620 H     1 <1>   0.0800 
 33 H       -4.9050    -4.3300    -2.4360 H     1 <1>   0.0800 
 34 H       -5.4130    -4.8150    -0.8410 H     1 <1>   0.0800 
 35 H       -3.0750    -2.4470     0.8470 H     1 <1>   0.0800 
 36 H       -3.8360    -1.4220    -0.3520 H     1 <1>   0.0800 
 37 H       -7.0360    -3.2720    -1.8760 H     1 <1>   0.0800 
 38 H       -5.7860    -2.1050    -2.1070 H     1 <1>   0.0800 
 39 H       -5.2370    -1.7760     1.7020 H     1 <1>   0.0800 
 40 H       -5.2570    -3.4680     1.3410 H     1 <1>   0.0800 
 41 H       -7.8380    -3.8910     0.2670 H     1 <1>   0.0800 
 42 H       -7.5850    -2.9050     1.6470 H     1 <1>   0.0800 
 43 H       -6.7960    -0.1730     1.5910 H     1 <1>   0.0800 
 44 H       -7.2440     0.8930     0.2820 H     1 <1>   0.0800 
 45 H       -9.3700     0.0690     0.1320 H     1 <1>   0.0800 
 46 H       -9.4920    -2.9650    -1.3420 H     1 <1>   0.4000 
 47 H      -10.1030    -2.8000     1.9770 H     1 <1>   0.0800 
 48 H      -10.3690    -3.6960     0.5130 H     1 <1>   0.0800 
 49 H      -11.0840    -2.1070     0.7200 H     1 <1>   0.0800 
 50 H       -8.6730    -0.9840     2.6550 H     1 <1>   0.4000 
@<TRIPOS>BOND
  1   1   2  1   
  2   2   3  ar  
  3   2   4  ar  
  4   3   5  ar  
  5   3  26  1   
  6   4   6  ar  
  7   4  27  1   
  8   5   7  ar  
  9   5   8  1   
 10   6   7  ar  
 11   6  28  1   
 12   7   9  1   
 13   8  10  2   
 14   8  11  am  
 15   9  12  1   
 16   9  29  1   
 17  11  13  1   
 18  11  14  1   
 19  12  30  1   
 20  12  31  1   
 21  12  32  1   
 22  13  15  1   
 23  13  33  1   
 24  13  34  1   
 25  14  16  1   
 26  14  35  1   
 27  14  36  1   
 28  15  17  1   
 29  15  37  1   
 30  15  38  1   
 31  16  17  1   
 32  16  39  1   
 33  16  40  1   
 34  17  18  1   
 35  17  19  1   
 36  18  20  1   
 37  19  21  1   
 38  19  41  1   
 39  19  42  1   
 40  20  22  1   
 41  20  43  1   
 42  20  44  1   
 43  21  22  1   
 44  21  23  1   
 45  21  24  1   
 46  22  25  1   
 47  22  45  1   
 48  23  46  1   
 49  24  47  1   
 50  24  48  1   
 51  24  49  1   
 52  25  50  1   
@<TRIPOS>SUBSTRUCTURE
  1 ****  14 GROUP 4 **** **** 0

# MOE 2024.06 (io_trps.svl 2023.06)
