@<TRIPOS>MOLECULE
NONAME
54 57 1 0 0 
SMALL
USER_CHARGES


@<TRIPOS>ATOM
  1 O       -5.5490    -1.1840    -3.1220 O.2   1 <1>  -0.5700 
  2 C       -5.1200    -1.3700    -2.0070 C.2   1 <1>   0.5690 
  3 N       -4.8750    -0.3410    -1.1450 N.am  1 <1>  -0.6600 
  4 C       -4.8490    -2.7950    -1.5850 C.3   1 <1>  -0.0190 
  5 C       -4.3770    -0.5780     0.2410 C.3   1 <1>   0.2200 
  6 C       -5.1340     1.0800    -1.5150 C.3   1 <1>   0.0600 
  7 C       -3.3510    -3.0210    -1.3080 C.3   1 <1>   0.1200 
  8 C       -5.8470    -3.2500    -0.5070 C.3   1 <1>   0.1400 
  9 C       -2.9680    -1.2210     0.2350 C.3   1 <1>   0.1200 
 10 C       -5.4400    -1.2970     1.1030 C.3   1 <1>   0.1400 
 11 O       -2.9320    -2.5940    -0.0470 O.3   1 <1>  -0.5600 
 12 N       -5.5600    -2.7740     0.8840 N.am  1 <1>  -0.6600 
 13 C       -5.4750    -3.6500     1.9480 C.2   1 <1>   0.5440 
 14 O       -5.5860    -3.2210     3.0830 O.2   1 <1>  -0.5700 
 15 C       -5.2590    -5.0720     1.7480 C.ar  1 <1>   0.0860 
 16 C       -6.2800    -6.0220     1.8760 C.ar  1 <1>  -0.1440 
 17 C       -3.9860    -5.5210     1.4020 C.ar  1 <1>  -0.1500 
 18 C       -6.0140    -7.3650     1.6570 C.ar  1 <1>  -0.1500 
 19 C       -7.6980    -5.5920     2.2480 C.3   1 <1>   0.1270 
 20 C       -3.7250    -6.8600     1.1840 C.ar  1 <1>  -0.1500 
 21 C       -4.7420    -7.7860     1.3110 C.ar  1 <1>  -0.1500 
 22 C       -8.3800    -4.8830     1.0850 C.ar  1 <1>  -0.1440 
 23 C       -8.5500    -5.5280    -0.1300 C.ar  1 <1>  -0.1500 
 24 C       -8.8250    -3.5770     1.2230 C.ar  1 <1>  -0.1500 
 25 C       -9.1480    -4.8750    -1.1930 C.ar  1 <1>  -0.1500 
 26 C       -9.4260    -2.9250     0.1610 C.ar  1 <1>  -0.1500 
 27 C       -9.5870    -3.5690    -1.0550 C.ar  1 <1>  -0.1440 
 28 C      -10.2280    -2.8440    -2.2240 C.3   1 <1>  -0.0970 
 29 H       -5.0730    -3.3900    -2.4520 H     1 <1>   0.0800 
 30 H       -4.2500     0.3910     0.6890 H     1 <1>   0.0800 
 31 H       -5.8790     1.4970    -0.8610 H     1 <1>   0.0800 
 32 H       -5.4910     1.1530    -2.5290 H     1 <1>   0.0800 
 33 H       -4.2260     1.6500    -1.4330 H     1 <1>   0.0800 
 34 H       -2.7490    -2.5280    -2.0520 H     1 <1>   0.0800 
 35 H       -3.1440    -4.0760    -1.3540 H     1 <1>   0.0800 
 36 H       -5.8880    -4.3230    -0.5250 H     1 <1>   0.0800 
 37 H       -6.8280    -2.9050    -0.7840 H     1 <1>   0.0800 
 38 H       -2.5420    -1.1100     1.2160 H     1 <1>   0.0800 
 39 H       -2.3290    -0.7120    -0.4650 H     1 <1>   0.0800 
 40 H       -6.4000    -0.8430     0.9340 H     1 <1>   0.0800 
 41 H       -5.1830    -1.1150     2.1320 H     1 <1>   0.0800 
 42 H       -3.1940    -4.7980     1.3060 H     1 <1>   0.1500 
 43 H       -6.7970    -8.0970     1.7530 H     1 <1>   0.1500 
 44 H       -8.2860    -6.4490     2.5220 H     1 <1>   0.0800 
 45 H       -7.6620    -4.9490     3.1110 H     1 <1>   0.0800 
 46 H       -2.7320    -7.1790     0.9180 H     1 <1>   0.1500 
 47 H       -4.5450    -8.8300     1.1440 H     1 <1>   0.1500 
 48 H       -8.2110    -6.5410    -0.2540 H     1 <1>   0.1500 
 49 H       -8.6950    -3.0570     2.1570 H     1 <1>   0.1500 
 50 H       -9.2680    -5.3880    -2.1310 H     1 <1>   0.1500 
 51 H       -9.7620    -1.9110     0.2840 H     1 <1>   0.1500 
 52 H      -10.6890    -3.5450    -2.8960 H     1 <1>   0.0800 
 53 H       -9.4790    -2.2890    -2.7600 H     1 <1>   0.0800 
 54 H      -10.9820    -2.1630    -1.8740 H     1 <1>   0.0800 
@<TRIPOS>BOND
  1   1   2  2   
  2   2   3  am  
  3   2   4  1   
  4   3   5  1   
  5   3   6  1   
  6   4   7  1   
  7   4   8  1   
  8   4  29  1   
  9   5   9  1   
 10   5  10  1   
 11   5  30  1   
 12   6  31  1   
 13   6  32  1   
 14   6  33  1   
 15   7  11  1   
 16   7  34  1   
 17   7  35  1   
 18   8  12  1   
 19   8  36  1   
 20   8  37  1   
 21   9  11  1   
 22   9  38  1   
 23   9  39  1   
 24  10  12  1   
 25  10  40  1   
 26  10  41  1   
 27  12  13  am  
 28  13  14  2   
 29  13  15  1   
 30  15  16  ar  
 31  15  17  ar  
 32  16  18  ar  
 33  16  19  1   
 34  17  20  ar  
 35  17  42  1   
 36  18  21  ar  
 37  18  43  1   
 38  19  22  1   
 39  19  44  1   
 40  19  45  1   
 41  20  21  ar  
 42  20  46  1   
 43  21  47  1   
 44  22  23  ar  
 45  22  24  ar  
 46  23  25  ar  
 47  23  48  1   
 48  24  26  ar  
 49  24  49  1   
 50  25  27  ar  
 51  25  50  1   
 52  26  27  ar  
 53  26  51  1   
 54  27  28  1   
 55  28  52  1   
 56  28  53  1   
 57  28  54  1   
@<TRIPOS>SUBSTRUCTURE
  1 ****   8 GROUP 4 **** **** 0

# MOE 2024.06 (io_trps.svl 2023.06)
