@<TRIPOS>MOLECULE
NONAME
31 31 1 0 0 
SMALL
USER_CHARGES


@<TRIPOS>ATOM
  1 F       -0.4910    -1.7080     2.0110 F     1 <1>  -0.3400 
  2 C        0.0520    -1.6540     0.7930 C.3   1 <1>   0.2600 
  3 C        1.3430    -2.4590     0.8010 C.3   1 <1>   0.1140 
  4 C       -0.8810    -2.4200    -0.1410 C.3   1 <1>  -0.1600 
  5 N        0.8850    -3.8790     0.5660 N.am  1 <1>  -0.6600 
  6 C        2.2310    -1.8360    -0.2860 C.2   1 <1>   0.9060 
  7 C       -0.4850    -3.8900     0.0140 C.3   1 <1>   0.1400 
  8 C        1.7290    -4.9490     0.5820 C.2   1 <1>   0.7800 
  9 O        2.0080    -2.0670    -1.4840 O.co2 1 <1>  -0.9000 
 10 O        3.0840    -1.0070     0.0580 O.co2 1 <1>  -0.9000 
 11 O        2.8400    -4.8960     1.0730 O.2   1 <1>  -0.5700 
 12 O        1.2590    -6.0860     0.0580 O.3   1 <1>  -0.4300 
 13 C        1.9580    -7.3000    -0.1040 C.3   1 <1>   0.2800 
 14 C        2.3300    -7.8860     1.2630 C.3   1 <1>  -0.2400 
 15 C        0.9700    -8.2370    -0.8010 C.3   1 <1>  -0.2400 
 16 C        3.1790    -7.0920    -1.0080 C.3   1 <1>  -0.2400 
 17 H        0.1840    -0.6140     0.5500 H     1 <1>   0.0800 
 18 H        1.8510    -2.3700     1.7420 H     1 <1>   0.0800 
 19 H       -1.9180    -2.2420     0.0710 H     1 <1>   0.0800 
 20 H       -0.6750    -2.1210    -1.1540 H     1 <1>   0.0800 
 21 H       -0.5060    -4.4000    -0.9350 H     1 <1>   0.0800 
 22 H       -1.1360    -4.3860     0.7120 H     1 <1>   0.0800 
 23 H        2.7330    -8.8750     1.1420 H     1 <1>   0.0800 
 24 H        1.4620    -7.9430     1.8940 H     1 <1>   0.0800 
 25 H        3.0790    -7.2880     1.7480 H     1 <1>   0.0800 
 26 H        1.4200    -9.1980    -0.9700 H     1 <1>   0.0800 
 27 H        0.6780    -7.8250    -1.7500 H     1 <1>   0.0800 
 28 H        0.0940    -8.3720    -0.1920 H     1 <1>   0.0800 
 29 H        3.6240    -8.0390    -1.2520 H     1 <1>   0.0800 
 30 H        3.9270    -6.4970    -0.5170 H     1 <1>   0.0800 
 31 H        2.8870    -6.6020    -1.9190 H     1 <1>   0.0800 
@<TRIPOS>BOND
  1   1   2  1   
  2   2   3  1   
  3   2   4  1   
  4   2  17  1   
  5   3   5  1   
  6   3   6  1   
  7   3  18  1   
  8   4   7  1   
  9   4  19  1   
 10   4  20  1   
 11   5   7  1   
 12   5   8  am  
 13   6   9  ar  
 14   6  10  ar  
 15   7  21  1   
 16   7  22  1   
 17   8  11  2   
 18   8  12  1   
 19  12  13  1   
 20  13  14  1   
 21  13  15  1   
 22  13  16  1   
 23  14  23  1   
 24  14  24  1   
 25  14  25  1   
 26  15  26  1   
 27  15  27  1   
 28  15  28  1   
 29  16  29  1   
 30  16  30  1   
 31  16  31  1   
@<TRIPOS>SUBSTRUCTURE
  1 ****   5 GROUP 4 **** **** 0

# MOE 2024.06 (io_trps.svl 2023.06)
