@<TRIPOS>MOLECULE
NONAME
55 58 1 0 0 
SMALL
USER_CHARGES


@<TRIPOS>ATOM
  1 O        1.3040     0.9480     1.0290 O.2   1 <1>  -0.5700 
  2 C        1.7790     0.1610     0.2340 C.2   1 <1>   0.7150 
  3 N        2.0500     0.6090    -1.0450 N.am  1 <1>  -0.6600 
  4 C        2.0570    -1.1910     0.6530 C.2   1 <1>  -0.2370 
  5 C        2.6580    -0.2390    -2.1190 C.3   1 <1>   0.1400 
  6 C        1.6440     1.9740    -1.4900 C.3   1 <1>   0.1400 
  7 N        1.1320    -1.9640     1.3260 N.pl3 1 <1>   0.0480 
  8 C        3.1970    -1.9330     0.5260 C.2   1 <1>  -0.1500 
  9 C        4.1800    -0.0080    -2.2400 C.3   1 <1>   0.3430 
 10 C        2.8300     2.9440    -1.4190 C.3   1 <1>  -0.1600 
 11 C        1.6980    -3.1840     1.6080 C.ar  1 <1>  -0.1520 
 12 C       -0.2260    -1.5440     1.7340 C.3   1 <1>   0.0160 
 13 C        2.9950    -3.1890     1.1140 C.ar  1 <1>   0.0000 
 14 N        4.6210     1.2700    -1.5870 N.4   1 <1>  -0.9590 
 15 C        4.0680     2.5000    -2.2030 C.3   1 <1>   0.3430 
 16 C        1.1970    -4.3100     2.2700 C.ar  1 <1>  -0.1500 
 17 C        3.8060    -4.3180     1.2740 C.ar  1 <1>  -0.1500 
 18 C        6.0830     1.3210    -1.3320 C.3   1 <1>   0.5230 
 19 C        2.0010    -5.4150     2.4190 C.ar  1 <1>  -0.1500 
 20 C        3.3120    -5.4260     1.9220 C.ar  1 <1>  -0.1440 
 21 C        6.3810     0.3300    -0.2270 C.2   1 <1>  -0.0400 
 22 C        4.1610    -6.6690     2.1140 C.3   1 <1>  -0.0970 
 23 O        5.6650     0.4170     0.8770 O.3   1 <1>  -0.2800 
 24 C        7.2630    -0.6900    -0.1400 C.2   1 <1>  -0.1500 
 25 C        6.0650    -0.5360     1.6920 C.2   1 <1>  -0.0400 
 26 C        7.0530    -1.2580     1.1230 C.2   1 <1>  -0.1500 
 27 C        5.3950    -0.6690     3.0440 C.3   1 <1>  -0.0600 
 28 H        2.1920    -0.0080    -3.0610 H     1 <1>   0.0800 
 29 H        2.4640    -1.2820    -1.9350 H     1 <1>   0.0800 
 30 H        0.8460     2.3440    -0.8660 H     1 <1>   0.0800 
 31 H        1.2600     1.9290    -2.4950 H     1 <1>   0.0800 
 32 H        4.1330    -1.6520     0.0870 H     1 <1>   0.1500 
 33 H        4.4660    -0.0200    -3.2780 H     1 <1>   0.0800 
 34 H        4.6770    -0.8360    -1.7620 H     1 <1>   0.0800 
 35 H        3.0880     3.1140    -0.3880 H     1 <1>   0.0800 
 36 H        2.5030     3.8890    -1.8150 H     1 <1>   0.0800 
 37 H       -0.6760    -0.9640     0.9500 H     1 <1>   0.0800 
 38 H       -0.1550    -0.9460     2.6240 H     1 <1>   0.0800 
 39 H       -0.8360    -2.4070     1.9270 H     1 <1>   0.0800 
 40 H        4.2030     1.2200    -0.6380 H     1 <1>   0.4500 
 41 H        4.8000     3.2910    -2.1620 H     1 <1>   0.0800 
 42 H        3.8150     2.3250    -3.2360 H     1 <1>   0.0800 
 43 H        0.1950    -4.3090     2.6570 H     1 <1>   0.1500 
 44 H        4.8070    -4.2950     0.8860 H     1 <1>   0.1500 
 45 H        6.3640     2.3050    -0.9940 H     1 <1>   0.0800 
 46 H        6.6400     1.0810    -2.2220 H     1 <1>   0.0800 
 47 H        1.6260    -6.2870     2.9260 H     1 <1>   0.1500 
 48 H        5.1370    -6.5380     1.6830 H     1 <1>   0.0800 
 49 H        3.6880    -7.5110     1.6410 H     1 <1>   0.0800 
 50 H        4.2740    -6.8760     3.1630 H     1 <1>   0.0800 
 51 H        7.9910    -1.0370    -0.8530 H     1 <1>   0.1500 
 52 H        7.5880    -2.0990     1.5290 H     1 <1>   0.1500 
 53 H        5.5470     0.2270     3.6170 H     1 <1>   0.0800 
 54 H        5.8060    -1.5030     3.5830 H     1 <1>   0.0800 
 55 H        4.3390    -0.8260     2.9190 H     1 <1>   0.0800 
@<TRIPOS>BOND
  1   1   2  2   
  2   2   3  am  
  3   2   4  1   
  4   3   5  1   
  5   3   6  1   
  6   4   7  1   
  7   4   8  2   
  8   5   9  1   
  9   5  28  1   
 10   5  29  1   
 11   6  10  1   
 12   6  30  1   
 13   6  31  1   
 14   7  11  1   
 15   7  12  1   
 16   8  13  1   
 17   8  32  1   
 18   9  14  1   
 19   9  33  1   
 20   9  34  1   
 21  10  15  1   
 22  10  35  1   
 23  10  36  1   
 24  11  13  ar  
 25  11  16  ar  
 26  12  37  1   
 27  12  38  1   
 28  12  39  1   
 29  13  17  ar  
 30  14  15  1   
 31  14  18  1   
 32  14  40  1   
 33  15  41  1   
 34  15  42  1   
 35  16  19  ar  
 36  16  43  1   
 37  17  20  ar  
 38  17  44  1   
 39  18  21  1   
 40  18  45  1   
 41  18  46  1   
 42  19  20  ar  
 43  19  47  1   
 44  20  22  1   
 45  21  23  1   
 46  21  24  2   
 47  22  48  1   
 48  22  49  1   
 49  22  50  1   
 50  23  25  1   
 51  24  26  1   
 52  24  51  1   
 53  25  26  2   
 54  25  27  1   
 55  26  52  1   
 56  27  53  1   
 57  27  54  1   
 58  27  55  1   
@<TRIPOS>SUBSTRUCTURE
  1 ****   8 GROUP 4 **** **** 0

# MOE 2024.06 (io_trps.svl 2023.06)
