@<TRIPOS>MOLECULE
NONAME
58 61 1 0 0 
SMALL
USER_CHARGES


@<TRIPOS>ATOM
  1 O       -8.3500     3.4320     1.0970 O.3   1 <1>  -0.0190 
  2 N       -9.6250     3.2270     1.0190 N.2   1 <1>  -0.4100 
  3 C       -7.8220     2.2560     0.8840 C.2   1 <1>   0.2980 
  4 C       -9.8180     1.9810     0.7710 C.2   1 <1>   0.4620 
  5 N       -8.6580     1.3150     0.6890 N.2   1 <1>  -0.5650 
  6 C       -6.2940     2.1420     0.9170 C.3   1 <1>   0.4280 
  7 C      -11.1090     1.3350     0.6060 C.ar  1 <1>   0.0540 
  8 N       -5.7340     0.7980     0.5290 N.pl3 1 <1>  -0.7220 
  9 C       -5.6520     3.1480    -0.0550 C.3   1 <1>   0.2000 
 10 C      -11.2400     0.0530     0.1140 C.ar  1 <1>  -0.1500 
 11 C      -12.2980     2.0130     0.9510 C.ar  1 <1>  -0.1500 
 12 C       -5.9200    -0.3180     1.2230 C.cat 1 <1>   1.2000 
 13 C       -4.8070     0.9630    -0.6230 C.3   1 <1>   0.1680 
 14 O       -5.2320     4.2800     0.6240 O.3   1 <1>  -0.6800 
 15 C       -4.4410     2.4420    -0.6460 C.3   1 <1>  -0.1600 
 16 C      -12.4850    -0.5830    -0.0420 C.ar  1 <1>   0.0000 
 17 C      -13.5240     1.4250     0.8130 C.ar  1 <1>  -0.1500 
 18 N       -6.8240    -0.4270     2.1440 N.pl3 1 <1>  -0.9670 
 19 N       -5.1960    -1.3740     1.0120 N.pl3 1 <1>  -0.9670 
 20 C      -13.6570     0.1140     0.3170 C.ar  1 <1>   0.0000 
 21 C      -12.6100    -1.8950    -0.5450 C.ar  1 <1>  -0.1500 
 22 C      -14.9060    -0.5190     0.1660 C.ar  1 <1>  -0.1500 
 23 C      -13.8340    -2.4870    -0.6820 C.ar  1 <1>  -0.1500 
 24 C      -15.0000    -1.8000    -0.3250 C.ar  1 <1>   0.0830 
 25 O      -16.1630    -2.4740    -0.4980 O.3   1 <1>  -0.3620 
 26 C      -17.4040    -1.8910    -0.1740 C.3   1 <1>   0.1200 
 27 C      -18.5040    -2.9060    -0.4840 C.3   1 <1>  -0.1600 
 28 C      -19.8910    -2.3390    -0.1550 C.3   1 <1>  -0.1600 
 29 C      -20.9930    -3.3580    -0.4660 C.3   1 <1>  -0.1600 
 30 C      -22.3770    -2.7930    -0.1380 C.3   1 <1>  -0.2400 
 31 H       -5.9560     2.3700     1.9140 H     1 <1>   0.0800 
 32 H       -6.3510     3.4400    -0.8220 H     1 <1>   0.0800 
 33 H      -10.3650    -0.5000    -0.1730 H     1 <1>   0.1500 
 34 H      -12.2270     3.0170     1.3330 H     1 <1>   0.1500 
 35 H       -3.9200     0.3590    -0.5250 H     1 <1>   0.0800 
 36 H       -5.3230     0.6990    -1.5330 H     1 <1>   0.0800 
 37 H       -4.8750     4.9530     0.0070 H     1 <1>   0.4000 
 38 H       -4.2280     2.7740    -1.6470 H     1 <1>   0.0800 
 39 H       -3.5730     2.5930    -0.0270 H     1 <1>   0.0800 
 40 H      -14.4160     1.9620     1.0830 H     1 <1>   0.1500 
 41 H       -6.9670    -1.2640     2.6980 H     1 <1>   0.4500 
 42 H       -7.5980     0.2410     2.1700 H     1 <1>   0.4500 
 43 H       -4.4640    -1.3900     0.3110 H     1 <1>   0.4500 
 44 H       -5.3200    -2.2380     1.5290 H     1 <1>   0.4500 
 45 H      -11.7190    -2.4290    -0.8240 H     1 <1>   0.1500 
 46 H      -15.7770     0.0380     0.4490 H     1 <1>   0.1500 
 47 H      -13.9330    -3.4870    -1.0660 H     1 <1>   0.1500 
 48 H      -17.3990    -1.6430     0.8730 H     1 <1>   0.0800 
 49 H      -17.5270    -1.0030    -0.7690 H     1 <1>   0.0800 
 50 H      -18.4600    -3.1610    -1.5280 H     1 <1>   0.0800 
 51 H      -18.3330    -3.7950     0.0970 H     1 <1>   0.0800 
 52 H      -19.9330    -2.0770     0.8890 H     1 <1>   0.0800 
 53 H      -20.0600    -1.4450    -0.7320 H     1 <1>   0.0800 
 54 H      -20.9570    -3.6230    -1.5100 H     1 <1>   0.0800 
 55 H      -20.8300    -4.2540     0.1100 H     1 <1>   0.0800 
 56 H      -22.5700    -1.9090    -0.7200 H     1 <1>   0.0800 
 57 H      -22.4440    -2.5430     0.9060 H     1 <1>   0.0800 
 58 H      -23.1350    -3.5230    -0.3630 H     1 <1>   0.0800 
@<TRIPOS>BOND
  1   1   2  1   
  2   1   3  1   
  3   2   4  2   
  4   3   5  2   
  5   3   6  1   
  6   4   5  1   
  7   4   7  1   
  8   6   8  1   
  9   6   9  1   
 10   6  31  1   
 11   7  10  ar  
 12   7  11  ar  
 13   8  12  ar  
 14   8  13  1   
 15   9  14  1   
 16   9  15  1   
 17   9  32  1   
 18  10  16  ar  
 19  10  33  1   
 20  11  17  ar  
 21  11  34  1   
 22  12  18  ar  
 23  12  19  ar  
 24  13  15  1   
 25  13  35  1   
 26  13  36  1   
 27  14  37  1   
 28  15  38  1   
 29  15  39  1   
 30  16  20  ar  
 31  16  21  ar  
 32  17  20  ar  
 33  17  40  1   
 34  18  41  1   
 35  18  42  1   
 36  19  43  1   
 37  19  44  1   
 38  20  22  ar  
 39  21  23  ar  
 40  21  45  1   
 41  22  24  ar  
 42  22  46  1   
 43  23  24  ar  
 44  23  47  1   
 45  24  25  1   
 46  25  26  1   
 47  26  27  1   
 48  26  48  1   
 49  26  49  1   
 50  27  28  1   
 51  27  50  1   
 52  27  51  1   
 53  28  29  1   
 54  28  52  1   
 55  28  53  1   
 56  29  30  1   
 57  29  54  1   
 58  29  55  1   
 59  30  56  1   
 60  30  57  1   
 61  30  58  1   
@<TRIPOS>SUBSTRUCTURE
  1 ****  10 GROUP 4 **** **** 0

# MOE 2024.06 (io_trps.svl 2023.06)
