@<TRIPOS>MOLECULE
NONAME
52 55 1 0 0 
SMALL
USER_CHARGES


@<TRIPOS>ATOM
  1 O       -0.4150    -0.1050    -1.8260 O.2   1 <1>  -0.5700 
  2 C       -1.3780     0.6010    -1.5940 C.2   1 <1>   0.6160 
  3 N       -2.5410     0.0180    -1.1590 N.am  1 <1>  -0.6600 
  4 C       -1.2940     2.0300    -1.7790 C.2   1 <1>  -0.0140 
  5 C       -3.7130     0.7460    -0.6250 C.3   1 <1>   0.1400 
  6 C       -2.6770    -1.4370    -0.9370 C.3   1 <1>   0.1400 
  7 C       -0.4610     2.8300    -0.9070 C.ar  1 <1>   0.0280 
  8 C       -2.0040     2.6540    -2.7620 C.2   1 <1>  -0.1360 
  9 C       -4.3840    -0.2420     0.3390 C.3   1 <1>  -0.0800 
 10 C       -4.0180    -1.6300    -0.2220 C.3   1 <1>  -0.0800 
 11 C       -0.4240     4.2220    -1.1010 C.ar  1 <1>   0.1170 
 12 C        0.3110     2.2960     0.1310 C.ar  1 <1>  -0.1500 
 13 C       -1.9550     4.0570    -2.9590 C.2   1 <1>   0.6160 
 14 C       -5.9050    -0.0170     0.6060 C.3   1 <1>   0.2800 
 15 C       -5.1160    -2.1510    -1.1620 C.3   1 <1>  -0.1600 
 16 N       -1.1740     4.7870    -2.1240 N.am  1 <1>  -0.5470 
 17 C        0.3550     5.0250    -0.2720 C.ar  1 <1>  -0.1500 
 18 C        1.0810     3.0970     0.9500 C.ar  1 <1>  -0.1430 
 19 O       -2.5800     4.6330    -3.8290 O.2   1 <1>  -0.5700 
 20 O       -6.4960     0.6000    -0.4810 O.3   1 <1>  -0.6800 
 21 C       -6.6180    -1.3700     0.7820 C.3   1 <1>  -0.1600 
 22 C       -6.1700     0.8830     1.8330 C.3   1 <1>  -0.1600 
 23 C       -6.4600    -2.3150    -0.4300 C.3   1 <1>  -0.1600 
 24 C        1.1000     4.4700     0.7440 C.ar  1 <1>  -0.1500 
 25 C        1.9130     2.4980     2.0700 C.3   1 <1>  -0.0970 
 26 C       -5.5810     2.3030     1.7600 C.3   1 <1>  -0.2400 
 27 H       -3.4170     1.6480    -0.1220 H     1 <1>   0.0800 
 28 H       -4.3540     0.9920    -1.4530 H     1 <1>   0.0800 
 29 H       -2.6400    -1.9620    -1.8760 H     1 <1>   0.0800 
 30 H       -1.8660    -1.7730    -0.3130 H     1 <1>   0.0800 
 31 H       -2.6350     2.1070    -3.4360 H     1 <1>   0.1500 
 32 H       -3.8690    -0.1590     1.2790 H     1 <1>   0.0800 
 33 H       -3.8920    -2.3390     0.5780 H     1 <1>   0.0800 
 34 H        0.3090     1.2330     0.2960 H     1 <1>   0.1500 
 35 H       -5.2410    -1.4470    -1.9680 H     1 <1>   0.0800 
 36 H       -4.8240    -3.0920    -1.5960 H     1 <1>   0.0800 
 37 H       -1.1600     5.7900    -2.3030 H     1 <1>   0.3700 
 38 H        0.3730     6.0880    -0.4300 H     1 <1>   0.1500 
 39 H       -7.4550     0.6670    -0.3300 H     1 <1>   0.4000 
 40 H       -6.1930    -1.8570     1.6430 H     1 <1>   0.0800 
 41 H       -7.6620    -1.2240     0.9930 H     1 <1>   0.0800 
 42 H       -7.2320     0.9620     1.9830 H     1 <1>   0.0800 
 43 H       -5.7710     0.3990     2.7070 H     1 <1>   0.0800 
 44 H       -6.5640    -3.3310    -0.0890 H     1 <1>   0.0800 
 45 H       -7.2540    -2.1290    -1.1340 H     1 <1>   0.0800 
 46 H        1.7000     5.0990     1.3790 H     1 <1>   0.1500 
 47 H        1.6190     2.9240     3.0130 H     1 <1>   0.0800 
 48 H        2.9550     2.7070     1.9030 H     1 <1>   0.0800 
 49 H        1.7820     1.4320     2.1200 H     1 <1>   0.0800 
 50 H       -5.9050     2.8070     0.8660 H     1 <1>   0.0800 
 51 H       -4.5070     2.2750     1.7740 H     1 <1>   0.0800 
 52 H       -5.9090     2.8770     2.6080 H     1 <1>   0.0800 
@<TRIPOS>BOND
  1   1   2  2   
  2   2   3  am  
  3   2   4  1   
  4   3   5  1   
  5   3   6  1   
  6   4   7  1   
  7   4   8  2   
  8   5   9  1   
  9   5  27  1   
 10   5  28  1   
 11   6  10  1   
 12   6  29  1   
 13   6  30  1   
 14   7  11  ar  
 15   7  12  ar  
 16   8  13  1   
 17   8  31  1   
 18   9  10  1   
 19   9  14  1   
 20   9  32  1   
 21  10  15  1   
 22  10  33  1   
 23  11  16  1   
 24  11  17  ar  
 25  12  18  ar  
 26  12  34  1   
 27  13  16  am  
 28  13  19  2   
 29  14  20  1   
 30  14  21  1   
 31  14  22  1   
 32  15  23  1   
 33  15  35  1   
 34  15  36  1   
 35  16  37  1   
 36  17  24  ar  
 37  17  38  1   
 38  18  24  ar  
 39  18  25  1   
 40  20  39  1   
 41  21  23  1   
 42  21  40  1   
 43  21  41  1   
 44  22  26  1   
 45  22  42  1   
 46  22  43  1   
 47  23  44  1   
 48  23  45  1   
 49  24  46  1   
 50  25  47  1   
 51  25  48  1   
 52  25  49  1   
 53  26  50  1   
 54  26  51  1   
 55  26  52  1   
@<TRIPOS>SUBSTRUCTURE
  1 ****   5 GROUP 4 **** **** 0

# MOE 2024.06 (io_trps.svl 2023.06)
