@<TRIPOS>MOLECULE
NONAME
54 56 1 0 0 
SMALL
USER_CHARGES


@<TRIPOS>ATOM
  1 O       -3.5660     2.6340    -2.0870 O.2   1 <1>  -0.5700 
  2 C       -3.1550     2.2520    -1.0170 C.2   1 <1>   0.6300 
  3 N       -3.4990     1.0070    -0.5630 N.am  1 <1>  -0.6600 
  4 C       -2.2290     3.1670    -0.2000 C.3   1 <1>   0.0320 
  5 C       -3.7090    -0.0540    -1.6090 C.3   1 <1>   0.3210 
  6 C       -3.3940     0.5970     0.8830 C.3   1 <1>   0.1400 
  7 C       -0.8600     2.5300     0.0090 C.ar  1 <1>  -0.0320 
  8 C       -2.8140     4.1200     0.8110 C.3   1 <1>  -0.2000 
  9 C       -2.2300     4.6490    -0.4570 C.3   1 <1>  -0.2000 
 10 C       -3.4600    -1.4700    -1.1010 C.2   1 <1>   0.0460 
 11 C       -4.7130     0.0090     1.4230 C.3   1 <1>   0.3430 
 12 C       -0.3920     2.1870     1.2690 C.ar  1 <1>  -0.1500 
 13 C       -0.0660     2.2660    -1.0960 C.ar  1 <1>  -0.1500 
 14 N       -4.4810    -2.2650    -0.7150 N.2   1 <1>  -0.5650 
 15 C       -2.2730    -2.1070    -0.9680 C.2   1 <1>  -0.3320 
 16 N       -5.8890     0.6620     0.7650 N.4   1 <1>  -0.9590 
 17 C        0.8420     1.5770     1.4180 C.ar  1 <1>  -0.1500 
 18 C        1.1670     1.6570    -0.9480 C.ar  1 <1>  -0.1500 
 19 C       -3.8980    -3.3730    -0.3840 C.2   1 <1>   0.0360 
 20 N       -2.5550    -3.3420    -0.5140 N.pl3 1 <1>   0.0330 
 21 C       -0.8570    -1.6270    -1.2490 C.3   1 <1>  -0.0600 
 22 C       -6.3750     1.8680     1.4940 C.3   1 <1>   0.2630 
 23 C       -6.9720    -0.3340     0.5110 C.3   1 <1>   0.2630 
 24 C        1.6260     1.3050     0.3100 C.ar  1 <1>  -0.1430 
 25 C        2.9810     0.6410     0.4740 C.3   1 <1>  -0.0970 
 26 H       -3.0410     0.1290    -2.4330 H     1 <1>   0.0800 
 27 H       -4.7120     0.0120    -1.9940 H     1 <1>   0.0800 
 28 H       -3.1490     1.4490     1.4890 H     1 <1>   0.0800 
 29 H       -2.5980    -0.1170     1.0080 H     1 <1>   0.0800 
 30 H       -2.2850     4.3400     1.7220 H     1 <1>   0.1000 
 31 H       -3.8800     4.1910     0.9260 H     1 <1>   0.1000 
 32 H       -2.8870     5.0420    -1.2150 H     1 <1>   0.1000 
 33 H       -1.2910     5.1740    -0.4190 H     1 <1>   0.1000 
 34 H       -4.7620     0.1200     2.4940 H     1 <1>   0.0800 
 35 H       -4.7210    -1.0450     1.2110 H     1 <1>   0.0800 
 36 H       -0.9790     2.3940     2.1450 H     1 <1>   0.1500 
 37 H       -0.4100     2.5360    -2.0800 H     1 <1>   0.1500 
 38 H       -5.5140     0.9640    -0.1540 H     1 <1>   0.4500 
 39 H        1.1940     1.3200     2.4020 H     1 <1>   0.1500 
 40 H        1.7700     1.4630    -1.8190 H     1 <1>   0.1500 
 41 H       -4.4130    -4.2540    -0.0390 H     1 <1>   0.1500 
 42 H       -1.8960    -4.1030    -0.3210 H     1 <1>   0.2700 
 43 H       -0.8610    -0.6080    -1.5920 H     1 <1>   0.0800 
 44 H       -0.4000    -2.2380    -2.0070 H     1 <1>   0.0800 
 45 H       -0.2610    -1.6760    -0.3550 H     1 <1>   0.0800 
 46 H       -6.7440     1.5930     2.4690 H     1 <1>   0.0800 
 47 H       -7.1720     2.3390     0.9420 H     1 <1>   0.0800 
 48 H       -5.5740     2.5790     1.6120 H     1 <1>   0.0800 
 49 H       -7.3610    -0.7130     1.4420 H     1 <1>   0.0800 
 50 H       -6.5880    -1.1630    -0.0630 H     1 <1>   0.0800 
 51 H       -7.7760     0.1210    -0.0430 H     1 <1>   0.0800 
 52 H        2.9720    -0.0290     1.3150 H     1 <1>   0.0800 
 53 H        3.7350     1.3910     0.6360 H     1 <1>   0.0800 
 54 H        3.2360     0.0780    -0.4060 H     1 <1>   0.0800 
@<TRIPOS>BOND
  1   1   2  2   
  2   2   3  am  
  3   2   4  1   
  4   3   5  1   
  5   3   6  1   
  6   4   7  1   
  7   4   8  1   
  8   4   9  1   
  9   5  10  1   
 10   5  26  1   
 11   5  27  1   
 12   6  11  1   
 13   6  28  1   
 14   6  29  1   
 15   7  12  ar  
 16   7  13  ar  
 17   8   9  1   
 18   8  30  1   
 19   8  31  1   
 20   9  32  1   
 21   9  33  1   
 22  10  14  1   
 23  10  15  2   
 24  11  16  1   
 25  11  34  1   
 26  11  35  1   
 27  12  17  ar  
 28  12  36  1   
 29  13  18  ar  
 30  13  37  1   
 31  14  19  2   
 32  15  20  1   
 33  15  21  1   
 34  16  22  1   
 35  16  23  1   
 36  16  38  1   
 37  17  24  ar  
 38  17  39  1   
 39  18  24  ar  
 40  18  40  1   
 41  19  20  1   
 42  19  41  1   
 43  20  42  1   
 44  21  43  1   
 45  21  44  1   
 46  21  45  1   
 47  22  46  1   
 48  22  47  1   
 49  22  48  1   
 50  23  49  1   
 51  23  50  1   
 52  23  51  1   
 53  24  25  1   
 54  25  52  1   
 55  25  53  1   
 56  25  54  1   
@<TRIPOS>SUBSTRUCTURE
  1 ****   3 GROUP 4 **** **** 0

# MOE 2024.06 (io_trps.svl 2023.06)
