@<TRIPOS>MOLECULE
NONAME
47 50 1 0 0 
SMALL
USER_CHARGES


@<TRIPOS>ATOM
  1 CL      -1.3170    -4.6070    -2.6610 Cl    1 <1>  -0.1770 
  2 C       -2.0330    -3.1740    -1.9620 C.ar  1 <1>   0.1770 
  3 C       -2.8430    -3.3150    -0.8370 C.ar  1 <1>  -0.1520 
  4 C       -1.8090    -1.9320    -2.5030 C.ar  1 <1>  -0.1500 
  5 N       -3.2040    -4.4280    -0.1360 N.pl3 1 <1>   0.0330 
  6 C       -3.4340    -2.2050    -0.2490 C.ar  1 <1>   0.0000 
  7 C       -2.4010    -0.8060    -1.9140 C.ar  1 <1>  -0.1500 
  8 C       -4.0270    -4.0380     0.8890 C.2   1 <1>  -0.3320 
  9 C       -4.1810    -2.6900     0.8480 C.2   1 <1>  -0.1810 
 10 C       -3.2040    -0.9370    -0.8020 C.ar  1 <1>  -0.1500 
 11 C       -4.6160    -5.0450     1.8440 C.3   1 <1>   0.5230 
 12 C       -4.9810    -1.7790     1.7620 C.3   1 <1>  -0.0590 
 13 N       -5.4770    -5.8880     1.0040 N.4   1 <1>  -0.9590 
 14 C       -6.7650    -5.2590     0.5760 C.3   1 <1>   0.3430 
 15 C       -5.7900    -7.2450     1.4840 C.3   1 <1>   0.3430 
 16 C       -7.7590    -6.4280     0.4420 C.3   1 <1>   0.2000 
 17 C       -6.8860    -7.6870     0.5140 C.3   1 <1>  -0.0800 
 18 O       -8.6390    -6.4280     1.5170 O.3   1 <1>  -0.6800 
 19 C       -6.3530    -8.0440    -0.9040 C.3   1 <1>  -0.0170 
 20 C       -4.8860    -8.4590    -0.9710 C.ar  1 <1>   0.1670 
 21 N       -3.9830    -7.4810    -0.9480 N.ar  1 <1>  -0.6200 
 22 C       -4.5590    -9.8110    -1.0710 C.ar  1 <1>   0.1600 
 23 C       -2.7480    -7.9540    -1.0810 C.ar  1 <1>   0.1600 
 24 N       -3.3260   -10.2730    -1.1600 N.ar  1 <1>  -0.6200 
 25 C       -2.4310    -9.3030    -1.1790 C.ar  1 <1>   0.1600 
 26 H       -1.1840    -1.8210    -3.3710 H     1 <1>   0.1500 
 27 H       -2.9100    -5.3780    -0.3970 H     1 <1>   0.2700 
 28 H       -2.2200     0.1650    -2.3430 H     1 <1>   0.1500 
 29 H       -3.6590    -0.0770    -0.3460 H     1 <1>   0.1500 
 30 H       -5.1870    -4.5610     2.6190 H     1 <1>   0.0800 
 31 H       -3.8280    -5.6290     2.2910 H     1 <1>   0.0800 
 32 H       -5.7220    -1.2480     1.1910 H     1 <1>   0.0800 
 33 H       -4.3240    -1.0610     2.2210 H     1 <1>   0.0800 
 34 H       -5.4740    -2.3350     2.5370 H     1 <1>   0.0800 
 35 H       -4.9310    -6.0490     0.1380 H     1 <1>   0.4500 
 36 H       -7.1220    -4.5490     1.3030 H     1 <1>   0.0800 
 37 H       -6.6280    -4.7610    -0.3710 H     1 <1>   0.0800 
 38 H       -4.9270    -7.8920     1.4490 H     1 <1>   0.0800 
 39 H       -6.1740    -7.2090     2.4900 H     1 <1>   0.0800 
 40 H       -8.3480    -6.3610    -0.4580 H     1 <1>   0.0800 
 41 H       -7.4270    -8.5300     0.9100 H     1 <1>   0.0800 
 42 H       -8.2060    -6.5370     2.3850 H     1 <1>   0.4000 
 43 H       -6.4650    -7.2070    -1.5720 H     1 <1>   0.0800 
 44 H       -6.9660    -8.8280    -1.3130 H     1 <1>   0.0800 
 45 H       -5.3470   -10.5450    -1.0810 H     1 <1>   0.1500 
 46 H       -1.9360    -7.2470    -1.1200 H     1 <1>   0.1500 
 47 H       -1.3980    -9.5900    -1.2780 H     1 <1>   0.1500 
@<TRIPOS>BOND
  1   1   2  1   
  2   2   3  ar  
  3   2   4  ar  
  4   3   5  1   
  5   3   6  ar  
  6   4   7  ar  
  7   4  26  1   
  8   5   8  1   
  9   5  27  1   
 10   6   9  1   
 11   6  10  ar  
 12   7  10  ar  
 13   7  28  1   
 14   8   9  2   
 15   8  11  1   
 16   9  12  1   
 17  10  29  1   
 18  11  13  1   
 19  11  30  1   
 20  11  31  1   
 21  12  32  1   
 22  12  33  1   
 23  12  34  1   
 24  13  14  1   
 25  13  15  1   
 26  13  35  1   
 27  14  16  1   
 28  14  36  1   
 29  14  37  1   
 30  15  17  1   
 31  15  38  1   
 32  15  39  1   
 33  16  17  1   
 34  16  18  1   
 35  16  40  1   
 36  17  19  1   
 37  17  41  1   
 38  18  42  1   
 39  19  20  1   
 40  19  43  1   
 41  19  44  1   
 42  20  21  ar  
 43  20  22  ar  
 44  21  23  ar  
 45  22  24  ar  
 46  22  45  1   
 47  23  25  ar  
 48  23  46  1   
 49  24  25  ar  
 50  25  47  1   
@<TRIPOS>SUBSTRUCTURE
  1 ****   5 GROUP 4 **** **** 0

# MOE 2024.06 (io_trps.svl 2023.06)
