@<TRIPOS>MOLECULE
NONAME
33 34 1 0 0 
SMALL
USER_CHARGES


@<TRIPOS>ATOM
  1 S        0.1930     0.1200     1.8350 S.o2  1 <1>   1.4470 
  2 O        0.9370    -0.8650     2.5880 O.2   1 <1>  -0.6500 
  3 O       -0.1800     1.3680     2.4680 O.2   1 <1>  -0.6500 
  4 N       -1.2290    -0.6090     1.2650 N.am  1 <1>  -0.8490 
  5 C        1.1250     0.5180     0.3240 C.ar  1 <1>  -0.0090 
  6 C       -0.9770    -1.8310     0.4830 C.3   1 <1>   0.1960 
  7 C       -2.1500     0.3170     0.6020 C.3   1 <1>   0.1960 
  8 C        0.9540     1.7400    -0.3230 C.ar  1 <1>  -0.1500 
  9 C        2.0180    -0.3950    -0.2360 C.ar  1 <1>  -0.1500 
 10 C       -2.2770    -2.5670     0.1570 C.3   1 <1>  -0.1860 
 11 C       -3.4880    -0.3680     0.3300 C.3   1 <1>  -0.1600 
 12 C        1.6540     2.0190    -1.4830 C.ar  1 <1>   0.1900 
 13 C        2.7040    -0.0770    -1.3950 C.ar  1 <1>   0.1900 
 14 C       -2.0040    -3.7310    -0.7670 C.2   1 <1>   0.9060 
 15 C       -3.2710    -1.6220    -0.5080 C.3   1 <1>   0.2000 
 16 F        1.4660     3.1710    -2.0660 F     1 <1>  -0.1900 
 17 C        2.5420     1.1270    -2.0480 C.ar  1 <1>  -0.1500 
 18 F        3.5410    -0.9470    -1.8890 F     1 <1>  -0.1900 
 19 O       -0.8570    -3.9200    -1.1850 O.co2 1 <1>  -0.9000 
 20 O       -2.9620    -4.4310    -1.1130 O.co2 1 <1>  -0.9000 
 21 O       -4.4760    -2.2740    -0.6430 O.3   1 <1>  -0.6800 
 22 H       -0.4780    -1.5800    -0.4380 H     1 <1>   0.0800 
 23 H       -0.3360    -2.4990     1.0370 H     1 <1>   0.0800 
 24 H       -2.3270     1.1710     1.2350 H     1 <1>   0.0800 
 25 H       -1.7230     0.6600    -0.3260 H     1 <1>   0.0800 
 26 H        0.2800     2.4770     0.0780 H     1 <1>   0.1500 
 27 H        2.1790    -1.3550     0.2280 H     1 <1>   0.1500 
 28 H       -2.6890    -2.9530     1.0690 H     1 <1>   0.0800 
 29 H       -4.1390     0.3060    -0.1950 H     1 <1>   0.0800 
 30 H       -3.9430    -0.6310     1.2680 H     1 <1>   0.0800 
 31 H       -2.9270    -1.3640    -1.4960 H     1 <1>   0.0800 
 32 H        3.0790     1.3560    -2.9490 H     1 <1>   0.1500 
 33 H       -4.2490    -3.2110    -0.9140 H     1 <1>   0.4000 
@<TRIPOS>BOND
  1   1   2  2   
  2   1   3  2   
  3   1   4  am  
  4   1   5  1   
  5   4   6  1   
  6   4   7  1   
  7   5   8  ar  
  8   5   9  ar  
  9   6  10  1   
 10   6  22  1   
 11   6  23  1   
 12   7  11  1   
 13   7  24  1   
 14   7  25  1   
 15   8  12  ar  
 16   8  26  1   
 17   9  13  ar  
 18   9  27  1   
 19  10  14  1   
 20  10  15  1   
 21  10  28  1   
 22  11  15  1   
 23  11  29  1   
 24  11  30  1   
 25  12  16  1   
 26  12  17  ar  
 27  13  17  ar  
 28  13  18  1   
 29  14  19  ar  
 30  14  20  ar  
 31  15  21  1   
 32  15  31  1   
 33  17  32  1   
 34  21  33  1   
@<TRIPOS>SUBSTRUCTURE
  1 ****   6 GROUP 4 **** **** 0

# MOE 2024.06 (io_trps.svl 2023.06)
