@<TRIPOS>MOLECULE
NONAME
50 52 1 0 0 
SMALL
USER_CHARGES


@<TRIPOS>ATOM
  1 O        1.9710    -1.2620    -1.6300 O.2   1 <1>  -0.5700 
  2 C        2.3420    -1.0660    -0.4890 C.2   1 <1>   0.5440 
  3 N        2.4120     0.2300    -0.0210 N.am  1 <1>  -0.6600 
  4 C        2.7390    -2.1970     0.3280 C.ar  1 <1>   0.0860 
  5 C        3.5200     0.6780     0.8700 C.3   1 <1>   0.1400 
  6 C        1.6330     1.3210    -0.6710 C.3   1 <1>   0.1400 
  7 C        2.3860    -2.3300     1.6630 C.ar  1 <1>  -0.1500 
  8 C        3.4970    -3.2410    -0.1810 C.ar  1 <1>  -0.1500 
  9 C        4.8420     0.7810     0.0870 C.3   1 <1>   0.1100 
 10 C        2.5250     2.4120    -1.2770 C.3   1 <1>  -0.1600 
 11 C        2.8100    -3.4240     2.3930 C.ar  1 <1>   0.1600 
 12 C        3.8710    -4.2950     0.6300 C.ar  1 <1>   0.1600 
 13 N        4.9150     1.9240    -0.8620 N.3   1 <1>  -0.8100 
 14 C        3.8380     1.8980    -1.8770 C.3   1 <1>   0.1100 
 15 N        3.5530    -4.4050     1.9090 N.ar  1 <1>  -0.6200 
 16 C        6.2510     1.9600    -1.5270 C.3   1 <1>   0.2540 
 17 C        7.3630     2.5110    -0.6170 C.cat 1 <1>   0.6560 
 18 N        7.1040     3.2860     0.4190 N.pl3 1 <1>  -0.7000 
 19 N        8.6800     2.3150    -0.7150 N.pl3 1 <1>  -0.7640 
 20 C        8.2790     3.6150     1.0240 C.2   1 <1>   0.1820 
 21 C        9.2660     3.0110     0.3200 C.2   1 <1>   0.1820 
 22 C        9.4200     1.5190    -1.7340 C.3   1 <1>   0.2740 
 23 C        8.3020     4.5050     2.2510 C.3   1 <1>  -0.0720 
 24 C       10.7700     3.0290     0.5390 C.3   1 <1>  -0.0720 
 25 H        3.6480    -0.0290     1.6690 H     1 <1>   0.0800 
 26 H        3.2820     1.6270     1.3160 H     1 <1>   0.0800 
 27 H        0.9700     1.7600     0.0550 H     1 <1>   0.0800 
 28 H        1.0160     0.9060    -1.4510 H     1 <1>   0.0800 
 29 H        1.7760    -1.5780     2.1300 H     1 <1>   0.1500 
 30 H        3.7880    -3.2280    -1.2160 H     1 <1>   0.1500 
 31 H        5.0030    -0.1450    -0.4400 H     1 <1>   0.0800 
 32 H        5.6330     0.8810     0.8100 H     1 <1>   0.0800 
 33 H        2.7290     3.1720    -0.5460 H     1 <1>   0.0800 
 34 H        1.9560     2.8820    -2.0590 H     1 <1>   0.0800 
 35 H        2.5230    -3.5010     3.4290 H     1 <1>   0.1500 
 36 H        4.4610    -5.0910     0.2080 H     1 <1>   0.1500 
 37 H        4.0940     2.5620    -2.6850 H     1 <1>   0.0800 
 38 H        3.7140     0.9090    -2.2900 H     1 <1>   0.0800 
 39 H        6.2080     2.6090    -2.3840 H     1 <1>   0.0800 
 40 H        6.5110     0.9750    -1.8700 H     1 <1>   0.0800 
 41 H        6.1450     3.5510     0.6670 H     1 <1>   0.4500 
 42 H        8.7470     1.1140    -2.4700 H     1 <1>   0.0800 
 43 H        9.9380     0.7060    -1.2550 H     1 <1>   0.0800 
 44 H       10.1380     2.1450    -2.2360 H     1 <1>   0.0800 
 45 H        7.7340     4.0520     3.0430 H     1 <1>   0.0800 
 46 H        7.8710     5.4620     2.0170 H     1 <1>   0.0800 
 47 H        9.3080     4.6590     2.5960 H     1 <1>   0.0800 
 48 H       11.2620     3.4490    -0.3190 H     1 <1>   0.0800 
 49 H       11.1300     2.0290     0.6970 H     1 <1>   0.0800 
 50 H       11.0250     3.6200     1.3990 H     1 <1>   0.0800 
@<TRIPOS>BOND
  1   1   2  2   
  2   2   3  am  
  3   2   4  1   
  4   3   5  1   
  5   3   6  1   
  6   4   7  ar  
  7   4   8  ar  
  8   5   9  1   
  9   5  25  1   
 10   5  26  1   
 11   6  10  1   
 12   6  27  1   
 13   6  28  1   
 14   7  11  ar  
 15   7  29  1   
 16   8  12  ar  
 17   8  30  1   
 18   9  13  1   
 19   9  31  1   
 20   9  32  1   
 21  10  14  1   
 22  10  33  1   
 23  10  34  1   
 24  11  15  ar  
 25  11  35  1   
 26  12  15  ar  
 27  12  36  1   
 28  13  14  1   
 29  13  16  1   
 30  14  37  1   
 31  14  38  1   
 32  16  17  1   
 33  16  39  1   
 34  16  40  1   
 35  17  18  ar  
 36  17  19  ar  
 37  18  20  1   
 38  18  41  1   
 39  19  21  1   
 40  19  22  1   
 41  20  21  2   
 42  20  23  1   
 43  21  24  1   
 44  22  42  1   
 45  22  43  1   
 46  22  44  1   
 47  23  45  1   
 48  23  46  1   
 49  23  47  1   
 50  24  48  1   
 51  24  49  1   
 52  24  50  1   
@<TRIPOS>SUBSTRUCTURE
  1 ****   9 GROUP 4 **** **** 0

# MOE 2024.06 (io_trps.svl 2023.06)
