@<TRIPOS>MOLECULE
NONAME
41 43 1 0 0 
SMALL
USER_CHARGES


@<TRIPOS>ATOM
  1 O       -0.7550     0.4700     0.2570 O.2   1 <1>  -0.5700 
  2 C       -1.8600     0.9530     0.3430 C.2   1 <1>   0.5690 
  3 N       -2.9740     0.1580     0.3080 N.am  1 <1>  -0.6600 
  4 C       -2.0000     2.4690     0.4750 C.3   1 <1>  -0.0190 
  5 C       -4.3930     0.5970     0.2950 C.3   1 <1>   0.1400 
  6 C       -2.8840    -1.3190     0.2020 C.3   1 <1>   0.1400 
  7 C       -2.1290     3.1820    -0.8870 C.3   1 <1>  -0.0220 
  8 C       -0.8540     3.1820     1.2290 C.3   1 <1>  -0.0220 
  9 C       -5.1870    -0.6590    -0.0590 C.3   1 <1>   0.2000 
 10 C       -4.3140    -1.8250     0.3950 C.3   1 <1>  -0.0800 
 11 C       -1.4360     4.4990    -0.6380 C.2   1 <1>  -0.2880 
 12 C       -0.7530     4.5000     0.4990 C.2   1 <1>  -0.2880 
 13 O       -6.4100    -0.6890     0.5900 O.3   1 <1>  -0.6800 
 14 C       -4.6080    -3.1350    -0.3520 C.3   1 <1>   0.0210 
 15 C       -3.6330    -4.2220     0.0550 C.2   1 <1>   0.1080 
 16 N       -3.4870    -4.6120     1.2830 N.2   1 <1>  -0.7070 
 17 C       -2.7890    -4.9020    -0.8170 C.2   1 <1>  -0.1500 
 18 N       -2.5360    -5.5640     1.2270 N.pl3 1 <1>   0.3000 
 19 C       -2.0960    -5.7560    -0.0350 C.2   1 <1>  -0.3320 
 20 C       -1.0240    -6.7580    -0.4200 C.3   1 <1>  -0.0600 
 21 H       -2.8930     2.6840     1.0310 H     1 <1>   0.0800 
 22 H       -4.6620     0.9530     1.2740 H     1 <1>   0.0800 
 23 H       -4.5490     1.3650    -0.4420 H     1 <1>   0.0800 
 24 H       -2.5090    -1.5760    -0.7740 H     1 <1>   0.0800 
 25 H       -2.2220    -1.7190     0.9520 H     1 <1>   0.0800 
 26 H       -1.6110     2.6420    -1.6620 H     1 <1>   0.0800 
 27 H       -3.1600     3.3200    -1.1600 H     1 <1>   0.0800 
 28 H       -1.1000     3.3180     2.2670 H     1 <1>   0.0800 
 29 H        0.0820     2.6570     1.1430 H     1 <1>   0.0800 
 30 H       -5.3640    -0.6880    -1.1210 H     1 <1>   0.0800 
 31 H       -4.4470    -1.9860     1.4510 H     1 <1>   0.0800 
 32 H       -1.5330     5.2850    -1.3680 H     1 <1>   0.1500 
 33 H       -0.1540     5.2860     0.9280 H     1 <1>   0.1500 
 34 H       -6.2830    -0.8720     1.5420 H     1 <1>   0.4000 
 35 H       -4.5440    -2.9780    -1.4130 H     1 <1>   0.0800 
 36 H       -5.6060    -3.4630    -0.1200 H     1 <1>   0.0800 
 37 H       -2.7220    -4.7580    -1.8800 H     1 <1>   0.1500 
 38 H       -2.2090    -6.0600     2.0640 H     1 <1>   0.2700 
 39 H       -0.8500    -6.7240    -1.4810 H     1 <1>   0.0800 
 40 H       -1.3340    -7.7540    -0.1570 H     1 <1>   0.0800 
 41 H       -0.1030    -6.5300     0.0850 H     1 <1>   0.0800 
@<TRIPOS>BOND
  1   1   2  2   
  2   2   3  am  
  3   2   4  1   
  4   3   5  1   
  5   3   6  1   
  6   4   7  1   
  7   4   8  1   
  8   4  21  1   
  9   5   9  1   
 10   5  22  1   
 11   5  23  1   
 12   6  10  1   
 13   6  24  1   
 14   6  25  1   
 15   7  11  1   
 16   7  26  1   
 17   7  27  1   
 18   8  12  1   
 19   8  28  1   
 20   8  29  1   
 21   9  10  1   
 22   9  13  1   
 23   9  30  1   
 24  10  14  1   
 25  10  31  1   
 26  11  12  2   
 27  11  32  1   
 28  12  33  1   
 29  13  34  1   
 30  14  15  1   
 31  14  35  1   
 32  14  36  1   
 33  15  16  2   
 34  15  17  1   
 35  16  18  1   
 36  17  19  2   
 37  17  37  1   
 38  18  19  1   
 39  18  38  1   
 40  19  20  1   
 41  20  39  1   
 42  20  40  1   
 43  20  41  1   
@<TRIPOS>SUBSTRUCTURE
  1 ****   6 GROUP 4 **** **** 0

# MOE 2024.06 (io_trps.svl 2023.06)
