@<TRIPOS>MOLECULE
NONAME
44 47 1 0 0 
SMALL
USER_CHARGES


@<TRIPOS>ATOM
  1 S       -0.2180     0.4030    -0.6300 S.3   1 <1>  -0.0800 
  2 C       -1.7250     0.0250     0.1340 C.2   1 <1>   0.4620 
  3 C        0.5750    -0.6640     0.4950 C.2   1 <1>   0.3250 
  4 N       -1.5650    -0.8070     1.1050 N.2   1 <1>  -0.3380 
  5 N       -2.9000     0.5990    -0.3090 N.pl3 1 <1>  -0.8220 
  6 N       -0.2770    -1.1890     1.3040 N.2   1 <1>  -0.3380 
  7 C        2.0070    -0.8550     0.4330 C.ar  1 <1>   0.0530 
  8 C       -4.1960     0.2810     0.3410 C.3   1 <1>   0.2090 
  9 C       -3.0100     1.6220    -1.3810 C.3   1 <1>   0.2090 
 10 C        2.6410    -1.6770     1.3690 C.ar  1 <1>  -0.1500 
 11 C        2.8230    -0.2510    -0.5300 C.ar  1 <1>  -0.1500 
 12 C       -4.7460     1.5580     0.9730 C.3   1 <1>  -0.1600 
 13 C       -3.5480     2.9140    -0.7640 C.3   1 <1>  -0.1600 
 14 C        4.0070    -1.8880     1.3490 C.ar  1 <1>  -0.1500 
 15 C        4.1900    -0.4580    -0.5550 C.ar  1 <1>  -0.1500 
 16 C       -4.8990     2.6980    -0.0600 C.3   1 <1>   0.2800 
 17 C        4.7860    -1.2770     0.3850 C.ar  1 <1>  -0.1500 
 18 O       -5.7860     2.3420    -1.0960 O.3   1 <1>  -0.5600 
 19 C       -5.3270     4.0340     0.6000 C.3   1 <1>   0.1400 
 20 C       -7.1060     1.9460    -0.8440 C.3   1 <1>   0.1200 
 21 N       -6.5660     3.9430     1.4170 N.am  1 <1>  -0.7300 
 22 C       -7.9830     3.1310    -0.4460 C.3   1 <1>  -0.0990 
 23 C       -7.7710     3.5120     0.9980 C.2   1 <1>   0.5690 
 24 O       -8.6830     3.4150     1.7770 O.2   1 <1>  -0.5700 
 25 H       -4.0700    -0.4760     1.0970 H     1 <1>   0.0800 
 26 H       -4.8820    -0.0960    -0.3990 H     1 <1>   0.0800 
 27 H       -3.6860     1.2660    -2.1410 H     1 <1>   0.0800 
 28 H       -2.0610     1.8120    -1.8480 H     1 <1>   0.0800 
 29 H        2.0490    -2.1620     2.1270 H     1 <1>   0.1500 
 30 H        2.3960     0.3900    -1.2790 H     1 <1>   0.1500 
 31 H       -4.0570     1.8680     1.7370 H     1 <1>   0.0800 
 32 H       -5.6750     1.3520     1.4680 H     1 <1>   0.0800 
 33 H       -3.6570     3.6570    -1.5340 H     1 <1>   0.0800 
 34 H       -2.8200     3.2770    -0.0600 H     1 <1>   0.0800 
 35 H        4.4630    -2.5270     2.0850 H     1 <1>   0.1500 
 36 H        4.7940     0.0200    -1.3080 H     1 <1>   0.1500 
 37 H        5.8510    -1.4380     0.3670 H     1 <1>   0.1500 
 38 H       -5.4600     4.7800    -0.1650 H     1 <1>   0.0800 
 39 H       -4.5320     4.3690     1.2430 H     1 <1>   0.0800 
 40 H       -7.1300     1.1660    -0.1040 H     1 <1>   0.0800 
 41 H       -7.4790     1.5350    -1.7660 H     1 <1>   0.0800 
 42 H       -6.4980     4.1910     2.4070 H     1 <1>   0.3700 
 43 H       -9.0130     2.8510    -0.5660 H     1 <1>   0.0800 
 44 H       -7.7930     3.9710    -1.0870 H     1 <1>   0.0800 
@<TRIPOS>BOND
  1   1   2  1   
  2   1   3  1   
  3   2   4  2   
  4   2   5  1   
  5   3   6  2   
  6   3   7  1   
  7   4   6  1   
  8   5   8  1   
  9   5   9  1   
 10   7  10  ar  
 11   7  11  ar  
 12   8  12  1   
 13   8  25  1   
 14   8  26  1   
 15   9  13  1   
 16   9  27  1   
 17   9  28  1   
 18  10  14  ar  
 19  10  29  1   
 20  11  15  ar  
 21  11  30  1   
 22  12  16  1   
 23  12  31  1   
 24  12  32  1   
 25  13  16  1   
 26  13  33  1   
 27  13  34  1   
 28  14  17  ar  
 29  14  35  1   
 30  15  17  ar  
 31  15  36  1   
 32  16  18  1   
 33  16  19  1   
 34  17  37  1   
 35  18  20  1   
 36  19  21  1   
 37  19  38  1   
 38  19  39  1   
 39  20  22  1   
 40  20  40  1   
 41  20  41  1   
 42  21  23  am  
 43  21  42  1   
 44  22  23  1   
 45  22  43  1   
 46  22  44  1   
 47  23  24  2   
@<TRIPOS>SUBSTRUCTURE
  1 ****   5 GROUP 4 **** **** 0

# MOE 2024.06 (io_trps.svl 2023.06)
