@<TRIPOS>MOLECULE
NONAME
40 42 1 0 0 
SMALL
USER_CHARGES


@<TRIPOS>ATOM
  1 S        0.8570    -0.2580    -1.2310 S.o2  1 <1>   1.3330 
  2 O        2.0970    -0.9960    -1.1390 O.2   1 <1>  -0.6500 
  3 O        0.2500    -0.0420    -2.5250 O.2   1 <1>  -0.6500 
  4 N       -0.2980    -1.0630    -0.2770 N.am  1 <1>  -0.8490 
  5 C        1.0470     1.3300    -0.4040 C.3   1 <1>  -0.0550 
  6 C       -0.1500    -2.5210    -0.3360 C.3   1 <1>   0.1160 
  7 C       -1.6820    -0.6950    -0.5980 C.3   1 <1>   0.1160 
  8 C        1.9760     1.3810     0.8300 C.3   1 <1>  -0.0800 
  9 C        3.4550     1.1950     0.4890 C.3   1 <1>   0.2890 
 10 C        1.7180     0.3500     1.9330 C.3   1 <1>   0.1200 
 11 N        4.1730     2.4690     0.7270 N.pl3 1 <1>  -0.8690 
 12 C        3.9090     0.1140     1.4690 C.3   1 <1>   0.1200 
 13 O        2.9640     0.1080     2.4940 O.3   1 <1>  -0.5600 
 14 C        4.4010     3.4540    -0.2030 C.ar  1 <1>   0.4100 
 15 N        3.9420     3.2750    -1.4250 N.ar  1 <1>  -0.6200 
 16 C        5.0980     4.6260     0.1420 C.ar  1 <1>   0.2270 
 17 C        4.1950     4.2570    -2.3030 C.ar  1 <1>   0.4700 
 18 N        5.6650     5.0830     1.3080 N.2   1 <1>  -0.5650 
 19 C        5.2750     5.5440    -0.8590 C.ar  1 <1>   0.1050 
 20 N        4.8320     5.3900    -2.1100 N.ar  1 <1>  -0.5670 
 21 C        6.1560     6.2300     0.9830 C.2   1 <1>   0.0360 
 22 N        5.9550     6.5700    -0.3180 N.pl3 1 <1>   0.0330 
 23 H        1.4350     2.0320    -1.1180 H     1 <1>   0.0800 
 24 H        0.0790     1.6870    -0.1170 H     1 <1>   0.0800 
 25 H       -0.8880    -2.9980     0.2850 H     1 <1>   0.0800 
 26 H        0.8250    -2.8090     0.0210 H     1 <1>   0.0800 
 27 H       -0.2610    -2.8670    -1.3510 H     1 <1>   0.0800 
 28 H       -2.3590    -1.1590     0.0990 H     1 <1>   0.0800 
 29 H       -1.9350    -1.0140    -1.5970 H     1 <1>   0.0800 
 30 H       -1.8090     0.3720    -0.5360 H     1 <1>   0.0800 
 31 H        1.8470     2.3490     1.2800 H     1 <1>   0.0800 
 32 H        3.6240     0.8670    -0.5230 H     1 <1>   0.0800 
 33 H        1.3560    -0.5890     1.5550 H     1 <1>   0.0800 
 34 H        1.0540     0.7180     2.6960 H     1 <1>   0.0800 
 35 H        4.4410     2.6630     1.6970 H     1 <1>   0.4000 
 36 H        4.8860     0.3030     1.8760 H     1 <1>   0.0800 
 37 H        3.8860    -0.8520     0.9950 H     1 <1>   0.0800 
 38 H        3.8190     4.0850    -3.2980 H     1 <1>   0.1500 
 39 H        6.6830     6.8800     1.6620 H     1 <1>   0.1500 
 40 H        6.2440     7.4160    -0.8120 H     1 <1>   0.2700 
@<TRIPOS>BOND
  1   1   2  2   
  2   1   3  2   
  3   1   4  am  
  4   1   5  1   
  5   4   6  1   
  6   4   7  1   
  7   5   8  1   
  8   5  23  1   
  9   5  24  1   
 10   6  25  1   
 11   6  26  1   
 12   6  27  1   
 13   7  28  1   
 14   7  29  1   
 15   7  30  1   
 16   8   9  1   
 17   8  10  1   
 18   8  31  1   
 19   9  11  1   
 20   9  12  1   
 21   9  32  1   
 22  10  13  1   
 23  10  33  1   
 24  10  34  1   
 25  11  14  1   
 26  11  35  1   
 27  12  13  1   
 28  12  36  1   
 29  12  37  1   
 30  14  15  ar  
 31  14  16  ar  
 32  15  17  ar  
 33  16  18  1   
 34  16  19  ar  
 35  17  20  ar  
 36  17  38  1   
 37  18  21  2   
 38  19  20  ar  
 39  19  22  1   
 40  21  22  1   
 41  21  39  1   
 42  22  40  1   
@<TRIPOS>SUBSTRUCTURE
  1 ****   9 GROUP 4 **** **** 0

# MOE 2024.06 (io_trps.svl 2023.06)
