@<TRIPOS>MOLECULE
NONAME
48 50 1 0 0 
SMALL
USER_CHARGES


@<TRIPOS>ATOM
  1 O       -0.7340    -0.1210    -1.8210 O.2   1 <1>  -0.5700 
  2 C       -0.8210     0.1240    -0.6440 C.2   1 <1>   0.5690 
  3 N       -1.2090    -0.8060     0.2580 N.am  1 <1>  -0.7300 
  4 C       -0.5270     1.5220    -0.1660 C.3   1 <1>  -0.0990 
  5 C       -1.5610    -2.2090    -0.0640 C.3   1 <1>   0.2200 
  6 C       -1.5620     2.4880    -0.7480 C.3   1 <1>   0.0960 
  7 C       -3.0660    -2.4280     0.0060 C.3   1 <1>  -0.0800 
  8 C       -1.0960    -3.1050     1.0750 C.3   1 <1>   0.1200 
  9 N       -1.3820     3.8300    -0.1700 N.pl3 1 <1>   0.3140 
 10 C       -3.3090    -2.6830     1.4980 C.3   1 <1>   0.1200 
 11 C       -3.9400    -1.3110    -0.5960 C.3   1 <1>  -0.0170 
 12 O       -2.0620    -2.9550     2.0710 O.3   1 <1>  -0.5600 
 13 N       -1.9040     4.1300     1.0320 N.2   1 <1>  -0.7070 
 14 C       -0.7000     4.8770    -0.6880 C.2   1 <1>  -0.3320 
 15 C       -5.4140    -1.6760    -0.5260 C.ar  1 <1>  -0.1440 
 16 C       -1.5500     5.3560     1.2510 C.2   1 <1>   0.1080 
 17 C       -0.7930     5.8790     0.2100 C.2   1 <1>  -0.1500 
 18 C        0.0210     4.8770    -2.0260 C.3   1 <1>  -0.0600 
 19 C       -5.9920    -2.5410    -1.4330 C.ar  1 <1>  -0.1500 
 20 C       -6.2500    -1.1630     0.4450 C.ar  1 <1>  -0.1500 
 21 C       -1.9360     6.0980     2.5090 C.3   1 <1>  -0.0590 
 22 C       -7.3390    -2.8480    -1.3240 C.ar  1 <1>   0.1600 
 23 C       -7.5840    -1.5350     0.4660 C.ar  1 <1>   0.1600 
 24 N       -8.1480    -2.3670    -0.3940 N.ar  1 <1>  -0.6200 
 25 H       -1.2980    -0.5760     1.2510 H     1 <1>   0.3700 
 26 H       -0.5620     1.5550     0.9070 H     1 <1>   0.0800 
 27 H        0.4580     1.8010    -0.4920 H     1 <1>   0.0800 
 28 H       -1.1400    -2.5000    -1.0130 H     1 <1>   0.0800 
 29 H       -2.5540     2.1540    -0.5060 H     1 <1>   0.0800 
 30 H       -1.4700     2.5420    -1.8170 H     1 <1>   0.0800 
 31 H       -3.2880    -3.3430    -0.5140 H     1 <1>   0.0800 
 32 H       -0.1300    -2.8280     1.4590 H     1 <1>   0.0800 
 33 H       -1.0900    -4.1380     0.7720 H     1 <1>   0.0800 
 34 H       -3.9600    -3.5260     1.6590 H     1 <1>   0.0800 
 35 H       -3.7100    -1.8150     1.9920 H     1 <1>   0.0800 
 36 H       -3.6590    -1.1540    -1.6240 H     1 <1>   0.0800 
 37 H       -3.7810    -0.3850    -0.0730 H     1 <1>   0.0800 
 38 H       -0.3840     6.8720     0.1610 H     1 <1>   0.1500 
 39 H        0.5020     5.8250    -2.1860 H     1 <1>   0.0800 
 40 H       -0.6790     4.7100    -2.8250 H     1 <1>   0.0800 
 41 H        0.7700     4.1050    -2.0460 H     1 <1>   0.0800 
 42 H       -5.4100    -2.9790    -2.2230 H     1 <1>   0.1500 
 43 H       -5.8800    -0.4790     1.1860 H     1 <1>   0.1500 
 44 H       -1.5160     7.0860     2.5060 H     1 <1>   0.0800 
 45 H       -1.5730     5.5610     3.3660 H     1 <1>   0.0800 
 46 H       -3.0060     6.1670     2.5680 H     1 <1>   0.0800 
 47 H       -7.7730    -3.5250    -2.0400 H     1 <1>   0.1500 
 48 H       -8.2210    -1.1260     1.2310 H     1 <1>   0.1500 
@<TRIPOS>BOND
  1   1   2  2   
  2   2   3  am  
  3   2   4  1   
  4   3   5  1   
  5   3  25  1   
  6   4   6  1   
  7   4  26  1   
  8   4  27  1   
  9   5   7  1   
 10   5   8  1   
 11   5  28  1   
 12   6   9  1   
 13   6  29  1   
 14   6  30  1   
 15   7  10  1   
 16   7  11  1   
 17   7  31  1   
 18   8  12  1   
 19   8  32  1   
 20   8  33  1   
 21   9  13  1   
 22   9  14  1   
 23  10  12  1   
 24  10  34  1   
 25  10  35  1   
 26  11  15  1   
 27  11  36  1   
 28  11  37  1   
 29  13  16  2   
 30  14  17  2   
 31  14  18  1   
 32  15  19  ar  
 33  15  20  ar  
 34  16  17  1   
 35  16  21  1   
 36  17  38  1   
 37  18  39  1   
 38  18  40  1   
 39  18  41  1   
 40  19  22  ar  
 41  19  42  1   
 42  20  23  ar  
 43  20  43  1   
 44  21  44  1   
 45  21  45  1   
 46  21  46  1   
 47  22  24  ar  
 48  22  47  1   
 49  23  24  ar  
 50  23  48  1   
@<TRIPOS>SUBSTRUCTURE
  1 ****   3 GROUP 4 **** **** 0

# MOE 2024.06 (io_trps.svl 2023.06)
