@<TRIPOS>MOLECULE
NONAME
50 52 1 0 0 
SMALL
USER_CHARGES


@<TRIPOS>ATOM
  1 S        0.0090    -0.5700    -1.7840 S.o2  1 <1>   1.4550 
  2 O       -0.9500    -1.6500    -1.8870 O.2   1 <1>  -0.6500 
  3 O        0.5870    -0.0760    -3.0150 O.2   1 <1>  -0.6500 
  4 N       -0.7370     0.7150    -0.9620 N.am  1 <1>  -0.8490 
  5 C        1.2860    -1.1080    -0.6630 C.2   1 <1>  -0.0030 
  6 C       -1.9690     0.4230    -0.1950 C.3   1 <1>   0.1960 
  7 C       -0.6880     2.0010    -1.6680 C.3   1 <1>   0.1960 
  8 C        2.3220    -0.1840    -0.3630 C.2   1 <1>   0.6160 
  9 C        1.2960    -2.3360    -0.0940 C.2   1 <1>  -0.0410 
 10 C       -3.2300     1.1060    -0.7850 C.3   1 <1>   0.0000 
 11 C       -1.5330     3.0520    -0.9450 C.3   1 <1>  -0.1600 
 12 O        2.3740     0.9280    -0.8570 O.2   1 <1>  -0.5700 
 13 N        3.3200    -0.5600     0.5280 N.am  1 <1>  -0.4200 
 14 N        2.3040    -2.7070     0.7760 N.am  1 <1>  -0.4690 
 15 C       -4.4830     0.7480     0.0370 C.3   1 <1>   0.2000 
 16 C       -3.0160     2.6420    -0.8390 C.3   1 <1>  -0.1600 
 17 C       -3.5930     0.5050    -2.1580 C.3   1 <1>  -0.1600 
 18 C        3.3310    -1.8260     1.0880 C.2   1 <1>   0.6900 
 19 C        4.4120     0.4040     0.8590 C.3   1 <1>   0.0600 
 20 C        2.2960    -4.0640     1.3850 C.3   1 <1>   0.0600 
 21 O       -4.2060     0.7270     1.4060 O.3   1 <1>  -0.5600 
 22 C       -4.9350    -0.6320    -0.4540 C.3   1 <1>  -0.1600 
 23 C       -4.3410    -0.7970    -1.8580 C.3   1 <1>  -0.1600 
 24 O        4.2250    -2.1710     1.8390 O.2   1 <1>  -0.5700 
 25 C       -5.3260     0.7430     2.2320 C.3   1 <1>   0.0400 
 26 H       -2.1280    -0.6360    -0.0940 H     1 <1>   0.0800 
 27 H       -1.8210     0.8030     0.8020 H     1 <1>   0.0800 
 28 H        0.3360     2.3330    -1.7310 H     1 <1>   0.0800 
 29 H       -1.0580     1.8810    -2.6730 H     1 <1>   0.0800 
 30 H        0.5210    -3.0600    -0.2990 H     1 <1>   0.1500 
 31 H       -1.1230     3.1890     0.0400 H     1 <1>   0.0800 
 32 H       -1.4540     3.9930    -1.4600 H     1 <1>   0.0800 
 33 H       -5.2530     1.4760    -0.1580 H     1 <1>   0.0800 
 34 H       -3.5630     3.0600    -1.6650 H     1 <1>   0.0800 
 35 H       -3.4100     3.0900     0.0570 H     1 <1>   0.0800 
 36 H       -4.2630     1.1650    -2.6810 H     1 <1>   0.0800 
 37 H       -2.7400     0.3260    -2.7880 H     1 <1>   0.0800 
 38 H        4.0170     1.4030     0.9290 H     1 <1>   0.0800 
 39 H        5.1590     0.3760     0.0860 H     1 <1>   0.0800 
 40 H        4.8700     0.1570     1.8010 H     1 <1>   0.0800 
 41 H        1.4490    -4.6310     1.0420 H     1 <1>   0.0800 
 42 H        2.2500    -3.9750     2.4570 H     1 <1>   0.0800 
 43 H        3.2000    -4.5830     1.1190 H     1 <1>   0.0800 
 44 H       -4.5510    -1.4040     0.1900 H     1 <1>   0.0800 
 45 H       -6.0080    -0.6860    -0.4850 H     1 <1>   0.0800 
 46 H       -3.6500    -1.6230    -1.8630 H     1 <1>   0.0800 
 47 H       -5.1040    -0.9830    -2.5940 H     1 <1>   0.0800 
 48 H       -4.9880     0.7410     3.2530 H     1 <1>   0.0800 
 49 H       -5.9220    -0.1350     2.0490 H     1 <1>   0.0800 
 50 H       -5.8970     1.6350     2.0420 H     1 <1>   0.0800 
@<TRIPOS>BOND
  1   1   2  2   
  2   1   3  2   
  3   1   4  am  
  4   1   5  1   
  5   4   6  1   
  6   4   7  1   
  7   5   8  1   
  8   5   9  2   
  9   6  10  1   
 10   6  26  1   
 11   6  27  1   
 12   7  11  1   
 13   7  28  1   
 14   7  29  1   
 15   8  12  2   
 16   8  13  am  
 17   9  14  1   
 18   9  30  1   
 19  10  15  1   
 20  10  16  1   
 21  10  17  1   
 22  11  16  1   
 23  11  31  1   
 24  11  32  1   
 25  13  18  am  
 26  13  19  1   
 27  14  18  am  
 28  14  20  1   
 29  15  21  1   
 30  15  22  1   
 31  15  33  1   
 32  16  34  1   
 33  16  35  1   
 34  17  23  1   
 35  17  36  1   
 36  17  37  1   
 37  18  24  2   
 38  19  38  1   
 39  19  39  1   
 40  19  40  1   
 41  20  41  1   
 42  20  42  1   
 43  20  43  1   
 44  21  25  1   
 45  22  23  1   
 46  22  44  1   
 47  22  45  1   
 48  23  46  1   
 49  23  47  1   
 50  25  48  1   
 51  25  49  1   
 52  25  50  1   
@<TRIPOS>SUBSTRUCTURE
  1 ****   4 GROUP 4 **** **** 0

# MOE 2024.06 (io_trps.svl 2023.06)
