@<TRIPOS>MOLECULE
NONAME
53 56 1 0 0 
SMALL
USER_CHARGES


@<TRIPOS>ATOM
  1 O        2.1150     0.1810     3.7000 O.3   1 <1>  -0.6800 
  2 C        1.5550    -0.2920     2.5170 C.3   1 <1>   0.2000 
  3 C        2.0940    -1.6980     2.2700 C.3   1 <1>  -0.0800 
  4 C        2.1420     0.5080     1.3510 C.3   1 <1>   0.3430 
  5 C        3.5020    -1.4460     1.7110 C.3   1 <1>   0.3430 
  6 C        1.1920    -2.4950     1.3030 C.3   1 <1>  -0.0170 
  7 N        3.4990    -0.0780     1.1040 N.4   1 <1>  -0.9590 
  8 C        1.8850    -3.7740     0.8450 C.ar  1 <1>  -0.1440 
  9 C        4.5490     0.7730     1.7190 C.3   1 <1>   0.5240 
 10 C        2.6020    -3.8800    -0.3730 C.ar  1 <1>   0.0000 
 11 C        1.8400    -4.8770     1.6490 C.ar  1 <1>  -0.1500 
 12 C        4.6050     2.0640     0.9370 C.2   1 <1>  -0.1810 
 13 C        3.2610    -5.1060    -0.6400 C.ar  1 <1>   0.3100 
 14 C        2.7130    -2.8510    -1.3400 C.ar  1 <1>  -0.1500 
 15 C        2.5100    -6.0490     1.2790 C.ar  1 <1>   0.1600 
 16 C        4.1640     3.2990     1.3950 C.2   1 <1>   0.1390 
 17 C        5.0590     2.3030    -0.3140 C.2   1 <1>  -0.3020 
 18 N        3.2050    -6.1720     0.1950 N.ar  1 <1>  -0.6200 
 19 C        4.0150    -5.2350    -1.8160 C.ar  1 <1>  -0.1500 
 20 C        3.4530    -3.0110    -2.4810 C.ar  1 <1>  -0.1500 
 21 N        4.3120     4.2260     0.5040 N.2   1 <1>  -0.7070 
 22 N        4.8790     3.6200    -0.5570 N.pl3 1 <1>   0.3140 
 23 C        4.1170    -4.2150    -2.7210 C.ar  1 <1>  -0.1500 
 24 C        5.2370     4.3790    -1.7900 C.3   1 <1>   0.1760 
 25 C        4.4530     3.8550    -3.0010 C.3   1 <1>  -0.2400 
 26 C        6.7490     4.3200    -2.0460 C.3   1 <1>  -0.2400 
 27 H        1.6300    -0.1570     4.4830 H     1 <1>   0.4000 
 28 H        0.4810    -0.2230     2.5810 H     1 <1>   0.0800 
 29 H        2.1650    -2.2550     3.1890 H     1 <1>   0.0800 
 30 H        2.1790     1.5600     1.5800 H     1 <1>   0.0800 
 31 H        1.5260     0.3640     0.4790 H     1 <1>   0.0800 
 32 H        3.7880    -2.1950     0.9910 H     1 <1>   0.0800 
 33 H        4.2050    -1.4770     2.5280 H     1 <1>   0.0800 
 34 H        0.8870    -1.9040     0.4610 H     1 <1>   0.0800 
 35 H        0.2850    -2.7630     1.8200 H     1 <1>   0.0800 
 36 H        3.6970    -0.1050     0.0960 H     1 <1>   0.4500 
 37 H        4.3170     0.9700     2.7540 H     1 <1>   0.0800 
 38 H        5.5070     0.2830     1.6650 H     1 <1>   0.0800 
 39 H        1.3030    -4.8820     2.5800 H     1 <1>   0.1500 
 40 H        2.2020    -1.9210    -1.1990 H     1 <1>   0.1500 
 41 H        2.4470    -6.8980     1.9390 H     1 <1>   0.1500 
 42 H        3.7420     3.4910     2.3690 H     1 <1>   0.1500 
 43 H        5.4990     1.6420    -1.0380 H     1 <1>   0.1500 
 44 H        4.5110    -6.1730    -1.9850 H     1 <1>   0.1500 
 45 H        3.5290    -2.2250    -3.2140 H     1 <1>   0.1500 
 46 H        4.6980    -4.3320    -3.6220 H     1 <1>   0.1500 
 47 H        4.9590     5.4050    -1.6210 H     1 <1>   0.0800 
 48 H        4.7170     2.8360    -3.2200 H     1 <1>   0.0800 
 49 H        4.6730     4.4560    -3.8650 H     1 <1>   0.0800 
 50 H        3.3960     3.9180    -2.8090 H     1 <1>   0.0800 
 51 H        7.0690     3.3120    -2.2410 H     1 <1>   0.0800 
 52 H        7.2800     4.7020    -1.1920 H     1 <1>   0.0800 
 53 H        7.0010     4.9280    -2.8970 H     1 <1>   0.0800 
@<TRIPOS>BOND
  1   1   2  1   
  2   1  27  1   
  3   2   3  1   
  4   2   4  1   
  5   2  28  1   
  6   3   5  1   
  7   3   6  1   
  8   3  29  1   
  9   4   7  1   
 10   4  30  1   
 11   4  31  1   
 12   5   7  1   
 13   5  32  1   
 14   5  33  1   
 15   6   8  1   
 16   6  34  1   
 17   6  35  1   
 18   7   9  1   
 19   7  36  1   
 20   8  10  ar  
 21   8  11  ar  
 22   9  12  1   
 23   9  37  1   
 24   9  38  1   
 25  10  13  ar  
 26  10  14  ar  
 27  11  15  ar  
 28  11  39  1   
 29  12  16  1   
 30  12  17  2   
 31  13  18  ar  
 32  13  19  ar  
 33  14  20  ar  
 34  14  40  1   
 35  15  18  ar  
 36  15  41  1   
 37  16  21  2   
 38  16  42  1   
 39  17  22  1   
 40  17  43  1   
 41  19  23  ar  
 42  19  44  1   
 43  20  23  ar  
 44  20  45  1   
 45  21  22  1   
 46  22  24  1   
 47  23  46  1   
 48  24  25  1   
 49  24  26  1   
 50  24  47  1   
 51  25  48  1   
 52  25  49  1   
 53  25  50  1   
 54  26  51  1   
 55  26  52  1   
 56  26  53  1   
@<TRIPOS>SUBSTRUCTURE
  1 ****   7 GROUP 4 **** **** 0

# MOE 2024.06 (io_trps.svl 2023.06)
