@<TRIPOS>MOLECULE
NONAME
40 43 1 0 0 
SMALL
USER_CHARGES


@<TRIPOS>ATOM
  1 O       -0.6000    -1.4710    -1.3830 O.co2 1 <1>  -0.9000 
  2 C       -0.6020    -1.6630    -0.1550 C.2   1 <1>   1.0330 
  3 O       -1.4280    -1.0490     0.5430 O.co2 1 <1>  -0.9000 
  4 C        0.3460    -2.5410     0.4420 C.2   1 <1>  -0.2330 
  5 C        0.1680    -3.8850     0.7800 C.2   1 <1>   0.3720 
  6 C        1.6410    -2.2900     0.7620 C.2   1 <1>   0.0870 
  7 N        1.2670    -4.3890     1.2260 N.2   1 <1>  -0.4100 
  8 N       -0.9770    -4.6870     0.6860 N.pl3 1 <1>  -0.8210 
  9 O        2.1380    -3.4160     1.2140 O.3   1 <1>  -0.0190 
 10 C        2.4710    -1.1090     0.6900 C.ar  1 <1>   0.0530 
 11 C       -2.3430    -4.1430     0.7420 C.3   1 <1>   0.2890 
 12 C       -1.0030    -5.6800    -0.3840 C.3   1 <1>   0.2890 
 13 C        3.8640    -1.2110     0.6920 C.ar  1 <1>  -0.1500 
 14 C        1.9300     0.1770     0.6260 C.ar  1 <1>  -0.1500 
 15 C       -3.1440    -5.2090     1.5100 C.3   1 <1>  -0.1600 
 16 C       -2.7800    -4.0490    -0.7260 C.3   1 <1>  -0.1600 
 17 C       -1.6660    -6.9180     0.2430 C.3   1 <1>  -0.1600 
 18 C       -1.8500    -5.0140    -1.4730 C.3   1 <1>  -0.1600 
 19 C        4.6760    -0.0930     0.6310 C.ar  1 <1>  -0.1500 
 20 C        2.7350     1.2990     0.5620 C.ar  1 <1>  -0.1500 
 21 C       -3.0320    -6.6250     0.9000 C.3   1 <1>   0.2000 
 22 C        4.1120     1.1680     0.5650 C.ar  1 <1>  -0.1500 
 23 O       -4.0090    -6.7660    -0.0640 O.3   1 <1>  -0.6800 
 24 H       -2.3810    -3.1930     1.2490 H     1 <1>   0.0800 
 25 H       -0.0100    -5.9070    -0.7360 H     1 <1>   0.0800 
 26 H        4.3160    -2.1850     0.7380 H     1 <1>   0.1500 
 27 H        0.8610     0.3060     0.6270 H     1 <1>   0.1500 
 28 H       -4.1740    -4.9160     1.5970 H     1 <1>   0.0800 
 29 H       -2.7400    -5.2400     2.5060 H     1 <1>   0.0800 
 30 H       -3.8210    -4.2770    -0.8480 H     1 <1>   0.0800 
 31 H       -2.6350    -3.0460    -1.0850 H     1 <1>   0.0800 
 32 H       -0.9990    -7.2690     1.0090 H     1 <1>   0.0800 
 33 H       -1.7570    -7.7070    -0.4810 H     1 <1>   0.0800 
 34 H       -1.1960    -4.4440    -2.1110 H     1 <1>   0.0800 
 35 H       -2.3760    -5.7310    -2.0750 H     1 <1>   0.0800 
 36 H        5.7450    -0.2040     0.6320 H     1 <1>   0.1500 
 37 H        2.2820     2.2740     0.5090 H     1 <1>   0.1500 
 38 H       -3.2410    -7.3650     1.6540 H     1 <1>   0.0800 
 39 H        4.7370     2.0410     0.5150 H     1 <1>   0.1500 
 40 H       -3.8600    -6.0850    -0.7480 H     1 <1>   0.4000 
@<TRIPOS>BOND
  1   1   2  ar  
  2   2   3  ar  
  3   2   4  1   
  4   4   5  1   
  5   4   6  2   
  6   5   7  2   
  7   5   8  1   
  8   6   9  1   
  9   6  10  1   
 10   7   9  1   
 11   8  11  1   
 12   8  12  1   
 13  10  13  ar  
 14  10  14  ar  
 15  11  15  1   
 16  11  16  1   
 17  11  24  1   
 18  12  17  1   
 19  12  18  1   
 20  12  25  1   
 21  13  19  ar  
 22  13  26  1   
 23  14  20  ar  
 24  14  27  1   
 25  15  21  1   
 26  15  28  1   
 27  15  29  1   
 28  16  18  1   
 29  16  30  1   
 30  16  31  1   
 31  17  21  1   
 32  17  32  1   
 33  17  33  1   
 34  18  34  1   
 35  18  35  1   
 36  19  22  ar  
 37  19  36  1   
 38  20  22  ar  
 39  20  37  1   
 40  21  23  1   
 41  21  38  1   
 42  22  39  1   
 43  23  40  1   
@<TRIPOS>SUBSTRUCTURE
  1 ****   4 GROUP 4 **** **** 0

# MOE 2024.06 (io_trps.svl 2023.06)
