@<TRIPOS>MOLECULE
NONAME
57 59 1 0 0 
SMALL
USER_CHARGES


@<TRIPOS>ATOM
  1 O        0.3710     0.6540    -1.1860 O.2   1 <1>  -0.5700 
  2 C        0.2060     1.8050    -0.8560 C.2   1 <1>   0.5690 
  3 N       -0.9960     2.2680    -0.3900 N.am  1 <1>  -0.6600 
  4 C        1.3870     2.7660    -1.0030 C.3   1 <1>   0.1810 
  5 C       -1.1800     3.7040     0.0100 C.3   1 <1>   0.3640 
  6 C       -2.1540     1.3620    -0.1420 C.3   1 <1>   0.0600 
  7 O        1.2630     3.9270    -0.2200 O.3   1 <1>  -0.5600 
  8 C       -2.4600     4.2470    -0.6490 C.ar  1 <1>  -0.1430 
  9 C        0.0280     4.6020    -0.3730 C.3   1 <1>   0.2610 
 10 C       -3.5270     4.7720     0.0830 C.ar  1 <1>  -0.1430 
 11 C       -2.5550     4.2060    -2.0360 C.ar  1 <1>  -0.1500 
 12 C        0.0410     5.9170     0.4230 C.2   1 <1>   0.5690 
 13 C       -4.6380     5.2650    -0.5860 C.ar  1 <1>  -0.1500 
 14 C       -3.5400     4.8280     1.6060 C.3   1 <1>  -0.0960 
 15 C       -3.6680     4.6950    -2.6930 C.ar  1 <1>  -0.1500 
 16 O       -0.3970     5.9180     1.5540 O.2   1 <1>  -0.5700 
 17 N        0.5560     7.0680    -0.1330 N.am  1 <1>  -0.6600 
 18 C       -4.7110     5.2310    -1.9650 C.ar  1 <1>  -0.1500 
 19 C        1.3560     7.0930    -1.3940 C.3   1 <1>   0.1400 
 20 C        0.5050     8.3610     0.5990 C.3   1 <1>   0.1400 
 21 C        2.4410     8.1830    -1.3550 C.3   1 <1>  -0.1600 
 22 C        1.9180     8.7900     1.0290 C.3   1 <1>  -0.1600 
 23 C        3.0550     8.3760     0.0530 C.3   1 <1>   0.0000 
 24 C        3.6950     7.0510     0.5610 C.3   1 <1>   0.1200 
 25 C        4.1160     9.5060    -0.0300 C.3   1 <1>  -0.1600 
 26 O        4.7140     6.6240    -0.2830 O.3   1 <1>  -0.6800 
 27 C        4.8310     9.8380     1.2910 C.3   1 <1>  -0.2400 
 28 H        1.4840     3.0570    -2.0330 H     1 <1>   0.0800 
 29 H        2.2880     2.2650    -0.6990 H     1 <1>   0.0800 
 30 H       -1.2750     3.7170     1.0790 H     1 <1>   0.0800 
 31 H       -2.5170     1.4970     0.8620 H     1 <1>   0.0800 
 32 H       -1.8670     0.3320    -0.2670 H     1 <1>   0.0800 
 33 H       -2.9470     1.5820    -0.8350 H     1 <1>   0.0800 
 34 H       -0.0620     4.8540    -1.4120 H     1 <1>   0.0800 
 35 H       -1.7600     3.7790    -2.6220 H     1 <1>   0.1500 
 36 H       -5.4620     5.6810    -0.0340 H     1 <1>   0.1500 
 37 H       -4.5220     5.0650     1.9730 H     1 <1>   0.0800 
 38 H       -2.8650     5.5870     1.9560 H     1 <1>   0.0800 
 39 H       -3.2570     3.8800     2.0250 H     1 <1>   0.0800 
 40 H       -3.7250     4.6570    -3.7670 H     1 <1>   0.1500 
 41 H       -5.5800     5.6170    -2.4690 H     1 <1>   0.1500 
 42 H        1.8390     6.1410    -1.5280 H     1 <1>   0.0800 
 43 H        0.7000     7.2610    -2.2310 H     1 <1>   0.0800 
 44 H        0.0870     9.1050    -0.0580 H     1 <1>   0.0800 
 45 H       -0.1360     8.2970     1.4610 H     1 <1>   0.0800 
 46 H        3.2040     7.9440    -2.0740 H     1 <1>   0.0800 
 47 H        2.0000     9.1100    -1.6770 H     1 <1>   0.0800 
 48 H        1.8930     9.8590     1.1400 H     1 <1>   0.0800 
 49 H        2.1120     8.3890     2.0090 H     1 <1>   0.0800 
 50 H        2.9680     6.2610     0.6270 H     1 <1>   0.0800 
 51 H        4.1210     7.1830     1.5390 H     1 <1>   0.0800 
 52 H        4.8670     9.2360    -0.7530 H     1 <1>   0.0800 
 53 H        3.6460    10.4050    -0.3920 H     1 <1>   0.0800 
 54 H        4.3570     6.4300    -1.1680 H     1 <1>   0.4000 
 55 H        5.4230     9.0040     1.6240 H     1 <1>   0.0800 
 56 H        4.1320    10.1020     2.0630 H     1 <1>   0.0800 
 57 H        5.4950    10.6710     1.1410 H     1 <1>   0.0800 
@<TRIPOS>BOND
  1   1   2  2   
  2   2   3  am  
  3   2   4  1   
  4   3   5  1   
  5   3   6  1   
  6   4   7  1   
  7   4  28  1   
  8   4  29  1   
  9   5   8  1   
 10   5   9  1   
 11   5  30  1   
 12   6  31  1   
 13   6  32  1   
 14   6  33  1   
 15   7   9  1   
 16   8  10  ar  
 17   8  11  ar  
 18   9  12  1   
 19   9  34  1   
 20  10  13  ar  
 21  10  14  1   
 22  11  15  ar  
 23  11  35  1   
 24  12  16  2   
 25  12  17  am  
 26  13  18  ar  
 27  13  36  1   
 28  14  37  1   
 29  14  38  1   
 30  14  39  1   
 31  15  18  ar  
 32  15  40  1   
 33  17  19  1   
 34  17  20  1   
 35  18  41  1   
 36  19  21  1   
 37  19  42  1   
 38  19  43  1   
 39  20  22  1   
 40  20  44  1   
 41  20  45  1   
 42  21  23  1   
 43  21  46  1   
 44  21  47  1   
 45  22  23  1   
 46  22  48  1   
 47  22  49  1   
 48  23  24  1   
 49  23  25  1   
 50  24  26  1   
 51  24  50  1   
 52  24  51  1   
 53  25  27  1   
 54  25  52  1   
 55  25  53  1   
 56  26  54  1   
 57  27  55  1   
 58  27  56  1   
 59  27  57  1   
@<TRIPOS>SUBSTRUCTURE
  1 ****   9 GROUP 4 **** **** 0

# MOE 2024.06 (io_trps.svl 2023.06)
