@<TRIPOS>MOLECULE
NONAME
52 54 1 0 0 
SMALL
USER_CHARGES


@<TRIPOS>ATOM
  1 F       -1.2390    -0.0600    -0.5600 F     1 <1>  -0.1900 
  2 C       -2.1990     0.6740    -0.0590 C.ar  1 <1>   0.1900 
  3 C       -2.2260     2.0300    -0.3400 C.ar  1 <1>   0.1900 
  4 C       -3.1700     0.0790     0.7410 C.ar  1 <1>   0.0860 
  5 F       -1.2990     2.5450    -1.1090 F     1 <1>  -0.1900 
  6 C       -3.2160     2.8570     0.1700 C.ar  1 <1>  -0.1440 
  7 C       -3.1740    -1.3340     1.0430 C.2   1 <1>   0.5440 
  8 C       -4.1560     0.9210     1.2590 C.ar  1 <1>  -0.1500 
  9 C       -4.1840     2.2790     0.9800 C.ar  1 <1>  -0.1500 
 10 C       -3.2440     4.3470    -0.1380 C.3   1 <1>  -0.0960 
 11 O       -3.0350    -1.6810     2.1990 O.2   1 <1>  -0.5700 
 12 N       -3.3770    -2.2870     0.0710 N.am  1 <1>  -0.6600 
 13 C       -3.3620    -3.7560     0.4010 C.3   1 <1>   0.3640 
 14 C       -3.8000    -1.9370    -1.3240 C.3   1 <1>   0.1400 
 15 C       -2.0740    -4.4480    -0.0860 C.ar  1 <1>  -0.1430 
 16 C       -4.6430    -4.4610    -0.1550 C.3   1 <1>   0.2000 
 17 C       -4.2860    -3.1620    -2.1140 C.3   1 <1>   0.1200 
 18 C       -1.8920    -5.7910     0.2230 C.ar  1 <1>  -0.1500 
 19 C       -1.0720    -3.7980    -0.8030 C.ar  1 <1>  -0.1500 
 20 O       -5.1780    -3.8910    -1.3320 O.3   1 <1>  -0.5600 
 21 C       -5.7700    -4.4540     0.8840 C.3   1 <1>   0.1200 
 22 C       -0.7680    -6.4840    -0.1950 C.ar  1 <1>   0.0830 
 23 C        0.0650    -4.4740    -1.2100 C.ar  1 <1>  -0.1500 
 24 O       -5.4850    -5.3520     1.9080 O.3   1 <1>  -0.6800 
 25 O       -0.7030    -7.8040     0.1090 O.3   1 <1>  -0.3630 
 26 C        0.2330    -5.8110    -0.9020 C.ar  1 <1>   0.0830 
 27 C       -0.6740    -8.7030    -0.9780 C.3   1 <1>   0.0400 
 28 O        1.3850    -6.4060    -1.2950 O.3   1 <1>  -0.3630 
 29 C        2.2720    -6.7750    -0.2620 C.3   1 <1>   0.0400 
 30 H       -4.9120     0.4930     1.8970 H     1 <1>   0.1500 
 31 H       -4.9660     2.8870     1.4020 H     1 <1>   0.1500 
 32 H       -4.0810     4.8260     0.3380 H     1 <1>   0.0800 
 33 H       -3.3210     4.5020    -1.2000 H     1 <1>   0.0800 
 34 H       -2.3400     4.8120     0.2120 H     1 <1>   0.0800 
 35 H       -3.3670    -3.8820     1.4710 H     1 <1>   0.0800 
 36 H       -4.6020    -1.2200    -1.2800 H     1 <1>   0.0800 
 37 H       -2.9790    -1.4870    -1.8510 H     1 <1>   0.0800 
 38 H       -4.4200    -5.4830    -0.3970 H     1 <1>   0.0800 
 39 H       -3.4650    -3.7990    -2.3960 H     1 <1>   0.0800 
 40 H       -4.8010    -2.8510    -3.0050 H     1 <1>   0.0800 
 41 H       -2.6260    -6.3250     0.7990 H     1 <1>   0.1500 
 42 H       -1.1510    -2.7550    -1.0450 H     1 <1>   0.1500 
 43 H       -6.7040    -4.7450     0.4350 H     1 <1>   0.0800 
 44 H       -5.8680    -3.4740     1.3190 H     1 <1>   0.0800 
 45 H        0.8330    -3.9610    -1.7600 H     1 <1>   0.1500 
 46 H       -5.6680    -6.2710     1.6270 H     1 <1>   0.4000 
 47 H       -0.7860    -9.7000    -0.5920 H     1 <1>   0.0800 
 48 H        0.2660    -8.6140    -1.4900 H     1 <1>   0.0800 
 49 H       -1.4860    -8.4710    -1.6430 H     1 <1>   0.0800 
 50 H        3.1690    -7.1620    -0.7110 H     1 <1>   0.0800 
 51 H        1.8120    -7.5300     0.3490 H     1 <1>   0.0800 
 52 H        2.4990    -5.9050     0.3270 H     1 <1>   0.0800 
@<TRIPOS>BOND
  1   1   2  1   
  2   2   3  ar  
  3   2   4  ar  
  4   3   5  1   
  5   3   6  ar  
  6   4   7  1   
  7   4   8  ar  
  8   6   9  ar  
  9   6  10  1   
 10   7  11  2   
 11   7  12  am  
 12   8   9  ar  
 13   8  30  1   
 14   9  31  1   
 15  10  32  1   
 16  10  33  1   
 17  10  34  1   
 18  12  13  1   
 19  12  14  1   
 20  13  15  1   
 21  13  16  1   
 22  13  35  1   
 23  14  17  1   
 24  14  36  1   
 25  14  37  1   
 26  15  18  ar  
 27  15  19  ar  
 28  16  20  1   
 29  16  21  1   
 30  16  38  1   
 31  17  20  1   
 32  17  39  1   
 33  17  40  1   
 34  18  22  ar  
 35  18  41  1   
 36  19  23  ar  
 37  19  42  1   
 38  21  24  1   
 39  21  43  1   
 40  21  44  1   
 41  22  25  1   
 42  22  26  ar  
 43  23  26  ar  
 44  23  45  1   
 45  24  46  1   
 46  25  27  1   
 47  26  28  1   
 48  27  47  1   
 49  27  48  1   
 50  27  49  1   
 51  28  29  1   
 52  29  50  1   
 53  29  51  1   
 54  29  52  1   
@<TRIPOS>SUBSTRUCTURE
  1 ****  12 GROUP 4 **** **** 0

# MOE 2024.06 (io_trps.svl 2023.06)
