@<TRIPOS>MOLECULE
NONAME
49 52 1 0 0 
SMALL
USER_CHARGES


@<TRIPOS>ATOM
  1 O        0.4180     0.2410     1.4930 O.3   1 <1>  -0.6800 
  2 C        1.1860     0.0700     0.3480 C.3   1 <1>   0.2000 
  3 C        1.8950    -1.2790     0.4610 C.3   1 <1>  -0.0800 
  4 C        2.3360     1.0940     0.3850 C.3   1 <1>   0.3430 
  5 C        3.0160    -0.9310     1.4430 C.3   1 <1>   0.3430 
  6 C        2.4000    -1.7490    -0.9300 C.3   1 <1>  -0.0170 
  7 N        3.5210     0.3730     0.9580 N.4   1 <1>  -0.9590 
  8 C        3.7010    -2.5380    -0.8850 C.ar  1 <1>   0.1670 
  9 C        4.2670     1.1560     1.9740 C.3   1 <1>   0.4860 
 10 N        4.8120    -1.8230    -0.7610 N.ar  1 <1>  -0.6200 
 11 C        3.6820    -3.9280    -0.9810 C.ar  1 <1>   0.1600 
 12 C        4.7460     2.4440     1.3320 C.ar  1 <1>  -0.1440 
 13 C        5.8940    -2.5900    -0.7670 C.ar  1 <1>   0.1600 
 14 N        4.7610    -4.6890    -0.9600 N.ar  1 <1>  -0.6200 
 15 C        5.7850     2.4250     0.3660 C.ar  1 <1>   0.0000 
 16 C        4.1380     3.6170     1.6910 C.ar  1 <1>  -0.1500 
 17 C        5.8680    -3.9760    -0.8600 C.ar  1 <1>   0.1600 
 18 C        6.1480     3.6390    -0.2690 C.ar  1 <1>   0.0000 
 19 C        6.4840     1.2500     0.0010 C.ar  1 <1>  -0.1500 
 20 C        4.5150     4.8180     1.0900 C.ar  1 <1>  -0.1500 
 21 C        7.1520     3.6210    -1.2720 C.ar  1 <1>  -0.1440 
 22 C        5.4890     4.8230     0.1340 C.ar  1 <1>  -0.1500 
 23 C        7.4510     1.2600    -0.9620 C.ar  1 <1>  -0.1500 
 24 C        7.7810     2.4530    -1.6050 C.ar  1 <1>  -0.1500 
 25 C        7.5550     4.8990    -1.9970 C.3   1 <1>  -0.0970 
 26 H       -0.4420    -0.2260     1.4230 H     1 <1>   0.4000 
 27 H        0.5520     0.1810    -0.5160 H     1 <1>   0.0800 
 28 H        1.2580    -2.0380     0.8800 H     1 <1>   0.0800 
 29 H        2.0530     1.9390     0.9910 H     1 <1>   0.0800 
 30 H        2.5700     1.4350    -0.6100 H     1 <1>   0.0800 
 31 H        3.7910    -1.6800     1.4690 H     1 <1>   0.0800 
 32 H        2.5960    -0.8150     2.4300 H     1 <1>   0.0800 
 33 H        2.5690    -0.9060    -1.5780 H     1 <1>   0.0800 
 34 H        1.6330    -2.3410    -1.3990 H     1 <1>   0.0800 
 35 H        4.1720     0.1630     0.1790 H     1 <1>   0.4500 
 36 H        3.6230     1.3810     2.8080 H     1 <1>   0.0800 
 37 H        5.1120     0.5940     2.3360 H     1 <1>   0.0800 
 38 H        2.7390    -4.4370    -1.0810 H     1 <1>   0.1500 
 39 H        6.8510    -2.1040    -0.6950 H     1 <1>   0.1500 
 40 H        3.3580     3.6530     2.4350 H     1 <1>   0.1500 
 41 H        6.8000    -4.5150    -0.8530 H     1 <1>   0.1500 
 42 H        6.2690     0.3180     0.4870 H     1 <1>   0.1500 
 43 H        4.0300     5.7330     1.3860 H     1 <1>   0.1500 
 44 H        5.7610     5.7570    -0.3210 H     1 <1>   0.1500 
 45 H        7.9760     0.3630    -1.2390 H     1 <1>   0.1500 
 46 H        8.5450     2.4280    -2.3640 H     1 <1>   0.1500 
 47 H        8.3110     4.7050    -2.7350 H     1 <1>   0.0800 
 48 H        7.9480     5.6130    -1.2960 H     1 <1>   0.0800 
 49 H        6.7030     5.3250    -2.4960 H     1 <1>   0.0800 
@<TRIPOS>BOND
  1   1   2  1   
  2   1  26  1   
  3   2   3  1   
  4   2   4  1   
  5   2  27  1   
  6   3   5  1   
  7   3   6  1   
  8   3  28  1   
  9   4   7  1   
 10   4  29  1   
 11   4  30  1   
 12   5   7  1   
 13   5  31  1   
 14   5  32  1   
 15   6   8  1   
 16   6  33  1   
 17   6  34  1   
 18   7   9  1   
 19   7  35  1   
 20   8  10  ar  
 21   8  11  ar  
 22   9  12  1   
 23   9  36  1   
 24   9  37  1   
 25  10  13  ar  
 26  11  14  ar  
 27  11  38  1   
 28  12  15  ar  
 29  12  16  ar  
 30  13  17  ar  
 31  13  39  1   
 32  14  17  ar  
 33  15  18  ar  
 34  15  19  ar  
 35  16  20  ar  
 36  16  40  1   
 37  17  41  1   
 38  18  21  ar  
 39  18  22  ar  
 40  19  23  ar  
 41  19  42  1   
 42  20  22  ar  
 43  20  43  1   
 44  21  24  ar  
 45  21  25  1   
 46  22  44  1   
 47  23  24  ar  
 48  23  45  1   
 49  24  46  1   
 50  25  47  1   
 51  25  48  1   
 52  25  49  1   
@<TRIPOS>SUBSTRUCTURE
  1 ****   7 GROUP 4 **** **** 0

# MOE 2024.06 (io_trps.svl 2023.06)
