@<TRIPOS>MOLECULE
NONAME
55 57 1 0 0 
SMALL
USER_CHARGES


@<TRIPOS>ATOM
  1 S       -0.8810    -1.0650     0.0760 S.3   1 <1>  -0.0800 
  2 C       -1.6740    -1.6560     1.5280 C.2   1 <1>  -0.1400 
  3 C       -0.5990     0.5040     0.8120 C.2   1 <1>  -0.1400 
  4 C       -1.7000    -0.6990     2.4750 C.2   1 <1>  -0.1500 
  5 C       -2.1900    -3.0760     1.4920 C.3   1 <1>   0.5230 
  6 C       -1.0910     0.5300     2.0640 C.2   1 <1>  -0.1500 
  7 C        0.1070     1.5690    -0.0130 C.3   1 <1>   0.0200 
  8 N       -3.1740    -3.1840     0.3820 N.4   1 <1>  -0.9590 
  9 C        1.6280     1.6080     0.2310 C.3   1 <1>  -0.0800 
 10 C       -3.5400    -4.6080     0.1200 C.3   1 <1>   0.3430 
 11 C       -4.3630    -2.3180     0.6310 C.3   1 <1>   0.3430 
 12 C        2.2550     2.7840    -0.5300 C.3   1 <1>  -0.2400 
 13 C        2.3260     0.3040    -0.1820 C.3   1 <1>  -0.2400 
 14 C       -4.4800    -4.7160    -1.0830 C.3   1 <1>  -0.0800 
 15 C       -5.3260    -2.3950    -0.5530 C.3   1 <1>  -0.1600 
 16 C       -5.7290    -3.8420    -0.8570 C.3   1 <1>   0.2800 
 17 C       -4.8680    -6.1870    -1.3030 C.3   1 <1>   0.1400 
 18 O       -6.4220    -3.8200    -2.0440 O.3   1 <1>  -0.6800 
 19 C       -6.6650    -4.4220     0.2250 C.3   1 <1>  -0.1600 
 20 N       -5.6460    -6.6310    -0.1200 N.am  1 <1>  -0.6600 
 21 C       -6.9400    -5.9150     0.0270 C.3   1 <1>   0.1400 
 22 C       -5.1980    -7.4970     0.8380 C.2   1 <1>   0.5690 
 23 O       -5.5940    -7.4360     1.9750 O.2   1 <1>  -0.5700 
 24 C       -4.1410    -8.5250     0.5110 C.3   1 <1>  -0.1790 
 25 H       -2.1200    -0.7860     3.4630 H     1 <1>   0.1500 
 26 H       -2.6530    -3.3260     2.4320 H     1 <1>   0.0800 
 27 H       -1.3620    -3.7460     1.3230 H     1 <1>   0.0800 
 28 H       -1.0490     1.3750     2.7300 H     1 <1>   0.1500 
 29 H       -0.0970     1.4120    -1.0570 H     1 <1>   0.0800 
 30 H       -0.3070     2.5240     0.2570 H     1 <1>   0.0800 
 31 H       -2.6940    -2.8040    -0.4460 H     1 <1>   0.4500 
 32 H        1.7970     1.7620     1.2840 H     1 <1>   0.0800 
 33 H       -2.6510    -5.1880    -0.0710 H     1 <1>   0.0800 
 34 H       -4.0300    -5.0220     0.9880 H     1 <1>   0.0800 
 35 H       -4.8670    -2.6380     1.5280 H     1 <1>   0.0800 
 36 H       -4.0520    -1.2930     0.7690 H     1 <1>   0.0800 
 37 H        2.1160     2.6680    -1.5900 H     1 <1>   0.0800 
 38 H        3.3100     2.8400    -0.3270 H     1 <1>   0.0800 
 39 H        1.8060     3.7120    -0.2230 H     1 <1>   0.0800 
 40 H        2.1300     0.0780    -1.2150 H     1 <1>   0.0800 
 41 H        1.9840    -0.5150     0.4240 H     1 <1>   0.0800 
 42 H        3.3890     0.3910    -0.0460 H     1 <1>   0.0800 
 43 H       -3.9550    -4.3710    -1.9570 H     1 <1>   0.0800 
 44 H       -4.8490    -1.9570    -1.4130 H     1 <1>   0.0800 
 45 H       -6.1990    -1.8100    -0.3250 H     1 <1>   0.0800 
 46 H       -3.9890    -6.7910    -1.4410 H     1 <1>   0.0800 
 47 H       -5.4780    -6.2830    -2.1860 H     1 <1>   0.0800 
 48 H       -7.2590    -3.3240    -1.9540 H     1 <1>   0.4000 
 49 H       -6.2280    -4.3110     1.2010 H     1 <1>   0.0800 
 50 H       -7.5970    -3.8870     0.2390 H     1 <1>   0.0800 
 51 H       -7.5310    -6.0690    -0.8600 H     1 <1>   0.0800 
 52 H       -7.4930    -6.3050     0.8660 H     1 <1>   0.0800 
 53 H       -4.3520    -8.9790    -0.4400 H     1 <1>   0.0800 
 54 H       -4.1460    -9.2940     1.2620 H     1 <1>   0.0800 
 55 H       -3.1720    -8.0670     0.4910 H     1 <1>   0.0800 
@<TRIPOS>BOND
  1   1   2  1   
  2   1   3  1   
  3   2   4  2   
  4   2   5  1   
  5   3   6  2   
  6   3   7  1   
  7   4   6  1   
  8   4  25  1   
  9   5   8  1   
 10   5  26  1   
 11   5  27  1   
 12   6  28  1   
 13   7   9  1   
 14   7  29  1   
 15   7  30  1   
 16   8  10  1   
 17   8  11  1   
 18   8  31  1   
 19   9  12  1   
 20   9  13  1   
 21   9  32  1   
 22  10  14  1   
 23  10  33  1   
 24  10  34  1   
 25  11  15  1   
 26  11  35  1   
 27  11  36  1   
 28  12  37  1   
 29  12  38  1   
 30  12  39  1   
 31  13  40  1   
 32  13  41  1   
 33  13  42  1   
 34  14  16  1   
 35  14  17  1   
 36  14  43  1   
 37  15  16  1   
 38  15  44  1   
 39  15  45  1   
 40  16  18  1   
 41  16  19  1   
 42  17  20  1   
 43  17  46  1   
 44  17  47  1   
 45  18  48  1   
 46  19  21  1   
 47  19  49  1   
 48  19  50  1   
 49  20  21  1   
 50  20  22  am  
 51  21  51  1   
 52  21  52  1   
 53  22  23  2   
 54  22  24  1   
 55  24  53  1   
 56  24  54  1   
 57  24  55  1   
@<TRIPOS>SUBSTRUCTURE
  1 ****   8 GROUP 4 **** **** 0

# MOE 2024.06 (io_trps.svl 2023.06)
