@<TRIPOS>MOLECULE
NONAME
45 47 1 0 0 
SMALL
USER_CHARGES


@<TRIPOS>ATOM
  1 S       -0.1670    -0.7590    -0.3770 S.3   1 <1>  -0.0800 
  2 C       -1.0490    -1.6160    -1.6140 C.2   1 <1>   0.2280 
  3 C       -1.2210    -1.4560     0.8100 C.2   1 <1>  -0.1100 
  4 N       -2.0130    -2.3240    -1.1810 N.2   1 <1>  -0.5650 
  5 C       -2.1420    -2.2510     0.2210 C.2   1 <1>   0.1410 
  6 C       -3.1610    -3.0040     0.9530 C.2   1 <1>   0.7160 
  7 O       -2.9220    -3.3400     2.1010 O.2   1 <1>  -0.5700 
  8 N       -4.3960    -3.3460     0.4310 N.am  1 <1>  -0.6600 
  9 C       -5.1500    -4.5160     0.9730 C.3   1 <1>   0.1400 
 10 C       -5.1150    -2.5080    -0.5710 C.3   1 <1>   0.1400 
 11 C       -6.4560    -4.1090     1.6690 C.3   1 <1>   0.1400 
 12 C       -6.1060    -1.5840     0.1480 C.3   1 <1>  -0.1600 
 13 N       -7.4790    -3.6540     0.6760 N.am  1 <1>  -0.6600 
 14 C       -7.4980    -2.1900     0.3810 C.3   1 <1>   0.1400 
 15 C       -8.3930    -4.4910     0.0810 C.2   1 <1>   0.5690 
 16 O       -9.2410    -4.0720    -0.6720 O.2   1 <1>  -0.5700 
 17 C       -8.3500    -5.9890     0.3490 C.3   1 <1>  -0.0990 
 18 C       -9.2770    -6.8100    -0.5580 C.3   1 <1>   0.0200 
 19 C       -9.0530    -8.2950    -0.3190 C.2   1 <1>  -0.3320 
 20 N       -8.0660    -9.0360    -0.8740 N.pl3 1 <1>   0.3140 
 21 C       -9.7690    -9.1290     0.4660 C.2   1 <1>  -0.1500 
 22 N       -8.1210   -10.3120    -0.4590 N.2   1 <1>  -0.7070 
 23 C       -7.0370    -8.5990    -1.8280 C.3   1 <1>   0.0160 
 24 C       -9.1430   -10.3610     0.3380 C.2   1 <1>   0.1390 
 25 H       -0.7180    -1.4850    -2.6300 H     1 <1>   0.1500 
 26 H       -1.0560    -1.2160     1.8450 H     1 <1>   0.1500 
 27 H       -4.5370    -5.0450     1.6820 H     1 <1>   0.0800 
 28 H       -5.3610    -5.1980     0.1690 H     1 <1>   0.0800 
 29 H       -5.6230    -3.1340    -1.2850 H     1 <1>   0.0800 
 30 H       -4.4210    -1.8960    -1.1150 H     1 <1>   0.0800 
 31 H       -6.2550    -3.3290     2.3830 H     1 <1>   0.0800 
 32 H       -6.8350    -4.9500     2.2210 H     1 <1>   0.0800 
 33 H       -6.2410    -0.7020    -0.4520 H     1 <1>   0.0800 
 34 H       -5.6870    -1.2560     1.0820 H     1 <1>   0.0800 
 35 H       -8.0850    -2.0140    -0.5050 H     1 <1>   0.0800 
 36 H       -7.9840    -1.6750     1.1910 H     1 <1>   0.0800 
 37 H       -8.6300    -6.1640     1.3710 H     1 <1>   0.0800 
 38 H       -7.3450    -6.3360     0.2100 H     1 <1>   0.0800 
 39 H       -9.1010    -6.5710    -1.5920 H     1 <1>   0.0800 
 40 H      -10.3000    -6.5600    -0.3360 H     1 <1>   0.0800 
 41 H      -10.6340    -8.9180     1.0690 H     1 <1>   0.1500 
 42 H       -6.3570    -7.9320    -1.3350 H     1 <1>   0.0800 
 43 H       -7.5080    -8.1040    -2.6550 H     1 <1>   0.0800 
 44 H       -6.5010    -9.4590    -2.1830 H     1 <1>   0.0800 
 45 H       -9.4600   -11.2610     0.8380 H     1 <1>   0.1500 
@<TRIPOS>BOND
  1   1   2  1   
  2   1   3  1   
  3   2   4  2   
  4   2  25  1   
  5   3   5  2   
  6   3  26  1   
  7   4   5  1   
  8   5   6  1   
  9   6   7  2   
 10   6   8  am  
 11   8   9  1   
 12   8  10  1   
 13   9  11  1   
 14   9  27  1   
 15   9  28  1   
 16  10  12  1   
 17  10  29  1   
 18  10  30  1   
 19  11  13  1   
 20  11  31  1   
 21  11  32  1   
 22  12  14  1   
 23  12  33  1   
 24  12  34  1   
 25  13  14  1   
 26  13  15  am  
 27  14  35  1   
 28  14  36  1   
 29  15  16  2   
 30  15  17  1   
 31  17  18  1   
 32  17  37  1   
 33  17  38  1   
 34  18  19  1   
 35  18  39  1   
 36  18  40  1   
 37  19  20  1   
 38  19  21  2   
 39  20  22  1   
 40  20  23  1   
 41  21  24  1   
 42  21  41  1   
 43  22  24  2   
 44  23  42  1   
 45  23  43  1   
 46  23  44  1   
 47  24  45  1   
@<TRIPOS>SUBSTRUCTURE
  1 ****   9 GROUP 4 **** **** 0

# MOE 2024.06 (io_trps.svl 2023.06)
