@<TRIPOS>MOLECULE
NONAME
39 41 1 0 0 
SMALL
USER_CHARGES


@<TRIPOS>ATOM
  1 CL      -0.1780    -0.0760    -1.1940 Cl    1 <1>  -0.1230 
  2 C       -1.6730     0.4550    -0.4390 C.2   1 <1>   0.1230 
  3 C       -2.7390    -0.3420    -0.0050 C.2   1 <1>   0.2030 
  4 C       -1.9950     1.7340    -0.1920 C.2   1 <1>  -0.3020 
  5 N       -3.6860     0.4530     0.4840 N.2   1 <1>  -0.7070 
  6 C       -2.7660    -1.7990    -0.0910 C.2   1 <1>   0.7160 
  7 N       -3.2160     1.7050     0.3690 N.pl3 1 <1>   0.3140 
  8 O       -1.7240    -2.4350    -0.0920 O.2   1 <1>  -0.5700 
  9 N       -3.9410    -2.5260    -0.1740 N.am  1 <1>  -0.6600 
 10 C       -3.9880     2.8700     0.8180 C.3   1 <1>   0.0160 
 11 C       -5.3110    -1.9580    -0.1940 C.3   1 <1>   0.1400 
 12 C       -3.9840    -4.0060    -0.2540 C.3   1 <1>   0.1400 
 13 C       -6.2360    -3.1610    -0.3880 C.3   1 <1>   0.2000 
 14 C       -5.4320    -4.3760     0.0710 C.3   1 <1>  -0.0800 
 15 O       -7.3920    -3.0440     0.3680 O.3   1 <1>  -0.6800 
 16 C       -5.9100    -5.6830    -0.5820 C.3   1 <1>  -0.0170 
 17 C       -5.1070    -6.8780    -0.0990 C.ar  1 <1>   0.1670 
 18 N       -3.9740    -7.1240    -0.7390 N.ar  1 <1>  -0.6200 
 19 C       -5.5770    -7.6360     0.9640 C.ar  1 <1>  -0.1500 
 20 C       -3.2810    -8.1620    -0.3020 C.ar  1 <1>   0.1600 
 21 C       -4.8450    -8.7170     1.4080 C.ar  1 <1>  -0.1500 
 22 C       -3.6630    -8.9780     0.7490 C.ar  1 <1>  -0.1500 
 23 H       -1.4390     2.6330    -0.3810 H     1 <1>   0.1500 
 24 H       -3.4220     3.4060     1.5570 H     1 <1>   0.0800 
 25 H       -4.9150     2.5370     1.2460 H     1 <1>   0.0800 
 26 H       -4.1880     3.5070    -0.0230 H     1 <1>   0.0800 
 27 H       -5.5060    -1.4710     0.7450 H     1 <1>   0.0800 
 28 H       -5.4150    -1.2570    -1.0040 H     1 <1>   0.0800 
 29 H       -3.7230    -4.3110    -1.2540 H     1 <1>   0.0800 
 30 H       -3.2950    -4.4550     0.4420 H     1 <1>   0.0800 
 31 H       -6.5130    -3.2430    -1.4250 H     1 <1>   0.0800 
 32 H       -5.5010    -4.4670     1.1410 H     1 <1>   0.0800 
 33 H       -7.1660    -2.9270     1.3110 H     1 <1>   0.4000 
 34 H       -5.8240    -5.6140    -1.6530 H     1 <1>   0.0800 
 35 H       -6.9500    -5.8340    -0.3520 H     1 <1>   0.0800 
 36 H       -6.5060    -7.3840     1.4420 H     1 <1>   0.1500 
 37 H       -2.3560    -8.3750    -0.8100 H     1 <1>   0.1500 
 38 H       -5.1800    -9.3260     2.2300 H     1 <1>   0.1500 
 39 H       -3.0430    -9.8040     1.0440 H     1 <1>   0.1500 
@<TRIPOS>BOND
  1   1   2  1   
  2   2   3  1   
  3   2   4  2   
  4   3   5  2   
  5   3   6  1   
  6   4   7  1   
  7   4  23  1   
  8   5   7  1   
  9   6   8  2   
 10   6   9  am  
 11   7  10  1   
 12   9  11  1   
 13   9  12  1   
 14  10  24  1   
 15  10  25  1   
 16  10  26  1   
 17  11  13  1   
 18  11  27  1   
 19  11  28  1   
 20  12  14  1   
 21  12  29  1   
 22  12  30  1   
 23  13  14  1   
 24  13  15  1   
 25  13  31  1   
 26  14  16  1   
 27  14  32  1   
 28  15  33  1   
 29  16  17  1   
 30  16  34  1   
 31  16  35  1   
 32  17  18  ar  
 33  17  19  ar  
 34  18  20  ar  
 35  19  21  ar  
 36  19  36  1   
 37  20  22  ar  
 38  20  37  1   
 39  21  22  ar  
 40  21  38  1   
 41  22  39  1   
@<TRIPOS>SUBSTRUCTURE
  1 ****   9 GROUP 4 **** **** 0

# MOE 2024.06 (io_trps.svl 2023.06)
