@<TRIPOS>MOLECULE
NONAME
38 40 1 0 0 
SMALL
USER_CHARGES


@<TRIPOS>ATOM
  1 O       -2.1280     0.7490    -1.8490 O.2   1 <1>  -0.5700 
  2 C       -1.9120     0.6910    -0.6510 C.2   1 <1>   0.7160 
  3 N       -1.8870    -0.5370    -0.0570 N.am  1 <1>  -0.7300 
  4 C       -1.7020     1.8900     0.1400 C.2   1 <1>   0.2030 
  5 C       -2.0920    -1.8420    -0.7260 C.3   1 <1>   0.2200 
  6 N       -1.5170     1.9380     1.4270 N.2   1 <1>  -0.4100 
  7 C       -1.6710     3.1860    -0.3520 C.2   1 <1>  -0.1500 
  8 C       -3.4610    -2.4230    -0.3950 C.3   1 <1>  -0.0800 
  9 C       -1.1840    -2.8800    -0.0800 C.3   1 <1>   0.1200 
 10 O       -1.3640     3.1810     1.8170 O.3   1 <1>  -0.0190 
 11 C       -1.4580     3.9270     0.7380 C.2   1 <1>  -0.0400 
 12 C       -3.2230    -3.1220     0.9480 C.3   1 <1>   0.1200 
 13 C       -4.6350    -1.4270    -0.3910 C.3   1 <1>  -0.0160 
 14 O       -1.8390    -3.2670     1.0900 O.3   1 <1>  -0.5600 
 15 C       -1.3200     5.4280     0.8800 C.3   1 <1>  -0.0600 
 16 C       -5.9500    -2.1400    -0.1200 C.ar  1 <1>  -0.1440 
 17 C       -6.5340    -2.1510     1.1310 C.ar  1 <1>  -0.1500 
 18 C       -6.6280    -2.8160    -1.1140 C.ar  1 <1>  -0.1500 
 19 C       -7.7290    -2.8230     1.3230 C.ar  1 <1>   0.1600 
 20 C       -7.8200    -3.4560    -0.8170 C.ar  1 <1>   0.1600 
 21 N       -8.3860    -3.4780     0.3790 N.ar  1 <1>  -0.6200 
 22 H       -1.7150    -0.5830     0.9520 H     1 <1>   0.3700 
 23 H       -1.9220    -1.7580    -1.7860 H     1 <1>   0.0800 
 24 H       -1.7940     3.4690    -1.3820 H     1 <1>   0.1500 
 25 H       -3.6750    -3.1900    -1.1200 H     1 <1>   0.0800 
 26 H       -0.2090    -2.4930     0.1600 H     1 <1>   0.0800 
 27 H       -1.0910    -3.7490    -0.7080 H     1 <1>   0.0800 
 28 H       -3.6840    -4.0940     0.9810 H     1 <1>   0.0800 
 29 H       -3.5710    -2.5250     1.7730 H     1 <1>   0.0800 
 30 H       -4.6880    -0.9320    -1.3450 H     1 <1>   0.0800 
 31 H       -4.4840    -0.6690     0.3580 H     1 <1>   0.0800 
 32 H       -1.4180     5.9050    -0.0790 H     1 <1>   0.0800 
 33 H       -0.3570     5.6680     1.2920 H     1 <1>   0.0800 
 34 H       -2.0840     5.8040     1.5360 H     1 <1>   0.0800 
 35 H       -6.0720    -1.6440     1.9580 H     1 <1>   0.1500 
 36 H       -6.2420    -2.8500    -2.1170 H     1 <1>   0.1500 
 37 H       -8.1700    -2.8210     2.3050 H     1 <1>   0.1500 
 38 H       -8.3350    -3.9780    -1.6050 H     1 <1>   0.1500 
@<TRIPOS>BOND
  1   1   2  2   
  2   2   3  am  
  3   2   4  1   
  4   3   5  1   
  5   3  22  1   
  6   4   6  2   
  7   4   7  1   
  8   5   8  1   
  9   5   9  1   
 10   5  23  1   
 11   6  10  1   
 12   7  11  2   
 13   7  24  1   
 14   8  12  1   
 15   8  13  1   
 16   8  25  1   
 17   9  14  1   
 18   9  26  1   
 19   9  27  1   
 20  10  11  1   
 21  11  15  1   
 22  12  14  1   
 23  12  28  1   
 24  12  29  1   
 25  13  16  1   
 26  13  30  1   
 27  13  31  1   
 28  15  32  1   
 29  15  33  1   
 30  15  34  1   
 31  16  17  ar  
 32  16  18  ar  
 33  17  19  ar  
 34  17  35  1   
 35  18  20  ar  
 36  18  36  1   
 37  19  21  ar  
 38  19  37  1   
 39  20  21  ar  
 40  20  38  1   
@<TRIPOS>SUBSTRUCTURE
  1 ****  13 GROUP 4 **** **** 0

# MOE 2024.06 (io_trps.svl 2023.06)
