@<TRIPOS>MOLECULE
Untitled Document
34 36 1 0 0 
SMALL
USER_CHARGES


@<TRIPOS>ATOM
  1 CL       0.3220    -0.3170    -1.4410 Cl    1 <1>  -0.1770 
  2 C        1.7850    -0.8430    -0.6330 C.ar  1 <1>   0.1770 
  3 C        2.7690     0.0680    -0.2670 C.ar  1 <1>   0.0410 
  4 C        1.9090    -2.1990    -0.3720 C.ar  1 <1>   0.1600 
  5 C        2.5560     1.4600    -0.4970 C.2   1 <1>   0.6970 
  6 C        3.8870    -0.5080     0.3500 C.ar  1 <1>   0.1170 
  7 N        2.9390    -2.7630     0.2380 N.ar  1 <1>  -0.6200 
  8 N        2.8540     2.0790    -1.5950 N.2   1 <1>  -0.6190 
  9 N        1.9950     2.2570     0.3620 N.2   1 <1>  -0.6190 
 10 N        5.1210    -0.0460     0.8670 N.am  1 <1>  -0.4770 
 11 C        3.8690    -1.8830     0.5720 C.ar  1 <1>   0.4270 
 12 N        2.4840     3.2960    -1.4230 N.2   1 <1>  -0.2500 
 13 N        1.9590     3.4040    -0.2340 N.2   1 <1>  -0.2500 
 14 C        5.7580    -1.1380     1.3940 C.2   1 <1>   0.6900 
 15 C        5.8660     1.2290     0.6560 C.3   1 <1>   0.2200 
 16 N        5.0080    -2.2390     1.2210 N.am  1 <1>  -0.5470 
 17 O        6.8560    -1.1610     1.9260 O.2   1 <1>  -0.5700 
 18 C        5.1400     2.4330     1.2740 C.3   1 <1>  -0.1600 
 19 C        6.2340     1.4370    -0.8240 C.3   1 <1>  -0.1600 
 20 C        6.1120     3.4370     1.9090 C.3   1 <1>  -0.2400 
 21 C        7.0970     0.3060    -1.4050 C.3   1 <1>  -0.2400 
 22 H        1.1070    -2.8450    -0.6840 H     1 <1>   0.1500 
 23 H        6.7970     1.1370     1.1880 H     1 <1>   0.0800 
 24 H        5.2720    -3.1740     1.5060 H     1 <1>   0.3700 
 25 H        4.4450     2.1010     2.0260 H     1 <1>   0.0800 
 26 H        4.5830     2.9510     0.5140 H     1 <1>   0.0800 
 27 H        6.7780     2.3610    -0.9110 H     1 <1>   0.0800 
 28 H        5.3450     1.5450    -1.4140 H     1 <1>   0.0800 
 29 H        6.6630     2.9740     2.7080 H     1 <1>   0.0800 
 30 H        5.5580     4.2680     2.3090 H     1 <1>   0.0800 
 31 H        6.8010     3.8100     1.1730 H     1 <1>   0.0800 
 32 H        7.9820     0.1640    -0.8090 H     1 <1>   0.0800 
 33 H        7.3930     0.5530    -2.4090 H     1 <1>   0.0800 
 34 H        6.5450    -0.6160    -1.4330 H     1 <1>   0.0800 
@<TRIPOS>BOND
  1   1   2  1   
  2   2   3  ar  
  3   2   4  ar  
  4   3   5  1   
  5   3   6  ar  
  6   4   7  ar  
  7   4  22  1   
  8   5   8  1   
  9   5   9  2   
 10   6  10  1   
 11   6  11  ar  
 12   7  11  ar  
 13   8  12  1   
 14   9  13  1   
 15  10  14  am  
 16  10  15  1   
 17  11  16  1   
 18  12  13  2   
 19  14  16  am  
 20  14  17  2   
 21  15  18  1   
 22  15  19  1   
 23  15  23  1   
 24  16  24  1   
 25  18  20  1   
 26  18  25  1   
 27  18  26  1   
 28  19  21  1   
 29  19  27  1   
 30  19  28  1   
 31  20  29  1   
 32  20  30  1   
 33  20  31  1   
 34  21  32  1   
 35  21  33  1   
 36  21  34  1   
@<TRIPOS>SUBSTRUCTURE
  1 ****   6 GROUP 4 **** **** 0

# MOE 2024.06 (io_trps.svl 2023.06)
