@<TRIPOS>MOLECULE
NONAME
52 54 1 0 0 
SMALL
USER_CHARGES


@<TRIPOS>ATOM
  1 O       -0.5130     0.1370    -3.4230 O.2   1 <1>  -0.5700 
  2 C       -0.0730     1.0420    -2.7520 C.2   1 <1>   0.5690 
  3 N       -0.8800     1.7630    -1.9020 N.am  1 <1>  -0.6600 
  4 C        1.4130     1.3520    -2.9030 C.3   1 <1>   0.0450 
  5 C       -2.3050     1.3570    -1.7040 C.3   1 <1>   0.1400 
  6 C       -0.3860     2.9020    -1.0680 C.3   1 <1>   0.1400 
  7 C        2.1970     1.2360    -1.5980 C.ar  1 <1>  -0.1440 
  8 C       -2.7430     1.6240    -0.2630 C.3   1 <1>  -0.1600 
  9 C       -1.5420     3.8320    -0.7110 C.3   1 <1>  -0.1600 
 10 C        3.0100     2.2760    -1.1700 C.ar  1 <1>  -0.1500 
 11 C        2.0930     0.0920    -0.8210 C.ar  1 <1>  -0.1500 
 12 C       -2.6000     3.1040     0.1360 C.3   1 <1>   0.4180 
 13 C        3.7020     2.1870     0.0260 C.ar  1 <1>   0.0830 
 14 C        2.7960    -0.0150     0.3660 C.ar  1 <1>  -0.1500 
 15 O       -2.1720     3.0860     1.4760 O.3   1 <1>  -0.5600 
 16 C       -3.9530     3.8050     0.0130 C.2   1 <1>  -0.2880 
 17 O        4.4350     3.2650     0.4000 O.3   1 <1>  -0.3630 
 18 C        3.6140     1.0180     0.7900 C.ar  1 <1>   0.0830 
 19 C       -2.4180     4.2190     2.2630 C.3   1 <1>   0.1200 
 20 C       -4.5770     4.4190     1.0210 C.2   1 <1>  -0.2760 
 21 C        4.0470     3.9070     1.5960 C.3   1 <1>   0.0400 
 22 O        4.3070     0.8360     1.9410 O.3   1 <1>  -0.3630 
 23 C       -3.9250     4.4770     2.3890 C.3   1 <1>  -0.0220 
 24 C       -5.9400     5.0790     0.9170 C.3   1 <1>  -0.1020 
 25 C        5.7070     0.7340     1.8110 C.3   1 <1>   0.0400 
 26 H        1.5120     2.3370    -3.3180 H     1 <1>   0.0800 
 27 H        1.8350     0.6640    -3.6130 H     1 <1>   0.0800 
 28 H       -2.4220     0.3080    -1.9190 H     1 <1>   0.0800 
 29 H       -2.9260     1.9090    -2.3880 H     1 <1>   0.0800 
 30 H        0.3590     3.4590    -1.6060 H     1 <1>   0.0800 
 31 H        0.0600     2.5140    -0.1660 H     1 <1>   0.0800 
 32 H       -2.1340     1.0120     0.3800 H     1 <1>   0.0800 
 33 H       -3.7620     1.3110    -0.1350 H     1 <1>   0.0800 
 34 H       -1.9860     4.1770    -1.6270 H     1 <1>   0.0800 
 35 H       -1.1730     4.6970    -0.1950 H     1 <1>   0.0800 
 36 H        3.1110     3.1730    -1.7530 H     1 <1>   0.1500 
 37 H        1.4610    -0.7220    -1.1370 H     1 <1>   0.1500 
 38 H        2.7170    -0.9030     0.9660 H     1 <1>   0.1500 
 39 H       -4.3630     3.7420    -0.9780 H     1 <1>   0.1500 
 40 H       -1.9310     5.0650     1.8140 H     1 <1>   0.0800 
 41 H       -1.9870     4.0450     3.2320 H     1 <1>   0.0800 
 42 H        4.5970     4.8270     1.6770 H     1 <1>   0.0800 
 43 H        4.2750     3.2710     2.4320 H     1 <1>   0.0800 
 44 H        2.9920     4.1090     1.5570 H     1 <1>   0.0800 
 45 H       -4.0690     5.4470     2.8310 H     1 <1>   0.0800 
 46 H       -4.3680     3.7430     3.0380 H     1 <1>   0.0800 
 47 H       -6.6270     4.6180     1.6050 H     1 <1>   0.0800 
 48 H       -6.3330     4.9760    -0.0780 H     1 <1>   0.0800 
 49 H       -5.8650     6.1270     1.1470 H     1 <1>   0.0800 
 50 H        6.1200     0.5180     2.7800 H     1 <1>   0.0800 
 51 H        6.1000     1.6650     1.4440 H     1 <1>   0.0800 
 52 H        5.9340    -0.0630     1.1260 H     1 <1>   0.0800 
@<TRIPOS>BOND
  1   1   2  2   
  2   2   3  am  
  3   2   4  1   
  4   3   5  1   
  5   3   6  1   
  6   4   7  1   
  7   4  26  1   
  8   4  27  1   
  9   5   8  1   
 10   5  28  1   
 11   5  29  1   
 12   6   9  1   
 13   6  30  1   
 14   6  31  1   
 15   7  10  ar  
 16   7  11  ar  
 17   8  12  1   
 18   8  32  1   
 19   8  33  1   
 20   9  12  1   
 21   9  34  1   
 22   9  35  1   
 23  10  13  ar  
 24  10  36  1   
 25  11  14  ar  
 26  11  37  1   
 27  12  15  1   
 28  12  16  1   
 29  13  17  1   
 30  13  18  ar  
 31  14  18  ar  
 32  14  38  1   
 33  15  19  1   
 34  16  20  2   
 35  16  39  1   
 36  17  21  1   
 37  18  22  1   
 38  19  23  1   
 39  19  40  1   
 40  19  41  1   
 41  20  23  1   
 42  20  24  1   
 43  21  42  1   
 44  21  43  1   
 45  21  44  1   
 46  22  25  1   
 47  23  45  1   
 48  23  46  1   
 49  24  47  1   
 50  24  48  1   
 51  24  49  1   
 52  25  50  1   
 53  25  51  1   
 54  25  52  1   
@<TRIPOS>SUBSTRUCTURE
  1 ****   6 GROUP 4 **** **** 0

# MOE 2024.06 (io_trps.svl 2023.06)
