@<TRIPOS>MOLECULE
NONAME
42 44 1 0 0 
SMALL
USER_CHARGES


@<TRIPOS>ATOM
  1 F        0.5550    -0.2650     2.2870 F     1 <1>  -0.3400 
  2 C        1.3700    -0.4800     1.2620 C.3   1 <1>   1.1640 
  3 F        1.1980     0.5360     0.4270 F     1 <1>  -0.3400 
  4 F        2.6040    -0.3670     1.7370 F     1 <1>  -0.3400 
  5 C        1.1390    -1.8320     0.5780 C.ar  1 <1>  -0.1440 
  6 C        0.0900    -2.6720     0.8970 C.ar  1 <1>  -0.1500 
  7 C        1.9860    -2.2860    -0.4220 C.ar  1 <1>  -0.1500 
  8 C       -0.0700    -3.8860     0.2390 C.ar  1 <1>   0.4100 
  9 C        1.7510    -3.5100    -1.0240 C.ar  1 <1>   0.1660 
 10 N        0.7490    -4.3090    -0.7120 N.ar  1 <1>  -0.6200 
 11 N       -1.1200    -4.7010     0.5920 N.pl3 1 <1>  -0.8690 
 12 C        2.6730    -4.0090    -2.1170 C.3   1 <1>  -0.0970 
 13 C       -1.2750    -6.0740     0.0460 C.3   1 <1>   0.2890 
 14 C       -2.7350    -6.4800     0.1340 C.3   1 <1>  -0.0800 
 15 C       -0.6050    -7.0850     0.9760 C.3   1 <1>   0.1200 
 16 C       -2.8310    -6.9910     1.5720 C.3   1 <1>   0.1200 
 17 C       -3.0800    -7.5730    -0.8960 C.3   1 <1>  -0.0160 
 18 O       -1.5710    -7.4920     1.9060 O.3   1 <1>  -0.5600 
 19 C       -4.5480    -7.9640    -0.8230 C.ar  1 <1>  -0.1430 
 20 C       -5.5400    -7.1520    -1.3320 C.ar  1 <1>  -0.1500 
 21 C       -4.9640    -9.1480    -0.2470 C.ar  1 <1>  -0.1500 
 22 C       -6.8640    -7.5480    -1.2390 C.ar  1 <1>   0.1600 
 23 C       -6.3150    -9.4500    -0.2050 C.ar  1 <1>   0.1600 
 24 N       -7.2760    -8.6770    -0.6860 N.ar  1 <1>  -0.6200 
 25 H       -0.6250    -2.4070     1.6540 H     1 <1>   0.1500 
 26 H        2.8260    -1.6880    -0.7300 H     1 <1>   0.1500 
 27 H       -1.3840    -4.6570     1.5770 H     1 <1>   0.4000 
 28 H        3.4590    -3.3060    -2.3170 H     1 <1>   0.0800 
 29 H        2.1080    -4.1650    -3.0180 H     1 <1>   0.0800 
 30 H        3.1100    -4.9440    -1.8170 H     1 <1>   0.0800 
 31 H       -0.8940    -6.1320    -0.9600 H     1 <1>   0.0800 
 32 H       -3.3820    -5.6350    -0.0230 H     1 <1>   0.0800 
 33 H        0.2420    -6.6650     1.4900 H     1 <1>   0.0800 
 34 H       -0.2980    -7.9560     0.4250 H     1 <1>   0.0800 
 35 H       -3.5650    -7.7670     1.7030 H     1 <1>   0.0800 
 36 H       -3.0470    -6.1810     2.2470 H     1 <1>   0.0800 
 37 H       -2.4670    -8.4430    -0.7340 H     1 <1>   0.0800 
 38 H       -2.8710    -7.2090    -1.8870 H     1 <1>   0.0800 
 39 H       -5.2970    -6.2150    -1.7990 H     1 <1>   0.1500 
 40 H       -4.2530    -9.8360     0.1710 H     1 <1>   0.1500 
 41 H       -7.6250    -6.9010    -1.6410 H     1 <1>   0.1500 
 42 H       -6.6220   -10.3770     0.2490 H     1 <1>   0.1500 
@<TRIPOS>BOND
  1   1   2  1   
  2   2   3  1   
  3   2   4  1   
  4   2   5  1   
  5   5   6  ar  
  6   5   7  ar  
  7   6   8  ar  
  8   6  25  1   
  9   7   9  ar  
 10   7  26  1   
 11   8  10  ar  
 12   8  11  1   
 13   9  10  ar  
 14   9  12  1   
 15  11  13  1   
 16  11  27  1   
 17  12  28  1   
 18  12  29  1   
 19  12  30  1   
 20  13  14  1   
 21  13  15  1   
 22  13  31  1   
 23  14  16  1   
 24  14  17  1   
 25  14  32  1   
 26  15  18  1   
 27  15  33  1   
 28  15  34  1   
 29  16  18  1   
 30  16  35  1   
 31  16  36  1   
 32  17  19  1   
 33  17  37  1   
 34  17  38  1   
 35  19  20  ar  
 36  19  21  ar  
 37  20  22  ar  
 38  20  39  1   
 39  21  23  ar  
 40  21  40  1   
 41  22  24  ar  
 42  22  41  1   
 43  23  24  ar  
 44  23  42  1   
@<TRIPOS>SUBSTRUCTURE
  1 ****  11 GROUP 4 **** **** 0

# MOE 2024.06 (io_trps.svl 2023.06)
