@<TRIPOS>MOLECULE
NONAME
51 54 1 0 0 
SMALL
USER_CHARGES


@<TRIPOS>ATOM
  1 F       -0.1240    -0.7610     0.3750 F     1 <1>  -0.1900 
  2 C        1.0490    -0.9050    -0.1830 C.ar  1 <1>   0.1900 
  3 C        1.7150    -2.1290    -0.0970 C.ar  1 <1>   0.0540 
  4 C        1.5590     0.1910    -0.8530 C.ar  1 <1>  -0.1500 
  5 C        1.1860    -3.2740     0.6160 C.2   1 <1>   0.4620 
  6 C        2.9480    -2.2000    -0.7490 C.ar  1 <1>  -0.1500 
  7 C        2.7870     0.0850    -1.4810 C.ar  1 <1>  -0.1500 
  8 N        0.4980    -3.2560     1.7020 N.2   1 <1>  -0.4100 
  9 N        1.3990    -4.5230     0.1880 N.2   1 <1>  -0.5650 
 10 C        3.4780    -1.1150    -1.4280 C.ar  1 <1>  -0.1500 
 11 O        0.2290    -4.4820     2.0240 O.3   1 <1>  -0.0190 
 12 C        0.7950    -5.1890     1.0820 C.2   1 <1>   0.2980 
 13 C        0.6740    -6.6980     1.1300 C.3   1 <1>   0.0200 
 14 C       -0.7530    -7.1450     0.7750 C.3   1 <1>  -0.0990 
 15 C       -0.9090    -8.6560     0.7530 C.2   1 <1>   0.5690 
 16 O       -0.1010    -9.3340     1.3410 O.2   1 <1>  -0.5700 
 17 N       -1.9570    -9.2190     0.0850 N.am  1 <1>  -0.6600 
 18 C       -3.1120    -8.5180    -0.5360 C.3   1 <1>   0.1400 
 19 C       -2.1460   -10.6910    -0.0100 C.3   1 <1>   0.1400 
 20 C       -4.2290    -9.5600    -0.5280 C.3   1 <1>   0.2000 
 21 C       -3.4820   -10.8800    -0.7390 C.3   1 <1>  -0.0800 
 22 O       -4.8110    -9.5510     0.7310 O.3   1 <1>  -0.6800 
 23 C       -4.2420   -12.1530    -0.3240 C.3   1 <1>   0.0210 
 24 C       -3.3930   -13.3870    -0.5600 C.2   1 <1>   0.1080 
 25 N       -2.9330   -13.7120    -1.7280 N.2   1 <1>  -0.7070 
 26 C       -3.0070   -14.2880     0.4260 C.2   1 <1>  -0.1500 
 27 N       -2.2330   -14.8430    -1.5150 N.pl3 1 <1>   0.3000 
 28 C       -2.2620   -15.2110    -0.2170 C.2   1 <1>  -0.3320 
 29 C       -1.5650   -16.4390     0.3370 C.3   1 <1>  -0.0600 
 30 H        1.0010     1.1100    -0.8830 H     1 <1>   0.1500 
 31 H        3.5010    -3.1240    -0.7210 H     1 <1>   0.1500 
 32 H        3.2020     0.9270    -2.0090 H     1 <1>   0.1500 
 33 H        4.4320    -1.2030    -1.9190 H     1 <1>   0.1500 
 34 H        1.3690    -7.1280     0.4310 H     1 <1>   0.0800 
 35 H        0.9370    -7.0400     2.1150 H     1 <1>   0.0800 
 36 H       -1.0000    -6.7540    -0.1940 H     1 <1>   0.0800 
 37 H       -1.4450    -6.7440     1.4930 H     1 <1>   0.0800 
 38 H       -3.3940    -7.6320     0.0060 H     1 <1>   0.0800 
 39 H       -2.8600    -8.2620    -1.5500 H     1 <1>   0.0800 
 40 H       -1.3360   -11.1460    -0.5550 H     1 <1>   0.0800 
 41 H       -2.1820   -11.1080     0.9820 H     1 <1>   0.0800 
 42 H       -4.9920    -9.3740    -1.2640 H     1 <1>   0.0800 
 43 H       -3.2570   -10.9600    -1.7890 H     1 <1>   0.0800 
 44 H       -4.1010    -9.6180     1.4020 H     1 <1>   0.4000 
 45 H       -5.1430   -12.2380    -0.9030 H     1 <1>   0.0800 
 46 H       -4.5160   -12.1110     0.7140 H     1 <1>   0.0800 
 47 H       -3.2610   -14.2350     1.4700 H     1 <1>   0.1500 
 48 H       -1.7490   -15.3370    -2.2740 H     1 <1>   0.2700 
 49 H       -1.7360   -16.5150     1.3960 H     1 <1>   0.0800 
 50 H       -0.5050   -16.3750     0.1660 H     1 <1>   0.0800 
 51 H       -1.9440   -17.3280    -0.1360 H     1 <1>   0.0800 
@<TRIPOS>BOND
  1   1   2  1   
  2   2   3  ar  
  3   2   4  ar  
  4   3   5  1   
  5   3   6  ar  
  6   4   7  ar  
  7   4  30  1   
  8   5   8  2   
  9   5   9  1   
 10   6  10  ar  
 11   6  31  1   
 12   7  10  ar  
 13   7  32  1   
 14   8  11  1   
 15   9  12  2   
 16  10  33  1   
 17  11  12  1   
 18  12  13  1   
 19  13  14  1   
 20  13  34  1   
 21  13  35  1   
 22  14  15  1   
 23  14  36  1   
 24  14  37  1   
 25  15  16  2   
 26  15  17  am  
 27  17  18  1   
 28  17  19  1   
 29  18  20  1   
 30  18  38  1   
 31  18  39  1   
 32  19  21  1   
 33  19  40  1   
 34  19  41  1   
 35  20  21  1   
 36  20  22  1   
 37  20  42  1   
 38  21  23  1   
 39  21  43  1   
 40  22  44  1   
 41  23  24  1   
 42  23  45  1   
 43  23  46  1   
 44  24  25  2   
 45  24  26  1   
 46  25  27  1   
 47  26  28  2   
 48  26  47  1   
 49  27  28  1   
 50  27  48  1   
 51  28  29  1   
 52  29  49  1   
 53  29  50  1   
 54  29  51  1   
@<TRIPOS>SUBSTRUCTURE
  1 ****  14 GROUP 4 **** **** 0

# MOE 2024.06 (io_trps.svl 2023.06)
