@<TRIPOS>MOLECULE
NONAME
58 60 1 0 0 
SMALL
USER_CHARGES


@<TRIPOS>ATOM
  1 O       -1.2460    -0.1720    -0.3860 O.2   1 <1>  -0.5700 
  2 C       -2.1570     0.5330     0.0400 C.2   1 <1>   0.6160 
  3 N       -2.0880     1.9150    -0.1500 N.am  1 <1>  -0.4690 
  4 C       -3.3040    -0.0310     0.6820 C.2   1 <1>   0.0290 
  5 C       -3.1510     2.7180     0.2140 C.2   1 <1>  -0.0290 
  6 C       -0.8560     2.5070    -0.7590 C.3   1 <1>   0.0600 
  7 C       -4.3460     0.7900     1.0490 C.2   1 <1>  -0.1380 
  8 C       -3.2950    -1.4480     0.9140 C.2   1 <1>   0.6160 
  9 C       -4.2540     2.1730     0.7980 C.2   1 <1>  -0.1500 
 10 C       -3.0880     4.2170    -0.0430 C.3   1 <1>  -0.1020 
 11 C       -5.6170     0.2930     1.7290 C.3   1 <1>  -0.1020 
 12 O       -3.1370    -1.8610     2.0480 O.2   1 <1>  -0.5700 
 13 N       -3.5390    -2.3500    -0.0980 N.am  1 <1>  -0.6600 
 14 C       -3.5640    -3.8290     0.1620 C.3   1 <1>   0.3640 
 15 C       -3.7770    -1.9250    -1.5140 C.3   1 <1>   0.1400 
 16 C       -2.2150    -4.4980    -0.1650 C.ar  1 <1>  -0.1430 
 17 C       -4.7480    -4.5040    -0.6060 C.3   1 <1>   0.2000 
 18 C       -4.1040    -3.1130    -2.4300 C.3   1 <1>   0.1200 
 19 C       -2.0710    -5.8560     0.0970 C.ar  1 <1>  -0.1500 
 20 C       -1.1220    -3.8120    -0.6890 C.ar  1 <1>  -0.1500 
 21 O       -5.0890    -3.9020    -1.8390 O.3   1 <1>  -0.5600 
 22 C       -6.0270    -4.5050     0.2400 C.3   1 <1>   0.1200 
 23 C       -0.8940    -6.5260    -0.1860 C.ar  1 <1>   0.0830 
 24 C        0.0680    -4.4660    -0.9580 C.ar  1 <1>  -0.1500 
 25 O       -5.9130    -5.4140     1.2890 O.3   1 <1>  -0.6800 
 26 O       -0.8660    -7.8610     0.0550 O.3   1 <1>  -0.3630 
 27 C        0.1970    -5.8180    -0.7000 C.ar  1 <1>   0.0830 
 28 C       -0.6550    -8.7020    -1.0580 C.3   1 <1>   0.0400 
 29 O        1.3990    -6.3940    -0.9470 O.3   1 <1>  -0.3630 
 30 C        2.1300    -6.7940     0.1910 C.3   1 <1>   0.0400 
 31 H       -0.5450     3.3700    -0.1980 H     1 <1>   0.0800 
 32 H       -1.0590     2.7920    -1.7750 H     1 <1>   0.0800 
 33 H       -0.0390     1.8060    -0.7530 H     1 <1>   0.0800 
 34 H       -5.0850     2.7930     1.0870 H     1 <1>   0.1500 
 35 H       -2.9170     4.4100    -1.0870 H     1 <1>   0.0800 
 36 H       -2.2980     4.6610     0.5350 H     1 <1>   0.0800 
 37 H       -4.0110     4.6920     0.2360 H     1 <1>   0.0800 
 38 H       -6.4800     0.6130     1.1750 H     1 <1>   0.0800 
 39 H       -5.6760     0.6980     2.7240 H     1 <1>   0.0800 
 40 H       -5.6470    -0.7790     1.8040 H     1 <1>   0.0800 
 41 H       -3.7260    -3.9990     1.2130 H     1 <1>   0.0800 
 42 H       -4.6000    -1.2320    -1.5400 H     1 <1>   0.0800 
 43 H       -2.9050    -1.4250    -1.8940 H     1 <1>   0.0800 
 44 H       -4.5000    -5.5230    -0.8350 H     1 <1>   0.0800 
 45 H       -3.2330    -3.7190    -2.6130 H     1 <1>   0.0800 
 46 H       -4.4810    -2.7620    -3.3740 H     1 <1>   0.0800 
 47 H       -2.8790    -6.4190     0.5280 H     1 <1>   0.1500 
 48 H       -1.1690    -2.7560    -0.8840 H     1 <1>   0.1500 
 49 H       -6.8760    -4.7900    -0.3560 H     1 <1>   0.0800 
 50 H       -6.1920    -3.5290     0.6620 H     1 <1>   0.0800 
 51 H        0.9040    -3.9230    -1.3580 H     1 <1>   0.1500 
 52 H       -6.0310    -6.3310     0.9710 H     1 <1>   0.4000 
 53 H       -0.8330    -9.7160    -0.7510 H     1 <1>   0.0800 
 54 H        0.3590    -8.5960    -1.3990 H     1 <1>   0.0800 
 55 H       -1.3420    -8.4250    -1.8380 H     1 <1>   0.0800 
 56 H        3.0850    -7.1650    -0.1360 H     1 <1>   0.0800 
 57 H        1.5910    -7.5690     0.7060 H     1 <1>   0.0800 
 58 H        2.2650    -5.9420     0.8330 H     1 <1>   0.0800 
@<TRIPOS>BOND
  1   1   2  2   
  2   2   3  am  
  3   2   4  1   
  4   3   5  1   
  5   3   6  1   
  6   4   7  2   
  7   4   8  1   
  8   5   9  2   
  9   5  10  1   
 10   6  31  1   
 11   6  32  1   
 12   6  33  1   
 13   7   9  1   
 14   7  11  1   
 15   8  12  2   
 16   8  13  am  
 17   9  34  1   
 18  10  35  1   
 19  10  36  1   
 20  10  37  1   
 21  11  38  1   
 22  11  39  1   
 23  11  40  1   
 24  13  14  1   
 25  13  15  1   
 26  14  16  1   
 27  14  17  1   
 28  14  41  1   
 29  15  18  1   
 30  15  42  1   
 31  15  43  1   
 32  16  19  ar  
 33  16  20  ar  
 34  17  21  1   
 35  17  22  1   
 36  17  44  1   
 37  18  21  1   
 38  18  45  1   
 39  18  46  1   
 40  19  23  ar  
 41  19  47  1   
 42  20  24  ar  
 43  20  48  1   
 44  22  25  1   
 45  22  49  1   
 46  22  50  1   
 47  23  26  1   
 48  23  27  ar  
 49  24  27  ar  
 50  24  51  1   
 51  25  52  1   
 52  26  28  1   
 53  27  29  1   
 54  28  53  1   
 55  28  54  1   
 56  28  55  1   
 57  29  30  1   
 58  30  56  1   
 59  30  57  1   
 60  30  58  1   
@<TRIPOS>SUBSTRUCTURE
  1 ****  13 GROUP 4 **** **** 0

# MOE 2024.06 (io_trps.svl 2023.06)
