@<TRIPOS>MOLECULE
NONAME
57 59 1 0 0 
SMALL
USER_CHARGES


@<TRIPOS>ATOM
  1 O       -0.5060     2.9620    -0.9710 O.2   1 <1>  -0.5700 
  2 C        0.2800     2.5650    -0.1440 C.2   1 <1>   0.5690 
  3 N       -0.1240     1.8780     0.9580 N.am  1 <1>  -0.7300 
  4 C        1.7740     2.8410    -0.3230 C.3   1 <1>  -0.0190 
  5 C       -1.5320     1.5320     1.2790 C.3   1 <1>   0.0600 
  6 C        2.0950     4.3260    -0.0740 C.3   1 <1>  -0.1600 
  7 C        2.2730     2.4110    -1.7150 C.3   1 <1>  -0.1600 
  8 C        3.5900     4.6230    -0.2580 C.3   1 <1>  -0.1600 
  9 C        3.7690     2.7050    -1.8970 C.3   1 <1>  -0.1600 
 10 C        4.0860     4.1920    -1.6530 C.3   1 <1>  -0.0800 
 11 C        5.5910     4.4440    -1.8380 C.3   1 <1>   0.2090 
 12 N        5.8940     5.8900    -1.6940 N.pl3 1 <1>  -0.8690 
 13 C        6.7710     6.5350    -0.9110 C.ar  1 <1>   0.4100 
 14 N        6.6800     7.8430    -0.9520 N.ar  1 <1>  -0.6200 
 15 C        7.7210     5.8750    -0.1090 C.ar  1 <1>  -0.1500 
 16 C        7.5160     8.5480    -0.2030 C.ar  1 <1>   0.7710 
 17 C        8.5660     6.6140     0.6500 C.ar  1 <1>   0.2180 
 18 N        8.4370     7.9610     0.5800 N.ar  1 <1>  -0.1790 
 19 N        7.4440     9.9010    -0.2230 N.pl3 1 <1>  -0.8380 
 20 C        9.6330     6.0150     1.5580 C.3   1 <1>  -0.0170 
 21 C        8.3080    10.8910     0.4770 C.3   1 <1>   0.2090 
 22 C        6.4220    10.6120    -1.0440 C.3   1 <1>   0.2090 
 23 C        9.3810     6.3380     3.0370 C.3   1 <1>  -0.2400 
 24 C        7.9720    12.2310    -0.1620 C.3   1 <1>  -0.1600 
 25 C        6.5350    12.0760    -0.6440 C.3   1 <1>  -0.1600 
 26 H        0.5740     1.5720     1.6370 H     1 <1>   0.3700 
 27 H        2.3060     2.2600     0.4090 H     1 <1>   0.0800 
 28 H       -2.1920     1.8950     0.5090 H     1 <1>   0.0800 
 29 H       -1.8130     1.9810     2.2160 H     1 <1>   0.0800 
 30 H       -1.6380     0.4640     1.3500 H     1 <1>   0.0800 
 31 H        1.7930     4.5980     0.9230 H     1 <1>   0.0800 
 32 H        1.5250     4.9290    -0.7620 H     1 <1>   0.0800 
 33 H        1.7130     2.9370    -2.4710 H     1 <1>   0.0800 
 34 H        2.0910     1.3590    -1.8520 H     1 <1>   0.0800 
 35 H        4.1510     4.1060     0.5010 H     1 <1>   0.0800 
 36 H        3.7500     5.6790    -0.1210 H     1 <1>   0.0800 
 37 H        4.0580     2.4310    -2.8970 H     1 <1>   0.0800 
 38 H        4.3320     2.0950    -1.2110 H     1 <1>   0.0800 
 39 H        3.5590     4.7660    -2.3970 H     1 <1>   0.0800 
 40 H        5.8900     4.1260    -2.8220 H     1 <1>   0.0800 
 41 H        6.1380     3.8650    -1.1170 H     1 <1>   0.0800 
 42 H        5.2720     6.4940    -2.2420 H     1 <1>   0.4000 
 43 H        7.7590     4.8040    -0.1150 H     1 <1>   0.1500 
 44 H        9.0140     8.5880     1.1220 H     1 <1>   0.4570 
 45 H       10.6030     6.3790     1.2670 H     1 <1>   0.0800 
 46 H        9.6440     4.9450     1.4360 H     1 <1>   0.0800 
 47 H        9.3550    10.6680     0.3540 H     1 <1>   0.0800 
 48 H        8.0500    10.9160     1.5240 H     1 <1>   0.0800 
 49 H        5.4320    10.2310    -0.8560 H     1 <1>   0.0800 
 50 H        6.6580    10.4910    -2.0890 H     1 <1>   0.0800 
 51 H        9.4350     7.3940     3.2270 H     1 <1>   0.0800 
 52 H       10.1240     5.8510     3.6460 H     1 <1>   0.0800 
 53 H        8.4130     5.9780     3.3410 H     1 <1>   0.0800 
 54 H        8.6230    12.3950    -1.0030 H     1 <1>   0.0800 
 55 H        8.0840    13.0470     0.5310 H     1 <1>   0.0800 
 56 H        5.8510    12.2730     0.1630 H     1 <1>   0.0800 
 57 H        6.3040    12.7320    -1.4650 H     1 <1>   0.0800 
@<TRIPOS>BOND
  1   1   2  2   
  2   2   3  am  
  3   2   4  1   
  4   3   5  1   
  5   3  26  1   
  6   4   6  1   
  7   4   7  1   
  8   4  27  1   
  9   5  28  1   
 10   5  29  1   
 11   5  30  1   
 12   6   8  1   
 13   6  31  1   
 14   6  32  1   
 15   7   9  1   
 16   7  33  1   
 17   7  34  1   
 18   8  10  1   
 19   8  35  1   
 20   8  36  1   
 21   9  10  1   
 22   9  37  1   
 23   9  38  1   
 24  10  11  1   
 25  10  39  1   
 26  11  12  1   
 27  11  40  1   
 28  11  41  1   
 29  12  13  1   
 30  12  42  1   
 31  13  14  ar  
 32  13  15  ar  
 33  14  16  ar  
 34  15  17  ar  
 35  15  43  1   
 36  16  18  ar  
 37  16  19  1   
 38  17  18  ar  
 39  17  20  1   
 40  18  44  1   
 41  19  21  1   
 42  19  22  1   
 43  20  23  1   
 44  20  45  1   
 45  20  46  1   
 46  21  24  1   
 47  21  47  1   
 48  21  48  1   
 49  22  25  1   
 50  22  49  1   
 51  22  50  1   
 52  23  51  1   
 53  23  52  1   
 54  23  53  1   
 55  24  25  1   
 56  24  54  1   
 57  24  55  1   
 58  25  56  1   
 59  25  57  1   
@<TRIPOS>SUBSTRUCTURE
  1 ****  12 GROUP 4 **** **** 0

# MOE 2024.06 (io_trps.svl 2023.06)
