@<TRIPOS>MOLECULE
NONAME
40 41 1 0 0 
SMALL
USER_CHARGES


@<TRIPOS>ATOM
  1 CL      -1.5240     5.4440     2.3160 Cl    1 <1>  -0.1770 
  2 C       -0.6370     4.7660     0.9750 C.ar  1 <1>   0.1770 
  3 C        0.7420     4.8520     0.9650 C.ar  1 <1>  -0.1500 
  4 C       -1.3270     4.1600    -0.0580 C.ar  1 <1>  -0.1500 
  5 C        1.4540     4.3260    -0.1030 C.ar  1 <1>  -0.1440 
  6 C       -0.6170     3.6310    -1.1230 C.ar  1 <1>  -0.1500 
  7 C        0.7660     3.7150    -1.1440 C.ar  1 <1>  -0.1500 
  8 C        2.9680     4.4380    -0.1250 C.3   1 <1>   0.2840 
  9 N        3.2990     5.8570    -0.3360 N.am  1 <1>  -0.7300 
 10 C        4.1310     6.5840     0.4490 C.2   1 <1>   0.5690 
 11 O        4.8040     6.0720     1.3100 O.2   1 <1>  -0.5700 
 12 C        4.1880     8.0970     0.2610 C.3   1 <1>  -0.0190 
 13 C        2.8060     8.7460     0.4780 C.3   1 <1>  -0.1600 
 14 C        4.7920     8.4940    -1.1080 C.3   1 <1>  -0.1600 
 15 C        2.8730    10.2870     0.4460 C.3   1 <1>   0.2000 
 16 C        4.3820     9.9040    -1.5800 C.3   1 <1>  -0.1600 
 17 O        1.6650    10.7620    -0.0970 O.3   1 <1>  -0.5600 
 18 C        4.0590    10.8230    -0.3990 C.3   1 <1>   0.2000 
 19 C        0.5900    10.8010     0.7910 C.3   1 <1>   0.0400 
 20 O        3.7300    12.0640    -0.9030 O.3   1 <1>  -0.6800 
 21 H        1.2510     5.3290     1.7840 H     1 <1>   0.1500 
 22 H       -2.4000     4.1060    -0.0260 H     1 <1>   0.1500 
 23 H       -1.1410     3.1560    -1.9350 H     1 <1>   0.1500 
 24 H        1.3040     3.3020    -1.9800 H     1 <1>   0.1500 
 25 H        3.3850     3.8500    -0.9240 H     1 <1>   0.0800 
 26 H        3.3790     4.0900     0.8080 H     1 <1>   0.0800 
 27 H        2.7070     6.3310    -1.0180 H     1 <1>   0.3700 
 28 H        4.8420     8.4770     1.0290 H     1 <1>   0.0800 
 29 H        2.4090     8.4300     1.4260 H     1 <1>   0.0800 
 30 H        2.1410     8.4060    -0.2970 H     1 <1>   0.0800 
 31 H        5.8640     8.4420    -1.0290 H     1 <1>   0.0800 
 32 H        4.4980     7.7890    -1.8670 H     1 <1>   0.0800 
 33 H        2.9810    10.6750     1.4450 H     1 <1>   0.0800 
 34 H        3.5050     9.8250    -2.1990 H     1 <1>   0.0800 
 35 H        5.1740    10.3310    -2.1700 H     1 <1>   0.0800 
 36 H        4.9350    10.9370     0.2150 H     1 <1>   0.0800 
 37 H       -0.2620    11.1950     0.2660 H     1 <1>   0.0800 
 38 H        0.8340    11.4470     1.6170 H     1 <1>   0.0800 
 39 H        0.3710     9.8070     1.1380 H     1 <1>   0.0800 
 40 H        2.7520    12.0540    -1.0160 H     1 <1>   0.4000 
@<TRIPOS>BOND
  1   1   2  1   
  2   2   3  ar  
  3   2   4  ar  
  4   3   5  ar  
  5   3  21  1   
  6   4   6  ar  
  7   4  22  1   
  8   5   7  ar  
  9   5   8  1   
 10   6   7  ar  
 11   6  23  1   
 12   7  24  1   
 13   8   9  1   
 14   8  25  1   
 15   8  26  1   
 16   9  10  am  
 17   9  27  1   
 18  10  11  2   
 19  10  12  1   
 20  12  13  1   
 21  12  14  1   
 22  12  28  1   
 23  13  15  1   
 24  13  29  1   
 25  13  30  1   
 26  14  16  1   
 27  14  31  1   
 28  14  32  1   
 29  15  17  1   
 30  15  18  1   
 31  15  33  1   
 32  16  18  1   
 33  16  34  1   
 34  16  35  1   
 35  17  19  1   
 36  18  20  1   
 37  18  36  1   
 38  19  37  1   
 39  19  38  1   
 40  19  39  1   
 41  20  40  1   
@<TRIPOS>SUBSTRUCTURE
  1 ****  13 GROUP 4 **** **** 0

# MOE 2024.06 (io_trps.svl 2023.06)
