@<TRIPOS>MOLECULE
NONAME
40 42 1 0 0 
SMALL
USER_CHARGES


@<TRIPOS>ATOM
  1 O        0.5240     0.6370     0.9270 O.3   1 <1>  -0.0190 
  2 N        1.5280    -0.1770     1.0820 N.2   1 <1>  -0.4100 
  3 C        0.8910     1.7720     0.3950 C.2   1 <1>  -0.0400 
  4 C        2.5610     0.4440     0.6380 C.2   1 <1>   0.1080 
  5 C        2.2150     1.7100     0.1770 C.2   1 <1>  -0.1500 
  6 C       -0.1590     2.8410     0.1430 C.3   1 <1>   0.0200 
  7 C        3.9590    -0.1320     0.6220 C.3   1 <1>  -0.0590 
  8 C        0.4560     4.1910    -0.2670 C.3   1 <1>  -0.0800 
  9 C       -0.5480     5.2630    -0.6840 C.3   1 <1>   0.2000 
 10 C        1.2450     4.8640     0.8540 C.3   1 <1>   0.2090 
 11 O       -1.6560     5.2010     0.1720 O.3   1 <1>  -0.5600 
 12 C        0.2220     6.5790    -0.4830 C.3   1 <1>   0.2090 
 13 N        1.3440     6.2910     0.4580 N.pl3 1 <1>  -0.8380 
 14 C       -2.8010     5.8470    -0.2880 C.3   1 <1>   0.0400 
 15 C        2.5950     6.7660     0.1190 C.ar  1 <1>   0.4100 
 16 N        3.1500     6.1980    -0.9500 N.ar  1 <1>  -0.6200 
 17 C        3.2070     7.7780     0.8710 C.ar  1 <1>   0.0730 
 18 C        4.3440     6.6440    -1.2950 C.ar  1 <1>   0.1600 
 19 C        2.5560     8.3430     2.0130 C.1   1 <1>   0.4840 
 20 C        4.4590     8.2210     0.4840 C.ar  1 <1>  -0.1500 
 21 C        5.0330     7.6370    -0.6250 C.ar  1 <1>  -0.1500 
 22 N        2.0940     8.8400     2.9310 N.1   1 <1>  -0.5570 
 23 H        2.8850     2.4350    -0.2480 H     1 <1>   0.1500 
 24 H       -0.8190     2.4960    -0.6320 H     1 <1>   0.0800 
 25 H       -0.7430     2.9660     1.0390 H     1 <1>   0.0800 
 26 H        4.6210     0.5010     1.1830 H     1 <1>   0.0800 
 27 H        4.3110    -0.2070    -0.3900 H     1 <1>   0.0800 
 28 H        3.9570    -1.1120     1.0640 H     1 <1>   0.0800 
 29 H        1.1280     4.0350    -1.0920 H     1 <1>   0.0800 
 30 H       -0.8770     5.1290    -1.7000 H     1 <1>   0.0800 
 31 H        2.2190     4.4230     0.9770 H     1 <1>   0.0800 
 32 H        0.7060     4.8010     1.7840 H     1 <1>   0.0800 
 33 H       -0.4120     7.3480    -0.0780 H     1 <1>   0.0800 
 34 H        0.6200     6.9100    -1.4270 H     1 <1>   0.0800 
 35 H       -3.5720     5.7260     0.4530 H     1 <1>   0.0800 
 36 H       -3.1170     5.3960    -1.2130 H     1 <1>   0.0800 
 37 H       -2.5970     6.8940    -0.4260 H     1 <1>   0.0800 
 38 H        4.8010     6.1930    -2.1600 H     1 <1>   0.1500 
 39 H        4.9680     8.9980     1.0300 H     1 <1>   0.1500 
 40 H        6.0050     7.9470    -0.9670 H     1 <1>   0.1500 
@<TRIPOS>BOND
  1   1   2  1   
  2   1   3  1   
  3   2   4  2   
  4   3   5  2   
  5   3   6  1   
  6   4   5  1   
  7   4   7  1   
  8   5  23  1   
  9   6   8  1   
 10   6  24  1   
 11   6  25  1   
 12   7  26  1   
 13   7  27  1   
 14   7  28  1   
 15   8   9  1   
 16   8  10  1   
 17   8  29  1   
 18   9  11  1   
 19   9  12  1   
 20   9  30  1   
 21  10  13  1   
 22  10  31  1   
 23  10  32  1   
 24  11  14  1   
 25  12  13  1   
 26  12  33  1   
 27  12  34  1   
 28  13  15  1   
 29  14  35  1   
 30  14  36  1   
 31  14  37  1   
 32  15  16  ar  
 33  15  17  ar  
 34  16  18  ar  
 35  17  19  1   
 36  17  20  ar  
 37  18  21  ar  
 38  18  38  1   
 39  19  22  3   
 40  20  21  ar  
 41  20  39  1   
 42  21  40  1   
@<TRIPOS>SUBSTRUCTURE
  1 ****  10 GROUP 4 **** **** 0

# MOE 2024.06 (io_trps.svl 2023.06)
