@<TRIPOS>MOLECULE
NONAME
40 41 1 0 0 
SMALL
USER_CHARGES


@<TRIPOS>ATOM
  1 CL       0.5650    -1.9790    -1.9260 Cl    1 <1>  -0.1240 
  2 C       -0.7740    -2.6690    -1.0520 C.2   1 <1>   0.1640 
  3 S       -0.6910    -4.3850    -0.7160 S.3   1 <1>  -0.0800 
  4 C       -1.8990    -2.1170    -0.5690 C.2   1 <1>  -0.1500 
  5 C       -2.2470    -4.3260     0.1060 C.2   1 <1>  -0.1400 
  6 C       -2.7420    -3.0670     0.0950 C.2   1 <1>  -0.1500 
  7 C       -2.7290    -5.6550     0.6590 C.3   1 <1>   0.5230 
  8 N       -4.1900    -5.5880     0.9440 N.4   1 <1>  -0.9590 
  9 C       -5.0310    -5.4330    -0.2890 C.3   1 <1>   0.3430 
 10 C       -4.6950    -6.7910     1.6690 C.3   1 <1>   0.3430 
 11 C       -6.2160    -6.3930    -0.1150 C.3   1 <1>   0.2000 
 12 C       -5.6170    -7.5390     0.6920 C.3   1 <1>  -0.0800 
 13 O       -7.1680    -5.7630     0.6750 O.3   1 <1>  -0.6800 
 14 C       -4.8900    -8.5460    -0.2370 C.3   1 <1>  -0.0550 
 15 S       -3.6240    -9.5140     0.5820 S.o2  1 <1>   1.3330 
 16 O       -2.5060    -8.6070     0.7320 O.2   1 <1>  -0.6500 
 17 O       -4.2170   -10.1080     1.7540 O.2   1 <1>  -0.6500 
 18 N       -3.2370   -10.7080    -0.5530 N.am  1 <1>  -0.8490 
 19 C       -1.8350   -11.1330    -0.4690 C.3   1 <1>   0.1160 
 20 C       -4.1100   -11.8870    -0.4770 C.3   1 <1>   0.1160 
 21 H       -2.1640    -1.0770    -0.6540 H     1 <1>   0.1500 
 22 H       -3.6710    -2.7360     0.5280 H     1 <1>   0.1500 
 23 H       -2.1800    -5.8900     1.5570 H     1 <1>   0.0800 
 24 H       -2.5320    -6.4310    -0.0630 H     1 <1>   0.0800 
 25 H       -4.3550    -4.7710     1.5460 H     1 <1>   0.4500 
 26 H       -5.3730    -4.4190    -0.4190 H     1 <1>   0.0800 
 27 H       -4.4610    -5.7260    -1.1560 H     1 <1>   0.0800 
 28 H       -3.8960    -7.4010     2.0570 H     1 <1>   0.0800 
 29 H       -5.2940    -6.4620     2.5050 H     1 <1>   0.0800 
 30 H       -6.6700    -6.6810    -1.0500 H     1 <1>   0.0800 
 31 H       -6.3680    -8.0770     1.2460 H     1 <1>   0.0800 
 32 H       -8.0200    -6.2510     0.6760 H     1 <1>   0.4000 
 33 H       -4.4280    -8.0330    -1.0580 H     1 <1>   0.0800 
 34 H       -5.6230    -9.2100    -0.6540 H     1 <1>   0.0800 
 35 H       -1.6230   -11.8720    -1.2230 H     1 <1>   0.0800 
 36 H       -1.6250   -11.5500     0.5030 H     1 <1>   0.0800 
 37 H       -1.1810   -10.2920    -0.6320 H     1 <1>   0.0800 
 38 H       -3.8730   -12.5760    -1.2700 H     1 <1>   0.0800 
 39 H       -5.1420   -11.5980    -0.5790 H     1 <1>   0.0800 
 40 H       -3.9850   -12.3900     0.4690 H     1 <1>   0.0800 
@<TRIPOS>BOND
  1   1   2  1   
  2   2   3  1   
  3   2   4  2   
  4   3   5  1   
  5   4   6  1   
  6   4  21  1   
  7   5   6  2   
  8   5   7  1   
  9   6  22  1   
 10   7   8  1   
 11   7  23  1   
 12   7  24  1   
 13   8   9  1   
 14   8  10  1   
 15   8  25  1   
 16   9  11  1   
 17   9  26  1   
 18   9  27  1   
 19  10  12  1   
 20  10  28  1   
 21  10  29  1   
 22  11  12  1   
 23  11  13  1   
 24  11  30  1   
 25  12  14  1   
 26  12  31  1   
 27  13  32  1   
 28  14  15  1   
 29  14  33  1   
 30  14  34  1   
 31  15  16  2   
 32  15  17  2   
 33  15  18  am  
 34  18  19  1   
 35  18  20  1   
 36  19  35  1   
 37  19  36  1   
 38  19  37  1   
 39  20  38  1   
 40  20  39  1   
 41  20  40  1   
@<TRIPOS>SUBSTRUCTURE
  1 ****   7 GROUP 4 **** **** 0

# MOE 2024.06 (io_trps.svl 2023.06)
