@<TRIPOS>MOLECULE
NONAME
52 53 1 0 0 
SMALL
USER_CHARGES


@<TRIPOS>ATOM
  1 CL      -3.3090    -0.4070    -2.7540 Cl    1 <1>  -0.1770 
  2 C       -3.0990    -1.4060    -1.3390 C.ar  1 <1>   0.1770 
  3 C       -3.4190    -2.7490    -1.4050 C.ar  1 <1>  -0.1500 
  4 C       -2.6170    -0.8370    -0.1750 C.ar  1 <1>  -0.1500 
  5 C       -3.2550    -3.5470    -0.2830 C.ar  1 <1>  -0.1440 
  6 C       -2.4530    -1.6340     0.9460 C.ar  1 <1>  -0.1500 
  7 C       -2.7720    -2.9820     0.8890 C.ar  1 <1>  -0.1500 
  8 C       -3.6050    -5.0260    -0.3310 C.3   1 <1>  -0.0160 
  9 C       -5.0170    -5.2550     0.2050 C.3   1 <1>   0.1400 
 10 N       -5.3560    -6.6910     0.1200 N.am  1 <1>  -0.7300 
 11 C       -5.3530    -7.5850     1.1420 C.2   1 <1>   0.5690 
 12 O       -5.0470    -7.2740     2.2690 O.2   1 <1>  -0.5700 
 13 C       -5.7400    -9.0330     0.8250 C.3   1 <1>   0.1710 
 14 N       -6.4720    -9.1940    -0.4690 N.3   1 <1>  -0.8100 
 15 C       -6.2920   -10.5270    -1.0940 C.3   1 <1>   0.1100 
 16 C       -7.8900    -8.7690    -0.4240 C.3   1 <1>   0.1100 
 17 C       -7.0290   -11.7020    -0.3790 C.3   1 <1>  -0.1060 
 18 C       -8.8820    -9.9420    -0.3540 C.3   1 <1>  -0.1600 
 19 C       -7.4380   -12.6970    -1.4920 C.2   1 <1>   0.9060 
 20 C       -8.2550   -11.1170     0.3850 C.3   1 <1>   0.2000 
 21 C       -6.1320   -12.4270     0.6720 C.3   1 <1>  -0.1600 
 22 O       -8.4640   -13.3840    -1.3740 O.co2 1 <1>  -0.9000 
 23 O       -6.7240   -12.8120    -2.4970 O.co2 1 <1>  -0.9000 
 24 O       -9.2280   -12.0610     0.6350 O.3   1 <1>  -0.6800 
 25 C       -4.8630   -13.1050     0.1250 C.3   1 <1>  -0.1600 
 26 C       -4.0890   -13.8000     1.2490 C.3   1 <1>  -0.2400 
 27 H       -3.7910    -3.1550    -2.3280 H     1 <1>   0.1500 
 28 H       -2.3750     0.2100    -0.1500 H     1 <1>   0.1500 
 29 H       -2.0790    -1.2070     1.8610 H     1 <1>   0.1500 
 30 H       -2.6420    -3.5930     1.7670 H     1 <1>   0.1500 
 31 H       -2.9040    -5.5800     0.2680 H     1 <1>   0.0800 
 32 H       -3.5400    -5.3830    -1.3430 H     1 <1>   0.0800 
 33 H       -5.7290    -4.6860    -0.3670 H     1 <1>   0.0800 
 34 H       -5.0700    -4.9320     1.2320 H     1 <1>   0.0800 
 35 H       -5.6530    -7.0750    -0.7850 H     1 <1>   0.3700 
 36 H       -6.3280    -9.4120     1.6390 H     1 <1>   0.0800 
 37 H       -4.8270    -9.5990     0.7860 H     1 <1>   0.0800 
 38 H       -6.6810   -10.4410    -2.0960 H     1 <1>   0.0800 
 39 H       -5.2470   -10.7410    -1.2090 H     1 <1>   0.0800 
 40 H       -8.0440    -8.1220     0.4230 H     1 <1>   0.0800 
 41 H       -8.1060    -8.1950    -1.3090 H     1 <1>   0.0800 
 42 H       -9.1450   -10.2500    -1.3510 H     1 <1>   0.0800 
 43 H       -9.7760    -9.6220     0.1480 H     1 <1>   0.0800 
 44 H       -7.9440   -10.7640     1.3510 H     1 <1>   0.0800 
 45 H       -5.8480   -11.7360     1.4430 H     1 <1>   0.0800 
 46 H       -6.7350   -13.1890     1.1390 H     1 <1>   0.0800 
 47 H       -9.1600   -12.7270    -0.1230 H     1 <1>   0.4000 
 48 H       -5.1340   -13.8380    -0.6170 H     1 <1>   0.0800 
 49 H       -4.2190   -12.3860    -0.3450 H     1 <1>   0.0800 
 50 H       -4.7030   -14.5510     1.7130 H     1 <1>   0.0800 
 51 H       -3.7850   -13.0870     1.9940 H     1 <1>   0.0800 
 52 H       -3.2120   -14.2760     0.8470 H     1 <1>   0.0800 
@<TRIPOS>BOND
  1   1   2  1   
  2   2   3  ar  
  3   2   4  ar  
  4   3   5  ar  
  5   3  27  1   
  6   4   6  ar  
  7   4  28  1   
  8   5   7  ar  
  9   5   8  1   
 10   6   7  ar  
 11   6  29  1   
 12   7  30  1   
 13   8   9  1   
 14   8  31  1   
 15   8  32  1   
 16   9  10  1   
 17   9  33  1   
 18   9  34  1   
 19  10  11  am  
 20  10  35  1   
 21  11  12  2   
 22  11  13  1   
 23  13  14  1   
 24  13  36  1   
 25  13  37  1   
 26  14  15  1   
 27  14  16  1   
 28  15  17  1   
 29  15  38  1   
 30  15  39  1   
 31  16  18  1   
 32  16  40  1   
 33  16  41  1   
 34  17  19  1   
 35  17  20  1   
 36  17  21  1   
 37  18  20  1   
 38  18  42  1   
 39  18  43  1   
 40  19  22  ar  
 41  19  23  ar  
 42  20  24  1   
 43  20  44  1   
 44  21  25  1   
 45  21  45  1   
 46  21  46  1   
 47  24  47  1   
 48  25  26  1   
 49  25  48  1   
 50  25  49  1   
 51  26  50  1   
 52  26  51  1   
 53  26  52  1   
@<TRIPOS>SUBSTRUCTURE
  1 ****  10 GROUP 4 **** **** 0

# MOE 2024.06 (io_trps.svl 2023.06)
