@<TRIPOS>MOLECULE
NONAME
44 46 1 0 0 
SMALL
USER_CHARGES


@<TRIPOS>ATOM
  1 O        0.0850    -0.3640     0.9830 O.2   1 <1>  -0.5700 
  2 C        1.1880    -0.8450     0.8990 C.2   1 <1>   0.6300 
  3 N        2.3300    -0.1120     0.8040 N.am  1 <1>  -0.4940 
  4 C        1.3560    -2.3590     0.9290 C.3   1 <1>  -0.1000 
  5 C        2.5240     1.2640     0.7210 C.2   1 <1>   0.2040 
  6 C        2.2950    -3.1220     0.0130 C.3   1 <1>  -0.1900 
  7 C        0.8110    -3.2720    -0.1430 C.3   1 <1>  -0.1900 
  8 O        1.5500     2.1340     0.8160 O.3   1 <1>  -0.0190 
  9 C        3.6770     1.9450     0.5230 C.2   1 <1>  -0.0540 
 10 C        3.1040    -2.4450    -1.1100 C.3   1 <1>  -0.1450 
 11 C        3.1400    -4.2370     0.6500 C.3   1 <1>  -0.1450 
 12 C        0.1060    -4.5650     0.2980 C.3   1 <1>  -0.1450 
 13 C        0.0590    -2.6570    -1.3380 C.3   1 <1>  -0.1450 
 14 N        1.9820     3.3640     0.6940 N.2   1 <1>  -0.4100 
 15 C        5.0070     1.4200     0.3530 C.ar  1 <1>   0.0540 
 16 C        3.2500     3.2770     0.5190 C.2   1 <1>   0.1080 
 17 C        5.6160     0.6860     1.3670 C.ar  1 <1>  -0.1500 
 18 C        5.7110     1.6150    -0.8320 C.ar  1 <1>  -0.1500 
 19 C        4.1540     4.4780     0.3420 C.3   1 <1>  -0.0590 
 20 C        6.8840     0.1600     1.2030 C.ar  1 <1>  -0.1500 
 21 C        6.9800     1.0920    -1.0010 C.ar  1 <1>  -0.1500 
 22 C        7.5690     0.3620     0.0170 C.ar  1 <1>  -0.1500 
 23 H        3.1690    -0.6790     0.7030 H     1 <1>   0.3700 
 24 H        1.2480    -2.7090     1.9390 H     1 <1>   0.1000 
 25 H        2.6040    -1.5900    -1.5250 H     1 <1>   0.0800 
 26 H        3.2730    -3.1480    -1.9060 H     1 <1>   0.0800 
 27 H        4.0610    -2.1180    -0.7430 H     1 <1>   0.0800 
 28 H        2.6670    -4.6530     1.5200 H     1 <1>   0.0800 
 29 H        4.0970    -3.8530     0.9550 H     1 <1>   0.0800 
 30 H        3.2990    -5.0280    -0.0610 H     1 <1>   0.0800 
 31 H        0.5000    -4.9470     1.2210 H     1 <1>   0.0800 
 32 H        0.2160    -5.3200    -0.4600 H     1 <1>   0.0800 
 33 H       -0.9430    -4.3800     0.4490 H     1 <1>   0.0800 
 34 H        0.4270    -1.6830    -1.6000 H     1 <1>   0.0800 
 35 H       -0.9830    -2.5440    -1.0960 H     1 <1>   0.0800 
 36 H        0.1450    -3.2980    -2.1970 H     1 <1>   0.0800 
 37 H        5.0910     0.5330     2.2930 H     1 <1>   0.1500 
 38 H        5.2550     2.1760    -1.6280 H     1 <1>   0.1500 
 39 H        5.0440     4.3610     0.9330 H     1 <1>   0.0800 
 40 H        3.6440     5.3710     0.6550 H     1 <1>   0.0800 
 41 H        4.4270     4.5780    -0.6920 H     1 <1>   0.0800 
 42 H        7.3430    -0.4040     1.9970 H     1 <1>   0.1500 
 43 H        7.5110     1.2510    -1.9240 H     1 <1>   0.1500 
 44 H        8.5570    -0.0450    -0.1130 H     1 <1>   0.1500 
@<TRIPOS>BOND
  1   1   2  2   
  2   2   3  am  
  3   2   4  1   
  4   3   5  1   
  5   3  23  1   
  6   4   6  1   
  7   4   7  1   
  8   4  24  1   
  9   5   8  1   
 10   5   9  2   
 11   6   7  1   
 12   6  10  1   
 13   6  11  1   
 14   7  12  1   
 15   7  13  1   
 16   8  14  1   
 17   9  15  1   
 18   9  16  1   
 19  10  25  1   
 20  10  26  1   
 21  10  27  1   
 22  11  28  1   
 23  11  29  1   
 24  11  30  1   
 25  12  31  1   
 26  12  32  1   
 27  12  33  1   
 28  13  34  1   
 29  13  35  1   
 30  13  36  1   
 31  14  16  2   
 32  15  17  ar  
 33  15  18  ar  
 34  16  19  1   
 35  17  20  ar  
 36  17  37  1   
 37  18  21  ar  
 38  18  38  1   
 39  19  39  1   
 40  19  40  1   
 41  19  41  1   
 42  20  22  ar  
 43  20  42  1   
 44  21  22  ar  
 45  21  43  1   
 46  22  44  1   
@<TRIPOS>SUBSTRUCTURE
  1 ****   3 GROUP 4 **** **** 0

# MOE 2024.06 (io_trps.svl 2023.06)
