@<TRIPOS>MOLECULE
NONAME
58 60 1 0 0 
SMALL
USER_CHARGES


@<TRIPOS>ATOM
  1 O       -2.0920     0.9460    -1.6000 O.2   1 <1>  -0.5700 
  2 C       -1.8470     0.8460    -0.4140 C.2   1 <1>   0.5440 
  3 N       -1.8170    -0.4010     0.1380 N.am  1 <1>  -0.7300 
  4 C       -1.6120     2.0140     0.4160 C.ar  1 <1>   0.0860 
  5 C       -2.0030    -1.6740    -0.6000 C.3   1 <1>   0.2200 
  6 C       -0.6610     3.0010     0.1140 C.ar  1 <1>  -0.1440 
  7 C       -2.3750     2.1630     1.5740 C.ar  1 <1>  -0.1500 
  8 C       -3.3920    -2.2530    -0.3670 C.3   1 <1>  -0.0800 
  9 C       -1.1410    -2.7480     0.0480 C.3   1 <1>   0.1200 
 10 C       -0.5120     4.1180     0.9420 C.ar  1 <1>   0.1170 
 11 C        0.2230     2.8460    -1.1300 C.3   1 <1>  -0.0960 
 12 C       -2.2170     3.2520     2.4060 C.ar  1 <1>  -0.1500 
 13 C       -3.2300    -3.0190     0.9520 C.3   1 <1>   0.1200 
 14 C       -4.5540    -1.2430    -0.3770 C.3   1 <1>  -0.0160 
 15 O       -1.8560    -3.1560     1.1750 O.3   1 <1>  -0.5600 
 16 N        0.3910     5.1380     0.6040 N.am  1 <1>  -0.5470 
 17 C       -1.2930     4.2230     2.0870 C.ar  1 <1>  -0.1500 
 18 C       -5.8910    -1.9550    -0.2400 C.ar  1 <1>  -0.1440 
 19 C        1.1390     5.9760     1.3890 C.2   1 <1>   0.5690 
 20 C       -6.5420    -2.0710     0.9720 C.ar  1 <1>  -0.1500 
 21 C       -6.5220    -2.5240    -1.3270 C.ar  1 <1>  -0.1500 
 22 O        1.1300     5.9110     2.5950 O.2   1 <1>  -0.5700 
 23 C        2.0290     7.0250     0.6720 C.3   1 <1>   0.0610 
 24 C       -7.7550    -2.7370     1.0370 C.ar  1 <1>   0.1600 
 25 C       -7.7360    -3.1680    -1.1540 C.ar  1 <1>   0.1600 
 26 C        3.0350     6.3290    -0.2650 C.3   1 <1>  -0.2400 
 27 C        1.1580     7.9830    -0.1640 C.3   1 <1>  -0.2400 
 28 C        2.8340     7.8770     1.6770 C.3   1 <1>  -0.2400 
 29 N       -8.3660    -3.2910     0.0020 N.ar  1 <1>  -0.6200 
 30 H       -1.6020    -0.5210     1.1310 H     1 <1>   0.3700 
 31 H       -1.7770    -1.5450    -1.6450 H     1 <1>   0.0800 
 32 H       -3.1090     1.4170     1.8220 H     1 <1>   0.1500 
 33 H       -3.5750    -2.9800    -1.1380 H     1 <1>   0.0800 
 34 H       -0.1710    -2.3880     0.3400 H     1 <1>   0.0800 
 35 H       -1.0380    -3.5990    -0.6030 H     1 <1>   0.0800 
 36 H        0.4000     1.8100    -1.3540 H     1 <1>   0.0800 
 37 H        1.1880     3.2980    -0.9920 H     1 <1>   0.0800 
 38 H       -0.2620     3.2960    -1.9780 H     1 <1>   0.0800 
 39 H       -2.8120     3.3500     3.2980 H     1 <1>   0.1500 
 40 H       -3.6770    -3.9970     0.9020 H     1 <1>   0.0800 
 41 H       -3.6400    -2.4720     1.7830 H     1 <1>   0.0800 
 42 H       -4.5370    -0.6900    -1.3010 H     1 <1>   0.0800 
 43 H       -4.4450    -0.5340     0.4240 H     1 <1>   0.0800 
 44 H        0.5490     5.2440    -0.3940 H     1 <1>   0.3700 
 45 H       -1.1830     5.0760     2.7330 H     1 <1>   0.1500 
 46 H       -6.1200    -1.6510     1.8660 H     1 <1>   0.1500 
 47 H       -6.0820    -2.4710    -2.3060 H     1 <1>   0.1500 
 48 H       -8.2480    -2.8190     1.9900 H     1 <1>   0.1500 
 49 H       -8.2140    -3.6060    -2.0140 H     1 <1>   0.1500 
 50 H        3.6840     7.0510    -0.7290 H     1 <1>   0.0800 
 51 H        2.5330     5.7830    -1.0420 H     1 <1>   0.0800 
 52 H        3.6430     5.6390     0.2950 H     1 <1>   0.0800 
 53 H        1.7650     8.7330    -0.6390 H     1 <1>   0.0800 
 54 H        0.4430     8.4790     0.4710 H     1 <1>   0.0800 
 55 H        0.6190     7.4530    -0.9270 H     1 <1>   0.0800 
 56 H        3.4460     8.6010     1.1700 H     1 <1>   0.0800 
 57 H        3.4720     7.2470     2.2720 H     1 <1>   0.0800 
 58 H        2.1680     8.3980     2.3420 H     1 <1>   0.0800 
@<TRIPOS>BOND
  1   1   2  2   
  2   2   3  am  
  3   2   4  1   
  4   3   5  1   
  5   3  30  1   
  6   4   6  ar  
  7   4   7  ar  
  8   5   8  1   
  9   5   9  1   
 10   5  31  1   
 11   6  10  ar  
 12   6  11  1   
 13   7  12  ar  
 14   7  32  1   
 15   8  13  1   
 16   8  14  1   
 17   8  33  1   
 18   9  15  1   
 19   9  34  1   
 20   9  35  1   
 21  10  16  1   
 22  10  17  ar  
 23  11  36  1   
 24  11  37  1   
 25  11  38  1   
 26  12  17  ar  
 27  12  39  1   
 28  13  15  1   
 29  13  40  1   
 30  13  41  1   
 31  14  18  1   
 32  14  42  1   
 33  14  43  1   
 34  16  19  am  
 35  16  44  1   
 36  17  45  1   
 37  18  20  ar  
 38  18  21  ar  
 39  19  22  2   
 40  19  23  1   
 41  20  24  ar  
 42  20  46  1   
 43  21  25  ar  
 44  21  47  1   
 45  23  26  1   
 46  23  27  1   
 47  23  28  1   
 48  24  29  ar  
 49  24  48  1   
 50  25  29  ar  
 51  25  49  1   
 52  26  50  1   
 53  26  51  1   
 54  26  52  1   
 55  27  53  1   
 56  27  54  1   
 57  27  55  1   
 58  28  56  1   
 59  28  57  1   
 60  28  58  1   
@<TRIPOS>SUBSTRUCTURE
  1 ****   4 GROUP 4 **** **** 0

# MOE 2024.06 (io_trps.svl 2023.06)
