@<TRIPOS>MOLECULE
NONAME
56 58 1 0 0 
SMALL
USER_CHARGES


@<TRIPOS>ATOM
  1 S        0.3950     0.0110     1.7000 S.o2  1 <1>   1.5760 
  2 O        1.1190    -1.1470     2.1690 O.2   1 <1>  -0.6500 
  3 O       -0.1010     0.9980     2.6320 O.2   1 <1>  -0.6500 
  4 N        1.3810     0.8460     0.6090 N.am  1 <1>  -0.8490 
  5 N       -0.8470    -0.4960     0.6800 N.am  1 <1>  -0.8490 
  6 C        2.7150     1.0380     1.2090 C.3   1 <1>   0.1960 
  7 C        0.7170     2.0650     0.1300 C.3   1 <1>   0.1960 
  8 C       -2.0020    -0.9510     1.4570 C.3   1 <1>   0.1960 
  9 C       -0.3920    -1.5400    -0.2430 C.3   1 <1>   0.1960 
 10 C        3.7300     1.8210     0.3570 C.3   1 <1>   0.3430 
 11 C        1.3430     2.5280    -1.1870 C.3   1 <1>  -0.1600 
 12 C       -3.1740    -1.2760     0.5230 C.3   1 <1>  -0.1600 
 13 C       -1.5010    -1.8780    -1.2450 C.3   1 <1>  -0.1600 
 14 N        3.3350     3.2590     0.1880 N.4   1 <1>  -0.9590 
 15 C        2.5480     3.4620    -1.0640 C.3   1 <1>   0.3430 
 16 C       -2.7820    -2.3210    -0.5280 C.3   1 <1>  -0.1600 
 17 C        4.6080     4.0930     0.1270 C.3   1 <1>   0.4610 
 18 C        4.2150     5.5750     0.1130 C.ar  1 <1>  -0.1440 
 19 C        5.6360     3.6180    -0.9370 C.2   1 <1>   0.9060 
 20 C        4.1180     6.3170    -1.0580 C.ar  1 <1>  -0.1500 
 21 C        3.9370     6.2030     1.3240 C.ar  1 <1>  -0.1500 
 22 O        6.6290     3.0130    -0.5210 O.co2 1 <1>  -0.9000 
 23 O        5.3530     3.6750    -2.1420 O.co2 1 <1>  -0.9000 
 24 C        3.7380     7.6440    -0.9900 C.ar  1 <1>   0.1900 
 25 C        3.5600     7.5370     1.3730 C.ar  1 <1>  -0.1500 
 26 F        3.6420     8.3150    -2.1070 F     1 <1>  -0.1900 
 27 C        3.4520     8.2800     0.2090 C.ar  1 <1>  -0.1440 
 28 C        3.0410     9.7440     0.2510 C.3   1 <1>  -0.0970 
 29 H        3.1440     0.0660     1.3890 H     1 <1>   0.0800 
 30 H        2.6170     1.5220     2.1670 H     1 <1>   0.0800 
 31 H        0.7310     2.8370     0.8820 H     1 <1>   0.0800 
 32 H       -0.3180     1.8420    -0.0750 H     1 <1>   0.0800 
 33 H       -2.3100    -0.1760     2.1400 H     1 <1>   0.0800 
 34 H       -1.7370    -1.8230     2.0330 H     1 <1>   0.0800 
 35 H       -0.1150    -2.4250     0.3070 H     1 <1>   0.0800 
 36 H        0.4740    -1.1970    -0.7830 H     1 <1>   0.0800 
 37 H        3.8470     1.3490    -0.6050 H     1 <1>   0.0800 
 38 H        4.6870     1.7720     0.8520 H     1 <1>   0.0800 
 39 H        0.5960     3.0560    -1.7500 H     1 <1>   0.0800 
 40 H        1.6130     1.6700    -1.7770 H     1 <1>   0.0800 
 41 H       -3.4880    -0.3700     0.0360 H     1 <1>   0.0800 
 42 H       -4.0020    -1.6400     1.1040 H     1 <1>   0.0800 
 43 H       -1.1630    -2.6620    -1.9000 H     1 <1>   0.0800 
 44 H       -1.7010    -1.0090    -1.8470 H     1 <1>   0.0800 
 45 H        2.7900     3.5830     0.9880 H     1 <1>   0.4500 
 46 H        2.2000     4.4820    -1.0900 H     1 <1>   0.0800 
 47 H        3.1800     3.3190    -1.9270 H     1 <1>   0.0800 
 48 H       -3.5790    -2.4460    -1.2400 H     1 <1>   0.0800 
 49 H       -2.6120    -3.2680    -0.0450 H     1 <1>   0.0800 
 50 H        5.1310     3.9400     1.0540 H     1 <1>   0.0800 
 51 H        4.3330     5.8910    -2.0240 H     1 <1>   0.1500 
 52 H        4.0180     5.6590     2.2490 H     1 <1>   0.1500 
 53 H        3.3550     7.9960     2.3250 H     1 <1>   0.1500 
 54 H        2.1400     9.8880    -0.3180 H     1 <1>   0.0800 
 55 H        3.8180    10.3540    -0.1750 H     1 <1>   0.0800 
 56 H        2.8650    10.0700     1.2600 H     1 <1>   0.0800 
@<TRIPOS>BOND
  1   1   2  2   
  2   1   3  2   
  3   1   4  am  
  4   1   5  am  
  5   4   6  1   
  6   4   7  1   
  7   5   8  1   
  8   5   9  1   
  9   6  10  1   
 10   6  29  1   
 11   6  30  1   
 12   7  11  1   
 13   7  31  1   
 14   7  32  1   
 15   8  12  1   
 16   8  33  1   
 17   8  34  1   
 18   9  13  1   
 19   9  35  1   
 20   9  36  1   
 21  10  14  1   
 22  10  37  1   
 23  10  38  1   
 24  11  15  1   
 25  11  39  1   
 26  11  40  1   
 27  12  16  1   
 28  12  41  1   
 29  12  42  1   
 30  13  16  1   
 31  13  43  1   
 32  13  44  1   
 33  14  15  1   
 34  14  17  1   
 35  14  45  1   
 36  15  46  1   
 37  15  47  1   
 38  16  48  1   
 39  16  49  1   
 40  17  18  1   
 41  17  19  1   
 42  17  50  1   
 43  18  20  ar  
 44  18  21  ar  
 45  19  22  ar  
 46  19  23  ar  
 47  20  24  ar  
 48  20  51  1   
 49  21  25  ar  
 50  21  52  1   
 51  24  26  1   
 52  24  27  ar  
 53  25  27  ar  
 54  25  53  1   
 55  27  28  1   
 56  28  54  1   
 57  28  55  1   
 58  28  56  1   
@<TRIPOS>SUBSTRUCTURE
  1 ****  14 GROUP 4 **** **** 0

# MOE 2024.06 (io_trps.svl 2023.06)
