@<TRIPOS>MOLECULE
NONAME
50 51 1 0 0 
SMALL
USER_CHARGES


@<TRIPOS>ATOM
  1 O        0.3670    -0.0820    -0.8740 O.2   1 <1>  -0.5700 
  2 C        1.1260     0.5640    -0.1790 C.2   1 <1>   0.7800 
  3 O        0.9690     1.8690     0.0180 O.3   1 <1>  -0.4300 
  4 N        2.1920     0.0190     0.4530 N.am  1 <1>  -0.7300 
  5 C       -0.0460     2.6940    -0.5120 C.3   1 <1>   0.2800 
  6 C        2.6470    -1.3810     0.4490 C.3   1 <1>   0.2200 
  7 C       -1.4200     2.2380    -0.0080 C.3   1 <1>  -0.2400 
  8 C        0.2520     4.0920     0.0320 C.3   1 <1>  -0.2400 
  9 C        0.0360     2.7210    -2.0430 C.3   1 <1>  -0.2400 
 10 C        3.0330    -1.8100    -0.9770 C.3   1 <1>  -0.1600 
 11 C        1.5710    -2.2910     1.0680 C.3   1 <1>  -0.1600 
 12 C        3.3780    -3.3060    -1.0570 C.3   1 <1>  -0.1600 
 13 C        1.9410    -3.7790     0.9580 C.3   1 <1>  -0.1600 
 14 C        2.2200    -4.1490    -0.5090 C.3   1 <1>   0.4230 
 15 N        2.5070    -5.5980    -0.6990 N.4   1 <1>  -0.9590 
 16 C        1.2660    -6.4340    -0.5250 C.3   1 <1>   0.3430 
 17 C        3.6260    -6.1450     0.1530 C.3   1 <1>   0.3430 
 18 C        1.5410    -7.9290    -0.7960 C.3   1 <1>   0.1100 
 19 C        3.8770    -7.6430    -0.1270 C.3   1 <1>   0.1100 
 20 N        2.6460    -8.4320     0.0350 N.3   1 <1>  -0.9000 
 21 H        2.7450     0.6740     1.0040 H     1 <1>   0.3700 
 22 H        3.5290    -1.4420     1.0650 H     1 <1>   0.0800 
 23 H       -1.4180     2.1620     1.0650 H     1 <1>   0.0800 
 24 H       -1.6940     1.2890    -0.4300 H     1 <1>   0.0800 
 25 H       -2.1710     2.9500    -0.2970 H     1 <1>   0.0800 
 26 H        0.2220     4.0890     1.1070 H     1 <1>   0.0800 
 27 H       -0.4790     4.7950    -0.3240 H     1 <1>   0.0800 
 28 H        1.2230     4.4200    -0.2920 H     1 <1>   0.0800 
 29 H       -0.2380     1.7710    -2.4630 H     1 <1>   0.0800 
 30 H        1.0310     2.9740    -2.3600 H     1 <1>   0.0800 
 31 H       -0.6440     3.4560    -2.4340 H     1 <1>   0.0800 
 32 H        3.8770    -1.2270    -1.3050 H     1 <1>   0.0800 
 33 H        2.2160    -1.6140    -1.6510 H     1 <1>   0.0800 
 34 H        0.6310    -2.1380     0.5680 H     1 <1>   0.0800 
 35 H        1.4400    -2.0280     2.1040 H     1 <1>   0.0800 
 36 H        4.2760    -3.4810    -0.4910 H     1 <1>   0.0800 
 37 H        3.5620    -3.5590    -2.0870 H     1 <1>   0.0800 
 38 H        1.1230    -4.3600     1.3440 H     1 <1>   0.0800 
 39 H        2.8090    -3.9590     1.5670 H     1 <1>   0.0800 
 40 H        1.3410    -3.8980    -1.0830 H     1 <1>   0.0800 
 41 H        2.7980    -5.7170    -1.6750 H     1 <1>   0.4500 
 42 H        0.4930    -6.0890    -1.1910 H     1 <1>   0.0800 
 43 H        0.9020    -6.3380     0.4840 H     1 <1>   0.0800 
 44 H        3.3750    -6.0370     1.1950 H     1 <1>   0.0800 
 45 H        4.5340    -5.5950    -0.0300 H     1 <1>   0.0800 
 46 H        1.7700    -8.0750    -1.8390 H     1 <1>   0.0800 
 47 H        0.6510    -8.4950    -0.5740 H     1 <1>   0.0800 
 48 H        4.6190    -8.0090     0.5630 H     1 <1>   0.0800 
 49 H        4.2640    -7.7670    -1.1240 H     1 <1>   0.0800 
 50 H        2.8310    -9.4250    -0.1870 H     1 <1>   0.3600 
@<TRIPOS>BOND
  1   1   2  2   
  2   2   3  1   
  3   2   4  am  
  4   3   5  1   
  5   4   6  1   
  6   4  21  1   
  7   5   7  1   
  8   5   8  1   
  9   5   9  1   
 10   6  10  1   
 11   6  11  1   
 12   6  22  1   
 13   7  23  1   
 14   7  24  1   
 15   7  25  1   
 16   8  26  1   
 17   8  27  1   
 18   8  28  1   
 19   9  29  1   
 20   9  30  1   
 21   9  31  1   
 22  10  12  1   
 23  10  32  1   
 24  10  33  1   
 25  11  13  1   
 26  11  34  1   
 27  11  35  1   
 28  12  14  1   
 29  12  36  1   
 30  12  37  1   
 31  13  14  1   
 32  13  38  1   
 33  13  39  1   
 34  14  15  1   
 35  14  40  1   
 36  15  16  1   
 37  15  17  1   
 38  15  41  1   
 39  16  18  1   
 40  16  42  1   
 41  16  43  1   
 42  17  19  1   
 43  17  44  1   
 44  17  45  1   
 45  18  20  1   
 46  18  46  1   
 47  18  47  1   
 48  19  20  1   
 49  19  48  1   
 50  19  49  1   
 51  20  50  1   
@<TRIPOS>SUBSTRUCTURE
  1 ****  11 GROUP 4 **** **** 0

# MOE 2024.06 (io_trps.svl 2023.06)
