@<TRIPOS>MOLECULE
NONAME
48 49 1 0 0 
SMALL
USER_CHARGES


@<TRIPOS>ATOM
  1 S       -0.1750     0.1280     0.3360 S.o2  1 <1>   1.4470 
  2 O       -0.3710    -0.2750     1.7070 O.2   1 <1>  -0.6500 
  3 O       -1.0100    -0.3610    -0.7340 O.2   1 <1>  -0.6500 
  4 N        1.3670    -0.3680    -0.0500 N.am  1 <1>  -0.9780 
  5 C       -0.0330     1.9340     0.2320 C.ar  1 <1>  -0.0090 
  6 C        0.3880     2.6840     1.3230 C.ar  1 <1>  -0.1500 
  7 C       -0.3130     2.6110    -0.9500 C.ar  1 <1>  -0.1500 
  8 C        0.5230     4.0590     1.2400 C.ar  1 <1>  -0.1500 
  9 C       -0.1810     3.9860    -1.0400 C.ar  1 <1>  -0.1500 
 10 C        0.2370     4.7190     0.0570 C.ar  1 <1>  -0.1430 
 11 C        0.3800     6.2310    -0.0200 C.3   1 <1>  -0.0170 
 12 C        1.8260     6.6180    -0.3280 C.3   1 <1>   0.1400 
 13 N        1.9800     8.0890    -0.2560 N.am  1 <1>  -0.7300 
 14 C        2.3230     8.7680     0.8700 C.2   1 <1>   0.5690 
 15 O        2.5170     8.2010     1.9170 O.2   1 <1>  -0.5700 
 16 C        2.4490    10.2880     0.8130 C.3   1 <1>  -0.0190 
 17 C        1.0900    10.9480     0.5060 C.3   1 <1>  -0.1600 
 18 C        3.5220    10.7320    -0.2030 C.3   1 <1>  -0.1600 
 19 C        1.1920    12.4770     0.4410 C.3   1 <1>   0.2000 
 20 C        3.6460    12.2630    -0.2590 C.3   1 <1>  -0.1600 
 21 O       -0.0550    12.9400     0.0020 O.3   1 <1>  -0.5600 
 22 C        2.3010    12.9480    -0.5300 C.3   1 <1>   0.2000 
 23 C       -0.3670    14.2490     0.3670 C.3   1 <1>   0.0400 
 24 O        1.9070    12.6550    -1.8250 O.3   1 <1>  -0.6800 
 25 H        1.9930     0.0390     0.6360 H     1 <1>   0.4200 
 26 H        1.5760    -0.0060    -0.9730 H     1 <1>   0.4200 
 27 H        0.6080     2.1900     2.2560 H     1 <1>   0.1500 
 28 H       -0.6470     2.0570    -1.8120 H     1 <1>   0.1500 
 29 H        0.8500     4.6170     2.1030 H     1 <1>   0.1500 
 30 H       -0.4110     4.4820    -1.9670 H     1 <1>   0.1500 
 31 H        0.0920     6.6600     0.9240 H     1 <1>   0.0800 
 32 H       -0.2710     6.6240    -0.7800 H     1 <1>   0.0800 
 33 H        2.1070     6.2700    -1.3070 H     1 <1>   0.0800 
 34 H        2.4800     6.1580     0.3940 H     1 <1>   0.0800 
 35 H        1.8040     8.6160    -1.1150 H     1 <1>   0.3700 
 36 H        2.7640    10.6140     1.7890 H     1 <1>   0.0800 
 37 H        0.3820    10.6740     1.2680 H     1 <1>   0.0800 
 38 H        0.7250    10.5850    -0.4390 H     1 <1>   0.0800 
 39 H        4.4720    10.3040     0.0680 H     1 <1>   0.0800 
 40 H        3.2690    10.3700    -1.1850 H     1 <1>   0.0800 
 41 H        1.3840    12.8570     1.4310 H     1 <1>   0.0800 
 42 H        4.3520    12.5500    -1.0190 H     1 <1>   0.0800 
 43 H        4.0260    12.6150     0.6830 H     1 <1>   0.0800 
 44 H        2.4200    14.0150    -0.4610 H     1 <1>   0.0800 
 45 H       -1.3490    14.4750    -0.0100 H     1 <1>   0.0800 
 46 H        0.3490    14.9260    -0.0660 H     1 <1>   0.0800 
 47 H       -0.3670    14.3290     1.4400 H     1 <1>   0.0800 
 48 H        0.9300    12.7540    -1.8510 H     1 <1>   0.4000 
@<TRIPOS>BOND
  1   1   2  2   
  2   1   3  2   
  3   1   4  am  
  4   1   5  1   
  5   4  25  1   
  6   4  26  1   
  7   5   6  ar  
  8   5   7  ar  
  9   6   8  ar  
 10   6  27  1   
 11   7   9  ar  
 12   7  28  1   
 13   8  10  ar  
 14   8  29  1   
 15   9  10  ar  
 16   9  30  1   
 17  10  11  1   
 18  11  12  1   
 19  11  31  1   
 20  11  32  1   
 21  12  13  1   
 22  12  33  1   
 23  12  34  1   
 24  13  14  am  
 25  13  35  1   
 26  14  15  2   
 27  14  16  1   
 28  16  17  1   
 29  16  18  1   
 30  16  36  1   
 31  17  19  1   
 32  17  37  1   
 33  17  38  1   
 34  18  20  1   
 35  18  39  1   
 36  18  40  1   
 37  19  21  1   
 38  19  22  1   
 39  19  41  1   
 40  20  22  1   
 41  20  42  1   
 42  20  43  1   
 43  21  23  1   
 44  22  24  1   
 45  22  44  1   
 46  23  45  1   
 47  23  46  1   
 48  23  47  1   
 49  24  48  1   
@<TRIPOS>SUBSTRUCTURE
  1 ****  12 GROUP 4 **** **** 0

# MOE 2024.06 (io_trps.svl 2023.06)
