@<TRIPOS>MOLECULE
NONAME
44 46 1 0 0 
SMALL
USER_CHARGES


@<TRIPOS>ATOM
  1 O        0.0220     1.3610    -0.9040 O.co2 1 <1>  -0.9000 
  2 C       -0.7790     0.4610    -0.5980 C.2   1 <1>   0.9060 
  3 O       -0.5430    -0.7420    -0.7020 O.co2 1 <1>  -0.9000 
  4 C       -2.1300     0.9470    -0.0380 C.3   1 <1>   0.3170 
  5 N       -2.1070     2.4440     0.1450 N.4   1 <1>  -0.9590 
  6 C       -3.3180     0.6690    -0.9650 C.3   1 <1>  -0.1600 
  7 C       -3.2950     3.0210    -0.5380 C.3   1 <1>   0.3430 
  8 C       -1.9460     2.8310     1.5530 C.3   1 <1>   0.5240 
  9 C       -4.2540     1.8440    -0.7390 C.3   1 <1>   0.2000 
 10 C       -1.5890     4.3000     1.5830 C.2   1 <1>  -0.1810 
 11 O       -4.9450     1.6220     0.4470 O.3   1 <1>  -0.6800 
 12 C       -2.2390     5.2910     2.3040 C.2   1 <1>   0.1390 
 13 C       -0.5990     4.9480     0.9310 C.2   1 <1>  -0.3020 
 14 N       -1.7070     6.4550     2.1140 N.2   1 <1>  -0.7070 
 15 N       -0.6650     6.2640     1.2590 N.pl3 1 <1>   0.5930 
 16 C        0.1800     7.3130     0.7860 C.ar  1 <1>  -0.0230 
 17 C        1.4670     7.0520     0.3200 C.ar  1 <1>  -0.1500 
 18 C       -0.2630     8.6310     0.7740 C.ar  1 <1>  -0.1500 
 19 C        2.2850     8.0640    -0.1560 C.ar  1 <1>  -0.1430 
 20 C        0.5470     9.6470     0.3050 C.ar  1 <1>  -0.1500 
 21 C        1.8220     9.3750    -0.1640 C.ar  1 <1>  -0.1430 
 22 C        3.6790     7.7120    -0.6580 C.3   1 <1>  -0.0970 
 23 C        2.6830    10.5220    -0.6740 C.3   1 <1>  -0.0970 
 24 H       -2.2980     0.4620     0.9060 H     1 <1>   0.0800 
 25 H       -1.2170     2.6900    -0.3470 H     1 <1>   0.4500 
 26 H       -3.7670    -0.2870    -0.7640 H     1 <1>   0.0800 
 27 H       -2.9710     0.6710    -1.9850 H     1 <1>   0.0800 
 28 H       -3.7550     3.8080     0.0360 H     1 <1>   0.0800 
 29 H       -2.9970     3.4050    -1.4990 H     1 <1>   0.0800 
 30 H       -2.8610     2.6480     2.0930 H     1 <1>   0.0800 
 31 H       -1.1490     2.2590     2.0010 H     1 <1>   0.0800 
 32 H       -4.9600     2.0060    -1.5370 H     1 <1>   0.0800 
 33 H       -5.5710     0.8750     0.3450 H     1 <1>   0.4000 
 34 H       -3.0890     5.1340     2.9480 H     1 <1>   0.1500 
 35 H        0.1420     4.5590     0.2570 H     1 <1>   0.1500 
 36 H        1.8400     6.0440     0.3300 H     1 <1>   0.1500 
 37 H       -1.2500     8.8670     1.1370 H     1 <1>   0.1500 
 38 H        0.1750    10.6570     0.3090 H     1 <1>   0.1500 
 39 H        3.8540     6.6530    -0.6080 H     1 <1>   0.0800 
 40 H        4.4210     8.2050    -0.0560 H     1 <1>   0.0800 
 41 H        3.7920     8.0230    -1.6810 H     1 <1>   0.0800 
 42 H        2.1670    11.4610    -0.5850 H     1 <1>   0.0800 
 43 H        2.9270    10.3680    -1.7090 H     1 <1>   0.0800 
 44 H        3.5920    10.5820    -0.1030 H     1 <1>   0.0800 
@<TRIPOS>BOND
  1   1   2  ar  
  2   2   3  ar  
  3   2   4  1   
  4   4   5  1   
  5   4   6  1   
  6   4  24  1   
  7   5   7  1   
  8   5   8  1   
  9   5  25  1   
 10   6   9  1   
 11   6  26  1   
 12   6  27  1   
 13   7   9  1   
 14   7  28  1   
 15   7  29  1   
 16   8  10  1   
 17   8  30  1   
 18   8  31  1   
 19   9  11  1   
 20   9  32  1   
 21  10  12  1   
 22  10  13  2   
 23  11  33  1   
 24  12  14  2   
 25  12  34  1   
 26  13  15  1   
 27  13  35  1   
 28  14  15  1   
 29  15  16  1   
 30  16  17  ar  
 31  16  18  ar  
 32  17  19  ar  
 33  17  36  1   
 34  18  20  ar  
 35  18  37  1   
 36  19  21  ar  
 37  19  22  1   
 38  20  21  ar  
 39  20  38  1   
 40  21  23  1   
 41  22  39  1   
 42  22  40  1   
 43  22  41  1   
 44  23  42  1   
 45  23  43  1   
 46  23  44  1   
@<TRIPOS>SUBSTRUCTURE
  1 ****  13 GROUP 4 **** **** 0

# MOE 2024.06 (io_trps.svl 2023.06)
