@<TRIPOS>MOLECULE
NONAME
50 53 1 0 0 
SMALL
USER_CHARGES


@<TRIPOS>ATOM
  1 O       -0.9120    -0.1020    -2.0130 O.2   1 <1>  -0.5700 
  2 C       -1.5750    -0.6380    -1.1560 C.2   1 <1>   0.5690 
  3 N       -2.0900     0.0560    -0.1000 N.am  1 <1>  -0.6600 
  4 C       -1.8150    -2.1240    -1.2820 C.3   1 <1>  -0.0190 
  5 C       -2.9250    -0.6110     0.9420 C.3   1 <1>   0.2200 
  6 C       -1.8900     1.5250     0.0540 C.3   1 <1>   0.0600 
  7 C       -1.1730    -2.8960    -0.1130 C.3   1 <1>   0.1200 
  8 C       -3.2890    -2.4140    -1.6120 C.3   1 <1>   0.2090 
  9 C       -2.1070    -1.6670     1.7240 C.3   1 <1>   0.1200 
 10 C       -4.2750    -1.1010     0.3620 C.3   1 <1>   0.2090 
 11 O       -1.9200    -2.8890     1.0660 O.3   1 <1>  -0.5600 
 12 N       -4.2320    -2.3470    -0.4620 N.pl3 1 <1>  -0.8380 
 13 C       -5.4040    -3.0520    -0.5830 C.ar  1 <1>   0.4100 
 14 N       -6.3860    -2.4350    -1.2070 N.ar  1 <1>  -0.6200 
 15 C       -5.5460    -4.3350    -0.0810 C.ar  1 <1>  -0.1440 
 16 C       -7.5010    -3.1220    -1.3320 C.ar  1 <1>   0.4700 
 17 C       -6.7700    -4.9400    -0.2730 C.ar  1 <1>   0.3920 
 18 C       -4.3860    -5.0110     0.6540 C.3   1 <1>  -0.0960 
 19 N       -7.7650    -4.3390    -0.9070 N.ar  1 <1>  -0.6200 
 20 O       -6.9600    -6.1990     0.1870 O.3   1 <1>  -0.1650 
 21 C       -8.1740    -6.7800     0.3880 C.ar  1 <1>   0.0820 
 22 C       -8.4050    -8.0890    -0.0400 C.ar  1 <1>   0.1670 
 23 C       -9.1810    -6.1040     1.0550 C.ar  1 <1>  -0.1500 
 24 N       -9.5420    -8.7440     0.1530 N.ar  1 <1>  -0.6200 
 25 C       -7.3330    -8.8760    -0.7740 C.3   1 <1>  -0.0970 
 26 C      -10.3670    -6.7770     1.2500 C.ar  1 <1>  -0.1500 
 27 C      -10.4920    -8.0750     0.7860 C.ar  1 <1>   0.1600 
 28 H       -1.2650    -2.4230    -2.1550 H     1 <1>   0.0800 
 29 H       -3.1780     0.1480     1.6600 H     1 <1>   0.0800 
 30 H       -1.4000     1.7300     0.9900 H     1 <1>   0.0800 
 31 H       -2.8410     2.0270     0.0310 H     1 <1>   0.0800 
 32 H       -1.2800     1.9150    -0.7430 H     1 <1>   0.0800 
 33 H       -0.1940    -2.5040     0.1050 H     1 <1>   0.0800 
 34 H       -1.0650    -3.9280    -0.3950 H     1 <1>   0.0800 
 35 H       -3.3510    -3.4030    -2.0340 H     1 <1>   0.0800 
 36 H       -3.6240    -1.7240    -2.3680 H     1 <1>   0.0800 
 37 H       -2.6330    -1.8980     2.6330 H     1 <1>   0.0800 
 38 H       -1.1430    -1.2710     1.9890 H     1 <1>   0.0800 
 39 H       -4.7090    -0.3120    -0.2260 H     1 <1>   0.0800 
 40 H       -4.9390    -1.2820     1.1880 H     1 <1>   0.0800 
 41 H       -8.3020    -2.6220    -1.8490 H     1 <1>   0.1500 
 42 H       -3.5310    -5.0720     0.0060 H     1 <1>   0.0800 
 43 H       -4.6300    -6.0020     0.9870 H     1 <1>   0.0800 
 44 H       -4.1140    -4.4230     1.5120 H     1 <1>   0.0800 
 45 H       -9.0410    -5.0960     1.4040 H     1 <1>   0.1500 
 46 H       -6.6110    -8.2290    -1.2350 H     1 <1>   0.0800 
 47 H       -7.7880    -9.4730    -1.5440 H     1 <1>   0.0800 
 48 H       -6.8330    -9.5280    -0.0820 H     1 <1>   0.0800 
 49 H      -11.1870    -6.3020     1.7570 H     1 <1>   0.1500 
 50 H      -11.4230    -8.5920     0.9450 H     1 <1>   0.1500 
@<TRIPOS>BOND
  1   1   2  2   
  2   2   3  am  
  3   2   4  1   
  4   3   5  1   
  5   3   6  1   
  6   4   7  1   
  7   4   8  1   
  8   4  28  1   
  9   5   9  1   
 10   5  10  1   
 11   5  29  1   
 12   6  30  1   
 13   6  31  1   
 14   6  32  1   
 15   7  11  1   
 16   7  33  1   
 17   7  34  1   
 18   8  12  1   
 19   8  35  1   
 20   8  36  1   
 21   9  11  1   
 22   9  37  1   
 23   9  38  1   
 24  10  12  1   
 25  10  39  1   
 26  10  40  1   
 27  12  13  1   
 28  13  14  ar  
 29  13  15  ar  
 30  14  16  ar  
 31  15  17  ar  
 32  15  18  1   
 33  16  19  ar  
 34  16  41  1   
 35  17  19  ar  
 36  17  20  1   
 37  18  42  1   
 38  18  43  1   
 39  18  44  1   
 40  20  21  1   
 41  21  22  ar  
 42  21  23  ar  
 43  22  24  ar  
 44  22  25  1   
 45  23  26  ar  
 46  23  45  1   
 47  24  27  ar  
 48  25  46  1   
 49  25  47  1   
 50  25  48  1   
 51  26  27  ar  
 52  26  49  1   
 53  27  50  1   
@<TRIPOS>SUBSTRUCTURE
  1 ****  15 GROUP 4 **** **** 0

# MOE 2024.06 (io_trps.svl 2023.06)
