@<TRIPOS>MOLECULE
NONAME
44 46 1 0 0 
SMALL
USER_CHARGES


@<TRIPOS>ATOM
  1 O       -2.0880     1.0250    -2.1750 O.2   1 <1>  -0.5700 
  2 C       -2.0980     1.2030    -0.9820 C.2   1 <1>   0.5690 
  3 N       -2.3060     0.1930    -0.1060 N.am  1 <1>  -0.7300 
  4 C       -1.8560     2.5930    -0.4420 C.3   1 <1>  -0.0990 
  5 C       -2.5150    -1.2230    -0.4790 C.3   1 <1>   0.2200 
  6 C       -0.3570     2.8970    -0.3680 C.3   1 <1>  -0.0170 
  7 C       -3.9560    -1.6080    -0.1860 C.3   1 <1>  -0.0800 
  8 C       -1.7570    -2.1150     0.4950 C.3   1 <1>   0.1200 
  9 C       -0.1240     4.2780     0.2210 C.ar  1 <1>  -0.1440 
 10 C       -3.9060    -1.9910     1.3000 C.3   1 <1>   0.1200 
 11 C       -4.4190    -2.7760    -1.0770 C.3   1 <1>  -0.0170 
 12 O       -2.5610    -2.1920     1.6310 O.3   1 <1>  -0.5600 
 13 C        0.1320     4.4670     1.5640 C.ar  1 <1>  -0.1500 
 14 C       -0.1620     5.4150    -0.5600 C.ar  1 <1>  -0.1500 
 15 C       -5.8670    -3.1500    -0.7980 C.ar  1 <1>  -0.1440 
 16 C        0.3310     5.7500     2.0470 C.ar  1 <1>   0.1600 
 17 C        0.0500     6.6530     0.0240 C.ar  1 <1>   0.1600 
 18 C       -6.2120    -4.2900    -0.1000 C.ar  1 <1>  -0.1500 
 19 C       -6.9150    -2.3640    -1.2340 C.ar  1 <1>  -0.1500 
 20 N        0.2950     6.8480     1.3100 N.ar  1 <1>  -0.6200 
 21 C       -7.5480    -4.5770     0.1270 C.ar  1 <1>   0.1600 
 22 C       -8.2180    -2.7410    -0.9540 C.ar  1 <1>   0.1600 
 23 N       -8.5590    -3.8280    -0.2820 N.ar  1 <1>  -0.6200 
 24 H       -2.3150     0.3610     0.9020 H     1 <1>   0.3700 
 25 H       -2.3360     3.3020    -1.0920 H     1 <1>   0.0800 
 26 H       -2.2970     2.6850     0.5330 H     1 <1>   0.0800 
 27 H       -2.2260    -1.3920    -1.5030 H     1 <1>   0.0800 
 28 H        0.0700     2.8470    -1.3560 H     1 <1>   0.0800 
 29 H        0.1360     2.1560     0.2380 H     1 <1>   0.0800 
 30 H       -4.6180    -0.7740    -0.3440 H     1 <1>   0.0800 
 31 H       -0.7920    -1.7190     0.7570 H     1 <1>   0.0800 
 32 H       -1.6480    -3.1100     0.1000 H     1 <1>   0.0800 
 33 H       -4.4520    -2.8910     1.5200 H     1 <1>   0.0800 
 34 H       -4.2770    -1.1910     1.9160 H     1 <1>   0.0800 
 35 H       -3.7890    -3.6350    -0.9240 H     1 <1>   0.0800 
 36 H       -4.3320    -2.4910    -2.1110 H     1 <1>   0.0800 
 37 H        0.1790     3.6330     2.2390 H     1 <1>   0.1500 
 38 H       -0.3550     5.3490    -1.6150 H     1 <1>   0.1500 
 39 H        0.5300     5.8800     3.0970 H     1 <1>   0.1500 
 40 H        0.0170     7.5290    -0.6010 H     1 <1>   0.1500 
 41 H       -5.4570    -4.9580     0.2710 H     1 <1>   0.1500 
 42 H       -6.7310    -1.4620    -1.7900 H     1 <1>   0.1500 
 43 H       -7.7980    -5.4690     0.6740 H     1 <1>   0.1500 
 44 H       -9.0220    -2.1150    -1.3030 H     1 <1>   0.1500 
@<TRIPOS>BOND
  1   1   2  2   
  2   2   3  am  
  3   2   4  1   
  4   3   5  1   
  5   3  24  1   
  6   4   6  1   
  7   4  25  1   
  8   4  26  1   
  9   5   7  1   
 10   5   8  1   
 11   5  27  1   
 12   6   9  1   
 13   6  28  1   
 14   6  29  1   
 15   7  10  1   
 16   7  11  1   
 17   7  30  1   
 18   8  12  1   
 19   8  31  1   
 20   8  32  1   
 21   9  13  ar  
 22   9  14  ar  
 23  10  12  1   
 24  10  33  1   
 25  10  34  1   
 26  11  15  1   
 27  11  35  1   
 28  11  36  1   
 29  13  16  ar  
 30  13  37  1   
 31  14  17  ar  
 32  14  38  1   
 33  15  18  ar  
 34  15  19  ar  
 35  16  20  ar  
 36  16  39  1   
 37  17  20  ar  
 38  17  40  1   
 39  18  21  ar  
 40  18  41  1   
 41  19  22  ar  
 42  19  42  1   
 43  21  23  ar  
 44  21  43  1   
 45  22  23  ar  
 46  22  44  1   
@<TRIPOS>SUBSTRUCTURE
  1 ****   3 GROUP 4 **** **** 0

# MOE 2024.06 (io_trps.svl 2023.06)
