@<TRIPOS>MOLECULE
NONAME
45 48 1 0 0 
SMALL
USER_CHARGES


@<TRIPOS>ATOM
  1 S       -0.3530     0.1880     1.0050 S.o2  1 <1>   1.0900 
  2 O       -0.6070     1.2230     1.9780 O.2   1 <1>  -0.6500 
  3 O        0.9840    -0.2650     0.7000 O.2   1 <1>  -0.6500 
  4 C       -1.3350    -1.2460     1.3410 C.3   1 <1>  -0.0550 
  5 C       -1.1710     0.5610    -0.5400 C.3   1 <1>  -0.0550 
  6 C       -1.6070    -1.8410    -0.0370 C.3   1 <1>   0.1760 
  7 C       -1.9850    -0.6730    -0.9720 C.3   1 <1>  -0.1600 
  8 N       -2.6740    -2.8730     0.0210 N.pl3 1 <1>   0.3140 
  9 N       -3.8660    -2.6030     0.5840 N.2   1 <1>  -0.7070 
 10 C       -2.6200    -4.1490    -0.4390 C.2   1 <1>  -0.3320 
 11 C       -4.5420    -3.7050     0.4860 C.2   1 <1>   0.1080 
 12 C       -3.8120    -4.7160    -0.1480 C.2   1 <1>   0.0630 
 13 C       -1.4110    -4.7680    -1.1290 C.3   1 <1>  -0.0600 
 14 C       -5.9590    -3.8100     1.0050 C.3   1 <1>  -0.0590 
 15 N       -4.1960    -6.0430    -0.4640 N.am  1 <1>  -0.4930 
 16 C       -4.8290    -6.9840     0.3050 C.2   1 <1>   0.7150 
 17 O       -5.1520    -6.7030     1.4460 O.2   1 <1>  -0.5700 
 18 C       -5.0830    -8.2850    -0.2460 C.2   1 <1>  -0.0450 
 19 S       -4.4990    -8.6550    -1.8900 S.3   1 <1>  -0.0800 
 20 C       -5.7120    -9.3920     0.2330 C.2   1 <1>   0.0620 
 21 C       -5.1380   -10.2920    -1.8450 C.2   1 <1>  -0.1100 
 22 O       -6.2830    -9.4880     1.4520 O.3   1 <1>  -0.3420 
 23 C       -5.7440   -10.5100    -0.6660 C.2   1 <1>   0.0620 
 24 C       -6.6220   -10.7790     1.9200 C.3   1 <1>   0.1200 
 25 O       -6.3470   -11.6780    -0.3180 O.3   1 <1>  -0.3420 
 26 C       -7.2340   -11.6140     0.7850 C.3   1 <1>   0.1200 
 27 H       -2.2590    -0.9500     1.8020 H     1 <1>   0.0800 
 28 H       -0.8170    -1.9380     1.9760 H     1 <1>   0.0800 
 29 H       -0.4420     0.8120    -1.2870 H     1 <1>   0.0800 
 30 H       -1.8310     1.3990    -0.4150 H     1 <1>   0.0800 
 31 H       -0.7010    -2.2950    -0.3940 H     1 <1>   0.0800 
 32 H       -1.7870    -0.9260    -1.9990 H     1 <1>   0.0800 
 33 H       -3.0330    -0.4470    -0.8640 H     1 <1>   0.0800 
 34 H       -1.1780    -4.2280    -2.0290 H     1 <1>   0.0800 
 35 H       -1.6040    -5.7940    -1.3880 H     1 <1>   0.0800 
 36 H       -0.5580    -4.7460    -0.4730 H     1 <1>   0.0800 
 37 H       -6.4280    -2.8440     0.9870 H     1 <1>   0.0800 
 38 H       -5.9430    -4.1720     2.0160 H     1 <1>   0.0800 
 39 H       -6.5300    -4.4870     0.3980 H     1 <1>   0.0800 
 40 H       -3.8630    -6.3810    -1.3630 H     1 <1>   0.3700 
 41 H       -4.9980   -10.9220    -2.7040 H     1 <1>   0.1500 
 42 H       -7.3200   -10.6620     2.7290 H     1 <1>   0.0800 
 43 H       -5.7270   -11.2460     2.2900 H     1 <1>   0.0800 
 44 H       -8.1550   -11.1710     0.4490 H     1 <1>   0.0800 
 45 H       -7.4260   -12.6200     1.1130 H     1 <1>   0.0800 
@<TRIPOS>BOND
  1   1   2  2   
  2   1   3  2   
  3   1   4  1   
  4   1   5  1   
  5   4   6  1   
  6   4  27  1   
  7   4  28  1   
  8   5   7  1   
  9   5  29  1   
 10   5  30  1   
 11   6   7  1   
 12   6   8  1   
 13   6  31  1   
 14   7  32  1   
 15   7  33  1   
 16   8   9  1   
 17   8  10  1   
 18   9  11  2   
 19  10  12  2   
 20  10  13  1   
 21  11  12  1   
 22  11  14  1   
 23  12  15  1   
 24  13  34  1   
 25  13  35  1   
 26  13  36  1   
 27  14  37  1   
 28  14  38  1   
 29  14  39  1   
 30  15  16  am  
 31  15  40  1   
 32  16  17  2   
 33  16  18  1   
 34  18  19  1   
 35  18  20  2   
 36  19  21  1   
 37  20  22  1   
 38  20  23  1   
 39  21  23  2   
 40  21  41  1   
 41  22  24  1   
 42  23  25  1   
 43  24  26  1   
 44  24  42  1   
 45  24  43  1   
 46  25  26  1   
 47  26  44  1   
 48  26  45  1   
@<TRIPOS>SUBSTRUCTURE
  1 ****  12 GROUP 4 **** **** 0

# MOE 2024.06 (io_trps.svl 2023.06)
