@<TRIPOS>MOLECULE
NONAME
52 54 1 0 0 
SMALL
USER_CHARGES


@<TRIPOS>ATOM
  1 O       -0.6780     0.1450     0.2530 O.2   1 <1>  -0.5700 
  2 C       -1.5780     0.8350    -0.1650 C.2   1 <1>   0.5690 
  3 N       -2.6910     0.2580    -0.7240 N.am  1 <1>  -0.6600 
  4 C       -1.4710     2.3470    -0.0360 C.3   1 <1>  -0.0990 
  5 C       -2.7440    -1.2120    -0.9480 C.3   1 <1>   0.1400 
  6 C       -4.0000     0.9430    -0.9160 C.3   1 <1>   0.1400 
  7 C       -0.0620     2.8440     0.3170 C.3   1 <1>  -0.0160 
  8 C       -3.7400    -1.8430     0.0490 C.3   1 <1>   0.4230 
  9 C       -5.0030     0.3410     0.0770 C.3   1 <1>  -0.1600 
 10 C       -0.0530     4.3620     0.3990 C.ar  1 <1>  -0.1440 
 11 N       -3.7440    -3.3670     0.0390 N.4   1 <1>  -0.9590 
 12 C       -5.1590    -1.2040    -0.0540 C.3   1 <1>   0.0000 
 13 C        0.2320     5.1220    -0.7240 C.ar  1 <1>  -0.1500 
 14 C       -0.3370     4.9980     1.5980 C.ar  1 <1>  -0.1500 
 15 C       -4.9570    -3.9810     0.6710 C.3   1 <1>   0.3430 
 16 C       -3.4830    -4.0060    -1.2930 C.3   1 <1>   0.2630 
 17 C       -6.0390    -1.7180     1.1240 C.3   1 <1>  -0.1600 
 18 C       -5.8130    -1.5660    -1.4190 C.3   1 <1>   0.1200 
 19 C        0.2310     6.5050    -0.6510 C.ar  1 <1>  -0.1500 
 20 C       -0.3390     6.3810     1.6720 C.ar  1 <1>  -0.1500 
 21 C       -5.5550    -3.0520     1.7270 C.3   1 <1>  -0.1600 
 22 O       -6.9750    -0.8450    -1.6370 O.3   1 <1>  -0.6800 
 23 C       -0.0550     7.1350     0.5470 C.ar  1 <1>  -0.1500 
 24 H       -1.7620     2.7930    -0.9690 H     1 <1>   0.0800 
 25 H       -2.1550     2.6750     0.7250 H     1 <1>   0.0800 
 26 H       -3.0400    -1.3900    -1.9660 H     1 <1>   0.0800 
 27 H       -1.7700    -1.6450    -0.8040 H     1 <1>   0.0800 
 28 H       -3.9190     2.0020    -0.7420 H     1 <1>   0.0800 
 29 H       -4.3380     0.8050    -1.9290 H     1 <1>   0.0800 
 30 H        0.6390     2.5140    -0.4290 H     1 <1>   0.0800 
 31 H        0.2480     2.4290     1.2610 H     1 <1>   0.0800 
 32 H       -3.3730    -1.5530     1.0200 H     1 <1>   0.0800 
 33 H       -4.6620     0.5920     1.0670 H     1 <1>   0.0800 
 34 H       -5.9520     0.8310    -0.0510 H     1 <1>   0.0800 
 35 H       -2.9500    -3.6240     0.6460 H     1 <1>   0.4500 
 36 H        0.4570     4.6420    -1.6600 H     1 <1>   0.1500 
 37 H       -0.5580     4.4210     2.4780 H     1 <1>   0.1500 
 38 H       -5.7060    -4.1670    -0.0820 H     1 <1>   0.0800 
 39 H       -4.6970    -4.9260     1.1210 H     1 <1>   0.0800 
 40 H       -4.2550    -3.7430    -1.9980 H     1 <1>   0.0800 
 41 H       -3.4620    -5.0800    -1.1940 H     1 <1>   0.0800 
 42 H       -2.5320    -3.6870    -1.6880 H     1 <1>   0.0800 
 43 H       -6.0620    -0.9960     1.9230 H     1 <1>   0.0800 
 44 H       -7.0590    -1.8320     0.8000 H     1 <1>   0.0800 
 45 H       -6.0680    -2.6090    -1.4720 H     1 <1>   0.0800 
 46 H       -5.1600    -1.3350    -2.2410 H     1 <1>   0.0800 
 47 H        0.4530     7.0890    -1.5270 H     1 <1>   0.1500 
 48 H       -0.5600     6.8680     2.6050 H     1 <1>   0.1500 
 49 H       -6.3860    -3.5450     2.2020 H     1 <1>   0.0800 
 50 H       -4.8200    -2.8690     2.4920 H     1 <1>   0.0800 
 51 H       -7.6750    -1.0620    -0.9880 H     1 <1>   0.4000 
 52 H       -0.0560     8.2090     0.6040 H     1 <1>   0.1500 
@<TRIPOS>BOND
  1   1   2  2   
  2   2   3  am  
  3   2   4  1   
  4   3   5  1   
  5   3   6  1   
  6   4   7  1   
  7   4  24  1   
  8   4  25  1   
  9   5   8  1   
 10   5  26  1   
 11   5  27  1   
 12   6   9  1   
 13   6  28  1   
 14   6  29  1   
 15   7  10  1   
 16   7  30  1   
 17   7  31  1   
 18   8  11  1   
 19   8  12  1   
 20   8  32  1   
 21   9  12  1   
 22   9  33  1   
 23   9  34  1   
 24  10  13  ar  
 25  10  14  ar  
 26  11  15  1   
 27  11  16  1   
 28  11  35  1   
 29  12  17  1   
 30  12  18  1   
 31  13  19  ar  
 32  13  36  1   
 33  14  20  ar  
 34  14  37  1   
 35  15  21  1   
 36  15  38  1   
 37  15  39  1   
 38  16  40  1   
 39  16  41  1   
 40  16  42  1   
 41  17  21  1   
 42  17  43  1   
 43  17  44  1   
 44  18  22  1   
 45  18  45  1   
 46  18  46  1   
 47  19  23  ar  
 48  19  47  1   
 49  20  23  ar  
 50  20  48  1   
 51  21  49  1   
 52  21  50  1   
 53  22  51  1   
 54  23  52  1   
@<TRIPOS>SUBSTRUCTURE
  1 ****   3 GROUP 4 **** **** 0

# MOE 2024.06 (io_trps.svl 2023.06)
