@<TRIPOS>MOLECULE
NONAME
43 46 1 0 0 
SMALL
USER_CHARGES


@<TRIPOS>ATOM
  1 O        2.5360    -0.2340    -2.0090 O.2   1 <1>  -0.5700 
  2 C        1.9640    -0.9570    -1.2310 C.2   1 <1>   0.5690 
  3 N        1.8170    -0.6740     0.0910 N.am  1 <1>  -0.4940 
  4 C        1.3300    -2.2580    -1.7250 C.3   1 <1>   0.1710 
  5 C        2.0500     0.5030     0.8070 C.2   1 <1>   0.2500 
  6 N        0.2390    -2.7480    -0.8300 N.3   1 <1>  -0.8100 
  7 N        1.2710     0.8520     1.7820 N.2   1 <1>  -0.3380 
  8 N        3.0470     1.3940     0.6160 N.pl3 1 <1>   0.3340 
  9 C       -0.0430    -4.1770    -1.0660 C.3   1 <1>   0.2540 
 10 C       -0.9890    -1.9310    -0.9980 C.3   1 <1>   0.1100 
 11 N        1.7210     2.0100     2.2610 N.2   1 <1>  -0.3380 
 12 C        2.7760     2.3310     1.5700 C.2   1 <1>   0.3120 
 13 C        4.1910     1.5270    -0.1630 C.2   1 <1>  -0.1810 
 14 C       -0.6530    -4.8190     0.1680 C.ar  1 <1>  -0.1440 
 15 C       -2.0360    -2.1640     0.1010 C.3   1 <1>   0.1200 
 16 N        3.5500     3.4560     1.7560 N.2   1 <1>  -0.5760 
 17 C        4.9630     2.6250     0.0260 C.2   1 <1>  -0.1360 
 18 C       -1.9150    -4.4460     0.6170 C.ar  1 <1>   0.0820 
 19 C        0.0310    -5.8160     0.8490 C.ar  1 <1>  -0.1500 
 20 O       -2.6020    -3.4560     0.0130 O.3   1 <1>  -0.3630 
 21 C        4.5920     3.5860     1.0090 C.2   1 <1>   0.3750 
 22 C       -2.4960    -5.0800     1.7030 C.ar  1 <1>  -0.1500 
 23 C       -0.5420    -6.4410     1.9450 C.ar  1 <1>  -0.1500 
 24 C        5.4670     4.8070     1.1810 C.3   1 <1>  -0.1790 
 25 C       -1.8080    -6.0780     2.3690 C.ar  1 <1>  -0.1500 
 26 H        1.1970    -1.3440     0.5610 H     1 <1>   0.3700 
 27 H        2.1180    -2.9890    -1.7700 H     1 <1>   0.0800 
 28 H        0.9540    -2.1130    -2.7230 H     1 <1>   0.0800 
 29 H        0.8710    -4.6960    -1.2970 H     1 <1>   0.0800 
 30 H       -0.7080    -4.2960    -1.9040 H     1 <1>   0.0800 
 31 H       -1.4370    -2.1180    -1.9600 H     1 <1>   0.0800 
 32 H       -0.7270    -0.8880    -0.9640 H     1 <1>   0.0800 
 33 H        4.4050     0.7520    -0.8750 H     1 <1>   0.1500 
 34 H       -2.8400    -1.4610    -0.0130 H     1 <1>   0.0800 
 35 H       -1.6020    -2.0360     1.0780 H     1 <1>   0.0800 
 36 H        5.8570     2.7980    -0.5450 H     1 <1>   0.1500 
 37 H        1.0130    -6.1160     0.5290 H     1 <1>   0.1500 
 38 H       -3.4780    -4.7840     2.0210 H     1 <1>   0.1500 
 39 H       -0.0030    -7.2130     2.4650 H     1 <1>   0.1500 
 40 H        5.5080     5.3610     0.2620 H     1 <1>   0.0800 
 41 H        6.4590     4.5100     1.4640 H     1 <1>   0.0800 
 42 H        5.0660     5.4460     1.9490 H     1 <1>   0.0800 
 43 H       -2.2560    -6.5690     3.2160 H     1 <1>   0.1500 
@<TRIPOS>BOND
  1   1   2  2   
  2   2   3  am  
  3   2   4  1   
  4   3   5  1   
  5   3  26  1   
  6   4   6  1   
  7   4  27  1   
  8   4  28  1   
  9   5   7  2   
 10   5   8  1   
 11   6   9  1   
 12   6  10  1   
 13   7  11  1   
 14   8  12  1   
 15   8  13  1   
 16   9  14  1   
 17   9  29  1   
 18   9  30  1   
 19  10  15  1   
 20  10  31  1   
 21  10  32  1   
 22  11  12  2   
 23  12  16  1   
 24  13  17  2   
 25  13  33  1   
 26  14  18  ar  
 27  14  19  ar  
 28  15  20  1   
 29  15  34  1   
 30  15  35  1   
 31  16  21  2   
 32  17  21  1   
 33  17  36  1   
 34  18  20  1   
 35  18  22  ar  
 36  19  23  ar  
 37  19  37  1   
 38  21  24  1   
 39  22  25  ar  
 40  22  38  1   
 41  23  25  ar  
 42  23  39  1   
 43  24  40  1   
 44  24  41  1   
 45  24  42  1   
 46  25  43  1   
@<TRIPOS>SUBSTRUCTURE
  1 ****   3 GROUP 4 **** **** 0

# MOE 2024.06 (io_trps.svl 2023.06)
