@<TRIPOS>MOLECULE
NONAME
41 42 1 0 0 
SMALL
USER_CHARGES


@<TRIPOS>ATOM
  1 CL      -4.6440    -1.5390     2.1570 Cl    1 <1>  -0.1770 
  2 C       -4.0820    -0.0720     1.3910 C.ar  1 <1>   0.1770 
  3 C       -3.7740    -0.0430     0.0240 C.ar  1 <1>   0.0860 
  4 C       -3.9750     1.0480     2.1940 C.ar  1 <1>  -0.1500 
  5 C       -3.8630    -1.2040    -0.8360 C.2   1 <1>   0.5440 
  6 C       -3.3680     1.1830    -0.5140 C.ar  1 <1>  -0.1500 
  7 C       -3.5590     2.2290     1.6160 C.ar  1 <1>   0.1900 
  8 O       -4.3710    -1.1110    -1.9350 O.2   1 <1>  -0.5700 
  9 N       -3.3680    -2.4170    -0.4590 N.am  1 <1>  -0.7300 
 10 C       -3.2560     2.3180     0.2710 C.ar  1 <1>  -0.1500 
 11 F       -3.4530     3.2930     2.3600 F     1 <1>  -0.1900 
 12 C       -3.3750    -3.6500    -1.2840 C.3   1 <1>   0.2200 
 13 C       -4.5010    -4.5800    -0.8590 C.3   1 <1>  -0.0800 
 14 C       -2.1660    -4.4930    -0.9060 C.3   1 <1>   0.1200 
 15 C       -3.9010    -5.3090     0.3510 C.3   1 <1>   0.1200 
 16 C       -5.8510    -3.8870    -0.5870 C.3   1 <1>  -0.0550 
 17 O       -2.5180    -5.1050     0.2970 O.3   1 <1>  -0.5600 
 18 S       -7.1690    -5.0330    -0.1940 S.o2  1 <1>   1.3330 
 19 O       -7.3850    -5.8740    -1.3500 O.2   1 <1>  -0.6500 
 20 O       -6.9030    -5.6440     1.0890 O.2   1 <1>  -0.6500 
 21 N       -8.5180    -4.0190    -0.0110 N.am  1 <1>  -0.8490 
 22 C       -9.7760    -4.7230    -0.2690 C.3   1 <1>   0.1160 
 23 C       -8.5740    -3.3550     1.2960 C.3   1 <1>   0.1160 
 24 H       -4.2120     1.0050     3.2420 H     1 <1>   0.1500 
 25 H       -3.1400     1.2380    -1.5660 H     1 <1>   0.1500 
 26 H       -3.0160    -2.5640     0.4920 H     1 <1>   0.3700 
 27 H       -2.9400     3.2580    -0.1480 H     1 <1>   0.1500 
 28 H       -3.4000    -3.4100    -2.3340 H     1 <1>   0.0800 
 29 H       -4.6460    -5.3070    -1.6390 H     1 <1>   0.0800 
 30 H       -1.2730    -3.9080    -0.7710 H     1 <1>   0.0800 
 31 H       -1.9950    -5.2660    -1.6340 H     1 <1>   0.0800 
 32 H       -4.1010    -6.3670     0.3220 H     1 <1>   0.0800 
 33 H       -4.2540    -4.9010     1.2820 H     1 <1>   0.0800 
 34 H       -6.1290    -3.3260    -1.4590 H     1 <1>   0.0800 
 35 H       -5.7430    -3.1950     0.2220 H     1 <1>   0.0800 
 36 H      -10.6090    -4.0490    -0.1640 H     1 <1>   0.0800 
 37 H       -9.8940    -5.5440     0.4190 H     1 <1>   0.0800 
 38 H       -9.7820    -5.1100    -1.2740 H     1 <1>   0.0800 
 39 H       -9.3990    -2.6640     1.3240 H     1 <1>   0.0800 
 40 H       -7.6660    -2.8040     1.4740 H     1 <1>   0.0800 
 41 H       -8.6970    -4.0810     2.0830 H     1 <1>   0.0800 
@<TRIPOS>BOND
  1   1   2  1   
  2   2   3  ar  
  3   2   4  ar  
  4   3   5  1   
  5   3   6  ar  
  6   4   7  ar  
  7   4  24  1   
  8   5   8  2   
  9   5   9  am  
 10   6  10  ar  
 11   6  25  1   
 12   7  10  ar  
 13   7  11  1   
 14   9  12  1   
 15   9  26  1   
 16  10  27  1   
 17  12  13  1   
 18  12  14  1   
 19  12  28  1   
 20  13  15  1   
 21  13  16  1   
 22  13  29  1   
 23  14  17  1   
 24  14  30  1   
 25  14  31  1   
 26  15  17  1   
 27  15  32  1   
 28  15  33  1   
 29  16  18  1   
 30  16  34  1   
 31  16  35  1   
 32  18  19  2   
 33  18  20  2   
 34  18  21  am  
 35  21  22  1   
 36  21  23  1   
 37  22  36  1   
 38  22  37  1   
 39  22  38  1   
 40  23  39  1   
 41  23  40  1   
 42  23  41  1   
@<TRIPOS>SUBSTRUCTURE
  1 ****   9 GROUP 4 **** **** 0

# MOE 2024.06 (io_trps.svl 2023.06)
