@<TRIPOS>MOLECULE
NONAME
45 48 1 0 0 
SMALL
USER_CHARGES


@<TRIPOS>ATOM
  1 S       -1.3160     0.5590     0.9830 S.3   1 <1>  -0.0800 
  2 C       -0.6880     2.0190     0.2480 C.2   1 <1>  -0.1400 
  3 C        0.1830     0.3430     1.8770 C.2   1 <1>  -0.1100 
  4 C        0.5590     2.2870     0.6530 C.2   1 <1>  -0.1810 
  5 C       -1.4900     2.8500    -0.7170 C.3   1 <1>   0.0200 
  6 C        1.0590     1.3280     1.5960 C.2   1 <1>  -0.1500 
  7 C        1.3140     3.5100     0.1240 C.3   1 <1>   0.4610 
  8 C       -0.8160     4.2290    -0.7990 C.3   1 <1>   0.1200 
  9 O        0.5800     4.1030    -0.9340 O.3   1 <1>  -0.5600 
 10 C        1.5310     4.5460     1.2360 C.3   1 <1>  -0.1600 
 11 C        2.6560     3.0860    -0.4830 C.3   1 <1>  -0.1600 
 12 C        2.3600     5.7300     0.7450 C.3   1 <1>   0.2090 
 13 C        3.4590     4.2960    -0.9530 C.3   1 <1>   0.2090 
 14 N        3.6450     5.2190     0.1950 N.pl3 1 <1>  -0.8380 
 15 C        4.7760     6.0090     0.2490 C.ar  1 <1>   0.4100 
 16 N        4.6180     7.3140     0.3160 N.ar  1 <1>  -0.6200 
 17 C        6.0310     5.4470     0.2320 C.ar  1 <1>  -0.1500 
 18 C        5.7260     8.0280     0.3560 C.ar  1 <1>   0.7030 
 19 C        7.1080     6.2870     0.2760 C.ar  1 <1>   0.3930 
 20 O        5.5210     9.3570     0.4240 O.3   1 <1>  -0.3630 
 21 N        6.9820     7.5990     0.3370 N.ar  1 <1>  -0.6200 
 22 O        8.3410     5.7400     0.2570 O.3   1 <1>  -0.3630 
 23 C        6.5900    10.2810     0.4700 C.3   1 <1>   0.0400 
 24 C        9.4990     6.5490     0.3100 C.3   1 <1>   0.0400 
 25 H        0.2490    -0.5100     2.5280 H     1 <1>   0.1500 
 26 H       -2.5020     2.9590    -0.3710 H     1 <1>   0.0800 
 27 H       -1.5010     2.3810    -1.6840 H     1 <1>   0.0800 
 28 H        2.0440     1.4200     2.0190 H     1 <1>   0.1500 
 29 H       -1.0240     4.8020     0.0860 H     1 <1>   0.0800 
 30 H       -1.1810     4.7710    -1.6530 H     1 <1>   0.0800 
 31 H        2.0580     4.0830     2.0490 H     1 <1>   0.0800 
 32 H        0.5900     4.8860     1.6200 H     1 <1>   0.0800 
 33 H        2.4770     2.4200    -1.3070 H     1 <1>   0.0800 
 34 H        3.2370     2.5570     0.2470 H     1 <1>   0.0800 
 35 H        2.5520     6.4020     1.5650 H     1 <1>   0.0800 
 36 H        1.8320     6.2710    -0.0220 H     1 <1>   0.0800 
 37 H        2.9310     4.8100    -1.7400 H     1 <1>   0.0800 
 38 H        4.4110     3.9770    -1.3410 H     1 <1>   0.0800 
 39 H        6.1600     4.3860     0.1940 H     1 <1>   0.1500 
 40 H        6.1770    11.2720     0.5190 H     1 <1>   0.0800 
 41 H        7.1830    10.1720    -0.4210 H     1 <1>   0.0800 
 42 H        7.1830    10.0830     1.3450 H     1 <1>   0.0800 
 43 H       10.3610     5.9070     0.2840 H     1 <1>   0.0800 
 44 H        9.4860     7.1150     1.2240 H     1 <1>   0.0800 
 45 H        9.5030     7.2080    -0.5410 H     1 <1>   0.0800 
@<TRIPOS>BOND
  1   1   2  1   
  2   1   3  1   
  3   2   4  2   
  4   2   5  1   
  5   3   6  2   
  6   3  25  1   
  7   4   6  1   
  8   4   7  1   
  9   5   8  1   
 10   5  26  1   
 11   5  27  1   
 12   6  28  1   
 13   7   9  1   
 14   7  10  1   
 15   7  11  1   
 16   8   9  1   
 17   8  29  1   
 18   8  30  1   
 19  10  12  1   
 20  10  31  1   
 21  10  32  1   
 22  11  13  1   
 23  11  33  1   
 24  11  34  1   
 25  12  14  1   
 26  12  35  1   
 27  12  36  1   
 28  13  14  1   
 29  13  37  1   
 30  13  38  1   
 31  14  15  1   
 32  15  16  ar  
 33  15  17  ar  
 34  16  18  ar  
 35  17  19  ar  
 36  17  39  1   
 37  18  20  1   
 38  18  21  ar  
 39  19  21  ar  
 40  19  22  1   
 41  20  23  1   
 42  22  24  1   
 43  23  40  1   
 44  23  41  1   
 45  23  42  1   
 46  24  43  1   
 47  24  44  1   
 48  24  45  1   
@<TRIPOS>SUBSTRUCTURE
  1 ****  14 GROUP 4 **** **** 0

# MOE 2024.06 (io_trps.svl 2023.06)
