@<TRIPOS>MOLECULE
NONAME
43 45 1 0 0 
SMALL
USER_CHARGES


@<TRIPOS>ATOM
  1 F       -3.0750    -0.8570    -2.4120 F     1 <1>  -0.3400 
  2 C       -3.2050     0.1850    -1.6040 C.3   1 <1>   0.8800 
  3 F       -1.9890     0.4550    -1.1500 F     1 <1>  -0.3400 
  4 O       -4.0130    -0.2100    -0.5210 O.3   1 <1>  -0.3630 
  5 C       -4.5730     0.6770     0.3390 C.ar  1 <1>   0.0830 
  6 C       -5.3720     0.1650     1.3720 C.ar  1 <1>   0.0860 
  7 C       -4.3720     2.0520     0.2250 C.ar  1 <1>  -0.1500 
  8 C       -5.6130    -1.2520     1.5520 C.2   1 <1>   0.5440 
  9 C       -5.9460     1.0690     2.2650 C.ar  1 <1>  -0.1500 
 10 C       -4.9630     2.9230     1.1200 C.ar  1 <1>  -0.1500 
 11 O       -5.2970    -1.7880     2.5970 O.2   1 <1>  -0.5700 
 12 N       -6.2440    -2.0190     0.5990 N.am  1 <1>  -0.6600 
 13 C       -5.7520     2.4310     2.1430 C.ar  1 <1>  -0.1500 
 14 C       -6.9170    -1.5200    -0.6240 C.3   1 <1>   0.1400 
 15 C       -6.4540    -3.4790     0.7480 C.3   1 <1>   0.1400 
 16 C       -7.9320    -2.6100    -0.9590 C.3   1 <1>   0.2000 
 17 C       -7.2390    -3.8990    -0.5010 C.3   1 <1>  -0.0800 
 18 O       -9.0640    -2.3930    -0.1880 O.3   1 <1>  -0.6800 
 19 C       -8.1800    -5.0970    -0.2740 C.3   1 <1>   0.0200 
 20 C       -7.4390    -6.3900     0.0270 C.2   1 <1>  -0.0400 
 21 O       -8.1310    -7.4500     0.3470 O.3   1 <1>  -0.0190 
 22 C       -6.1400    -6.7330     0.0400 C.2   1 <1>  -0.1500 
 23 N       -7.3700    -8.4800     0.5760 N.2   1 <1>  -0.4100 
 24 C       -6.1630    -8.0770     0.4000 C.2   1 <1>   0.1080 
 25 C       -4.9400    -8.9510     0.5640 C.3   1 <1>  -0.0590 
 26 H       -3.5990     1.0240    -2.1500 H     1 <1>   0.0800 
 27 H       -3.7530     2.4780    -0.5430 H     1 <1>   0.1500 
 28 H       -6.5490     0.6860     3.0710 H     1 <1>   0.1500 
 29 H       -4.8070     3.9850     1.0290 H     1 <1>   0.1500 
 30 H       -6.2080     3.1070     2.8460 H     1 <1>   0.1500 
 31 H       -7.3890    -0.5650    -0.4670 H     1 <1>   0.0800 
 32 H       -6.1920    -1.4430    -1.4150 H     1 <1>   0.0800 
 33 H       -5.5070    -3.9860     0.8190 H     1 <1>   0.0800 
 34 H       -7.0210    -3.6620     1.6450 H     1 <1>   0.0800 
 35 H       -8.2190    -2.6200    -1.9970 H     1 <1>   0.0800 
 36 H       -6.5250    -4.1660    -1.2610 H     1 <1>   0.0800 
 37 H       -8.7860    -2.2430     0.7390 H     1 <1>   0.4000 
 38 H       -8.7820    -5.2490    -1.1530 H     1 <1>   0.0800 
 39 H       -8.8480    -4.8910     0.5440 H     1 <1>   0.0800 
 40 H       -5.2610    -6.1520    -0.1690 H     1 <1>   0.1500 
 41 H       -4.3030    -8.5450     1.3270 H     1 <1>   0.0800 
 42 H       -4.4000    -8.9990    -0.3630 H     1 <1>   0.0800 
 43 H       -5.2350    -9.9450     0.8480 H     1 <1>   0.0800 
@<TRIPOS>BOND
  1   1   2  1   
  2   2   3  1   
  3   2   4  1   
  4   2  26  1   
  5   4   5  1   
  6   5   6  ar  
  7   5   7  ar  
  8   6   8  1   
  9   6   9  ar  
 10   7  10  ar  
 11   7  27  1   
 12   8  11  2   
 13   8  12  am  
 14   9  13  ar  
 15   9  28  1   
 16  10  13  ar  
 17  10  29  1   
 18  12  14  1   
 19  12  15  1   
 20  13  30  1   
 21  14  16  1   
 22  14  31  1   
 23  14  32  1   
 24  15  17  1   
 25  15  33  1   
 26  15  34  1   
 27  16  17  1   
 28  16  18  1   
 29  16  35  1   
 30  17  19  1   
 31  17  36  1   
 32  18  37  1   
 33  19  20  1   
 34  19  38  1   
 35  19  39  1   
 36  20  21  1   
 37  20  22  2   
 38  21  23  1   
 39  22  24  1   
 40  22  40  1   
 41  23  24  2   
 42  24  25  1   
 43  25  41  1   
 44  25  42  1   
 45  25  43  1   
@<TRIPOS>SUBSTRUCTURE
  1 ****  12 GROUP 4 **** **** 0

# MOE 2024.06 (io_trps.svl 2023.06)
