@<TRIPOS>MOLECULE
NONAME
44 47 1 0 0 
SMALL
USER_CHARGES


@<TRIPOS>ATOM
  1 O        1.1210     0.4370     2.0140 O.2   1 <1>  -0.5700 
  2 C        2.0280     0.2440     1.2340 C.2   1 <1>   0.7150 
  3 N        2.3990    -1.0550     1.1010 N.am  1 <1>  -0.7300 
  4 C        2.6150     1.3510     0.5380 C.2   1 <1>  -0.2370 
  5 C        3.6120    -1.7300     0.5600 C.3   1 <1>   0.1400 
  6 N        3.4250     1.2900    -0.5450 N.pl3 1 <1>   0.3140 
  7 C        2.4740     2.6760     0.7980 C.2   1 <1>  -0.1500 
  8 C        4.5910    -0.8300    -0.2100 C.3   1 <1>   0.2000 
  9 N        3.8060     2.4990    -0.9710 N.2   1 <1>  -0.7070 
 10 C        3.9100     0.0830    -1.2260 C.3   1 <1>   0.0960 
 11 C        3.2260     3.3610    -0.1510 C.2   1 <1>   0.2030 
 12 O        5.4890    -1.6490    -0.8840 O.3   1 <1>  -0.6800 
 13 C        3.3680     4.8060    -0.2210 C.2   1 <1>   0.7160 
 14 O        2.8270     5.5550     0.5730 O.2   1 <1>  -0.5700 
 15 N        4.1570     5.3500    -1.1960 N.am  1 <1>  -0.7300 
 16 C        4.4410     6.7950    -1.3990 C.3   1 <1>   0.1400 
 17 C        5.2450     7.4010    -0.2380 C.3   1 <1>   0.2000 
 18 O        5.6210     8.7130    -0.6220 O.3   1 <1>  -0.3630 
 19 C        6.4980     6.5800     0.1170 C.3   1 <1>   0.1200 
 20 C        6.5930     9.3180     0.1070 C.ar  1 <1>   0.0830 
 21 O        7.2760     7.2430     1.0960 O.3   1 <1>  -0.3630 
 22 C        7.4080     8.5870     0.9730 C.ar  1 <1>   0.0830 
 23 C        6.7660    10.6860    -0.0160 C.ar  1 <1>  -0.1500 
 24 C        8.3770     9.2340     1.7200 C.ar  1 <1>  -0.1500 
 25 C        7.7410    11.3290     0.7300 C.ar  1 <1>  -0.1500 
 26 C        8.5440    10.6040     1.5980 C.ar  1 <1>  -0.1500 
 27 H        1.8090    -1.6640     1.6740 H     1 <1>   0.3700 
 28 H        3.2780    -2.5170    -0.0930 H     1 <1>   0.0800 
 29 H        4.1430    -2.1820     1.3810 H     1 <1>   0.0800 
 30 H        1.8950     3.1350     1.5820 H     1 <1>   0.1500 
 31 H        5.1750    -0.2430     0.4790 H     1 <1>   0.0800 
 32 H        4.6190     0.3910    -1.9740 H     1 <1>   0.0800 
 33 H        3.0790    -0.4070    -1.6980 H     1 <1>   0.0800 
 34 H        5.0470    -2.1960    -1.5640 H     1 <1>   0.4000 
 35 H        4.5500     4.6780    -1.8630 H     1 <1>   0.3700 
 36 H        3.5080     7.3240    -1.4900 H     1 <1>   0.0800 
 37 H        4.9950     6.9130    -2.3130 H     1 <1>   0.0800 
 38 H        4.6140     7.4870     0.6290 H     1 <1>   0.0800 
 39 H        7.1120     6.4370    -0.7540 H     1 <1>   0.0800 
 40 H        6.2240     5.6200     0.5150 H     1 <1>   0.0800 
 41 H        6.1380    11.2400    -0.6890 H     1 <1>   0.1500 
 42 H        8.9950     8.6630     2.3890 H     1 <1>   0.1500 
 43 H        7.8750    12.3920     0.6360 H     1 <1>   0.1500 
 44 H        9.2980    11.1060     2.1780 H     1 <1>   0.1500 
@<TRIPOS>BOND
  1   1   2  2   
  2   2   3  am  
  3   2   4  1   
  4   3   5  1   
  5   3  27  1   
  6   4   6  1   
  7   4   7  2   
  8   5   8  1   
  9   5  28  1   
 10   5  29  1   
 11   6   9  1   
 12   6  10  1   
 13   7  11  1   
 14   7  30  1   
 15   8  10  1   
 16   8  12  1   
 17   8  31  1   
 18   9  11  2   
 19  10  32  1   
 20  10  33  1   
 21  11  13  1   
 22  12  34  1   
 23  13  14  2   
 24  13  15  am  
 25  15  16  1   
 26  15  35  1   
 27  16  17  1   
 28  16  36  1   
 29  16  37  1   
 30  17  18  1   
 31  17  19  1   
 32  17  38  1   
 33  18  20  1   
 34  19  21  1   
 35  19  39  1   
 36  19  40  1   
 37  20  22  ar  
 38  20  23  ar  
 39  21  22  1   
 40  22  24  ar  
 41  23  25  ar  
 42  23  41  1   
 43  24  26  ar  
 44  24  42  1   
 45  25  26  ar  
 46  25  43  1   
 47  26  44  1   
@<TRIPOS>SUBSTRUCTURE
  1 ****  13 GROUP 4 **** **** 0

# MOE 2024.06 (io_trps.svl 2023.06)
