@<TRIPOS>MOLECULE
NONAME
50 52 1 0 0 
SMALL
USER_CHARGES


@<TRIPOS>ATOM
  1 O        1.7300     0.7460     2.7390 O.co2 1 <1>  -0.9000 
  2 C        1.9250     0.0920     1.7120 C.2   1 <1>   0.9060 
  3 O        1.9100    -1.1460     1.7010 O.co2 1 <1>  -0.9000 
  4 C        2.2680     0.8190     0.4000 C.3   1 <1>  -0.1060 
  5 C        3.5610     0.1250    -0.0950 C.3   1 <1>   0.2000 
  6 C        2.5820     2.3200     0.6820 C.3   1 <1>  -0.1600 
  7 C        1.0190     0.6690    -0.5310 C.3   1 <1>  -0.1600 
  8 O        3.2720    -1.1230    -0.6030 O.3   1 <1>  -0.6800 
  9 C        4.3490     0.9090    -1.1480 C.3   1 <1>   0.3430 
 10 C        3.3720     3.0450    -0.4040 C.3   1 <1>   0.3430 
 11 C        1.0730     1.2220    -1.9650 C.3   1 <1>  -0.1600 
 12 N        4.6340     2.3070    -0.6910 N.4   1 <1>  -0.9590 
 13 C       -0.2280     0.9060    -2.7080 C.3   1 <1>  -0.2400 
 14 C        5.5040     3.0230    -1.6570 C.3   1 <1>   0.4860 
 15 C        5.9130     4.3560    -1.0610 C.ar  1 <1>  -0.1440 
 16 C        6.8590     4.4300    -0.0710 C.ar  1 <1>  -0.1500 
 17 C        5.3110     5.5350    -1.5270 C.ar  1 <1>  -0.1500 
 18 C        7.2350     5.6610     0.5000 C.ar  1 <1>   0.0000 
 19 C        5.6590     6.7430    -0.9920 C.ar  1 <1>  -0.1500 
 20 C        6.6220     6.8440     0.0320 C.ar  1 <1>   0.0000 
 21 C        8.2020     5.7560     1.5240 C.ar  1 <1>  -0.1500 
 22 C        6.9960     8.0770     0.6010 C.ar  1 <1>  -0.1500 
 23 C        8.5470     6.9640     2.0610 C.ar  1 <1>  -0.1500 
 24 C        7.9370     8.1320     1.5940 C.ar  1 <1>   0.0820 
 25 O        8.3010     9.3000     2.1430 O.3   1 <1>  -0.5330 
 26 H        4.2100    -0.0380     0.7500 H     1 <1>   0.0800 
 27 H        3.1550     2.3980     1.5910 H     1 <1>   0.0800 
 28 H        1.6610     2.8450     0.8670 H     1 <1>   0.0800 
 29 H        0.7800    -0.3810    -0.5960 H     1 <1>   0.0800 
 30 H        0.1820     1.1220    -0.0270 H     1 <1>   0.0800 
 31 H        2.7130    -1.5660     0.1020 H     1 <1>   0.4000 
 32 H        3.7840     0.9330    -2.0610 H     1 <1>   0.0800 
 33 H        5.2730     0.3860    -1.3320 H     1 <1>   0.0800 
 34 H        3.6000     4.0410    -0.0580 H     1 <1>   0.0800 
 35 H        2.7870     3.1310    -1.3000 H     1 <1>   0.0800 
 36 H        1.1920     2.2880    -1.9560 H     1 <1>   0.0800 
 37 H        1.8810     0.7700    -2.5080 H     1 <1>   0.0800 
 38 H        5.1390     2.2530     0.2030 H     1 <1>   0.4500 
 39 H       -1.0690     1.3460    -2.2010 H     1 <1>   0.0800 
 40 H       -0.3790    -0.1590    -2.7620 H     1 <1>   0.0800 
 41 H       -0.1890     1.2950    -3.7100 H     1 <1>   0.0800 
 42 H        6.3880     2.4390    -1.8570 H     1 <1>   0.0800 
 43 H        4.9810     3.1780    -2.5870 H     1 <1>   0.0800 
 44 H        7.3470     3.5460     0.3010 H     1 <1>   0.1500 
 45 H        4.5740     5.4910    -2.3120 H     1 <1>   0.1500 
 46 H        5.2000     7.6490    -1.3480 H     1 <1>   0.1500 
 47 H        8.6710     4.8570     1.8810 H     1 <1>   0.1500 
 48 H        6.5270     8.9730     0.2400 H     1 <1>   0.1500 
 49 H        9.2830     7.0470     2.8420 H     1 <1>   0.1500 
 50 H        7.8430    10.0690     1.7620 H     1 <1>   0.4500 
@<TRIPOS>BOND
  1   1   2  ar  
  2   2   3  ar  
  3   2   4  1   
  4   4   5  1   
  5   4   6  1   
  6   4   7  1   
  7   5   8  1   
  8   5   9  1   
  9   5  26  1   
 10   6  10  1   
 11   6  27  1   
 12   6  28  1   
 13   7  11  1   
 14   7  29  1   
 15   7  30  1   
 16   8  31  1   
 17   9  12  1   
 18   9  32  1   
 19   9  33  1   
 20  10  12  1   
 21  10  34  1   
 22  10  35  1   
 23  11  13  1   
 24  11  36  1   
 25  11  37  1   
 26  12  14  1   
 27  12  38  1   
 28  13  39  1   
 29  13  40  1   
 30  13  41  1   
 31  14  15  1   
 32  14  42  1   
 33  14  43  1   
 34  15  16  ar  
 35  15  17  ar  
 36  16  18  ar  
 37  16  44  1   
 38  17  19  ar  
 39  17  45  1   
 40  18  20  ar  
 41  18  21  ar  
 42  19  20  ar  
 43  19  46  1   
 44  20  22  ar  
 45  21  23  ar  
 46  21  47  1   
 47  22  24  ar  
 48  22  48  1   
 49  23  24  ar  
 50  23  49  1   
 51  24  25  1   
 52  25  50  1   
@<TRIPOS>SUBSTRUCTURE
  1 ****  10 GROUP 4 **** **** 0

# MOE 2024.06 (io_trps.svl 2023.06)
