@<TRIPOS>MOLECULE
NONAME
46 48 1 0 0 
SMALL
USER_CHARGES


@<TRIPOS>ATOM
  1 CL      -0.0790    -0.3520     1.7890 Cl    1 <1>  -0.1230 
  2 C       -0.9100    -1.6800     1.0010 C.2   1 <1>   0.1230 
  3 C       -0.3830    -2.5490     0.1070 C.2   1 <1>  -0.3020 
  4 C       -2.2410    -2.0090     1.2060 C.2   1 <1>  -0.1500 
  5 N       -1.3530    -3.4250    -0.2600 N.pl3 1 <1>   0.0480 
  6 C       -2.5160    -3.0950     0.4070 C.2   1 <1>  -0.2370 
  7 C       -1.1650    -4.5340    -1.2150 C.3   1 <1>   0.0160 
  8 C       -3.7580    -3.8130     0.2590 C.2   1 <1>   0.7150 
  9 O       -3.7480    -5.0250     0.1290 O.2   1 <1>  -0.5700 
 10 N       -4.9710    -3.1610     0.2460 N.am  1 <1>  -0.6600 
 11 C       -6.2400    -3.9340     0.3800 C.3   1 <1>   0.1400 
 12 C       -5.0930    -1.7060    -0.0560 C.3   1 <1>   0.1400 
 13 C       -7.3590    -3.0430     0.9280 C.3   1 <1>  -0.1600 
 14 C       -6.3980    -1.4430    -0.8050 C.3   1 <1>  -0.1600 
 15 C       -7.6230    -1.7790     0.0720 C.3   1 <1>   0.2800 
 16 O       -7.7810    -0.7440     1.0080 O.3   1 <1>  -0.5600 
 17 C       -8.8980    -1.9380    -0.7990 C.3   1 <1>  -0.1600 
 18 C       -8.4320     0.4400     0.6200 C.3   1 <1>   0.1200 
 19 C      -10.1420    -1.3200    -0.1510 C.3   1 <1>   0.2800 
 20 C       -9.8610     0.1840     0.1030 C.3   1 <1>   0.2000 
 21 O      -11.1760    -1.4130    -1.0640 O.3   1 <1>  -0.6800 
 22 C      -10.6170    -2.1020     1.0850 C.3   1 <1>  -0.2400 
 23 O      -10.7960     0.7390     0.9740 O.3   1 <1>  -0.6800 
 24 H        0.6220    -2.5830    -0.2720 H     1 <1>   0.1500 
 25 H       -2.9050    -1.4940     1.8770 H     1 <1>   0.1500 
 26 H       -0.1980    -4.4580    -1.6770 H     1 <1>   0.0800 
 27 H       -1.9280    -4.4900    -1.9700 H     1 <1>   0.0800 
 28 H       -1.2390    -5.4680    -0.6880 H     1 <1>   0.0800 
 29 H       -6.5150    -4.3250    -0.5840 H     1 <1>   0.0800 
 30 H       -6.0840    -4.7660     1.0470 H     1 <1>   0.0800 
 31 H       -5.0860    -1.1480     0.8650 H     1 <1>   0.0800 
 32 H       -4.2620    -1.3860    -0.6610 H     1 <1>   0.0800 
 33 H       -7.0720    -2.7540     1.9250 H     1 <1>   0.0800 
 34 H       -8.2480    -3.6370     1.0210 H     1 <1>   0.0800 
 35 H       -6.4000    -2.0530    -1.6910 H     1 <1>   0.0800 
 36 H       -6.4300    -0.4210    -1.1300 H     1 <1>   0.0800 
 37 H       -8.7350    -1.4370    -1.7370 H     1 <1>   0.0800 
 38 H       -9.0610    -2.9750    -1.0280 H     1 <1>   0.0800 
 39 H       -8.4580     1.0920     1.4750 H     1 <1>   0.0800 
 40 H       -7.8450     0.9110    -0.1470 H     1 <1>   0.0800 
 41 H       -9.9630     0.7150    -0.8270 H     1 <1>   0.0800 
 42 H      -11.4340    -2.3470    -1.1680 H     1 <1>   0.4000 
 43 H       -9.9200    -1.9740     1.8930 H     1 <1>   0.0800 
 44 H      -10.6980    -3.1510     0.8700 H     1 <1>   0.0800 
 45 H      -11.5710    -1.7380     1.4230 H     1 <1>   0.0800 
 46 H      -11.6890     0.4960     0.6560 H     1 <1>   0.4000 
@<TRIPOS>BOND
  1   1   2  1   
  2   2   3  2   
  3   2   4  1   
  4   3   5  1   
  5   3  24  1   
  6   4   6  2   
  7   4  25  1   
  8   5   6  1   
  9   5   7  1   
 10   6   8  1   
 11   7  26  1   
 12   7  27  1   
 13   7  28  1   
 14   8   9  2   
 15   8  10  am  
 16  10  11  1   
 17  10  12  1   
 18  11  13  1   
 19  11  29  1   
 20  11  30  1   
 21  12  14  1   
 22  12  31  1   
 23  12  32  1   
 24  13  15  1   
 25  13  33  1   
 26  13  34  1   
 27  14  15  1   
 28  14  35  1   
 29  14  36  1   
 30  15  16  1   
 31  15  17  1   
 32  16  18  1   
 33  17  19  1   
 34  17  37  1   
 35  17  38  1   
 36  18  20  1   
 37  18  39  1   
 38  18  40  1   
 39  19  20  1   
 40  19  21  1   
 41  19  22  1   
 42  20  23  1   
 43  20  41  1   
 44  21  42  1   
 45  22  43  1   
 46  22  44  1   
 47  22  45  1   
 48  23  46  1   
@<TRIPOS>SUBSTRUCTURE
  1 ****  12 GROUP 4 **** **** 0

# MOE 2024.06 (io_trps.svl 2023.06)
