@<TRIPOS>MOLECULE
NONAME
38 38 1 0 0 
SMALL
USER_CHARGES


@<TRIPOS>ATOM
  1 F        0.2010     0.5510    -0.2430 F     1 <1>  -0.3400 
  2 C        1.3880     0.1630     0.1870 C.3   1 <1>   1.0200 
  3 F        1.3410     0.1280     1.5080 F     1 <1>  -0.3400 
  4 F        1.5510    -1.0930    -0.2070 F     1 <1>  -0.3400 
  5 C        2.5210     1.0470    -0.3240 C.3   1 <1>  -0.1600 
  6 C        3.8720     0.7440     0.3470 C.3   1 <1>   0.2200 
  7 N        4.8940     1.6930    -0.2000 N.am  1 <1>  -0.6600 
  8 C        4.3530    -0.7300     0.2040 C.3   1 <1>   0.3430 
  9 C        5.1180     2.9010     0.4100 C.2   1 <1>   0.7800 
 10 C        5.7230     1.1890    -1.3420 C.3   1 <1>   0.1400 
 11 N        5.8530    -0.8290     0.2010 N.4   1 <1>  -0.9060 
 12 O        4.4590     3.2480     1.3660 O.2   1 <1>  -0.5700 
 13 O        6.0990     3.6570    -0.0790 O.3   1 <1>  -0.4300 
 14 C        6.4800    -0.1050    -0.9610 C.3   1 <1>   0.3430 
 15 C        6.4910     4.9400     0.3650 C.3   1 <1>   0.2800 
 16 C        7.0060     4.8680     1.8070 C.3   1 <1>  -0.2400 
 17 C        7.6370     5.3520    -0.5600 C.3   1 <1>  -0.2400 
 18 C        5.3330     5.9330     0.2070 C.3   1 <1>  -0.2400 
 19 H        2.2520     2.0670    -0.1130 H     1 <1>   0.0800 
 20 H        2.5890     0.9300    -1.3890 H     1 <1>   0.0800 
 21 H        3.7650     0.9350     1.4030 H     1 <1>   0.0800 
 22 H        3.9700    -1.1360    -0.7180 H     1 <1>   0.0800 
 23 H        3.9390    -1.3150     1.0100 H     1 <1>   0.0800 
 24 H        6.4310     1.9290    -1.6730 H     1 <1>   0.0800 
 25 H        5.0740     0.9870    -2.1770 H     1 <1>   0.0800 
 26 H        6.1640    -1.8090     0.2360 H     1 <1>   0.4500 
 27 H        6.1880    -0.3720     1.0610 H     1 <1>   0.4500 
 28 H        7.4980     0.1500    -0.7140 H     1 <1>   0.0800 
 29 H        6.5120    -0.7490    -1.8250 H     1 <1>   0.0800 
 30 H        7.7710     4.1190     1.8990 H     1 <1>   0.0800 
 31 H        6.2100     4.6520     2.4960 H     1 <1>   0.0800 
 32 H        7.4260     5.8160     2.0910 H     1 <1>   0.0800 
 33 H        8.4540     4.6590    -0.4780 H     1 <1>   0.0800 
 34 H        7.9970     6.3290    -0.2930 H     1 <1>   0.0800 
 35 H        7.3010     5.3840    -1.5810 H     1 <1>   0.0800 
 36 H        4.5360     5.7170     0.8940 H     1 <1>   0.0800 
 37 H        4.9510     5.9090    -0.7980 H     1 <1>   0.0800 
 38 H        5.6760     6.9300     0.4150 H     1 <1>   0.0800 
@<TRIPOS>BOND
  1   1   2  1   
  2   2   3  1   
  3   2   4  1   
  4   2   5  1   
  5   5   6  1   
  6   5  19  1   
  7   5  20  1   
  8   6   7  1   
  9   6   8  1   
 10   6  21  1   
 11   7   9  am  
 12   7  10  1   
 13   8  11  1   
 14   8  22  1   
 15   8  23  1   
 16   9  12  2   
 17   9  13  1   
 18  10  14  1   
 19  10  24  1   
 20  10  25  1   
 21  11  14  1   
 22  11  26  1   
 23  11  27  1   
 24  13  15  1   
 25  14  28  1   
 26  14  29  1   
 27  15  16  1   
 28  15  17  1   
 29  15  18  1   
 30  16  30  1   
 31  16  31  1   
 32  16  32  1   
 33  17  33  1   
 34  17  34  1   
 35  17  35  1   
 36  18  36  1   
 37  18  37  1   
 38  18  38  1   
@<TRIPOS>SUBSTRUCTURE
  1 ****   7 GROUP 4 **** **** 0

# MOE 2024.06 (io_trps.svl 2023.06)
