@<TRIPOS>MOLECULE
NONAME
42 43 1 0 0 
SMALL
USER_CHARGES


@<TRIPOS>ATOM
  1 N       -0.5330    -0.4000    -0.6670 N.ar  1 <1>  -0.6200 
  2 C       -1.4480    -1.2420    -0.2190 C.ar  1 <1>   0.4100 
  3 C        0.6580    -0.9720    -0.7970 C.ar  1 <1>   0.1600 
  4 N       -2.7380    -0.7170    -0.0330 N.pl3 1 <1>  -0.8380 
  5 C       -1.1650    -2.6160     0.0810 C.ar  1 <1>   0.4100 
  6 C        0.9270    -2.2960    -0.5050 C.ar  1 <1>   0.1600 
  7 C       -3.2160     0.2910    -1.0190 C.3   1 <1>   0.1290 
  8 C       -3.0670    -0.3620     1.3720 C.3   1 <1>   0.1290 
  9 N        0.0280    -3.1650    -0.0600 N.ar  1 <1>  -0.6200 
 10 N       -2.1820    -3.4450     0.5370 N.pl3 1 <1>  -0.8690 
 11 C       -2.2070    -4.8620     0.1310 C.3   1 <1>   0.2090 
 12 C       -3.5780    -5.4450     0.4660 C.3   1 <1>  -0.1600 
 13 C       -3.6670    -6.9260     0.0690 C.3   1 <1>  -0.1600 
 14 C       -5.0400    -7.5170     0.4090 C.3   1 <1>  -0.0170 
 15 C       -5.1080    -8.9780    -0.0060 C.ar  1 <1>  -0.1430 
 16 C       -4.7240    -9.9750     0.8770 C.ar  1 <1>  -0.1500 
 17 C       -5.5530    -9.3260    -1.2720 C.ar  1 <1>  -0.1500 
 18 C       -4.7860   -11.3060     0.5010 C.ar  1 <1>  -0.1500 
 19 C       -5.6160   -10.6570    -1.6500 C.ar  1 <1>  -0.1500 
 20 C       -5.2320   -11.6480    -0.7640 C.ar  1 <1>  -0.1500 
 21 H        1.4570    -0.3470    -1.1540 H     1 <1>   0.1500 
 22 H        1.9270    -2.6660    -0.6420 H     1 <1>   0.1500 
 23 H       -2.9190    -0.0020    -2.0120 H     1 <1>   0.0800 
 24 H       -2.7860     1.2530    -0.8000 H     1 <1>   0.0800 
 25 H       -4.2880     0.3610    -0.9840 H     1 <1>   0.0800 
 26 H       -2.6590    -1.0960     2.0460 H     1 <1>   0.0800 
 27 H       -4.1340    -0.3270     1.5020 H     1 <1>   0.0800 
 28 H       -2.6460     0.5990     1.6140 H     1 <1>   0.0800 
 29 H       -3.0780    -2.9650     0.3960 H     1 <1>   0.4000 
 30 H       -1.4340    -5.3930     0.6610 H     1 <1>   0.0800 
 31 H       -2.0130    -4.9370    -0.9260 H     1 <1>   0.0800 
 32 H       -4.3340    -4.8890    -0.0580 H     1 <1>   0.0800 
 33 H       -3.7460    -5.3480     1.5250 H     1 <1>   0.0800 
 34 H       -2.9060    -7.4850     0.5850 H     1 <1>   0.0800 
 35 H       -3.4930    -7.0270    -0.9890 H     1 <1>   0.0800 
 36 H       -5.8120    -6.9640    -0.0980 H     1 <1>   0.0800 
 37 H       -5.2200    -7.4350     1.4660 H     1 <1>   0.0800 
 38 H       -4.3740    -9.7190     1.8620 H     1 <1>   0.1500 
 39 H       -5.8510    -8.5630    -1.9680 H     1 <1>   0.1500 
 40 H       -4.4870   -12.0750     1.1910 H     1 <1>   0.1500 
 41 H       -5.9630   -10.9200    -2.6340 H     1 <1>   0.1500 
 42 H       -5.2820   -12.6820    -1.0570 H     1 <1>   0.1500 
@<TRIPOS>BOND
  1   1   2  ar  
  2   1   3  ar  
  3   2   4  1   
  4   2   5  ar  
  5   3   6  ar  
  6   3  21  1   
  7   4   7  1   
  8   4   8  1   
  9   5   9  ar  
 10   5  10  1   
 11   6   9  ar  
 12   6  22  1   
 13   7  23  1   
 14   7  24  1   
 15   7  25  1   
 16   8  26  1   
 17   8  27  1   
 18   8  28  1   
 19  10  11  1   
 20  10  29  1   
 21  11  12  1   
 22  11  30  1   
 23  11  31  1   
 24  12  13  1   
 25  12  32  1   
 26  12  33  1   
 27  13  14  1   
 28  13  34  1   
 29  13  35  1   
 30  14  15  1   
 31  14  36  1   
 32  14  37  1   
 33  15  16  ar  
 34  15  17  ar  
 35  16  18  ar  
 36  16  38  1   
 37  17  19  ar  
 38  17  39  1   
 39  18  20  ar  
 40  18  40  1   
 41  19  20  ar  
 42  19  41  1   
 43  20  42  1   
@<TRIPOS>SUBSTRUCTURE
  1 ****  11 GROUP 4 **** **** 0

# MOE 2024.06 (io_trps.svl 2023.06)
