@<TRIPOS>MOLECULE
NONAME
47 49 1 0 0 
SMALL
USER_CHARGES


@<TRIPOS>ATOM
  1 S        0.4750    -1.0810     0.6770 S.o2  1 <1>   1.5010 
  2 O       -0.4440    -0.8680     1.7730 O.2   1 <1>  -0.6500 
  3 O        1.4260    -2.1680     0.7520 O.2   1 <1>  -0.6500 
  4 N       -0.4460    -1.3180    -0.7300 N.am  1 <1>  -0.8490 
  5 C        1.3440     0.4510     0.3230 C.2   1 <1>  -0.0630 
  6 C       -1.5730    -0.3720    -0.8930 C.3   1 <1>   0.1960 
  7 C       -0.9320    -2.7020    -0.8850 C.3   1 <1>   0.1960 
  8 C        1.2700     1.5870     1.1180 C.2   1 <1>   0.1390 
  9 C        2.1690     0.8210    -0.6890 C.2   1 <1>  -0.3020 
 10 C       -2.8470    -0.7540    -0.0970 C.3   1 <1>   0.2950 
 11 C       -2.1790    -3.0010    -0.0180 C.3   1 <1>   0.2000 
 12 N        1.9710     2.5740     0.6500 N.2   1 <1>  -0.7070 
 13 N        2.5340     2.0960    -0.4690 N.pl3 1 <1>   0.3140 
 14 O       -3.1890    -2.0880    -0.3350 O.3   1 <1>  -0.5600 
 15 C       -4.0430     0.1070    -0.5160 C.3   1 <1>  -0.1950 
 16 C       -2.7600    -4.4000    -0.2570 C.3   1 <1>  -0.1600 
 17 C        3.4250     2.9210    -1.2930 C.3   1 <1>   0.0160 
 18 C       -4.2820     1.4480     0.1040 C.3   1 <1>  -0.2000 
 19 C       -5.2120     0.3040     0.3960 C.3   1 <1>  -0.2000 
 20 C       -1.8190    -5.5270     0.1990 C.3   1 <1>  -0.1600 
 21 C       -2.4830    -6.8980     0.0330 C.3   1 <1>  -0.1600 
 22 C       -1.5470    -8.0220     0.4840 C.3   1 <1>  -0.2400 
 23 H       -1.2660     0.6220    -0.6170 H     1 <1>   0.0800 
 24 H       -1.8360    -0.3400    -1.9360 H     1 <1>   0.0800 
 25 H       -1.1930    -2.8630    -1.9170 H     1 <1>   0.0800 
 26 H       -0.1440    -3.3950    -0.6500 H     1 <1>   0.0800 
 27 H        0.6920     1.6490     2.0270 H     1 <1>   0.1500 
 28 H        2.5020     0.2440    -1.5320 H     1 <1>   0.1500 
 29 H       -2.6890    -0.6350     0.9600 H     1 <1>   0.0800 
 30 H       -1.9440    -2.8940     1.0280 H     1 <1>   0.0800 
 31 H       -4.2590     0.0090    -1.5660 H     1 <1>   0.1000 
 32 H       -3.6810    -4.4770     0.2950 H     1 <1>   0.0800 
 33 H       -2.9850    -4.5180    -1.3030 H     1 <1>   0.0800 
 34 H        3.7650     2.3540    -2.1380 H     1 <1>   0.0800 
 35 H        4.2640     3.2270    -0.6970 H     1 <1>   0.0800 
 36 H        2.8860     3.7880    -1.6260 H     1 <1>   0.0800 
 37 H       -3.6400     1.7930     0.8980 H     1 <1>   0.1000 
 38 H       -4.6370     2.2530    -0.5160 H     1 <1>   0.1000 
 39 H       -6.1990     0.3080    -0.0340 H     1 <1>   0.1000 
 40 H       -5.1890    -0.1570     1.3680 H     1 <1>   0.1000 
 41 H       -0.9110    -5.5080    -0.3790 H     1 <1>   0.0800 
 42 H       -1.5600    -5.3800     1.2340 H     1 <1>   0.0800 
 43 H       -3.3870    -6.9350     0.6180 H     1 <1>   0.0800 
 44 H       -2.7480    -7.0500    -1.0000 H     1 <1>   0.0800 
 45 H       -1.2860    -7.9010     1.5210 H     1 <1>   0.0800 
 46 H       -0.6450    -8.0190    -0.1030 H     1 <1>   0.0800 
 47 H       -2.0310    -8.9750     0.3630 H     1 <1>   0.0800 
@<TRIPOS>BOND
  1   1   2  2   
  2   1   3  2   
  3   1   4  am  
  4   1   5  1   
  5   4   6  1   
  6   4   7  1   
  7   5   8  1   
  8   5   9  2   
  9   6  10  1   
 10   6  23  1   
 11   6  24  1   
 12   7  11  1   
 13   7  25  1   
 14   7  26  1   
 15   8  12  2   
 16   8  27  1   
 17   9  13  1   
 18   9  28  1   
 19  10  14  1   
 20  10  15  1   
 21  10  29  1   
 22  11  14  1   
 23  11  16  1   
 24  11  30  1   
 25  12  13  1   
 26  13  17  1   
 27  15  18  1   
 28  15  19  1   
 29  15  31  1   
 30  16  20  1   
 31  16  32  1   
 32  16  33  1   
 33  17  34  1   
 34  17  35  1   
 35  17  36  1   
 36  18  19  1   
 37  18  37  1   
 38  18  38  1   
 39  19  39  1   
 40  19  40  1   
 41  20  21  1   
 42  20  41  1   
 43  20  42  1   
 44  21  22  1   
 45  21  43  1   
 46  21  44  1   
 47  22  45  1   
 48  22  46  1   
 49  22  47  1   
@<TRIPOS>SUBSTRUCTURE
  1 ****   4 GROUP 4 **** **** 0

# MOE 2024.06 (io_trps.svl 2023.06)
