@<TRIPOS>MOLECULE
NONAME
64 68 1 0 0 
SMALL
USER_CHARGES


@<TRIPOS>ATOM
  1 O       -5.8660     0.2610    -0.7410 O.2   1 <1>  -0.5700 
  2 C       -4.6640     0.1800    -0.6390 C.2   1 <1>   0.5690 
  3 N       -3.9510    -0.8460    -1.2070 N.am  1 <1>  -0.6600 
  4 C       -3.9620     1.2510     0.1810 C.3   1 <1>  -0.0990 
  5 C       -2.4700    -0.9740    -1.1270 C.3   1 <1>   0.1400 
  6 C       -4.6280    -1.8750    -2.0350 C.3   1 <1>   0.1400 
  7 C       -2.4440     1.3010    -0.0360 C.3   1 <1>  -0.1600 
  8 C       -1.8790    -0.1200    -0.0010 C.3   1 <1>  -0.1600 
  9 C       -5.0830    -3.0230    -1.1340 C.3   1 <1>  -0.1600 
 10 C       -5.8160    -4.1140    -1.9300 C.3   1 <1>  -0.0990 
 11 C       -6.3960    -5.1710    -1.0040 C.2   1 <1>   0.5690 
 12 O       -5.7100    -6.1420    -0.7880 O.2   1 <1>  -0.5700 
 13 N       -7.6310    -5.0160    -0.4250 N.am  1 <1>  -0.6600 
 14 C       -8.5170    -3.8150    -0.6120 C.3   1 <1>   0.1400 
 15 C       -8.1240    -6.0630     0.5210 C.3   1 <1>   0.1400 
 16 C       -9.2210    -3.4100     0.6980 C.3   1 <1>   0.1430 
 17 C       -9.6380    -5.9640     0.7330 C.3   1 <1>  -0.1600 
 18 C      -10.0320    -2.1550     0.4120 C.ar  1 <1>   0.1670 
 19 C      -10.0850    -4.5800     1.2440 C.3   1 <1>  -0.1600 
 20 C       -8.1880    -2.8930     1.7400 C.3   1 <1>  -0.1600 
 21 N      -11.1710    -2.1120    -0.2370 N.ar  1 <1>  -0.6200 
 22 C       -9.4130    -1.0400     0.8880 C.ar  1 <1>  -0.1440 
 23 C       -8.1100    -1.3660     1.5720 C.3   1 <1>  -0.0170 
 24 C      -11.7120    -0.8960    -0.3930 C.ar  1 <1>   0.6200 
 25 C      -10.0220     0.1690     0.6770 C.ar  1 <1>   0.1600 
 26 N      -11.1720     0.2500     0.0470 N.ar  1 <1>  -0.6200 
 27 C      -12.9860    -0.8140    -1.0970 C.ar  1 <1>   0.0000 
 28 C      -13.3690    -1.7750    -2.0390 C.ar  1 <1>  -0.1500 
 29 C      -13.8890     0.2280    -0.8630 C.ar  1 <1>  -0.1500 
 30 C      -14.5770    -1.7010    -2.7070 C.ar  1 <1>  -0.1500 
 31 C      -15.0990     0.3090    -1.5270 C.ar  1 <1>  -0.1500 
 32 C      -15.4470    -0.6570    -2.4520 C.ar  1 <1>  -0.1500 
 33 H       -4.1670     1.0480     1.2150 H     1 <1>   0.0800 
 34 H       -4.3920     2.2070    -0.0580 H     1 <1>   0.0800 
 35 H       -2.0500    -0.6620    -2.0690 H     1 <1>   0.0800 
 36 H       -2.2050    -2.0050    -0.9660 H     1 <1>   0.0800 
 37 H       -3.9550    -2.2350    -2.7940 H     1 <1>   0.0800 
 38 H       -5.4810    -1.4360    -2.5250 H     1 <1>   0.0800 
 39 H       -1.9850     1.9060     0.7270 H     1 <1>   0.0800 
 40 H       -2.2320     1.7480    -0.9930 H     1 <1>   0.0800 
 41 H       -0.8080    -0.0900    -0.1070 H     1 <1>   0.0800 
 42 H       -2.0990    -0.5810     0.9460 H     1 <1>   0.0800 
 43 H       -5.7380    -2.6280    -0.3800 H     1 <1>   0.0800 
 44 H       -4.2310    -3.4610    -0.6440 H     1 <1>   0.0800 
 45 H       -5.1220    -4.5950    -2.5960 H     1 <1>   0.0800 
 46 H       -6.5960    -3.6920    -2.5360 H     1 <1>   0.0800 
 47 H       -9.2640    -4.0480    -1.3520 H     1 <1>   0.0800 
 48 H       -7.9550    -2.9730    -0.9700 H     1 <1>   0.0800 
 49 H       -7.6160    -5.9450     1.4630 H     1 <1>   0.0800 
 50 H       -7.8790    -7.0380     0.1340 H     1 <1>   0.0800 
 51 H       -9.9540    -6.7230     1.4260 H     1 <1>   0.0800 
 52 H      -10.1200    -6.1720    -0.2070 H     1 <1>   0.0800 
 53 H      -11.1110    -4.4450     0.9470 H     1 <1>   0.0800 
 54 H      -10.0790    -4.5780     2.3180 H     1 <1>   0.0800 
 55 H       -7.2200    -3.3500     1.6330 H     1 <1>   0.0800 
 56 H       -8.5400    -3.0900     2.7370 H     1 <1>   0.0800 
 57 H       -7.2890    -1.0940     0.9330 H     1 <1>   0.0800 
 58 H       -8.0180    -0.8640     2.5190 H     1 <1>   0.0800 
 59 H       -9.5610     1.0770     1.0270 H     1 <1>   0.1500 
 60 H      -12.7060    -2.5950    -2.2520 H     1 <1>   0.1500 
 61 H      -13.6360     0.9900    -0.1460 H     1 <1>   0.1500 
 62 H      -14.8420    -2.4580    -3.4250 H     1 <1>   0.1500 
 63 H      -15.7710     1.1250    -1.3240 H     1 <1>   0.1500 
 64 H      -16.3880    -0.5970    -2.9710 H     1 <1>   0.1500 
@<TRIPOS>BOND
  1   1   2  2   
  2   2   3  am  
  3   2   4  1   
  4   3   5  1   
  5   3   6  1   
  6   4   7  1   
  7   4  33  1   
  8   4  34  1   
  9   5   8  1   
 10   5  35  1   
 11   5  36  1   
 12   6   9  1   
 13   6  37  1   
 14   6  38  1   
 15   7   8  1   
 16   7  39  1   
 17   7  40  1   
 18   8  41  1   
 19   8  42  1   
 20   9  10  1   
 21   9  43  1   
 22   9  44  1   
 23  10  11  1   
 24  10  45  1   
 25  10  46  1   
 26  11  12  2   
 27  11  13  am  
 28  13  14  1   
 29  13  15  1   
 30  14  16  1   
 31  14  47  1   
 32  14  48  1   
 33  15  17  1   
 34  15  49  1   
 35  15  50  1   
 36  16  18  1   
 37  16  19  1   
 38  16  20  1   
 39  17  19  1   
 40  17  51  1   
 41  17  52  1   
 42  18  21  ar  
 43  18  22  ar  
 44  19  53  1   
 45  19  54  1   
 46  20  23  1   
 47  20  55  1   
 48  20  56  1   
 49  21  24  ar  
 50  22  23  1   
 51  22  25  ar  
 52  23  57  1   
 53  23  58  1   
 54  24  26  ar  
 55  24  27  1   
 56  25  26  ar  
 57  25  59  1   
 58  27  28  ar  
 59  27  29  ar  
 60  28  30  ar  
 61  28  60  1   
 62  29  31  ar  
 63  29  61  1   
 64  30  32  ar  
 65  30  62  1   
 66  31  32  ar  
 67  31  63  1   
 68  32  64  1   
@<TRIPOS>SUBSTRUCTURE
  1 ****  18 GROUP 4 **** **** 0

# MOE 2024.06 (io_trps.svl 2023.06)
