@<TRIPOS>MOLECULE
NONAME
37 40 1 0 0 
SMALL
USER_CHARGES


@<TRIPOS>ATOM
  1 S       -0.3270     0.0580     1.3970 S.3   1 <1>  -0.0800 
  2 C       -0.3410     1.6420     0.6510 C.2   1 <1>  -0.1400 
  3 C        1.3690     0.2500     1.8170 C.2   1 <1>  -0.1100 
  4 C        0.8560     2.2380     0.7190 C.2   1 <1>  -0.1810 
  5 C       -1.5740     2.2300     0.0220 C.3   1 <1>   0.0200 
  6 C        1.8390     1.4400     1.3950 C.2   1 <1>  -0.1500 
  7 C        1.0840     3.6260     0.1100 C.3   1 <1>   0.4610 
  8 C       -1.3420     3.7450    -0.0940 C.3   1 <1>   0.1200 
  9 O       -0.0630     4.0310    -0.6140 O.3   1 <1>  -0.5600 
 10 C        1.3530     4.6630     1.2130 C.3   1 <1>  -0.1600 
 11 C        2.2180     3.5780    -0.9320 C.3   1 <1>  -0.1600 
 12 C        2.0060     5.9180     0.6370 C.3   1 <1>   0.1400 
 13 C        3.5320     4.1740    -0.4230 C.3   1 <1>   0.1400 
 14 N        3.3310     5.5830     0.0330 N.am  1 <1>  -0.6600 
 15 C        4.3740     6.4950    -0.0470 C.2   1 <1>   0.7160 
 16 O        5.4940     6.0510    -0.2450 O.2   1 <1>  -0.5700 
 17 C        4.2240     7.9370     0.1070 C.2   1 <1>   0.1410 
 18 N        3.0600     8.6270     0.0100 N.2   1 <1>  -0.2270 
 19 C        5.2010     8.8450     0.3480 C.2   1 <1>  -0.3020 
 20 N        3.2930     9.8770     0.1880 N.2   1 <1>  -0.4180 
 21 N        4.6010    10.0270     0.3930 N.pl3 1 <1>   0.3000 
 22 H        1.8400    -0.5610     2.3430 H     1 <1>   0.1500 
 23 H       -2.4370     2.0380     0.6310 H     1 <1>   0.0800 
 24 H       -1.7310     1.8010    -0.9510 H     1 <1>   0.0800 
 25 H        2.8460     1.7900     1.5340 H     1 <1>   0.1500 
 26 H       -1.4330     4.2100     0.8710 H     1 <1>   0.0800 
 27 H       -2.0690     4.1820    -0.7550 H     1 <1>   0.0800 
 28 H        2.0150     4.2490     1.9500 H     1 <1>   0.0800 
 29 H        0.4440     4.9200     1.7200 H     1 <1>   0.0800 
 30 H        1.9310     4.1320    -1.8090 H     1 <1>   0.0800 
 31 H        2.3880     2.5620    -1.2390 H     1 <1>   0.0800 
 32 H        2.1360     6.6390     1.4270 H     1 <1>   0.0800 
 33 H        1.3690     6.3480    -0.1180 H     1 <1>   0.0800 
 34 H        4.2610     4.1480    -1.2150 H     1 <1>   0.0800 
 35 H        3.9130     3.5930     0.3980 H     1 <1>   0.0800 
 36 H        6.2560     8.6880     0.4780 H     1 <1>   0.1500 
 37 H        5.0320    10.9440     0.5530 H     1 <1>   0.2700 
@<TRIPOS>BOND
  1   1   2  1   
  2   1   3  1   
  3   2   4  2   
  4   2   5  1   
  5   3   6  2   
  6   3  22  1   
  7   4   6  1   
  8   4   7  1   
  9   5   8  1   
 10   5  23  1   
 11   5  24  1   
 12   6  25  1   
 13   7   9  1   
 14   7  10  1   
 15   7  11  1   
 16   8   9  1   
 17   8  26  1   
 18   8  27  1   
 19  10  12  1   
 20  10  28  1   
 21  10  29  1   
 22  11  13  1   
 23  11  30  1   
 24  11  31  1   
 25  12  14  1   
 26  12  32  1   
 27  12  33  1   
 28  13  14  1   
 29  13  34  1   
 30  13  35  1   
 31  14  15  am  
 32  15  16  2   
 33  15  17  1   
 34  17  18  1   
 35  17  19  2   
 36  18  20  2   
 37  19  21  1   
 38  19  36  1   
 39  20  21  1   
 40  21  37  1   
@<TRIPOS>SUBSTRUCTURE
  1 ****  12 GROUP 4 **** **** 0

# MOE 2024.06 (io_trps.svl 2023.06)
