@<TRIPOS>MOLECULE
NONAME
51 54 1 0 0 
SMALL
USER_CHARGES


@<TRIPOS>ATOM
  1 O        0.0210    -1.8760     1.7430 O.3   1 <1>  -0.6800 
  2 C        0.7230    -2.5570     0.7700 C.3   1 <1>   0.2000 
  3 C        1.9320    -1.7570     0.2580 C.3   1 <1>   0.0000 
  4 C       -0.1270    -2.8310    -0.4620 C.3   1 <1>  -0.1600 
  5 C        3.0450    -1.8020     1.3210 C.3   1 <1>   0.3430 
  6 C        1.5970    -0.2750    -0.0960 C.3   1 <1>  -0.1600 
  7 C        2.2530    -2.5440    -1.0290 C.3   1 <1>  -0.1600 
  8 C        0.8910    -2.9730    -1.6030 C.3   1 <1>  -0.1600 
  9 N        4.3160    -1.1110     0.8950 N.4   1 <1>  -0.9590 
 10 C        2.7940     0.6800     0.0770 C.3   1 <1>  -0.1600 
 11 C        4.1330    -0.0270    -0.1240 C.3   1 <1>   0.3430 
 12 C        5.3540    -2.0840     0.4600 C.3   1 <1>   0.4860 
 13 C        6.6760    -1.3560     0.2920 C.ar  1 <1>  -0.1440 
 14 C        7.4110    -0.9630     1.4000 C.ar  1 <1>  -0.1500 
 15 C        7.1640    -1.0760    -0.9760 C.ar  1 <1>  -0.1500 
 16 C        8.6090    -0.2900     1.2390 C.ar  1 <1>  -0.1500 
 17 C        8.3640    -0.4040    -1.1280 C.ar  1 <1>  -0.1500 
 18 C        9.1070     0.0030    -0.0260 C.ar  1 <1>   0.0000 
 19 C       10.3620     0.7020    -0.1900 C.ar  1 <1>   0.0000 
 20 C       11.5490     0.1950     0.3350 C.ar  1 <1>   0.1600 
 21 C       10.4330     1.9050    -0.8750 C.ar  1 <1>  -0.1500 
 22 N       12.7420     0.7620     0.2430 N.ar  1 <1>  -0.6200 
 23 C       11.6650     2.5120    -0.9860 C.ar  1 <1>  -0.1500 
 24 C       12.7720     1.9080    -0.4170 C.ar  1 <1>   0.1600 
 25 H       -0.8410    -2.3100     1.9080 H     1 <1>   0.4000 
 26 H        1.0450    -3.4960     1.1910 H     1 <1>   0.0800 
 27 H       -0.7130    -3.7270    -0.3460 H     1 <1>   0.0800 
 28 H       -0.7760    -1.9950    -0.6620 H     1 <1>   0.0800 
 29 H        3.2480    -2.8250     1.5890 H     1 <1>   0.0800 
 30 H        2.6580    -1.3100     2.1990 H     1 <1>   0.0800 
 31 H        1.2360    -0.2120    -1.1090 H     1 <1>   0.0800 
 32 H        0.8020     0.1020     0.5240 H     1 <1>   0.0800 
 33 H        2.8120    -1.9740    -1.7510 H     1 <1>   0.0800 
 34 H        2.8120    -3.4320    -0.7860 H     1 <1>   0.0800 
 35 H        0.9340    -3.9890    -1.9590 H     1 <1>   0.0800 
 36 H        0.6070    -2.3360    -2.4240 H     1 <1>   0.0800 
 37 H        4.6990    -0.6500     1.7290 H     1 <1>   0.4500 
 38 H        2.7750     1.1150     1.0620 H     1 <1>   0.0800 
 39 H        2.7070     1.4880    -0.6280 H     1 <1>   0.0800 
 40 H        4.9410     0.6850    -0.0500 H     1 <1>   0.0800 
 41 H        4.1540    -0.4490    -1.1150 H     1 <1>   0.0800 
 42 H        5.4700    -2.8590     1.2000 H     1 <1>   0.0800 
 43 H        5.0660    -2.5420    -0.4720 H     1 <1>   0.0800 
 44 H        7.0680    -1.1750     2.3990 H     1 <1>   0.1500 
 45 H        6.6250    -1.3780    -1.8590 H     1 <1>   0.1500 
 46 H        9.1720     0.0150     2.1060 H     1 <1>   0.1500 
 47 H        8.7400    -0.1950    -2.1160 H     1 <1>   0.1500 
 48 H       11.5050    -0.7420     0.8630 H     1 <1>   0.1500 
 49 H        9.5520     2.3510    -1.3030 H     1 <1>   0.1500 
 50 H       11.7720     3.4460    -1.5080 H     1 <1>   0.1500 
 51 H       13.7310     2.3900    -0.5080 H     1 <1>   0.1500 
@<TRIPOS>BOND
  1   1   2  1   
  2   1  25  1   
  3   2   3  1   
  4   2   4  1   
  5   2  26  1   
  6   3   5  1   
  7   3   6  1   
  8   3   7  1   
  9   4   8  1   
 10   4  27  1   
 11   4  28  1   
 12   5   9  1   
 13   5  29  1   
 14   5  30  1   
 15   6  10  1   
 16   6  31  1   
 17   6  32  1   
 18   7   8  1   
 19   7  33  1   
 20   7  34  1   
 21   8  35  1   
 22   8  36  1   
 23   9  11  1   
 24   9  12  1   
 25   9  37  1   
 26  10  11  1   
 27  10  38  1   
 28  10  39  1   
 29  11  40  1   
 30  11  41  1   
 31  12  13  1   
 32  12  42  1   
 33  12  43  1   
 34  13  14  ar  
 35  13  15  ar  
 36  14  16  ar  
 37  14  44  1   
 38  15  17  ar  
 39  15  45  1   
 40  16  18  ar  
 41  16  46  1   
 42  17  18  ar  
 43  17  47  1   
 44  18  19  1   
 45  19  20  ar  
 46  19  21  ar  
 47  20  22  ar  
 48  20  48  1   
 49  21  23  ar  
 50  21  49  1   
 51  22  24  ar  
 52  23  24  ar  
 53  23  50  1   
 54  24  51  1   
@<TRIPOS>SUBSTRUCTURE
  1 ****  13 GROUP 4 **** **** 0

# MOE 2024.06 (io_trps.svl 2023.06)
