@<TRIPOS>MOLECULE
NONAME
45 48 1 0 0 
SMALL
USER_CHARGES


@<TRIPOS>ATOM
  1 O       -0.3780     0.3100    -0.8690 O.2   1 <1>  -0.5700 
  2 C       -1.4980     0.7740    -0.7700 C.2   1 <1>   0.5440 
  3 N       -1.6330     2.1080    -0.4420 N.am  1 <1>  -0.6600 
  4 C       -2.6390    -0.0870    -0.9820 C.ar  1 <1>   0.0860 
  5 C       -0.4840     3.0620    -0.5220 C.3   1 <1>   0.1400 
  6 C       -2.8070     2.6670     0.2950 C.3   1 <1>   0.1400 
  7 C       -2.6400    -1.3890    -0.4880 C.ar  1 <1>   0.1600 
  8 C       -3.7720     0.3170    -1.6830 C.ar  1 <1>  -0.1500 
  9 C       -0.1760     3.6570     0.8600 C.3   1 <1>   0.1200 
 10 C       -2.3630     3.3000     1.6260 C.3   1 <1>   0.1200 
 11 N       -3.6270    -2.2630    -0.5960 N.ar  1 <1>  -0.6200 
 12 C       -4.8050    -0.5790    -1.8120 C.ar  1 <1>  -0.1500 
 13 O       -1.3290     4.2210     1.4200 O.3   1 <1>  -0.5600 
 14 C       -4.7020    -1.8500    -1.2560 C.ar  1 <1>   0.4100 
 15 N       -5.7360    -2.7300    -1.3880 N.pl3 1 <1>  -0.8690 
 16 C       -5.9240    -3.8820    -0.4830 C.3   1 <1>   0.3900 
 17 C       -7.4160    -4.1810    -0.3530 C.2   1 <1>   0.1080 
 18 N       -8.3800    -3.3560    -0.6860 N.2   1 <1>  -0.7070 
 19 C       -7.9290    -5.3760     0.1390 C.2   1 <1>  -0.1810 
 20 N       -9.5240    -4.0230    -0.4070 N.pl3 1 <1>   0.3000 
 21 C       -9.2490    -5.2420     0.0920 C.2   1 <1>  -0.3320 
 22 C       -7.5140    -6.7170     0.6800 C.3   1 <1>   0.0210 
 23 C      -10.0120    -6.4390     0.5820 C.3   1 <1>   0.0200 
 24 C       -8.8690    -7.3620     1.0730 C.3   1 <1>  -0.1600 
 25 H       -0.7340     3.8580    -1.2010 H     1 <1>   0.0800 
 26 H        0.3950     2.5710    -0.9030 H     1 <1>   0.0800 
 27 H       -3.5280     1.8980     0.5040 H     1 <1>   0.0800 
 28 H       -3.2820     3.4180    -0.3110 H     1 <1>   0.0800 
 29 H       -1.7580    -1.7210     0.0330 H     1 <1>   0.1500 
 30 H       -3.8260     1.3010    -2.1130 H     1 <1>   0.1500 
 31 H        0.5620     4.4340     0.7740 H     1 <1>   0.0800 
 32 H        0.1970     2.8950     1.5230 H     1 <1>   0.0800 
 33 H       -2.0170     2.5430     2.3090 H     1 <1>   0.0800 
 34 H       -3.1840     3.8260     2.0800 H     1 <1>   0.0800 
 35 H       -5.7000    -0.3190    -2.3450 H     1 <1>   0.1500 
 36 H       -6.6700    -2.3570    -1.6030 H     1 <1>   0.4000 
 37 H       -5.5240    -3.6580     0.4900 H     1 <1>   0.0800 
 38 H       -5.4110    -4.7370    -0.8850 H     1 <1>   0.0800 
 39 H      -10.4550    -3.6220    -0.5670 H     1 <1>   0.2700 
 40 H       -6.8690    -6.6050     1.5330 H     1 <1>   0.0800 
 41 H       -7.0210    -7.2870    -0.0880 H     1 <1>   0.0800 
 42 H      -10.5600    -6.8920    -0.2250 H     1 <1>   0.0800 
 43 H      -10.6780    -6.1760     1.3860 H     1 <1>   0.0800 
 44 H       -8.9210    -7.4500     2.1440 H     1 <1>   0.0800 
 45 H       -8.9610    -8.3430     0.6410 H     1 <1>   0.0800 
@<TRIPOS>BOND
  1   1   2  2   
  2   2   3  am  
  3   2   4  1   
  4   3   5  1   
  5   3   6  1   
  6   4   7  ar  
  7   4   8  ar  
  8   5   9  1   
  9   5  25  1   
 10   5  26  1   
 11   6  10  1   
 12   6  27  1   
 13   6  28  1   
 14   7  11  ar  
 15   7  29  1   
 16   8  12  ar  
 17   8  30  1   
 18   9  13  1   
 19   9  31  1   
 20   9  32  1   
 21  10  13  1   
 22  10  33  1   
 23  10  34  1   
 24  11  14  ar  
 25  12  14  ar  
 26  12  35  1   
 27  14  15  1   
 28  15  16  1   
 29  15  36  1   
 30  16  17  1   
 31  16  37  1   
 32  16  38  1   
 33  17  18  2   
 34  17  19  1   
 35  18  20  1   
 36  19  21  2   
 37  19  22  1   
 38  20  21  1   
 39  20  39  1   
 40  21  23  1   
 41  22  24  1   
 42  22  40  1   
 43  22  41  1   
 44  23  24  1   
 45  23  42  1   
 46  23  43  1   
 47  24  44  1   
 48  24  45  1   
@<TRIPOS>SUBSTRUCTURE
  1 ****  14 GROUP 4 **** **** 0

# MOE 2024.06 (io_trps.svl 2023.06)
