@<TRIPOS>MOLECULE
NONAME
52 54 1 0 0 
SMALL
USER_CHARGES


@<TRIPOS>ATOM
  1 O       -4.0420     1.9920    -2.2640 O.2   1 <1>  -0.5700 
  2 C       -2.9580     1.7810    -1.7660 C.2   1 <1>   0.5690 
  3 N       -2.4970     0.5080    -1.6300 N.am  1 <1>  -0.7300 
  4 C       -2.0830     2.9690    -1.2780 C.3   1 <1>   0.3410 
  5 C       -3.2080    -0.7220    -2.0410 C.3   1 <1>   0.2200 
  6 O       -0.9090     2.4270    -0.6570 O.3   1 <1>  -0.3630 
  7 C       -2.8530     3.8100    -0.2450 C.3   1 <1>  -0.2400 
  8 C       -1.6680     3.8430    -2.4760 C.3   1 <1>  -0.2400 
  9 C       -3.6380    -1.4860    -0.8010 C.3   1 <1>  -0.0800 
 10 C       -2.2290    -1.6950    -2.6960 C.3   1 <1>   0.1200 
 11 C        0.0770     3.2150    -0.1700 C.ar  1 <1>   0.0820 
 12 C       -2.3660    -2.2660    -0.4640 C.3   1 <1>   0.1200 
 13 C       -4.8310    -2.4160    -1.0960 C.3   1 <1>  -0.0160 
 14 O       -1.7070    -2.4960    -1.6750 O.3   1 <1>  -0.5600 
 15 C        0.0400     3.6410     1.1490 C.ar  1 <1>  -0.1500 
 16 C        1.1530     3.5530    -0.9750 C.ar  1 <1>  -0.1500 
 17 C       -5.2720    -3.1700     0.1490 C.ar  1 <1>  -0.1440 
 18 C        1.0600     4.4330     1.6480 C.ar  1 <1>  -0.1500 
 19 C        2.1710     4.3450    -0.4720 C.ar  1 <1>  -0.1500 
 20 C       -4.9670    -4.5010     0.3460 C.ar  1 <1>  -0.1500 
 21 C       -6.0040    -2.5590     1.1470 C.ar  1 <1>  -0.1500 
 22 C        2.1270     4.7920     0.8390 C.ar  1 <1>  -0.1440 
 23 C       -5.3910    -5.1370     1.5010 C.ar  1 <1>   0.1600 
 24 C       -6.3800    -3.2860     2.2640 C.ar  1 <1>   0.1600 
 25 C        3.2450     5.6600     1.3890 C.3   1 <1>  -0.0970 
 26 N       -6.0890    -4.5610     2.4660 N.ar  1 <1>  -0.6200 
 27 H       -1.5770     0.3730    -1.1980 H     1 <1>   0.3700 
 28 H       -4.0300    -0.4760    -2.6930 H     1 <1>   0.0800 
 29 H       -3.7740     4.1590    -0.6760 H     1 <1>   0.0800 
 30 H       -2.2850     4.6710     0.0560 H     1 <1>   0.0800 
 31 H       -3.0920     3.2110     0.6150 H     1 <1>   0.0800 
 32 H       -2.5470     4.1910    -2.9890 H     1 <1>   0.0800 
 33 H       -1.0830     3.2670    -3.1690 H     1 <1>   0.0800 
 34 H       -1.1110     4.7040    -2.1540 H     1 <1>   0.0800 
 35 H       -3.9070    -0.8180    -0.0020 H     1 <1>   0.0800 
 36 H       -1.4260    -1.1910    -3.2050 H     1 <1>   0.0800 
 37 H       -2.7440    -2.3430    -3.3830 H     1 <1>   0.0800 
 38 H       -2.5550    -3.2070     0.0210 H     1 <1>   0.0800 
 39 H       -1.7120    -1.6730     0.1520 H     1 <1>   0.0800 
 40 H       -4.5740    -3.1180    -1.8700 H     1 <1>   0.0800 
 41 H       -5.6600    -1.8290    -1.4540 H     1 <1>   0.0800 
 42 H       -0.7800     3.3530     1.7800 H     1 <1>   0.1500 
 43 H        1.1940     3.1970    -1.9880 H     1 <1>   0.1500 
 44 H        1.0210     4.7640     2.6710 H     1 <1>   0.1500 
 45 H        3.0010     4.6070    -1.1050 H     1 <1>   0.1500 
 46 H       -4.4010    -5.0500    -0.3850 H     1 <1>   0.1500 
 47 H       -6.2850    -1.5250     1.0660 H     1 <1>   0.1500 
 48 H       -5.1420    -6.1760     1.6380 H     1 <1>   0.1500 
 49 H       -6.9500    -2.7930     3.0320 H     1 <1>   0.1500 
 50 H        2.8690     6.3210     2.1490 H     1 <1>   0.0800 
 51 H        3.6780     6.2560     0.6060 H     1 <1>   0.0800 
 52 H        4.0110     5.0380     1.8170 H     1 <1>   0.0800 
@<TRIPOS>BOND
  1   1   2  2   
  2   2   3  am  
  3   2   4  1   
  4   3   5  1   
  5   3  27  1   
  6   4   6  1   
  7   4   7  1   
  8   4   8  1   
  9   5   9  1   
 10   5  10  1   
 11   5  28  1   
 12   6  11  1   
 13   7  29  1   
 14   7  30  1   
 15   7  31  1   
 16   8  32  1   
 17   8  33  1   
 18   8  34  1   
 19   9  12  1   
 20   9  13  1   
 21   9  35  1   
 22  10  14  1   
 23  10  36  1   
 24  10  37  1   
 25  11  15  ar  
 26  11  16  ar  
 27  12  14  1   
 28  12  38  1   
 29  12  39  1   
 30  13  17  1   
 31  13  40  1   
 32  13  41  1   
 33  15  18  ar  
 34  15  42  1   
 35  16  19  ar  
 36  16  43  1   
 37  17  20  ar  
 38  17  21  ar  
 39  18  22  ar  
 40  18  44  1   
 41  19  22  ar  
 42  19  45  1   
 43  20  23  ar  
 44  20  46  1   
 45  21  24  ar  
 46  21  47  1   
 47  22  25  1   
 48  23  26  ar  
 49  23  48  1   
 50  24  26  ar  
 51  24  49  1   
 52  25  50  1   
 53  25  51  1   
 54  25  52  1   
@<TRIPOS>SUBSTRUCTURE
  1 ****   3 GROUP 4 **** **** 0

# MOE 2024.06 (io_trps.svl 2023.06)
