@<TRIPOS>MOLECULE
NONAME
52 55 1 0 0 
SMALL
USER_CHARGES


@<TRIPOS>ATOM
  1 S        3.3370     2.0620    -1.7070 S.3   1 <1>  -0.0800 
  2 C        3.2780     1.4640    -0.0510 C.2   1 <1>  -0.1400 
  3 C        1.8100     2.9020    -1.5080 C.2   1 <1>  -0.1100 
  4 C        2.1620     1.9050     0.5620 C.2   1 <1>  -0.1500 
  5 C        4.4260     0.5950     0.4490 C.3   1 <1>   0.4690 
  6 C        1.3270     2.7200    -0.2670 C.2   1 <1>  -0.1500 
  7 N        5.6640     1.3850     0.3350 N.pl3 1 <1>  -0.8690 
  8 C        4.5630    -0.7360    -0.3250 C.3   1 <1>  -0.0800 
  9 C        5.9530     2.2410     1.3560 C.ar  1 <1>   0.4100 
 10 C        3.2500    -1.5510    -0.2820 C.3   1 <1>  -0.1600 
 11 C        5.7310    -1.5920     0.2160 C.3   1 <1>  -0.1600 
 12 N        5.7220     3.4980     1.0600 N.ar  1 <1>  -0.6200 
 13 C        6.4280     1.8170     2.6050 C.ar  1 <1>   0.1600 
 14 C        3.3820    -2.8850    -1.0280 C.3   1 <1>  -0.1600 
 15 C        5.8570    -2.9260    -0.5300 C.3   1 <1>  -0.1600 
 16 C        5.9300     4.3440     2.0830 C.ar  1 <1>   0.3960 
 17 N        6.6660     2.6180     3.6240 N.ar  1 <1>  -0.6200 
 18 C        4.5450    -3.7170    -0.4780 C.3   1 <1>  -0.1600 
 19 C        5.6550     5.7760     1.9410 C.2   1 <1>   0.5440 
 20 C        6.4030     3.8830     3.3170 C.ar  1 <1>   0.1600 
 21 O        6.2940     6.5710     2.6120 O.2   1 <1>  -0.5700 
 22 N        4.6790     6.2950     1.1080 N.am  1 <1>  -0.6600 
 23 C        4.4370     7.7460     0.9630 C.3   1 <1>   0.1400 
 24 C        3.7070     5.5150     0.3050 C.3   1 <1>   0.1400 
 25 C        3.4010     7.8630    -0.1510 C.3   1 <1>  -0.1600 
 26 C        2.6580     6.5300    -0.1310 C.3   1 <1>  -0.1600 
 27 H        1.4330     3.4490    -2.3550 H     1 <1>   0.1500 
 28 H        1.8810     1.6920     1.5790 H     1 <1>   0.1500 
 29 H        4.2470     0.3650     1.4860 H     1 <1>   0.0800 
 30 H        0.4050     3.1280     0.1110 H     1 <1>   0.1500 
 31 H        5.5980     1.9210    -0.5340 H     1 <1>   0.4000 
 32 H        4.7690    -0.5000    -1.3540 H     1 <1>   0.0800 
 33 H        2.4510    -0.9890    -0.7330 H     1 <1>   0.0800 
 34 H        2.9800    -1.7470     0.7410 H     1 <1>   0.0800 
 35 H        5.5800    -1.7870     1.2640 H     1 <1>   0.0800 
 36 H        6.6580    -1.0540     0.1130 H     1 <1>   0.0800 
 37 H        6.6100     0.7670     2.7380 H     1 <1>   0.1500 
 38 H        3.5450    -2.6940    -2.0750 H     1 <1>   0.0800 
 39 H        2.4660    -3.4420    -0.9350 H     1 <1>   0.0800 
 40 H        6.6480    -3.5110    -0.0930 H     1 <1>   0.0800 
 41 H        6.1170    -2.7360    -1.5580 H     1 <1>   0.0800 
 42 H        4.6470    -4.6210    -1.0530 H     1 <1>   0.0800 
 43 H        4.3360    -3.9970     0.5410 H     1 <1>   0.0800 
 44 H        6.5680     4.6100     4.0940 H     1 <1>   0.1500 
 45 H        5.3490     8.2630     0.7160 H     1 <1>   0.0800 
 46 H        4.0450     8.1300     1.8890 H     1 <1>   0.0800 
 47 H        3.2700     4.7180     0.8830 H     1 <1>   0.0800 
 48 H        4.2100     5.1030    -0.5540 H     1 <1>   0.0800 
 49 H        3.9140     7.9820    -1.0900 H     1 <1>   0.0800 
 50 H        2.7460     8.7030    -0.0010 H     1 <1>   0.0800 
 51 H        1.8740     6.5580     0.6050 H     1 <1>   0.0800 
 52 H        2.2350     6.2790    -1.0870 H     1 <1>   0.0800 
@<TRIPOS>BOND
  1   1   2  1   
  2   1   3  1   
  3   2   4  2   
  4   2   5  1   
  5   3   6  2   
  6   3  27  1   
  7   4   6  1   
  8   4  28  1   
  9   5   7  1   
 10   5   8  1   
 11   5  29  1   
 12   6  30  1   
 13   7   9  1   
 14   7  31  1   
 15   8  10  1   
 16   8  11  1   
 17   8  32  1   
 18   9  12  ar  
 19   9  13  ar  
 20  10  14  1   
 21  10  33  1   
 22  10  34  1   
 23  11  15  1   
 24  11  35  1   
 25  11  36  1   
 26  12  16  ar  
 27  13  17  ar  
 28  13  37  1   
 29  14  18  1   
 30  14  38  1   
 31  14  39  1   
 32  15  18  1   
 33  15  40  1   
 34  15  41  1   
 35  16  19  1   
 36  16  20  ar  
 37  17  20  ar  
 38  18  42  1   
 39  18  43  1   
 40  19  21  2   
 41  19  22  am  
 42  20  44  1   
 43  22  23  1   
 44  22  24  1   
 45  23  25  1   
 46  23  45  1   
 47  23  46  1   
 48  24  26  1   
 49  24  47  1   
 50  24  48  1   
 51  25  26  1   
 52  25  49  1   
 53  25  50  1   
 54  26  51  1   
 55  26  52  1   
@<TRIPOS>SUBSTRUCTURE
  1 ****   7 GROUP 4 **** **** 0

# MOE 2024.06 (io_trps.svl 2023.06)
