@<TRIPOS>MOLECULE
NONAME
47 50 1 0 0 
SMALL
USER_CHARGES


@<TRIPOS>ATOM
  1 O        0.0870     1.4700    -0.8710 O.2   1 <1>  -0.5700 
  2 C       -0.1280     2.6600    -0.8720 C.2   1 <1>   0.5690 
  3 N       -0.9180     3.2850     0.0560 N.am  1 <1>  -0.5090 
  4 C        0.4910     3.4960    -1.9870 C.3   1 <1>   0.1810 
  5 C       -1.3440     4.7100    -0.1200 C.3   1 <1>   0.3640 
  6 C       -1.5150     2.5760     1.2120 C.3   1 <1>   0.0490 
  7 O        0.6380     4.8410    -1.6100 O.3   1 <1>  -0.5600 
  8 C       -2.8470     4.7540    -0.3980 C.ar  1 <1>  -0.1440 
  9 C       -0.5740     5.4780    -1.2320 C.3   1 <1>   0.2610 
 10 C       -1.2100     3.0730     2.5910 C.3   1 <1>  -0.2000 
 11 C       -0.6380     1.7740     2.1210 C.3   1 <1>  -0.2000 
 12 C       -3.6430     5.6870     0.2550 C.ar  1 <1>   0.1600 
 13 C       -3.4500     3.8860    -1.2920 C.ar  1 <1>  -0.1500 
 14 C       -0.2920     6.9100    -0.7630 C.2   1 <1>   0.5690 
 15 N       -4.9510     5.8110     0.0980 N.ar  1 <1>  -0.6200 
 16 C       -4.8110     4.0060    -1.4690 C.ar  1 <1>  -0.1500 
 17 O       -1.1760     7.5550    -0.2540 O.2   1 <1>  -0.5700 
 18 N        0.9560     7.4190    -0.9130 N.am  1 <1>  -0.7300 
 19 C       -5.5050     4.9700    -0.7590 C.ar  1 <1>   0.1600 
 20 C        1.4350     8.7130    -0.3830 C.3   1 <1>   0.3200 
 21 C        2.6590     8.4990     0.4890 C.2   1 <1>  -0.0400 
 22 O        3.3130     9.5620     0.9150 O.3   1 <1>  -0.2800 
 23 C        3.2510     7.3710     0.9440 C.2   1 <1>  -0.1500 
 24 C        4.3280     9.1460     1.6440 C.2   1 <1>  -0.0400 
 25 C        4.3480     7.7980     1.7030 C.2   1 <1>  -0.1500 
 26 C        5.2480    10.1760     2.2590 C.3   1 <1>  -0.0600 
 27 H       -0.1220     3.4460    -2.8690 H     1 <1>   0.0800 
 28 H        1.4680     3.1110    -2.2180 H     1 <1>   0.0800 
 29 H       -1.1580     5.2100     0.8150 H     1 <1>   0.0800 
 30 H       -2.5050     2.2020     1.0040 H     1 <1>   0.1000 
 31 H       -1.1880     5.5410    -2.1120 H     1 <1>   0.0800 
 32 H       -0.5300     3.8930     2.7320 H     1 <1>   0.1000 
 33 H       -1.9860     3.0430     3.3360 H     1 <1>   0.1000 
 34 H       -1.0280     0.8590     2.5310 H     1 <1>   0.1000 
 35 H        0.4110     1.7090     1.8930 H     1 <1>   0.1000 
 36 H       -3.1830     6.3750     0.9450 H     1 <1>   0.1500 
 37 H       -2.8950     3.1360    -1.8280 H     1 <1>   0.1500 
 38 H       -5.3350     3.3570    -2.1470 H     1 <1>   0.1500 
 39 H        1.6760     6.8110    -1.3130 H     1 <1>   0.3700 
 40 H       -6.5690     5.0540    -0.9030 H     1 <1>   0.1500 
 41 H        1.6930     9.3570    -1.2060 H     1 <1>   0.0800 
 42 H        0.6630     9.1930     0.1950 H     1 <1>   0.0800 
 43 H        2.9690     6.3460     0.7840 H     1 <1>   0.1500 
 44 H        5.0420     7.1550     2.2140 H     1 <1>   0.1500 
 45 H        6.0240     9.6930     2.8230 H     1 <1>   0.0800 
 46 H        4.6860    10.8180     2.9130 H     1 <1>   0.0800 
 47 H        5.6950    10.7710     1.4840 H     1 <1>   0.0800 
@<TRIPOS>BOND
  1   1   2  2   
  2   2   3  am  
  3   2   4  1   
  4   3   5  1   
  5   3   6  1   
  6   4   7  1   
  7   4  27  1   
  8   4  28  1   
  9   5   8  1   
 10   5   9  1   
 11   5  29  1   
 12   6  10  1   
 13   6  11  1   
 14   6  30  1   
 15   7   9  1   
 16   8  12  ar  
 17   8  13  ar  
 18   9  14  1   
 19   9  31  1   
 20  10  11  1   
 21  10  32  1   
 22  10  33  1   
 23  11  34  1   
 24  11  35  1   
 25  12  15  ar  
 26  12  36  1   
 27  13  16  ar  
 28  13  37  1   
 29  14  17  2   
 30  14  18  am  
 31  15  19  ar  
 32  16  19  ar  
 33  16  38  1   
 34  18  20  1   
 35  18  39  1   
 36  19  40  1   
 37  20  21  1   
 38  20  41  1   
 39  20  42  1   
 40  21  22  1   
 41  21  23  2   
 42  22  24  1   
 43  23  25  1   
 44  23  43  1   
 45  24  25  2   
 46  24  26  1   
 47  25  44  1   
 48  26  45  1   
 49  26  46  1   
 50  26  47  1   
@<TRIPOS>SUBSTRUCTURE
  1 ****   9 GROUP 4 **** **** 0

# MOE 2024.06 (io_trps.svl 2023.06)
