@<TRIPOS>MOLECULE
NONAME
52 56 1 0 0 
SMALL
USER_CHARGES


@<TRIPOS>ATOM
  1 O       -0.7710     0.3290     0.8080 O.2   1 <1>  -0.5700 
  2 C       -1.7310     0.9660     0.4190 C.2   1 <1>   0.5440 
  3 N       -2.9170     0.3050     0.1920 N.am  1 <1>  -0.6600 
  4 C       -1.6140     2.3980     0.2220 C.ar  1 <1>   0.0860 
  5 C       -4.2300     0.9670     0.0390 C.3   1 <1>   0.1400 
  6 C       -3.0690    -1.1510     0.4170 C.3   1 <1>   0.1400 
  7 C       -1.0970     3.2180     1.2230 C.ar  1 <1>  -0.1500 
  8 C       -2.0120     3.0150    -0.9640 C.ar  1 <1>  -0.1500 
  9 C       -5.2560    -0.0470     0.5460 C.3   1 <1>  -0.0800 
 10 C       -4.5750    -1.4290     0.4810 C.3   1 <1>  -0.0800 
 11 C       -1.0110     4.5880     1.0630 C.ar  1 <1>  -0.1500 
 12 C       -1.9290     4.3840    -1.1320 C.ar  1 <1>  -0.1500 
 13 C       -6.6510     0.0510    -0.1250 C.3   1 <1>   0.4240 
 14 C       -5.0770    -2.2850    -0.6930 C.3   1 <1>  -0.1600 
 15 C       -1.4360     5.1980    -0.1140 C.ar  1 <1>  -0.0230 
 16 O       -6.4960     0.2460    -1.4870 O.3   1 <1>  -0.6800 
 17 C       -7.4630     1.2210     0.4700 C.ar  1 <1>  -0.1430 
 18 C       -7.3750    -1.3000     0.0010 C.3   1 <1>  -0.1600 
 19 C       -6.6090    -2.4770    -0.6520 C.3   1 <1>  -0.1600 
 20 N       -1.3670     6.6120    -0.2680 N.pl3 1 <1>   0.5930 
 21 C       -7.7840     2.3580    -0.2690 C.ar  1 <1>  -0.1500 
 22 C       -7.8910     1.1650     1.7930 C.ar  1 <1>  -0.1500 
 23 N       -0.4490     7.3970     0.2770 N.2   1 <1>  -0.4180 
 24 C       -2.1770     7.4160    -0.9440 C.2   1 <1>   0.0360 
 25 C       -8.5060     3.3970     0.2930 C.ar  1 <1>  -0.1500 
 26 C       -8.6110     2.2030     2.3590 C.ar  1 <1>  -0.1500 
 27 N       -0.7190     8.6000    -0.0790 N.2   1 <1>   0.0000 
 28 N       -1.8020     8.6310    -0.8460 N.2   1 <1>  -0.3380 
 29 C       -8.9210     3.3210     1.6090 C.ar  1 <1>  -0.1500 
 30 H       -4.2800     1.8770     0.6130 H     1 <1>   0.0800 
 31 H       -4.3700     1.2000    -1.0010 H     1 <1>   0.0800 
 32 H       -2.5940    -1.6940    -0.3810 H     1 <1>   0.0800 
 33 H       -2.5980    -1.4180     1.3490 H     1 <1>   0.0800 
 34 H       -0.7600     2.7600     2.1390 H     1 <1>   0.1500 
 35 H       -2.3880     2.4000    -1.7640 H     1 <1>   0.1500 
 36 H       -5.3840     0.1620     1.5920 H     1 <1>   0.0800 
 37 H       -4.7830    -1.9700     1.3890 H     1 <1>   0.0800 
 38 H       -0.6070     5.1880     1.8640 H     1 <1>   0.1500 
 39 H       -2.2470     4.8130    -2.0680 H     1 <1>   0.1500 
 40 H       -4.7920    -1.8110    -1.6170 H     1 <1>   0.0800 
 41 H       -4.5980    -3.2490    -0.6740 H     1 <1>   0.0800 
 42 H       -6.1800    -0.5950    -1.8640 H     1 <1>   0.4000 
 43 H       -7.4960    -1.5220     1.0450 H     1 <1>   0.0800 
 44 H       -8.3640    -1.2200    -0.4170 H     1 <1>   0.0800 
 45 H       -6.8390    -3.3750    -0.1030 H     1 <1>   0.0800 
 46 H       -6.9660    -2.6260    -1.6580 H     1 <1>   0.0800 
 47 H       -7.4770     2.4500    -1.2960 H     1 <1>   0.1500 
 48 H       -7.6650     0.3110     2.4050 H     1 <1>   0.1500 
 49 H       -3.0320     7.0660    -1.4890 H     1 <1>   0.1500 
 50 H       -8.7460     4.2640    -0.2970 H     1 <1>   0.1500 
 51 H       -8.9320     2.1390     3.3840 H     1 <1>   0.1500 
 52 H       -9.4850     4.1270     2.0460 H     1 <1>   0.1500 
@<TRIPOS>BOND
  1   1   2  2   
  2   2   3  am  
  3   2   4  1   
  4   3   5  1   
  5   3   6  1   
  6   4   7  ar  
  7   4   8  ar  
  8   5   9  1   
  9   5  30  1   
 10   5  31  1   
 11   6  10  1   
 12   6  32  1   
 13   6  33  1   
 14   7  11  ar  
 15   7  34  1   
 16   8  12  ar  
 17   8  35  1   
 18   9  10  1   
 19   9  13  1   
 20   9  36  1   
 21  10  14  1   
 22  10  37  1   
 23  11  15  ar  
 24  11  38  1   
 25  12  15  ar  
 26  12  39  1   
 27  13  16  1   
 28  13  17  1   
 29  13  18  1   
 30  14  19  1   
 31  14  40  1   
 32  14  41  1   
 33  15  20  1   
 34  16  42  1   
 35  17  21  ar  
 36  17  22  ar  
 37  18  19  1   
 38  18  43  1   
 39  18  44  1   
 40  19  45  1   
 41  19  46  1   
 42  20  23  1   
 43  20  24  1   
 44  21  25  ar  
 45  21  47  1   
 46  22  26  ar  
 47  22  48  1   
 48  23  27  2   
 49  24  28  2   
 50  24  49  1   
 51  25  29  ar  
 52  25  50  1   
 53  26  29  ar  
 54  26  51  1   
 55  27  28  1   
 56  29  52  1   
@<TRIPOS>SUBSTRUCTURE
  1 ****   5 GROUP 4 **** **** 0

# MOE 2024.06 (io_trps.svl 2023.06)
