@<TRIPOS>MOLECULE
NONAME
53 56 1 0 0 
SMALL
USER_CHARGES


@<TRIPOS>ATOM
  1 O       -0.9280     0.7690     2.0180 O.2   1 <1>  -0.5700 
  2 C       -1.8720     1.2370     1.4030 C.2   1 <1>   0.7150 
  3 N       -3.0880     0.5780     1.4620 N.am  1 <1>  -0.6600 
  4 C       -1.6740     2.4470     0.6320 C.2   1 <1>   0.0550 
  5 C       -4.1960     0.7820     0.4880 C.3   1 <1>   0.1400 
  6 C       -3.3550    -0.5000     2.4560 C.3   1 <1>   0.1400 
  7 O       -2.6040     3.3930     0.5820 O.3   1 <1>  -0.2800 
  8 C       -0.6160     2.8490    -0.1040 C.2   1 <1>   0.0460 
  9 C       -4.4570    -0.5250    -0.2670 C.3   1 <1>  -0.1600 
 10 C       -3.6080    -1.8210     1.7260 C.3   1 <1>  -0.1600 
 11 C       -2.0390     4.3010    -0.1870 C.2   1 <1>   0.2980 
 12 N       -0.8640     4.0410    -0.6320 N.2   1 <1>  -0.5650 
 13 C        0.7060     2.1640    -0.3780 C.3   1 <1>  -0.0590 
 14 C       -4.7380    -1.7020     0.6880 C.3   1 <1>   0.4240 
 15 C       -2.8440     5.5620    -0.4650 C.3   1 <1>   0.0200 
 16 O       -5.8640    -1.3390     1.4580 O.3   1 <1>  -0.5600 
 17 C       -4.9670    -3.0430    -0.0680 C.ar  1 <1>  -0.1430 
 18 C       -2.1370     6.5620    -1.3930 C.3   1 <1>  -0.2400 
 19 C       -7.1240    -1.5720     0.9190 C.3   1 <1>   0.1200 
 20 C       -3.9700    -3.6400    -0.8510 C.ar  1 <1>   0.0820 
 21 C       -6.2010    -3.6880     0.0230 C.ar  1 <1>  -0.1430 
 22 C       -7.3260    -3.0760     0.8320 C.3   1 <1>  -0.0170 
 23 O       -2.7680    -3.0170    -0.9740 O.3   1 <1>  -0.3630 
 24 C       -4.2140    -4.8500    -1.4980 C.ar  1 <1>  -0.1500 
 25 C       -6.4310    -4.8920    -0.6210 C.ar  1 <1>  -0.1500 
 26 C       -1.6600    -3.6090    -1.6150 C.3   1 <1>   0.0400 
 27 C       -5.4390    -5.4740    -1.3810 C.ar  1 <1>  -0.1500 
 28 H       -3.9530     1.5470    -0.2260 H     1 <1>   0.0800 
 29 H       -5.0810     1.0860     1.0200 H     1 <1>   0.0800 
 30 H       -4.2190    -0.2310     3.0390 H     1 <1>   0.0800 
 31 H       -2.5260    -0.6140     3.1330 H     1 <1>   0.0800 
 32 H       -3.5900    -0.7310    -0.8630 H     1 <1>   0.0800 
 33 H       -5.2770    -0.4000    -0.9470 H     1 <1>   0.0800 
 34 H       -3.8640    -2.5860     2.4350 H     1 <1>   0.0800 
 35 H       -2.6880    -2.1140     1.2620 H     1 <1>   0.0800 
 36 H        0.7360     1.1880     0.0700 H     1 <1>   0.0800 
 37 H        1.5070     2.7560     0.0250 H     1 <1>   0.0800 
 38 H        0.8470     2.0640    -1.4380 H     1 <1>   0.0800 
 39 H       -3.0530     6.0400     0.4750 H     1 <1>   0.0800 
 40 H       -3.7800     5.2730    -0.9060 H     1 <1>   0.0800 
 41 H       -1.2050     6.8750    -0.9560 H     1 <1>   0.0800 
 42 H       -2.7550     7.4280    -1.5490 H     1 <1>   0.0800 
 43 H       -1.9320     6.1030    -2.3440 H     1 <1>   0.0800 
 44 H       -7.1920    -1.1110    -0.0500 H     1 <1>   0.0800 
 45 H       -7.8520    -1.1300     1.5760 H     1 <1>   0.0800 
 46 H       -8.2740    -3.2780     0.3670 H     1 <1>   0.0800 
 47 H       -7.3350    -3.4970     1.8220 H     1 <1>   0.0800 
 48 H       -3.4660    -5.3250    -2.1010 H     1 <1>   0.1500 
 49 H       -7.3860    -5.3810    -0.5350 H     1 <1>   0.1500 
 50 H       -0.8220    -2.9430    -1.5140 H     1 <1>   0.0800 
 51 H       -1.8920    -3.7470    -2.6560 H     1 <1>   0.0800 
 52 H       -1.4410    -4.5480    -1.1380 H     1 <1>   0.0800 
 53 H       -5.6210    -6.4100    -1.8810 H     1 <1>   0.1500 
@<TRIPOS>BOND
  1   1   2  2   
  2   2   3  am  
  3   2   4  1   
  4   3   5  1   
  5   3   6  1   
  6   4   7  1   
  7   4   8  2   
  8   5   9  1   
  9   5  28  1   
 10   5  29  1   
 11   6  10  1   
 12   6  30  1   
 13   6  31  1   
 14   7  11  1   
 15   8  12  1   
 16   8  13  1   
 17   9  14  1   
 18   9  32  1   
 19   9  33  1   
 20  10  14  1   
 21  10  34  1   
 22  10  35  1   
 23  11  12  2   
 24  11  15  1   
 25  13  36  1   
 26  13  37  1   
 27  13  38  1   
 28  14  16  1   
 29  14  17  1   
 30  15  18  1   
 31  15  39  1   
 32  15  40  1   
 33  16  19  1   
 34  17  20  ar  
 35  17  21  ar  
 36  18  41  1   
 37  18  42  1   
 38  18  43  1   
 39  19  22  1   
 40  19  44  1   
 41  19  45  1   
 42  20  23  1   
 43  20  24  ar  
 44  21  22  1   
 45  21  25  ar  
 46  22  46  1   
 47  22  47  1   
 48  23  26  1   
 49  24  27  ar  
 50  24  48  1   
 51  25  27  ar  
 52  25  49  1   
 53  26  50  1   
 54  26  51  1   
 55  26  52  1   
 56  27  53  1   
@<TRIPOS>SUBSTRUCTURE
  1 ****   9 GROUP 4 **** **** 0

# MOE 2024.06 (io_trps.svl 2023.06)
