@<TRIPOS>MOLECULE
NONAME
48 50 1 0 0 
SMALL
USER_CHARGES


@<TRIPOS>ATOM
  1 O       -0.6710     0.4520     2.6530 O.3   1 <1>  -0.5600 
  2 C        0.4670     0.4170     1.8460 C.3   1 <1>   0.1200 
  3 C       -1.8060     0.6770     1.8670 C.3   1 <1>   0.1200 
  4 C        0.1690     1.3830     0.7070 C.3   1 <1>   0.2890 
  5 C       -1.3070     1.0830     0.4740 C.3   1 <1>  -0.0800 
  6 N        0.3630     2.7720     1.2040 N.pl3 1 <1>  -0.8690 
  7 C       -2.1250     2.2060    -0.1880 C.3   1 <1>  -0.0170 
  8 C        0.8900     3.8090     0.5450 C.ar  1 <1>   0.4100 
  9 C       -3.5520     1.7550    -0.4560 C.ar  1 <1>  -0.1430 
 10 N        1.2320     3.6360    -0.7360 N.ar  1 <1>  -0.6200 
 11 C        1.0710     5.0410     1.1770 C.ar  1 <1>  -0.1500 
 12 C       -4.5980     2.0960     0.3780 C.ar  1 <1>  -0.1500 
 13 C       -3.8740     0.9760    -1.5490 C.ar  1 <1>  -0.1500 
 14 C        1.7440     4.6460    -1.3730 C.ar  1 <1>   0.5280 
 15 C        1.6110     6.0800     0.4790 C.ar  1 <1>   0.2180 
 16 C       -5.8770     1.6510     0.0890 C.ar  1 <1>   0.1600 
 17 C       -5.1880     0.5840    -1.7470 C.ar  1 <1>   0.1600 
 18 N        1.9450     5.8560    -0.8100 N.ar  1 <1>  -0.1790 
 19 C        2.1350     4.4550    -2.8240 C.3   1 <1>  -0.0970 
 20 C        1.8480     7.4560     1.0880 C.3   1 <1>  -0.0170 
 21 N       -6.1970     0.9010    -0.9530 N.ar  1 <1>  -0.6200 
 22 C        0.9380     8.5250     0.4620 C.3   1 <1>  -0.1600 
 23 C        1.1730     9.8950     1.1040 C.3   1 <1>  -0.2400 
 24 H        1.3300     0.7010     2.4200 H     1 <1>   0.0800 
 25 H        0.5820    -0.5880     1.4780 H     1 <1>   0.0800 
 26 H       -2.3920    -0.2250     1.8320 H     1 <1>   0.0800 
 27 H       -2.3750     1.4620     2.3340 H     1 <1>   0.0800 
 28 H        0.7770     1.1860    -0.1600 H     1 <1>   0.0800 
 29 H       -1.3680     0.2110    -0.1530 H     1 <1>   0.0800 
 30 H        0.0630     2.8500     2.1820 H     1 <1>   0.4000 
 31 H       -1.6610     2.4840    -1.1180 H     1 <1>   0.0800 
 32 H       -2.1400     3.0790     0.4400 H     1 <1>   0.0800 
 33 H        0.7790     5.1380     2.2060 H     1 <1>   0.1500 
 34 H       -4.4340     2.7030     1.2500 H     1 <1>   0.1500 
 35 H       -3.1190     0.6700    -2.2480 H     1 <1>   0.1500 
 36 H       -6.6810     1.9270     0.7510 H     1 <1>   0.1500 
 37 H       -5.4210    -0.0230    -2.6050 H     1 <1>   0.1500 
 38 H        2.3510     6.6040    -1.3720 H     1 <1>   0.4570 
 39 H        1.9040     3.4520    -3.1390 H     1 <1>   0.0800 
 40 H        3.1910     4.6110    -2.9510 H     1 <1>   0.0800 
 41 H        1.5920     5.1360    -3.4530 H     1 <1>   0.0800 
 42 H        1.6560     7.4140     2.1470 H     1 <1>   0.0800 
 43 H        2.8810     7.7340     0.9630 H     1 <1>   0.0800 
 44 H        1.1180     8.6060    -0.5950 H     1 <1>   0.0800 
 45 H       -0.0940     8.2490     0.6040 H     1 <1>   0.0800 
 46 H        2.1910    10.2180     0.9630 H     1 <1>   0.0800 
 47 H        0.9650     9.8640     2.1600 H     1 <1>   0.0800 
 48 H        0.5230    10.6280     0.6580 H     1 <1>   0.0800 
@<TRIPOS>BOND
  1   1   2  1   
  2   1   3  1   
  3   2   4  1   
  4   2  24  1   
  5   2  25  1   
  6   3   5  1   
  7   3  26  1   
  8   3  27  1   
  9   4   5  1   
 10   4   6  1   
 11   4  28  1   
 12   5   7  1   
 13   5  29  1   
 14   6   8  1   
 15   6  30  1   
 16   7   9  1   
 17   7  31  1   
 18   7  32  1   
 19   8  10  ar  
 20   8  11  ar  
 21   9  12  ar  
 22   9  13  ar  
 23  10  14  ar  
 24  11  15  ar  
 25  11  33  1   
 26  12  16  ar  
 27  12  34  1   
 28  13  17  ar  
 29  13  35  1   
 30  14  18  ar  
 31  14  19  1   
 32  15  18  ar  
 33  15  20  1   
 34  16  21  ar  
 35  16  36  1   
 36  17  21  ar  
 37  17  37  1   
 38  18  38  1   
 39  19  39  1   
 40  19  40  1   
 41  19  41  1   
 42  20  22  1   
 43  20  42  1   
 44  20  43  1   
 45  22  23  1   
 46  22  44  1   
 47  22  45  1   
 48  23  46  1   
 49  23  47  1   
 50  23  48  1   
@<TRIPOS>SUBSTRUCTURE
  1 ****   6 GROUP 4 **** **** 0

# MOE 2024.06 (io_trps.svl 2023.06)
