@<TRIPOS>MOLECULE
NONAME
45 46 1 0 0 
SMALL
USER_CHARGES


@<TRIPOS>ATOM
  1 S        0.4920     0.7330    -0.5850 S.o2  1 <1>   1.0900 
  2 O        0.0890     0.0440     0.6170 O.2   1 <1>  -0.6500 
  3 O       -0.4100     1.6590    -1.2280 O.2   1 <1>  -0.6500 
  4 C        1.9950     1.6190    -0.2110 C.3   1 <1>  -0.0550 
  5 C        0.9980    -0.4830    -1.7860 C.3   1 <1>  -0.1350 
  6 C        1.7080     2.7320     0.7940 C.3   1 <1>   0.1100 
  7 N        2.9410     3.4830     1.1100 N.3   1 <1>  -0.8100 
  8 C        2.5760     4.8460     1.5890 C.3   1 <1>   0.1100 
  9 C        3.7640     2.7640     2.1070 C.3   1 <1>   0.1100 
 10 C        3.7920     5.7790     1.7640 C.3   1 <1>   0.3430 
 11 C        5.2540     2.9420     1.7920 C.3   1 <1>  -0.1600 
 12 N        4.9420     5.2410     0.9790 N.4   1 <1>  -0.9590 
 13 C        5.7720     4.3810     1.8580 C.3   1 <1>   0.3430 
 14 C        5.6980     6.2510     0.1920 C.3   1 <1>   0.4230 
 15 C        4.7580     7.0520    -0.7240 C.3   1 <1>  -0.1600 
 16 C        6.7140     5.5840    -0.7500 C.3   1 <1>  -0.1600 
 17 C        5.4410     7.1250    -2.0880 C.3   1 <1>  -0.1600 
 18 C        6.2210     5.8220    -2.1770 C.3   1 <1>  -0.1600 
 19 H        2.3900     2.0580    -1.1070 H     1 <1>   0.0800 
 20 H        2.7180     0.9400     0.1950 H     1 <1>   0.0800 
 21 H        0.1540    -1.0780    -2.0780 H     1 <1>   0.0800 
 22 H        1.7430    -1.1350    -1.3740 H     1 <1>   0.0800 
 23 H        1.3950    -0.0080    -2.6620 H     1 <1>   0.0800 
 24 H        1.2730     2.3230     1.6940 H     1 <1>   0.0800 
 25 H        0.9780     3.3910     0.3500 H     1 <1>   0.0800 
 26 H        2.0280     4.7860     2.5150 H     1 <1>   0.0800 
 27 H        1.9240     5.3040     0.8640 H     1 <1>   0.0800 
 28 H        3.5460     1.7090     2.0800 H     1 <1>   0.0800 
 29 H        3.5390     3.1050     3.1060 H     1 <1>   0.0800 
 30 H        4.0510     5.8440     2.8070 H     1 <1>   0.0800 
 31 H        3.5230     6.7680     1.4310 H     1 <1>   0.0800 
 32 H        5.4580     2.5330     0.8190 H     1 <1>   0.0800 
 33 H        5.8170     2.3570     2.4970 H     1 <1>   0.0800 
 34 H        4.4760     4.5810     0.3270 H     1 <1>   0.4500 
 35 H        6.8010     4.3960     1.5350 H     1 <1>   0.0800 
 36 H        5.7370     4.7420     2.8720 H     1 <1>   0.0800 
 37 H        6.2180     6.9230     0.8560 H     1 <1>   0.0800 
 38 H        4.5790     8.0400    -0.3370 H     1 <1>   0.0800 
 39 H        3.8190     6.5420    -0.8560 H     1 <1>   0.0800 
 40 H        6.8600     4.5340    -0.5760 H     1 <1>   0.0800 
 41 H        7.6590     6.0850    -0.6310 H     1 <1>   0.0800 
 42 H        6.1250     7.9570    -2.1120 H     1 <1>   0.0800 
 43 H        4.7340     7.2290    -2.8950 H     1 <1>   0.0800 
 44 H        5.5590     5.0260    -2.4740 H     1 <1>   0.0800 
 45 H        7.0320     5.8850    -2.8830 H     1 <1>   0.0800 
@<TRIPOS>BOND
  1   1   2  2   
  2   1   3  2   
  3   1   4  1   
  4   1   5  1   
  5   4   6  1   
  6   4  19  1   
  7   4  20  1   
  8   5  21  1   
  9   5  22  1   
 10   5  23  1   
 11   6   7  1   
 12   6  24  1   
 13   6  25  1   
 14   7   8  1   
 15   7   9  1   
 16   8  10  1   
 17   8  26  1   
 18   8  27  1   
 19   9  11  1   
 20   9  28  1   
 21   9  29  1   
 22  10  12  1   
 23  10  30  1   
 24  10  31  1   
 25  11  13  1   
 26  11  32  1   
 27  11  33  1   
 28  12  13  1   
 29  12  14  1   
 30  12  34  1   
 31  13  35  1   
 32  13  36  1   
 33  14  15  1   
 34  14  16  1   
 35  14  37  1   
 36  15  17  1   
 37  15  38  1   
 38  15  39  1   
 39  16  18  1   
 40  16  40  1   
 41  16  41  1   
 42  17  18  1   
 43  17  42  1   
 44  17  43  1   
 45  18  44  1   
 46  18  45  1   
@<TRIPOS>SUBSTRUCTURE
  1 ****   7 GROUP 4 **** **** 0

# MOE 2024.06 (io_trps.svl 2023.06)
