@<TRIPOS>MOLECULE
NONAME
52 55 1 0 0 
SMALL
USER_CHARGES


@<TRIPOS>ATOM
  1 CL       1.7090     4.1110    -4.2660 Cl    1 <1>  -0.1770 
  2 C        2.7060     3.7300    -2.8860 C.ar  1 <1>   0.1770 
  3 C        2.1880     3.8770    -1.6140 C.ar  1 <1>  -0.1500 
  4 C        4.0000     3.2910    -3.0840 C.ar  1 <1>  -0.1500 
  5 C        2.9840     3.5810    -0.5200 C.ar  1 <1>  -0.1500 
  6 C        4.7900     2.9960    -1.9860 C.ar  1 <1>  -0.1500 
  7 C        4.2900     3.1350    -0.6970 C.ar  1 <1>  -0.1080 
  8 C        5.2000     2.8410     0.5060 C.3   1 <1>   0.1610 
  9 C        6.0810     4.0520     0.8660 C.2   1 <1>   0.5770 
 10 C        4.4700     2.2290     1.7420 C.3   1 <1>   0.0000 
 11 C        5.9560     1.4800     0.3880 C.3   1 <1>   0.0000 
 12 O        7.1310     3.8940     1.4460 O.2   1 <1>  -0.5700 
 13 N        5.6300     5.2840     0.4910 N.am  1 <1>  -0.4930 
 14 C        5.6470     1.2310     1.8870 C.3   1 <1>   0.0000 
 15 C        6.2430     6.5550     0.6130 C.2   1 <1>   0.0630 
 16 C        6.9300     7.1220     1.6910 C.2   1 <1>   0.1080 
 17 C        6.2490     7.5100    -0.3430 C.2   1 <1>  -0.3320 
 18 N        7.3350     8.3260     1.4300 N.2   1 <1>  -0.7070 
 19 C        7.1930     6.4740     3.0320 C.3   1 <1>  -0.0590 
 20 N        6.9240     8.5690     0.1720 N.pl3 1 <1>   0.3140 
 21 C        5.6500     7.4620    -1.7430 C.3   1 <1>  -0.0600 
 22 C        7.2310     9.8590    -0.4940 C.3   1 <1>   0.1760 
 23 C        8.7250    10.1640    -0.4470 C.3   1 <1>  -0.0550 
 24 C        6.5010    11.0430     0.1750 C.3   1 <1>  -0.1600 
 25 S        8.8330    11.8660    -0.9180 S.o2  1 <1>   1.0900 
 26 C        7.2890    12.3270    -0.1450 C.3   1 <1>  -0.0550 
 27 O        9.9440    12.5100    -0.2610 O.2   1 <1>  -0.6500 
 28 O        8.6480    11.9310    -2.3500 O.2   1 <1>  -0.6500 
 29 H        1.1760     4.2190    -1.4870 H     1 <1>   0.1500 
 30 H        4.3800     3.1830    -4.0850 H     1 <1>   0.1500 
 31 H        2.5720     3.7050     0.4680 H     1 <1>   0.1500 
 32 H        5.8020     2.6610    -2.1450 H     1 <1>   0.1500 
 33 H        3.5540     1.7230     1.4910 H     1 <1>   0.0000 
 34 H        4.3700     2.9030     2.5750 H     1 <1>   0.0000 
 35 H        7.0050     1.5650     0.1670 H     1 <1>   0.0000 
 36 H        5.4490     0.7710    -0.2450 H     1 <1>   0.0000 
 37 H        4.7980     5.2810    -0.0970 H     1 <1>   0.3700 
 38 H        5.3350     0.2250     2.1020 H     1 <1>   0.0000 
 39 H        6.4210     1.5880     2.5430 H     1 <1>   0.0000 
 40 H        6.3820     5.8230     3.2960 H     1 <1>   0.0800 
 41 H        7.2970     7.2290     3.7890 H     1 <1>   0.0800 
 42 H        8.1020     5.9030     2.9810 H     1 <1>   0.0800 
 43 H        5.1770     6.5140    -1.9250 H     1 <1>   0.0800 
 44 H        6.4210     7.5960    -2.4820 H     1 <1>   0.0800 
 45 H        4.9130     8.2360    -1.8600 H     1 <1>   0.0800 
 46 H        6.9300     9.8020    -1.5250 H     1 <1>   0.0800 
 47 H        9.2790     9.5330    -1.1140 H     1 <1>   0.0800 
 48 H        9.0920    10.0440     0.5560 H     1 <1>   0.0800 
 49 H        6.4910    10.9050     1.2440 H     1 <1>   0.0800 
 50 H        5.4860    11.1150    -0.1760 H     1 <1>   0.0800 
 51 H        7.4790    12.8660     0.7650 H     1 <1>   0.0800 
 52 H        6.7260    12.9610    -0.8030 H     1 <1>   0.0800 
@<TRIPOS>BOND
  1   1   2  1   
  2   2   3  ar  
  3   2   4  ar  
  4   3   5  ar  
  5   3  29  1   
  6   4   6  ar  
  7   4  30  1   
  8   5   7  ar  
  9   5  31  1   
 10   6   7  ar  
 11   6  32  1   
 12   7   8  1   
 13   8   9  1   
 14   8  10  1   
 15   8  11  1   
 16   9  12  2   
 17   9  13  am  
 18  10  14  1   
 19  10  33  1   
 20  10  34  1   
 21  11  14  1   
 22  11  35  1   
 23  11  36  1   
 24  13  15  1   
 25  13  37  1   
 26  14  38  1   
 27  14  39  1   
 28  15  16  1   
 29  15  17  2   
 30  16  18  2   
 31  16  19  1   
 32  17  20  1   
 33  17  21  1   
 34  18  20  1   
 35  19  40  1   
 36  19  41  1   
 37  19  42  1   
 38  20  22  1   
 39  21  43  1   
 40  21  44  1   
 41  21  45  1   
 42  22  23  1   
 43  22  24  1   
 44  22  46  1   
 45  23  25  1   
 46  23  47  1   
 47  23  48  1   
 48  24  26  1   
 49  24  49  1   
 50  24  50  1   
 51  25  26  1   
 52  25  27  2   
 53  25  28  2   
 54  26  51  1   
 55  26  52  1   
@<TRIPOS>SUBSTRUCTURE
  1 ****  15 GROUP 4 **** **** 0

# MOE 2024.06 (io_trps.svl 2023.06)
