@<TRIPOS>MOLECULE
NONAME
47 49 1 0 0 
SMALL
USER_CHARGES


@<TRIPOS>ATOM
  1 O        0.1030     0.1030    -1.2300 O.2   1 <1>  -0.5700 
  2 C       -0.7960     0.8380    -0.8910 C.2   1 <1>   0.5690 
  3 N       -2.0040     0.3370    -0.4810 N.am  1 <1>  -0.6600 
  4 C       -0.5550     2.3430    -0.9840 C.3   1 <1>   0.1810 
  5 C       -3.1760     1.1280    -0.0270 C.3   1 <1>   0.1400 
  6 C       -2.2590    -1.1160    -0.3280 C.3   1 <1>   0.1400 
  7 O       -0.8210     2.9960     0.2490 O.3   1 <1>  -0.3620 
  8 C       -4.2740     0.0920     0.2120 C.3   1 <1>   0.2000 
  9 C       -3.5360    -1.2110     0.5080 C.3   1 <1>  -0.0800 
 10 C       -0.7800     4.3470     0.3510 C.ar  1 <1>   0.0820 
 11 O       -5.0840     0.4400     1.2800 O.3   1 <1>  -0.6800 
 12 C       -4.3740    -2.4650     0.2130 C.3   1 <1>   0.0210 
 13 C       -0.3610     5.1910    -0.6740 C.ar  1 <1>  -0.1500 
 14 C       -1.1880     4.8940     1.5560 C.ar  1 <1>  -0.1500 
 15 C       -3.5530    -3.7240     0.4120 C.2   1 <1>   0.1080 
 16 C       -0.3620     6.5620    -0.4850 C.ar  1 <1>  -0.1500 
 17 C       -1.1880     6.2650     1.7410 C.ar  1 <1>  -0.1500 
 18 N       -3.0100    -4.0370     1.5470 N.2   1 <1>  -0.7070 
 19 C       -3.2810    -4.6630    -0.5780 C.2   1 <1>  -0.1500 
 20 C       -0.7770     7.1060     0.7200 C.ar  1 <1>  -0.1440 
 21 N       -2.3690    -5.1970     1.3090 N.pl3 1 <1>   0.3000 
 22 C       -2.5180    -5.5960     0.0280 C.2   1 <1>  -0.3320 
 23 C       -0.7750     8.6110     0.9240 C.3   1 <1>  -0.0970 
 24 C       -1.9110    -6.8620    -0.5460 C.3   1 <1>  -0.0600 
 25 H       -1.2000     2.7570    -1.7350 H     1 <1>   0.0800 
 26 H        0.4730     2.5240    -1.2420 H     1 <1>   0.0800 
 27 H       -2.9270     1.6340     0.8900 H     1 <1>   0.0800 
 28 H       -3.4710     1.8380    -0.7780 H     1 <1>   0.0800 
 29 H       -2.3980    -1.5510    -1.3020 H     1 <1>   0.0800 
 30 H       -1.4320    -1.6040     0.1640 H     1 <1>   0.0800 
 31 H       -4.8890     0.0070    -0.6680 H     1 <1>   0.0800 
 32 H       -3.2330    -1.2270     1.5400 H     1 <1>   0.0800 
 33 H       -4.5750     0.4030     2.1130 H     1 <1>   0.4000 
 34 H       -4.7430    -2.4360    -0.7950 H     1 <1>   0.0800 
 35 H       -5.2180    -2.4950     0.8780 H     1 <1>   0.0800 
 36 H       -0.0280     4.8060    -1.6190 H     1 <1>   0.1500 
 37 H       -1.5050     4.2400     2.3480 H     1 <1>   0.1500 
 38 H       -0.0360     7.2080    -1.2820 H     1 <1>   0.1500 
 39 H       -1.5080     6.6730     2.6840 H     1 <1>   0.1500 
 40 H       -3.6180    -4.6270    -1.5980 H     1 <1>   0.1500 
 41 H       -1.8400    -5.6880     2.0400 H     1 <1>   0.2700 
 42 H       -0.9330     9.1180    -0.0110 H     1 <1>   0.0800 
 43 H        0.1690     8.9210     1.3330 H     1 <1>   0.0800 
 44 H       -1.5590     8.9000     1.6010 H     1 <1>   0.0800 
 45 H       -2.1720    -6.9590    -1.5850 H     1 <1>   0.0800 
 46 H       -2.2790    -7.7240    -0.0190 H     1 <1>   0.0800 
 47 H       -0.8390    -6.8310    -0.4640 H     1 <1>   0.0800 
@<TRIPOS>BOND
  1   1   2  2   
  2   2   3  am  
  3   2   4  1   
  4   3   5  1   
  5   3   6  1   
  6   4   7  1   
  7   4  25  1   
  8   4  26  1   
  9   5   8  1   
 10   5  27  1   
 11   5  28  1   
 12   6   9  1   
 13   6  29  1   
 14   6  30  1   
 15   7  10  1   
 16   8   9  1   
 17   8  11  1   
 18   8  31  1   
 19   9  12  1   
 20   9  32  1   
 21  10  13  ar  
 22  10  14  ar  
 23  11  33  1   
 24  12  15  1   
 25  12  34  1   
 26  12  35  1   
 27  13  16  ar  
 28  13  36  1   
 29  14  17  ar  
 30  14  37  1   
 31  15  18  2   
 32  15  19  1   
 33  16  20  ar  
 34  16  38  1   
 35  17  20  ar  
 36  17  39  1   
 37  18  21  1   
 38  19  22  2   
 39  19  40  1   
 40  20  23  1   
 41  21  22  1   
 42  21  41  1   
 43  22  24  1   
 44  23  42  1   
 45  23  43  1   
 46  23  44  1   
 47  24  45  1   
 48  24  46  1   
 49  24  47  1   
@<TRIPOS>SUBSTRUCTURE
  1 ****   3 GROUP 4 **** **** 0

# MOE 2024.06 (io_trps.svl 2023.06)
