@<TRIPOS>MOLECULE
NONAME
54 57 1 0 0 
SMALL
USER_CHARGES


@<TRIPOS>ATOM
  1 O        1.5760     1.6390    -1.5960 O.3   1 <1>  -0.0190 
  2 N        2.3700     0.6170    -1.4870 N.2   1 <1>  -0.4100 
  3 C        0.9880     1.9200    -0.4640 C.2   1 <1>  -0.0400 
  4 C        2.2760     0.2170    -0.2690 C.2   1 <1>   0.1080 
  5 C        1.3970     1.0250     0.4480 C.2   1 <1>  -0.1500 
  6 C        0.0520     3.1100    -0.3750 C.3   1 <1>   0.0200 
  7 C        3.0220    -0.9710     0.2960 C.3   1 <1>  -0.0590 
  8 C        0.6980     4.3480    -1.0280 C.3   1 <1>  -0.0800 
  9 C       -0.0340     5.6720    -0.8260 C.3   1 <1>   0.2000 
 10 C        2.1230     4.6160    -0.5290 C.3   1 <1>   0.3430 
 11 O       -0.3770     5.8060     0.5260 O.3   1 <1>  -0.5600 
 12 C        1.0680     6.6860    -1.1290 C.3   1 <1>   0.3430 
 13 N        2.3200     6.1000    -0.5450 N.4   1 <1>  -0.9590 
 14 C       -1.7460     5.9130     0.7810 C.3   1 <1>   0.0400 
 15 C        2.5500     6.6050     0.8360 C.3   1 <1>   0.5240 
 16 C        2.7870     8.0970     0.7630 C.2   1 <1>  -0.1810 
 17 C        1.8990     9.0650     1.2100 C.2   1 <1>   0.1390 
 18 C        3.8320     8.7980     0.2690 C.2   1 <1>  -0.3020 
 19 N        2.3390    10.2610     0.9960 N.2   1 <1>  -0.7070 
 20 N        3.5610    10.1210     0.4200 N.pl3 1 <1>   0.5930 
 21 C        4.3770    11.2140     0.0090 C.ar  1 <1>  -0.0230 
 22 C        5.7680    11.1320     0.0560 C.ar  1 <1>  -0.1500 
 23 C        3.7990    12.3920    -0.4570 C.ar  1 <1>  -0.1500 
 24 C        6.5610    12.1880    -0.3620 C.ar  1 <1>  -0.1440 
 25 C        4.5860    13.4480    -0.8760 C.ar  1 <1>  -0.1500 
 26 C        5.9640    13.3450    -0.8310 C.ar  1 <1>  -0.1500 
 27 C        8.0750    12.0820    -0.3070 C.3   1 <1>  -0.0970 
 28 H        1.1380     0.9190     1.4850 H     1 <1>   0.1500 
 29 H       -0.8680     2.8730    -0.8800 H     1 <1>   0.0800 
 30 H       -0.1720     3.2900     0.6620 H     1 <1>   0.0800 
 31 H        3.6160    -0.6670     1.1380 H     1 <1>   0.0800 
 32 H        3.6700    -1.3890    -0.4540 H     1 <1>   0.0800 
 33 H        2.3240    -1.7250     0.6090 H     1 <1>   0.0800 
 34 H        0.7640     4.1640    -2.0870 H     1 <1>   0.0800 
 35 H       -0.8980     5.7930    -1.4600 H     1 <1>   0.0800 
 36 H        2.8400     4.1170    -1.1630 H     1 <1>   0.0800 
 37 H        2.2280     4.2370     0.4750 H     1 <1>   0.0800 
 38 H        0.8320     7.6550    -0.7240 H     1 <1>   0.0800 
 39 H        1.1790     6.7720    -2.1980 H     1 <1>   0.0800 
 40 H        3.1320     6.3710    -1.1130 H     1 <1>   0.4500 
 41 H       -1.8880     5.9860     1.8450 H     1 <1>   0.0800 
 42 H       -2.2520     5.0370     0.4110 H     1 <1>   0.0800 
 43 H       -2.1320     6.8000     0.3060 H     1 <1>   0.0800 
 44 H        1.6950     6.3980     1.4600 H     1 <1>   0.0800 
 45 H        3.4140     6.1270     1.2670 H     1 <1>   0.0800 
 46 H        0.9460     8.8680     1.6770 H     1 <1>   0.1500 
 47 H        4.7470     8.4610    -0.1830 H     1 <1>   0.1500 
 48 H        6.2390    10.2400     0.4270 H     1 <1>   0.1500 
 49 H        2.7260    12.4830    -0.4890 H     1 <1>   0.1500 
 50 H        4.1250    14.3520    -1.2360 H     1 <1>   0.1500 
 51 H        6.5690    14.1730    -1.1610 H     1 <1>   0.1500 
 52 H        8.5110    13.0460    -0.1150 H     1 <1>   0.0800 
 53 H        8.4490    11.7140    -1.2460 H     1 <1>   0.0800 
 54 H        8.3810    11.4120     0.4760 H     1 <1>   0.0800 
@<TRIPOS>BOND
  1   1   2  1   
  2   1   3  1   
  3   2   4  2   
  4   3   5  2   
  5   3   6  1   
  6   4   5  1   
  7   4   7  1   
  8   5  28  1   
  9   6   8  1   
 10   6  29  1   
 11   6  30  1   
 12   7  31  1   
 13   7  32  1   
 14   7  33  1   
 15   8   9  1   
 16   8  10  1   
 17   8  34  1   
 18   9  11  1   
 19   9  12  1   
 20   9  35  1   
 21  10  13  1   
 22  10  36  1   
 23  10  37  1   
 24  11  14  1   
 25  12  13  1   
 26  12  38  1   
 27  12  39  1   
 28  13  15  1   
 29  13  40  1   
 30  14  41  1   
 31  14  42  1   
 32  14  43  1   
 33  15  16  1   
 34  15  44  1   
 35  15  45  1   
 36  16  17  1   
 37  16  18  2   
 38  17  19  2   
 39  17  46  1   
 40  18  20  1   
 41  18  47  1   
 42  19  20  1   
 43  20  21  1   
 44  21  22  ar  
 45  21  23  ar  
 46  22  24  ar  
 47  22  48  1   
 48  23  25  ar  
 49  23  49  1   
 50  24  26  ar  
 51  24  27  1   
 52  25  26  ar  
 53  25  50  1   
 54  26  51  1   
 55  27  52  1   
 56  27  53  1   
 57  27  54  1   
@<TRIPOS>SUBSTRUCTURE
  1 ****  13 GROUP 4 **** **** 0

# MOE 2024.06 (io_trps.svl 2023.06)
