@<TRIPOS>MOLECULE
NONAME
48 52 1 0 0 
SMALL
USER_CHARGES


@<TRIPOS>ATOM
  1 O       -0.9220     1.1060    -1.4260 O.2   1 <1>  -0.5700 
  2 C       -2.0070     1.3430    -0.9450 C.2   1 <1>   0.5770 
  3 N       -3.1160     0.6100    -1.2990 N.am  1 <1>  -0.6600 
  4 C       -2.1180     2.4760     0.0760 C.3   1 <1>   0.0530 
  5 C       -3.0240    -0.5330    -2.2500 C.3   1 <1>   0.1400 
  6 C       -4.4920     0.8100    -0.7680 C.3   1 <1>   0.1400 
  7 C       -0.7900     3.1400     0.5440 C.3   1 <1>   0.0000 
  8 C       -2.2920     2.0000     1.5440 C.3   1 <1>   0.0000 
  9 C       -3.4270    -1.8160    -1.5210 C.3   1 <1>  -0.1600 
 10 C       -4.9060    -0.4460    -0.0010 C.3   1 <1>  -0.1600 
 11 C       -1.4180     3.2100     1.9590 C.3   1 <1>   0.0000 
 12 C       -4.8180    -1.6960    -0.8890 C.3   1 <1>   0.4600 
 13 O       -5.7270    -1.5630    -1.9610 O.3   1 <1>  -0.5600 
 14 C       -5.1490    -2.9560    -0.0990 C.2   1 <1>  -0.3320 
 15 C       -7.0790    -1.8840    -1.7300 C.3   1 <1>   0.1200 
 16 N       -4.4110    -3.4960     0.9180 N.pl3 1 <1>   0.0330 
 17 C       -6.2380    -3.7210    -0.3110 C.2   1 <1>  -0.1810 
 18 C       -7.2470    -3.3710    -1.3760 C.3   1 <1>   0.0210 
 19 C       -5.0530    -4.6300     1.3520 C.ar  1 <1>  -0.1520 
 20 C       -6.2080    -4.8010     0.5940 C.ar  1 <1>   0.0000 
 21 C       -4.7160    -5.5390     2.3590 C.ar  1 <1>  -0.1500 
 22 C       -7.0420    -5.8960     0.8410 C.ar  1 <1>  -0.1500 
 23 C       -5.5460    -6.6110     2.5920 C.ar  1 <1>  -0.1500 
 24 C       -6.7090    -6.7900     1.8330 C.ar  1 <1>  -0.1500 
 25 H       -2.8480     3.2200    -0.1990 H     1 <1>   0.0000 
 26 H       -2.0240    -0.6340    -2.6370 H     1 <1>   0.0800 
 27 H       -3.6860    -0.3580    -3.0810 H     1 <1>   0.0800 
 28 H       -5.1660     0.9730    -1.5940 H     1 <1>   0.0800 
 29 H       -4.5490     1.6680    -0.1240 H     1 <1>   0.0800 
 30 H       -0.6050     4.1040     0.1030 H     1 <1>   0.0000 
 31 H        0.0640     2.4850     0.5170 H     1 <1>   0.0000 
 32 H       -1.8130     1.0560     1.7410 H     1 <1>   0.0000 
 33 H       -3.3030     2.0520     1.9060 H     1 <1>   0.0000 
 34 H       -2.6950    -2.0150    -0.7610 H     1 <1>   0.0800 
 35 H       -3.4210    -2.6440    -2.2050 H     1 <1>   0.0800 
 36 H       -5.9010    -0.3370     0.3840 H     1 <1>   0.0800 
 37 H       -4.2510    -0.5640     0.8420 H     1 <1>   0.0800 
 38 H       -1.9950     4.1060     2.1150 H     1 <1>   0.0000 
 39 H       -0.7270     2.9970     2.7550 H     1 <1>   0.0000 
 40 H       -7.6280    -1.6520    -2.6260 H     1 <1>   0.0800 
 41 H       -7.4470    -1.2660    -0.9310 H     1 <1>   0.0800 
 42 H       -3.5250    -3.1410     1.2900 H     1 <1>   0.2700 
 43 H       -7.0820    -3.9780    -2.2470 H     1 <1>   0.0800 
 44 H       -8.2440    -3.5480    -1.0160 H     1 <1>   0.0800 
 45 H       -3.8200    -5.3950     2.9360 H     1 <1>   0.1500 
 46 H       -7.9300    -6.0210     0.2500 H     1 <1>   0.1500 
 47 H       -5.3090    -7.3250     3.3610 H     1 <1>   0.1500 
 48 H       -7.3410    -7.6370     2.0350 H     1 <1>   0.1500 
@<TRIPOS>BOND
  1   1   2  2   
  2   2   3  am  
  3   2   4  1   
  4   3   5  1   
  5   3   6  1   
  6   4   7  1   
  7   4   8  1   
  8   4  25  1   
  9   5   9  1   
 10   5  26  1   
 11   5  27  1   
 12   6  10  1   
 13   6  28  1   
 14   6  29  1   
 15   7  11  1   
 16   7  30  1   
 17   7  31  1   
 18   8  11  1   
 19   8  32  1   
 20   8  33  1   
 21   9  12  1   
 22   9  34  1   
 23   9  35  1   
 24  10  12  1   
 25  10  36  1   
 26  10  37  1   
 27  11  38  1   
 28  11  39  1   
 29  12  13  1   
 30  12  14  1   
 31  13  15  1   
 32  14  16  1   
 33  14  17  2   
 34  15  18  1   
 35  15  40  1   
 36  15  41  1   
 37  16  19  1   
 38  16  42  1   
 39  17  18  1   
 40  17  20  1   
 41  18  43  1   
 42  18  44  1   
 43  19  20  ar  
 44  19  21  ar  
 45  20  22  ar  
 46  21  23  ar  
 47  21  45  1   
 48  22  24  ar  
 49  22  46  1   
 50  23  24  ar  
 51  23  47  1   
 52  24  48  1   
@<TRIPOS>SUBSTRUCTURE
  1 ****  12 GROUP 4 **** **** 0

# MOE 2024.06 (io_trps.svl 2023.06)
