@<TRIPOS>MOLECULE
NONAME
44 46 1 0 0 
SMALL
USER_CHARGES


@<TRIPOS>ATOM
  1 S       -0.1050     0.0810    -0.9800 S.3   1 <1>  -0.0800 
  2 C       -0.5480     1.7460    -0.8240 C.2   1 <1>   0.1980 
  3 C       -1.4800    -0.2880     0.0000 C.2   1 <1>   0.1980 
  4 N       -1.5960     1.9140    -0.1200 N.2   1 <1>  -0.3380 
  5 C        0.3180     2.7990    -1.5110 C.3   1 <1>   0.2900 
  6 N       -2.1270     0.7460     0.3560 N.2   1 <1>  -0.3380 
  7 C       -1.7600    -1.7390     0.3210 C.3   1 <1>  -0.0600 
  8 N        1.2770     3.4900    -0.5970 N.3   1 <1>  -0.8100 
  9 C        0.5270     4.2200     0.4700 C.3   1 <1>   0.1100 
 10 C        2.2600     2.5410    -0.0330 C.3   1 <1>   0.1100 
 11 C        1.3930     5.2140     1.2680 C.3   1 <1>   0.3430 
 12 C        3.6380     3.2030     0.0970 C.3   1 <1>  -0.1600 
 13 N        2.6900     5.4100     0.5600 N.4   1 <1>  -0.9590 
 14 C        3.7030     4.4320     1.0060 C.3   1 <1>   0.3430 
 15 C        3.1580     6.8170     0.5070 C.3   1 <1>   0.4860 
 16 C        2.0950     7.6630    -0.1710 C.ar  1 <1>  -0.1440 
 17 C        1.7520     7.4320    -1.4970 C.ar  1 <1>  -0.1500 
 18 C        1.4470     8.6730     0.5340 C.ar  1 <1>  -0.1500 
 19 C        0.7670     8.2080    -2.0770 C.ar  1 <1>   0.1900 
 20 C        0.4630     9.4420    -0.0700 C.ar  1 <1>  -0.1500 
 21 F        0.4430     7.9790    -3.3200 F     1 <1>  -0.1900 
 22 C        0.1130     9.2100    -1.3890 C.ar  1 <1>  -0.1500 
 23 H       -0.3350     3.5340    -1.9510 H     1 <1>   0.0800 
 24 H        0.8610     2.3380    -2.3180 H     1 <1>   0.0800 
 25 H       -0.9280    -2.1640     0.8520 H     1 <1>   0.0800 
 26 H       -1.9220    -2.2890    -0.5870 H     1 <1>   0.0800 
 27 H       -2.6400    -1.8120     0.9350 H     1 <1>   0.0800 
 28 H        0.0680     3.5280     1.1570 H     1 <1>   0.0800 
 29 H       -0.2710     4.7820     0.0140 H     1 <1>   0.0800 
 30 H        2.3720     1.6960    -0.6940 H     1 <1>   0.0800 
 31 H        1.9210     2.1620     0.9180 H     1 <1>   0.0800 
 32 H        1.5610     4.8370     2.2630 H     1 <1>   0.0800 
 33 H        0.8560     6.1440     1.3520 H     1 <1>   0.0800 
 34 H        3.9920     3.4670    -0.8840 H     1 <1>   0.0800 
 35 H        4.3240     2.4700     0.4830 H     1 <1>   0.0800 
 36 H        2.4390     5.1050    -0.4000 H     1 <1>   0.4500 
 37 H        4.6900     4.8610     0.9430 H     1 <1>   0.0800 
 38 H        3.5210     4.1470     2.0300 H     1 <1>   0.0800 
 39 H        4.0750     6.8800    -0.0570 H     1 <1>   0.0800 
 40 H        3.3430     7.1840     1.5030 H     1 <1>   0.0800 
 41 H        2.2270     6.6700    -2.0890 H     1 <1>   0.1500 
 42 H        1.7010     8.8780     1.5610 H     1 <1>   0.1500 
 43 H       -0.0320    10.2230     0.4850 H     1 <1>   0.1500 
 44 H       -0.6480     9.7940    -1.8770 H     1 <1>   0.1500 
@<TRIPOS>BOND
  1   1   2  1   
  2   1   3  1   
  3   2   4  2   
  4   2   5  1   
  5   3   6  2   
  6   3   7  1   
  7   4   6  1   
  8   5   8  1   
  9   5  23  1   
 10   5  24  1   
 11   7  25  1   
 12   7  26  1   
 13   7  27  1   
 14   8   9  1   
 15   8  10  1   
 16   9  11  1   
 17   9  28  1   
 18   9  29  1   
 19  10  12  1   
 20  10  30  1   
 21  10  31  1   
 22  11  13  1   
 23  11  32  1   
 24  11  33  1   
 25  12  14  1   
 26  12  34  1   
 27  12  35  1   
 28  13  14  1   
 29  13  15  1   
 30  13  36  1   
 31  14  37  1   
 32  14  38  1   
 33  15  16  1   
 34  15  39  1   
 35  15  40  1   
 36  16  17  ar  
 37  16  18  ar  
 38  17  19  ar  
 39  17  41  1   
 40  18  20  ar  
 41  18  42  1   
 42  19  21  1   
 43  19  22  ar  
 44  20  22  ar  
 45  20  43  1   
 46  22  44  1   
@<TRIPOS>SUBSTRUCTURE
  1 ****   9 GROUP 4 **** **** 0

# MOE 2024.06 (io_trps.svl 2023.06)
