@<TRIPOS>MOLECULE
NONAME
48 48 1 0 0 
SMALL
USER_CHARGES


@<TRIPOS>ATOM
  1 O       -0.1980    -0.7350    -0.6080 O.3   1 <1>  -0.5600 
  2 C       -1.4620    -1.0940    -0.1710 C.3   1 <1>   0.1200 
  3 C        0.0940     0.6220    -0.4860 C.3   1 <1>   0.0400 
  4 C       -1.5840    -2.6110    -0.3620 C.3   1 <1>   0.3430 
  5 N       -2.9020    -3.1670     0.1050 N.4   1 <1>  -0.9590 
  6 C       -2.8230    -4.6540     0.1500 C.3   1 <1>   0.3430 
  7 C       -4.0290    -2.6980    -0.7530 C.3   1 <1>   0.3430 
  8 C       -4.1310    -5.2400     0.6990 C.3   1 <1>  -0.1600 
  9 C       -5.3560    -3.2450    -0.2140 C.3   1 <1>  -0.1600 
 10 C       -5.3640    -4.7830    -0.1110 C.3   1 <1>  -0.0800 
 11 C       -6.7130    -5.2610     0.4730 C.3   1 <1>   0.3430 
 12 N       -6.8340    -6.7480     0.4660 N.4   1 <1>  -0.9590 
 13 C       -8.1770    -7.1830    -0.0080 C.3   1 <1>   0.5430 
 14 C       -6.5440    -7.3650     1.8040 C.3   1 <1>   0.2630 
 15 C       -8.0450    -8.5990    -0.4320 C.1   1 <1>  -0.2000 
 16 C       -7.9140    -9.7330    -0.7640 C.1   1 <1>  -0.2000 
 17 C       -7.7610   -11.1560    -1.1830 C.3   1 <1>   0.0400 
 18 C       -6.3390   -11.6470    -0.9090 C.3   1 <1>  -0.2400 
 19 H       -2.1850    -0.5620    -0.7640 H     1 <1>   0.0800 
 20 H       -1.5490    -0.8290     0.8690 H     1 <1>   0.0800 
 21 H        1.0930     0.7850    -0.8530 H     1 <1>   0.0800 
 22 H        0.0420     0.9100     0.5500 H     1 <1>   0.0800 
 23 H       -0.6020     1.1950    -1.0750 H     1 <1>   0.0800 
 24 H       -0.7840    -3.0740     0.1930 H     1 <1>   0.0800 
 25 H       -1.4420    -2.8390    -1.4060 H     1 <1>   0.0800 
 26 H       -3.0560    -2.8290     1.0650 H     1 <1>   0.4500 
 27 H       -2.0000    -4.9600     0.7780 H     1 <1>   0.0800 
 28 H       -2.6440    -5.0370    -0.8430 H     1 <1>   0.0800 
 29 H       -3.8810    -3.0390    -1.7660 H     1 <1>   0.0800 
 30 H       -4.0660    -1.6200    -0.7650 H     1 <1>   0.0800 
 31 H       -4.2340    -4.9540     1.7310 H     1 <1>   0.0800 
 32 H       -4.0470    -6.3120     0.6660 H     1 <1>   0.0800 
 33 H       -6.1430    -2.9230    -0.8740 H     1 <1>   0.0800 
 34 H       -5.5460    -2.8020     0.7490 H     1 <1>   0.0800 
 35 H       -5.2820    -5.1730    -1.1130 H     1 <1>   0.0800 
 36 H       -7.5040    -4.8370    -0.1260 H     1 <1>   0.0800 
 37 H       -6.8330    -4.8870     1.4780 H     1 <1>   0.0800 
 38 H       -6.1890    -7.1550    -0.2270 H     1 <1>   0.4500 
 39 H       -8.4910    -6.5920    -0.8540 H     1 <1>   0.0800 
 40 H       -8.9120    -7.0910     0.7760 H     1 <1>   0.0800 
 41 H       -7.2570    -7.0240     2.5380 H     1 <1>   0.0800 
 42 H       -5.5540    -7.1030     2.1370 H     1 <1>   0.0800 
 43 H       -6.6090    -8.4400     1.7420 H     1 <1>   0.0800 
 44 H       -7.9800   -11.2450    -2.2330 H     1 <1>   0.0800 
 45 H       -8.4650   -11.7650    -0.6420 H     1 <1>   0.0800 
 46 H       -5.6260   -11.0590    -1.4600 H     1 <1>   0.0800 
 47 H       -6.2420   -12.6740    -1.2150 H     1 <1>   0.0800 
 48 H       -6.1130   -11.5800     0.1400 H     1 <1>   0.0800 
@<TRIPOS>BOND
  1   1   2  1   
  2   1   3  1   
  3   2   4  1   
  4   2  19  1   
  5   2  20  1   
  6   3  21  1   
  7   3  22  1   
  8   3  23  1   
  9   4   5  1   
 10   4  24  1   
 11   4  25  1   
 12   5   6  1   
 13   5   7  1   
 14   5  26  1   
 15   6   8  1   
 16   6  27  1   
 17   6  28  1   
 18   7   9  1   
 19   7  29  1   
 20   7  30  1   
 21   8  10  1   
 22   8  31  1   
 23   8  32  1   
 24   9  10  1   
 25   9  33  1   
 26   9  34  1   
 27  10  11  1   
 28  10  35  1   
 29  11  12  1   
 30  11  36  1   
 31  11  37  1   
 32  12  13  1   
 33  12  14  1   
 34  12  38  1   
 35  13  15  1   
 36  13  39  1   
 37  13  40  1   
 38  14  41  1   
 39  14  42  1   
 40  14  43  1   
 41  15  16  3   
 42  16  17  1   
 43  17  18  1   
 44  17  44  1   
 45  17  45  1   
 46  18  46  1   
 47  18  47  1   
 48  18  48  1   
@<TRIPOS>SUBSTRUCTURE
  1 ****  10 GROUP 4 **** **** 0

# MOE 2024.06 (io_trps.svl 2023.06)
