@<TRIPOS>MOLECULE
NONAME
56 60 1 0 0 
SMALL
USER_CHARGES


@<TRIPOS>ATOM
  1 O        0.7890     1.3640    -1.0340 O.3   1 <1>  -0.6800 
  2 C        0.0840     1.6590     0.1300 C.3   1 <1>   0.3000 
  3 C        0.3790     3.0760     0.6010 C.2   1 <1>   0.0070 
  4 N        0.5760     3.3720     1.8410 N.2   1 <1>  -0.3380 
  5 N        0.4570     4.1620    -0.1800 N.pl3 1 <1>   0.0480 
  6 N        0.7990     4.6800     1.9020 N.2   1 <1>  -0.3380 
  7 C        0.7320     5.1360     0.6980 C.2   1 <1>   0.0070 
  8 C        0.2960     4.2430    -1.6490 C.3   1 <1>   0.0160 
  9 C        0.9510     6.6010     0.3380 C.3   1 <1>   0.1000 
 10 C        1.8200     7.2920     1.4020 C.3   1 <1>   0.2090 
 11 C       -0.3960     7.3350     0.2040 C.3   1 <1>  -0.1600 
 12 N        2.0410     8.7390     1.0380 N.pl3 1 <1>  -0.8380 
 13 C       -0.1910     8.8440    -0.0180 C.3   1 <1>  -0.1600 
 14 C        3.2520     9.2660     0.7340 C.ar  1 <1>   0.4610 
 15 C        0.7270     9.4620     1.0440 C.3   1 <1>   0.2090 
 16 N        3.3870    10.5900     0.6320 N.ar  1 <1>  -0.1790 
 17 C        4.4290     8.5010     0.5080 C.ar  1 <1>  -0.1500 
 18 C        4.5650    11.2520     0.3420 C.ar  1 <1>   0.3610 
 19 C        5.6300     9.0730     0.2180 C.ar  1 <1>  -0.1440 
 20 C        5.7350    10.4950     0.1280 C.ar  1 <1>   0.0000 
 21 C        4.5970    12.6500     0.2660 C.ar  1 <1>  -0.1500 
 22 C        6.8600     8.2020    -0.0140 C.3   1 <1>  -0.0970 
 23 C        6.9250    11.1840    -0.1620 C.ar  1 <1>  -0.1500 
 24 C        5.7780    13.2840    -0.0190 C.ar  1 <1>  -0.1440 
 25 C        6.9300    12.5540    -0.2310 C.ar  1 <1>  -0.1440 
 26 C        6.0430    14.7650    -0.1520 C.3   1 <1>  -0.0170 
 27 C        8.0990    13.4620    -0.5300 C.3   1 <1>  -0.0170 
 28 C        7.4350    14.8210    -0.8030 C.3   1 <1>  -0.1600 
 29 H        0.7740     0.4010    -1.1980 H     1 <1>   0.4000 
 30 H        0.3820     0.9590     0.8910 H     1 <1>   0.0800 
 31 H       -0.9660     1.5430    -0.0690 H     1 <1>   0.0800 
 32 H       -0.5300     3.6250    -1.9510 H     1 <1>   0.0800 
 33 H        1.1930     3.8850    -2.1200 H     1 <1>   0.0800 
 34 H        0.1070     5.2550    -1.9520 H     1 <1>   0.0800 
 35 H        1.4840     6.6480    -0.5940 H     1 <1>   0.0800 
 36 H        2.7380     6.7500     1.5260 H     1 <1>   0.0800 
 37 H        1.3120     7.2470     2.3520 H     1 <1>   0.0800 
 38 H       -0.9630     7.1840     1.1080 H     1 <1>   0.0800 
 39 H       -0.9650     6.9210    -0.6090 H     1 <1>   0.0800 
 40 H       -1.1470     9.3370     0.0080 H     1 <1>   0.0800 
 41 H        0.2350     9.0120    -0.9920 H     1 <1>   0.0800 
 42 H        0.8400    10.5110     0.8380 H     1 <1>   0.0800 
 43 H        0.2690     9.3630     2.0160 H     1 <1>   0.0800 
 44 H        2.5650    11.1470     0.8170 H     1 <1>   0.4570 
 45 H        4.3620     7.4330     0.5550 H     1 <1>   0.1500 
 46 H        3.7080    13.2330     0.4280 H     1 <1>   0.1500 
 47 H        6.6220     7.1570     0.0860 H     1 <1>   0.0800 
 48 H        7.6240     8.4390     0.7050 H     1 <1>   0.0800 
 49 H        7.2490     8.3630    -1.0040 H     1 <1>   0.0800 
 50 H        7.8410    10.6470    -0.3330 H     1 <1>   0.1500 
 51 H        6.0680    15.2170     0.8240 H     1 <1>   0.0800 
 52 H        5.3040    15.2550    -0.7620 H     1 <1>   0.0800 
 53 H        8.6640    13.1200    -1.3790 H     1 <1>   0.0800 
 54 H        8.7380    13.5220     0.3340 H     1 <1>   0.0800 
 55 H        8.0230    15.6390    -0.4250 H     1 <1>   0.0800 
 56 H        7.3160    14.9400    -1.8660 H     1 <1>   0.0800 
@<TRIPOS>BOND
  1   1   2  1   
  2   1  29  1   
  3   2   3  1   
  4   2  30  1   
  5   2  31  1   
  6   3   4  2   
  7   3   5  1   
  8   4   6  1   
  9   5   7  1   
 10   5   8  1   
 11   6   7  2   
 12   7   9  1   
 13   8  32  1   
 14   8  33  1   
 15   8  34  1   
 16   9  10  1   
 17   9  11  1   
 18   9  35  1   
 19  10  12  1   
 20  10  36  1   
 21  10  37  1   
 22  11  13  1   
 23  11  38  1   
 24  11  39  1   
 25  12  14  1   
 26  12  15  1   
 27  13  15  1   
 28  13  40  1   
 29  13  41  1   
 30  14  16  ar  
 31  14  17  ar  
 32  15  42  1   
 33  15  43  1   
 34  16  18  ar  
 35  16  44  1   
 36  17  19  ar  
 37  17  45  1   
 38  18  20  ar  
 39  18  21  ar  
 40  19  20  ar  
 41  19  22  1   
 42  20  23  ar  
 43  21  24  ar  
 44  21  46  1   
 45  22  47  1   
 46  22  48  1   
 47  22  49  1   
 48  23  25  ar  
 49  23  50  1   
 50  24  25  ar  
 51  24  26  1   
 52  25  27  1   
 53  26  28  1   
 54  26  51  1   
 55  26  52  1   
 56  27  28  1   
 57  27  53  1   
 58  27  54  1   
 59  28  55  1   
 60  28  56  1   
@<TRIPOS>SUBSTRUCTURE
  1 ****  14 GROUP 4 **** **** 0

# MOE 2024.06 (io_trps.svl 2023.06)
