@<TRIPOS>MOLECULE
NONAME
44 46 1 0 0 
SMALL
USER_CHARGES


@<TRIPOS>ATOM
  1 S       -1.1090    -0.6160    -1.3590 S.3   1 <1>  -0.0800 
  2 C       -1.9620     0.7930    -0.7670 C.2   1 <1>   0.1980 
  3 C       -1.7890    -1.5380    -0.0510 C.2   1 <1>  -0.1100 
  4 N       -2.6660     0.5840     0.2710 N.2   1 <1>  -0.5650 
  5 C       -1.7810     2.0850    -1.5290 C.3   1 <1>  -0.0600 
  6 C       -2.5730    -0.7350     0.6870 C.2   1 <1>   0.0460 
  7 C       -3.3670    -1.1270     1.9210 C.3   1 <1>   0.0820 
  8 C       -3.7280    -2.6020     1.9180 C.2   1 <1>   0.5690 
  9 O       -3.1480    -3.3370     2.6820 O.2   1 <1>  -0.5700 
 10 N       -4.6840    -3.0750     1.0600 N.am  1 <1>  -0.6600 
 11 C       -5.3710    -2.3060    -0.0110 C.3   1 <1>   0.1400 
 12 C       -5.1010    -4.4930     1.0120 C.3   1 <1>   0.1400 
 13 C       -6.3160    -3.3030    -0.6980 C.3   1 <1>   0.2000 
 14 C       -5.6980    -4.6710    -0.3860 C.3   1 <1>  -0.0800 
 15 O       -7.5850    -3.2370    -0.1120 O.3   1 <1>  -0.5600 
 16 C       -6.6780    -5.8540    -0.4900 C.3   1 <1>   0.0200 
 17 C       -8.4320    -2.2620    -0.6360 C.3   1 <1>   0.0400 
 18 C       -6.0010    -7.2080    -0.3500 C.2   1 <1>  -0.0400 
 19 O       -6.7440    -8.2820    -0.3410 O.3   1 <1>  -0.0190 
 20 C       -4.7210    -7.5980    -0.2290 C.2   1 <1>  -0.1500 
 21 N       -6.0350    -9.3670    -0.2180 N.2   1 <1>  -0.4100 
 22 C       -4.8110    -8.9850    -0.1460 C.2   1 <1>   0.1080 
 23 C       -3.6350    -9.9220     0.0070 C.3   1 <1>  -0.0590 
 24 H       -1.5290    -2.5780     0.0280 H     1 <1>   0.1500 
 25 H       -2.3560     2.8640    -1.0630 H     1 <1>   0.0800 
 26 H       -2.1140     1.9600    -2.5430 H     1 <1>   0.0800 
 27 H       -0.7440     2.3660    -1.5270 H     1 <1>   0.0800 
 28 H       -4.2720    -0.5520     1.9650 H     1 <1>   0.0800 
 29 H       -2.7890    -0.8980     2.7960 H     1 <1>   0.0800 
 30 H       -5.9070    -1.4680     0.3970 H     1 <1>   0.0800 
 31 H       -4.6390    -1.9580    -0.7180 H     1 <1>   0.0800 
 32 H       -4.2650    -5.1480     1.1850 H     1 <1>   0.0800 
 33 H       -5.8500    -4.6580     1.7680 H     1 <1>   0.0800 
 34 H       -6.4030    -3.1330    -1.7580 H     1 <1>   0.0800 
 35 H       -4.8870    -4.8290    -1.0740 H     1 <1>   0.0800 
 36 H       -7.1740    -5.8220    -1.4440 H     1 <1>   0.0800 
 37 H       -7.4340    -5.7700     0.2720 H     1 <1>   0.0800 
 38 H       -9.3620    -2.3050    -0.0960 H     1 <1>   0.0800 
 39 H       -8.6100    -2.4690    -1.6770 H     1 <1>   0.0800 
 40 H       -7.9880    -1.2900    -0.5110 H     1 <1>   0.0800 
 41 H       -3.8150    -7.0230    -0.1990 H     1 <1>   0.1500 
 42 H       -2.9580    -9.7970    -0.8180 H     1 <1>   0.0800 
 43 H       -3.9780   -10.9410     0.0240 H     1 <1>   0.0800 
 44 H       -3.1190    -9.7130     0.9260 H     1 <1>   0.0800 
@<TRIPOS>BOND
  1   1   2  1   
  2   1   3  1   
  3   2   4  2   
  4   2   5  1   
  5   3   6  2   
  6   3  24  1   
  7   4   6  1   
  8   5  25  1   
  9   5  26  1   
 10   5  27  1   
 11   6   7  1   
 12   7   8  1   
 13   7  28  1   
 14   7  29  1   
 15   8   9  2   
 16   8  10  am  
 17  10  11  1   
 18  10  12  1   
 19  11  13  1   
 20  11  30  1   
 21  11  31  1   
 22  12  14  1   
 23  12  32  1   
 24  12  33  1   
 25  13  14  1   
 26  13  15  1   
 27  13  34  1   
 28  14  16  1   
 29  14  35  1   
 30  15  17  1   
 31  16  18  1   
 32  16  36  1   
 33  16  37  1   
 34  17  38  1   
 35  17  39  1   
 36  17  40  1   
 37  18  19  1   
 38  18  20  2   
 39  19  21  1   
 40  20  22  1   
 41  20  41  1   
 42  21  22  2   
 43  22  23  1   
 44  23  42  1   
 45  23  43  1   
 46  23  44  1   
@<TRIPOS>SUBSTRUCTURE
  1 ****  10 GROUP 4 **** **** 0

# MOE 2024.06 (io_trps.svl 2023.06)
