@<TRIPOS>MOLECULE
NONAME
33 34 1 0 0 
SMALL
USER_CHARGES


@<TRIPOS>ATOM
  1 CL      -1.4760    -0.5380     2.2640 Cl    1 <1>  -0.1770 
  2 C       -2.2440    -0.8870     0.7340 C.ar  1 <1>   0.1770 
  3 C       -2.7730     0.1150    -0.0750 C.ar  1 <1>  -0.1430 
  4 C       -2.2800    -2.2160     0.3530 C.ar  1 <1>  -0.1500 
  5 C       -3.3430    -0.2610    -1.2860 C.ar  1 <1>  -0.1500 
  6 C       -2.7790     1.6070     0.2710 C.3   1 <1>   0.4600 
  7 C       -2.8470    -2.5700    -0.8570 C.ar  1 <1>  -0.1500 
  8 C       -3.3780    -1.5900    -1.6750 C.ar  1 <1>  -0.1500 
  9 N       -1.5140     2.2420    -0.3060 N.4   1 <1>  -0.9590 
 10 C       -3.1910     1.9840     1.7270 C.2   1 <1>   0.9060 
 11 C       -0.3150     1.8350     0.4810 C.3   1 <1>   0.3430 
 12 C       -1.6620     3.7240    -0.2640 C.3   1 <1>   0.3430 
 13 O       -4.3360     1.7220     2.1050 O.co2 1 <1>  -0.9000 
 14 O       -2.4030     2.6430     2.4260 O.co2 1 <1>  -0.9000 
 15 C        0.9440     2.4300    -0.1540 C.3   1 <1>  -0.1600 
 16 C       -0.4520     4.3800    -0.9340 C.3   1 <1>  -0.1600 
 17 C        0.8570     3.9590    -0.2530 C.3   1 <1>  -0.1600 
 18 H       -1.8660    -2.9660     1.0040 H     1 <1>   0.1500 
 19 H       -3.7770     0.4770    -1.9390 H     1 <1>   0.1500 
 20 H       -3.5970     2.0090    -0.2960 H     1 <1>   0.0800 
 21 H       -2.8790    -3.6040    -1.1580 H     1 <1>   0.1500 
 22 H       -3.8260    -1.8650    -2.6160 H     1 <1>   0.1500 
 23 H       -1.4040     1.9200    -1.2680 H     1 <1>   0.4500 
 24 H       -0.2300     0.7620     0.5000 H     1 <1>   0.0800 
 25 H       -0.4080     2.1840     1.4990 H     1 <1>   0.0800 
 26 H       -1.7240     4.0530     0.7630 H     1 <1>   0.0800 
 27 H       -2.5660     4.0230    -0.7690 H     1 <1>   0.0800 
 28 H        1.0860     2.0020    -1.1300 H     1 <1>   0.0800 
 29 H        1.7950     2.1610     0.4460 H     1 <1>   0.0800 
 30 H       -0.5560     5.4490    -0.8720 H     1 <1>   0.0800 
 31 H       -0.4310     4.1140    -1.9760 H     1 <1>   0.0800 
 32 H        1.7010     4.3440    -0.8000 H     1 <1>   0.0800 
 33 H        0.8880     4.3780     0.7400 H     1 <1>   0.0800 
@<TRIPOS>BOND
  1   1   2  1   
  2   2   3  ar  
  3   2   4  ar  
  4   3   5  ar  
  5   3   6  1   
  6   4   7  ar  
  7   4  18  1   
  8   5   8  ar  
  9   5  19  1   
 10   6   9  1   
 11   6  10  1   
 12   6  20  1   
 13   7   8  ar  
 14   7  21  1   
 15   8  22  1   
 16   9  11  1   
 17   9  12  1   
 18   9  23  1   
 19  10  13  ar  
 20  10  14  ar  
 21  11  15  1   
 22  11  24  1   
 23  11  25  1   
 24  12  16  1   
 25  12  26  1   
 26  12  27  1   
 27  15  17  1   
 28  15  28  1   
 29  15  29  1   
 30  16  17  1   
 31  16  30  1   
 32  16  31  1   
 33  17  32  1   
 34  17  33  1   
@<TRIPOS>SUBSTRUCTURE
  1 ****   6 GROUP 4 **** **** 0

# MOE 2024.06 (io_trps.svl 2023.06)
