@<TRIPOS>MOLECULE
NONAME
39 40 1 0 0 
SMALL
USER_CHARGES


@<TRIPOS>ATOM
  1 S       -0.6770     0.7140     1.4500 S.o2  1 <1>   1.4470 
  2 O       -1.1890     2.0110     1.8470 O.2   1 <1>  -0.6500 
  3 O       -0.6670    -0.3340     2.4480 O.2   1 <1>  -0.6500 
  4 N       -1.6160     0.2060     0.1280 N.am  1 <1>  -0.8490 
  5 C        0.9970     0.9140     0.7500 C.ar  1 <1>  -0.0090 
  6 C       -1.2100    -1.0640    -0.5100 C.3   1 <1>   0.1960 
  7 C       -3.0650     0.3180     0.3190 C.3   1 <1>   0.1960 
  8 C        1.3390     1.9130    -0.1670 C.ar  1 <1>  -0.1440 
  9 C        1.9920     0.0170     1.1240 C.ar  1 <1>  -0.1500 
 10 C       -1.7700    -2.3070     0.1930 C.3   1 <1>  -0.1860 
 11 C       -3.6390    -0.8750     1.0870 C.3   1 <1>  -0.1600 
 12 C        2.6330     1.9990    -0.6610 C.ar  1 <1>  -0.1500 
 13 C        0.3190     2.9340    -0.6570 C.3   1 <1>  -0.0970 
 14 C        3.2800     0.1030     0.6280 C.ar  1 <1>  -0.1500 
 15 C       -1.4520    -3.5530    -0.6040 C.2   1 <1>   0.9060 
 16 C       -3.2800    -2.1690     0.3680 C.3   1 <1>   0.2000 
 17 C        3.6090     1.1010    -0.2680 C.ar  1 <1>  -0.1440 
 18 O       -0.7430    -3.4680    -1.6120 O.co2 1 <1>  -0.9000 
 19 O       -1.9370    -4.6280    -0.2280 O.co2 1 <1>  -0.9000 
 20 O       -3.7420    -3.2290     1.1140 O.3   1 <1>  -0.6800 
 21 C        5.0200     1.2000    -0.8190 C.3   1 <1>  -0.0970 
 22 H       -1.5700    -1.0590    -1.5260 H     1 <1>   0.0800 
 23 H       -0.1360    -1.1340    -0.5630 H     1 <1>   0.0800 
 24 H       -3.3040     1.2340     0.8330 H     1 <1>   0.0800 
 25 H       -3.5320     0.3610    -0.6500 H     1 <1>   0.0800 
 26 H        1.7570    -0.7730     1.8180 H     1 <1>   0.1500 
 27 H       -1.3010    -2.4160     1.1500 H     1 <1>   0.0800 
 28 H       -4.7080    -0.7830     1.1400 H     1 <1>   0.0800 
 29 H       -3.2470    -0.8870     2.0880 H     1 <1>   0.0800 
 30 H        2.8870     2.7730    -1.3640 H     1 <1>   0.1500 
 31 H        0.7210     3.5340    -1.4520 H     1 <1>   0.0800 
 32 H        0.0370     3.5890     0.1480 H     1 <1>   0.0800 
 33 H       -0.5600     2.4400    -1.0290 H     1 <1>   0.0800 
 34 H        4.0190    -0.6130     0.9400 H     1 <1>   0.1500 
 35 H       -3.7630    -2.2140    -0.5940 H     1 <1>   0.0800 
 36 H       -3.2410    -4.0300     0.7780 H     1 <1>   0.4000 
 37 H        5.7360     0.9380    -0.0600 H     1 <1>   0.0800 
 38 H        5.2290     2.2010    -1.1510 H     1 <1>   0.0800 
 39 H        5.1320     0.5270    -1.6500 H     1 <1>   0.0800 
@<TRIPOS>BOND
  1   1   2  2   
  2   1   3  2   
  3   1   4  am  
  4   1   5  1   
  5   4   6  1   
  6   4   7  1   
  7   5   8  ar  
  8   5   9  ar  
  9   6  10  1   
 10   6  22  1   
 11   6  23  1   
 12   7  11  1   
 13   7  24  1   
 14   7  25  1   
 15   8  12  ar  
 16   8  13  1   
 17   9  14  ar  
 18   9  26  1   
 19  10  15  1   
 20  10  16  1   
 21  10  27  1   
 22  11  16  1   
 23  11  28  1   
 24  11  29  1   
 25  12  17  ar  
 26  12  30  1   
 27  13  31  1   
 28  13  32  1   
 29  13  33  1   
 30  14  17  ar  
 31  14  34  1   
 32  15  18  ar  
 33  15  19  ar  
 34  16  20  1   
 35  16  35  1   
 36  17  21  1   
 37  20  36  1   
 38  21  37  1   
 39  21  38  1   
 40  21  39  1   
@<TRIPOS>SUBSTRUCTURE
  1 ****   6 GROUP 4 **** **** 0

# MOE 2024.06 (io_trps.svl 2023.06)
