@<TRIPOS>MOLECULE
NONAME
53 55 1 0 0 
SMALL
USER_CHARGES


@<TRIPOS>ATOM
  1 O       -1.6930     0.8070    -2.4010 O.2   1 <1>  -0.5700 
  2 C       -2.1260     0.6490    -1.2860 C.2   1 <1>   0.5690 
  3 N       -2.4650    -0.5820    -0.8350 N.am  1 <1>  -0.7300 
  4 C       -2.3040     1.8400    -0.3440 C.3   1 <1>  -0.0190 
  5 C       -2.4240    -1.8160    -1.6630 C.3   1 <1>   0.3200 
  6 C       -2.4420     3.1850    -1.0870 C.3   1 <1>  -0.1600 
  7 C       -1.1560     1.9040     0.6910 C.3   1 <1>  -0.1600 
  8 C       -3.7210    -2.5960    -1.5280 C.2   1 <1>   0.2980 
  9 C       -2.7760     4.3500    -0.1310 C.3   1 <1>   0.2000 
 10 C       -1.0000     3.2850     1.3610 C.3   1 <1>  -0.1600 
 11 O       -4.7800    -2.1590    -2.1560 O.3   1 <1>  -0.0190 
 12 N       -3.8900    -3.6490    -0.8390 N.2   1 <1>  -0.5650 
 13 O       -2.1520     5.5140    -0.6110 O.3   1 <1>  -0.5600 
 14 C       -2.3040     4.0850     1.3230 C.3   1 <1>   0.2000 
 15 N       -5.7060    -3.0090    -1.8400 N.2   1 <1>  -0.4100 
 16 C       -5.1870    -3.8930    -1.0640 C.2   1 <1>   0.4620 
 17 C       -2.7830     6.1260    -1.6930 C.3   1 <1>   0.0400 
 18 O       -2.0860     5.2900     1.9570 O.3   1 <1>  -0.6800 
 19 C       -5.8830    -5.0280    -0.4800 C.ar  1 <1>   0.0540 
 20 C       -7.2350    -5.2560    -0.7310 C.ar  1 <1>  -0.1500 
 21 C       -5.2360    -5.9350     0.3590 C.ar  1 <1>  -0.1500 
 22 C       -7.9220    -6.3230    -0.1820 C.ar  1 <1>   0.0820 
 23 C       -5.8990    -7.0160     0.9110 C.ar  1 <1>  -0.1500 
 24 O       -9.2410    -6.3960    -0.5160 O.3   1 <1>  -0.3620 
 25 C       -7.2480    -7.2350     0.6460 C.ar  1 <1>   0.0820 
 26 C      -10.1990    -6.8220     0.4270 C.3   1 <1>   0.0400 
 27 O       -7.9090    -8.3140     1.1550 O.3   1 <1>  -0.3630 
 28 C       -7.2390    -9.3520     1.8370 C.3   1 <1>   0.0400 
 29 H       -2.8230    -0.7090     0.1130 H     1 <1>   0.3700 
 30 H       -3.2260     1.6770     0.1860 H     1 <1>   0.0800 
 31 H       -2.2640    -1.5700    -2.6990 H     1 <1>   0.0800 
 32 H       -1.6070    -2.4320    -1.3320 H     1 <1>   0.0800 
 33 H       -3.2130     3.1050    -1.8330 H     1 <1>   0.0800 
 34 H       -1.5100     3.3880    -1.5890 H     1 <1>   0.0800 
 35 H       -1.3310     1.1590     1.4480 H     1 <1>   0.0800 
 36 H       -0.2240     1.6590     0.2090 H     1 <1>   0.0800 
 37 H       -3.8400     4.5150    -0.1050 H     1 <1>   0.0800 
 38 H       -0.2460     3.8430     0.8320 H     1 <1>   0.0800 
 39 H       -0.6740     3.1600     2.3790 H     1 <1>   0.0800 
 40 H       -3.0640     3.5570     1.8740 H     1 <1>   0.0800 
 41 H       -2.2260     7.0100    -1.9490 H     1 <1>   0.0800 
 42 H       -3.7860     6.4000    -1.4130 H     1 <1>   0.0800 
 43 H       -2.7940     5.4540    -2.5330 H     1 <1>   0.0800 
 44 H       -1.7870     5.9100     1.2530 H     1 <1>   0.4000 
 45 H       -7.7760    -4.5820    -1.3720 H     1 <1>   0.1500 
 46 H       -4.1930    -5.7950     0.5820 H     1 <1>   0.1500 
 47 H       -5.3410    -7.6760     1.5460 H     1 <1>   0.1500 
 48 H      -11.1570    -6.4370     0.1290 H     1 <1>   0.0800 
 49 H       -9.9330    -6.4400     1.3970 H     1 <1>   0.0800 
 50 H      -10.2250    -7.8960     0.4340 H     1 <1>   0.0800 
 51 H       -7.9590   -10.1160     2.0680 H     1 <1>   0.0800 
 52 H       -6.8180    -8.9600     2.7450 H     1 <1>   0.0800 
 53 H       -6.4740    -9.7530     1.1960 H     1 <1>   0.0800 
@<TRIPOS>BOND
  1   1   2  2   
  2   2   3  am  
  3   2   4  1   
  4   3   5  1   
  5   3  29  1   
  6   4   6  1   
  7   4   7  1   
  8   4  30  1   
  9   5   8  1   
 10   5  31  1   
 11   5  32  1   
 12   6   9  1   
 13   6  33  1   
 14   6  34  1   
 15   7  10  1   
 16   7  35  1   
 17   7  36  1   
 18   8  11  1   
 19   8  12  2   
 20   9  13  1   
 21   9  14  1   
 22   9  37  1   
 23  10  14  1   
 24  10  38  1   
 25  10  39  1   
 26  11  15  1   
 27  12  16  1   
 28  13  17  1   
 29  14  18  1   
 30  14  40  1   
 31  15  16  2   
 32  16  19  1   
 33  17  41  1   
 34  17  42  1   
 35  17  43  1   
 36  18  44  1   
 37  19  20  ar  
 38  19  21  ar  
 39  20  22  ar  
 40  20  45  1   
 41  21  23  ar  
 42  21  46  1   
 43  22  24  1   
 44  22  25  ar  
 45  23  25  ar  
 46  23  47  1   
 47  24  26  1   
 48  25  27  1   
 49  26  48  1   
 50  26  49  1   
 51  26  50  1   
 52  27  28  1   
 53  28  51  1   
 54  28  52  1   
 55  28  53  1   
@<TRIPOS>SUBSTRUCTURE
  1 ****   8 GROUP 4 **** **** 0

# MOE 2024.06 (io_trps.svl 2023.06)
