@<TRIPOS>MOLECULE
NONAME
36 37 1 0 0 
SMALL
USER_CHARGES


@<TRIPOS>ATOM
  1 S       -1.0510    -0.3340    -0.9810 S.3   1 <1>  -0.4600 
  2 C       -1.2370    -0.8880     0.7540 C.3   1 <1>   0.1310 
  3 C       -0.5290     1.3930    -0.8150 C.3   1 <1>  -0.0100 
  4 C       -1.4500    -2.3960     0.8650 C.2   1 <1>   0.5690 
  5 O       -0.6500    -3.0290     1.5140 O.2   1 <1>  -0.5700 
  6 N       -2.5300    -3.0100     0.2890 N.am  1 <1>  -0.6600 
  7 C       -3.6020    -2.3660    -0.5110 C.3   1 <1>   0.1400 
  8 C       -2.7300    -4.4800     0.3250 C.3   1 <1>   0.1400 
  9 C       -4.7250    -3.4010    -0.5320 C.3   1 <1>   0.2000 
 10 C       -3.9760    -4.7390    -0.5320 C.3   1 <1>  -0.0800 
 11 O       -5.4470    -3.2740     0.6460 O.3   1 <1>  -0.6800 
 12 C       -4.8010    -5.9580    -0.0800 C.3   1 <1>  -0.0170 
 13 C       -3.9900    -7.2390    -0.2020 C.ar  1 <1>  -0.1440 
 14 C       -3.8690    -7.9090    -1.4020 C.ar  1 <1>  -0.1500 
 15 C       -3.3310    -7.7950     0.8760 C.ar  1 <1>  -0.1500 
 16 C       -3.1130    -9.0690    -1.4650 C.ar  1 <1>   0.1600 
 17 C       -2.6000    -8.9590     0.7050 C.ar  1 <1>   0.1600 
 18 N       -2.4750    -9.6090    -0.4400 N.ar  1 <1>  -0.6200 
 19 H       -0.3360    -0.6110     1.2690 H     1 <1>   0.0800 
 20 H       -2.0720    -0.3600     1.1740 H     1 <1>   0.0800 
 21 H       -0.4020     1.7930    -1.8050 H     1 <1>   0.0800 
 22 H        0.4020     1.4100    -0.2760 H     1 <1>   0.0800 
 23 H       -1.2960     1.9270    -0.2830 H     1 <1>   0.0800 
 24 H       -3.9260    -1.4320    -0.0860 H     1 <1>   0.0800 
 25 H       -3.2400    -2.2020    -1.5120 H     1 <1>   0.0800 
 26 H       -1.8670    -4.9910    -0.0690 H     1 <1>   0.0800 
 27 H       -2.8880    -4.7860     1.3440 H     1 <1>   0.0800 
 28 H       -5.3980    -3.2830    -1.3640 H     1 <1>   0.0800 
 29 H       -3.6360    -4.9180    -1.5370 H     1 <1>   0.0800 
 30 H       -4.8160    -3.2470     1.3940 H     1 <1>   0.4000 
 31 H       -5.6840    -6.0370    -0.6900 H     1 <1>   0.0800 
 32 H       -5.1260    -5.8360     0.9380 H     1 <1>   0.0800 
 33 H       -4.3530    -7.5420    -2.2880 H     1 <1>   0.1500 
 34 H       -3.3760    -7.3360     1.8460 H     1 <1>   0.1500 
 35 H       -3.0300    -9.5790    -2.4100 H     1 <1>   0.1500 
 36 H       -2.0920    -9.3780     1.5570 H     1 <1>   0.1500 
@<TRIPOS>BOND
  1   1   2  1   
  2   1   3  1   
  3   2   4  1   
  4   2  19  1   
  5   2  20  1   
  6   3  21  1   
  7   3  22  1   
  8   3  23  1   
  9   4   5  2   
 10   4   6  am  
 11   6   7  1   
 12   6   8  1   
 13   7   9  1   
 14   7  24  1   
 15   7  25  1   
 16   8  10  1   
 17   8  26  1   
 18   8  27  1   
 19   9  10  1   
 20   9  11  1   
 21   9  28  1   
 22  10  12  1   
 23  10  29  1   
 24  11  30  1   
 25  12  13  1   
 26  12  31  1   
 27  12  32  1   
 28  13  14  ar  
 29  13  15  ar  
 30  14  16  ar  
 31  14  33  1   
 32  15  17  ar  
 33  15  34  1   
 34  16  18  ar  
 35  16  35  1   
 36  17  18  ar  
 37  17  36  1   
@<TRIPOS>SUBSTRUCTURE
  1 ****   8 GROUP 4 **** **** 0

# MOE 2024.06 (io_trps.svl 2023.06)
