@<TRIPOS>MOLECULE
NONAME
50 52 1 0 0 
SMALL
USER_CHARGES


@<TRIPOS>ATOM
  1 O        0.2040     0.0550    -0.5510 O.2   1 <1>  -0.5700 
  2 C        1.1710    -0.6640    -0.3880 C.2   1 <1>   0.5440 
  3 N        0.9480    -2.0030    -0.2610 N.am  1 <1>  -0.7300 
  4 C        2.5170    -0.1140    -0.3190 C.ar  1 <1>   0.0860 
  5 C       -0.3940    -2.6530    -0.2640 C.3   1 <1>   0.2010 
  6 C        2.7230     1.2430    -0.0630 C.ar  1 <1>  -0.1500 
  7 C        3.6550    -0.9050    -0.5030 C.ar  1 <1>  -0.1500 
  8 C       -0.3500    -4.1140     0.2040 C.2   1 <1>   0.5690 
  9 C        3.9940     1.7850     0.0130 C.ar  1 <1>  -0.1500 
 10 C        4.9290    -0.3710    -0.4270 C.ar  1 <1>  -0.1500 
 11 O        0.7280    -4.6140     0.4520 O.2   1 <1>  -0.5700 
 12 N       -1.5100    -4.8260     0.3320 N.am  1 <1>  -0.6600 
 13 C        5.1010     0.9770    -0.1680 C.ar  1 <1>  -0.1500 
 14 C       -2.8750    -4.3340     0.0340 C.3   1 <1>   0.1400 
 15 C       -1.5320    -6.2530     0.7120 C.3   1 <1>   0.1400 
 16 C       -3.8210    -5.4280     0.5510 C.3   1 <1>  -0.0800 
 17 C       -2.9770    -6.7170     0.5100 C.3   1 <1>  -0.0800 
 18 C       -5.2100    -5.5280    -0.1530 C.3   1 <1>   0.2800 
 19 C       -3.1760    -7.4610    -0.8200 C.3   1 <1>  -0.1600 
 20 O       -5.1280    -5.0520    -1.4480 O.3   1 <1>  -0.6800 
 21 C       -5.6490    -7.0010    -0.2570 C.3   1 <1>  -0.1600 
 22 C       -6.3020    -4.7020     0.5620 C.3   1 <1>  -0.1600 
 23 C       -4.6410    -7.8930    -1.0130 C.3   1 <1>  -0.1600 
 24 C       -6.0380    -3.1890     0.6590 C.3   1 <1>  -0.2400 
 25 H        1.6980    -2.6470     0.0120 H     1 <1>   0.3700 
 26 H       -1.0490    -2.0980     0.3820 H     1 <1>   0.0800 
 27 H       -0.7920    -2.6200    -1.2620 H     1 <1>   0.0800 
 28 H        1.8680     1.8810     0.0770 H     1 <1>   0.1500 
 29 H        3.5470    -1.9530    -0.7150 H     1 <1>   0.1500 
 30 H        4.1210     2.8350     0.2120 H     1 <1>   0.1500 
 31 H        5.7880    -1.0030    -0.5720 H     1 <1>   0.1500 
 32 H        6.0920     1.3950    -0.1090 H     1 <1>   0.1500 
 33 H       -3.0630    -3.3940     0.5210 H     1 <1>   0.0800 
 34 H       -2.9550    -4.2070    -1.0320 H     1 <1>   0.0800 
 35 H       -0.8380    -6.8160     0.1100 H     1 <1>   0.0800 
 36 H       -1.2510    -6.3390     1.7470 H     1 <1>   0.0800 
 37 H       -3.9930    -5.2250     1.5920 H     1 <1>   0.0800 
 38 H       -3.2520    -7.3780     1.3140 H     1 <1>   0.0800 
 39 H       -2.8960    -6.8060    -1.6280 H     1 <1>   0.0800 
 40 H       -2.5360    -8.3250    -0.8660 H     1 <1>   0.0800 
 41 H       -5.9780    -5.2010    -1.8990 H     1 <1>   0.4000 
 42 H       -5.7520    -7.3850     0.7430 H     1 <1>   0.0800 
 43 H       -6.6170    -7.0760    -0.7190 H     1 <1>   0.0800 
 44 H       -7.2390    -4.8520     0.0540 H     1 <1>   0.0800 
 45 H       -6.4270    -5.0860     1.5590 H     1 <1>   0.0800 
 46 H       -4.7640    -8.9100    -0.6800 H     1 <1>   0.0800 
 47 H       -4.8630    -7.8720    -2.0670 H     1 <1>   0.0800 
 48 H       -5.8560    -2.7690    -0.3140 H     1 <1>   0.0800 
 49 H       -5.1920    -2.9870     1.2900 H     1 <1>   0.0800 
 50 H       -6.8940    -2.6960     1.0850 H     1 <1>   0.0800 
@<TRIPOS>BOND
  1   1   2  2   
  2   2   3  am  
  3   2   4  1   
  4   3   5  1   
  5   3  25  1   
  6   4   6  ar  
  7   4   7  ar  
  8   5   8  1   
  9   5  26  1   
 10   5  27  1   
 11   6   9  ar  
 12   6  28  1   
 13   7  10  ar  
 14   7  29  1   
 15   8  11  2   
 16   8  12  am  
 17   9  13  ar  
 18   9  30  1   
 19  10  13  ar  
 20  10  31  1   
 21  12  14  1   
 22  12  15  1   
 23  13  32  1   
 24  14  16  1   
 25  14  33  1   
 26  14  34  1   
 27  15  17  1   
 28  15  35  1   
 29  15  36  1   
 30  16  17  1   
 31  16  18  1   
 32  16  37  1   
 33  17  19  1   
 34  17  38  1   
 35  18  20  1   
 36  18  21  1   
 37  18  22  1   
 38  19  23  1   
 39  19  39  1   
 40  19  40  1   
 41  20  41  1   
 42  21  23  1   
 43  21  42  1   
 44  21  43  1   
 45  22  24  1   
 46  22  44  1   
 47  22  45  1   
 48  23  46  1   
 49  23  47  1   
 50  24  48  1   
 51  24  49  1   
 52  24  50  1   
@<TRIPOS>SUBSTRUCTURE
  1 ****   5 GROUP 4 **** **** 0

# MOE 2024.06 (io_trps.svl 2023.06)
