@<TRIPOS>MOLECULE
NONAME
42 44 1 0 0 
SMALL
USER_CHARGES


@<TRIPOS>ATOM
  1 O       -0.2120     0.8530     1.1080 O.2   1 <1>  -0.5700 
  2 C       -0.1620     1.9000     0.5150 C.2   1 <1>   0.5690 
  3 N       -0.6880     3.0220     1.0550 N.am  1 <1>  -0.7300 
  4 C        0.4780     1.9680    -0.8750 C.3   1 <1>   0.1810 
  5 C       -0.6820     4.3400     0.3760 C.3   1 <1>   0.3640 
  6 O        0.8240     3.2840    -1.2530 O.3   1 <1>  -0.5600 
  7 C       -2.0640     4.9750     0.4900 C.ar  1 <1>  -0.1440 
  8 C       -0.2280     4.2280    -1.1000 C.3   1 <1>   0.2610 
  9 C       -3.2230     4.2300     0.3040 C.ar  1 <1>  -0.1500 
 10 C       -2.1740     6.3290     0.7760 C.ar  1 <1>  -0.1500 
 11 C        0.1460     5.6160    -1.6400 C.2   1 <1>   0.5690 
 12 C       -4.4670     4.8270     0.4100 C.ar  1 <1>  -0.1500 
 13 C       -3.4180     6.9260     0.8810 C.ar  1 <1>  -0.1500 
 14 O       -0.6070     6.0870    -2.4630 O.2   1 <1>  -0.5700 
 15 N        1.2500     6.3270    -1.2080 N.am  1 <1>  -0.6600 
 16 C       -4.5650     6.1760     0.6990 C.ar  1 <1>  -0.1500 
 17 C        1.5220     7.6990    -1.7330 C.3   1 <1>   0.1400 
 18 C        2.3430     5.7920    -0.3420 C.3   1 <1>   0.1400 
 19 C        1.7380     8.6640    -0.5660 C.3   1 <1>  -0.1600 
 20 C        2.5700     6.7350     0.8430 C.3   1 <1>  -0.1600 
 21 C        2.8500     8.1530     0.3490 C.3   1 <1>   0.2000 
 22 O        2.9350     8.9860     1.4420 O.3   1 <1>  -0.6800 
 23 H       -1.1540     2.9640     1.9620 H     1 <1>   0.3700 
 24 H       -0.2050     1.5740    -1.6050 H     1 <1>   0.0800 
 25 H        1.3750     1.3770    -0.8850 H     1 <1>   0.0800 
 26 H        0.0140     4.9670     0.9020 H     1 <1>   0.0800 
 27 H       -1.0560     3.8720    -1.6860 H     1 <1>   0.0800 
 28 H       -3.1680     3.1790     0.0760 H     1 <1>   0.1500 
 29 H       -1.2930     6.9320     0.9120 H     1 <1>   0.1500 
 30 H       -5.3590     4.2420     0.2650 H     1 <1>   0.1500 
 31 H       -3.4940     7.9770     1.1010 H     1 <1>   0.1500 
 32 H       -5.5320     6.6410     0.7800 H     1 <1>   0.1500 
 33 H        2.4010     7.6680    -2.3540 H     1 <1>   0.0800 
 34 H        0.7030     8.0510    -2.3370 H     1 <1>   0.0800 
 35 H        2.1170     4.8110     0.0290 H     1 <1>   0.0800 
 36 H        3.2440     5.7190    -0.9270 H     1 <1>   0.0800 
 37 H        0.8140     8.7570    -0.0240 H     1 <1>   0.0800 
 38 H        2.0080     9.6300    -0.9550 H     1 <1>   0.0800 
 39 H        3.4100     6.3840     1.4150 H     1 <1>   0.0800 
 40 H        1.6970     6.7220     1.4700 H     1 <1>   0.0800 
 41 H        3.7970     8.1880    -0.1630 H     1 <1>   0.0800 
 42 H        2.0810     9.0160     1.9100 H     1 <1>   0.4000 
@<TRIPOS>BOND
  1   1   2  2   
  2   2   3  am  
  3   2   4  1   
  4   3   5  1   
  5   3  23  1   
  6   4   6  1   
  7   4  24  1   
  8   4  25  1   
  9   5   7  1   
 10   5   8  1   
 11   5  26  1   
 12   6   8  1   
 13   7   9  ar  
 14   7  10  ar  
 15   8  11  1   
 16   8  27  1   
 17   9  12  ar  
 18   9  28  1   
 19  10  13  ar  
 20  10  29  1   
 21  11  14  2   
 22  11  15  am  
 23  12  16  ar  
 24  12  30  1   
 25  13  16  ar  
 26  13  31  1   
 27  15  17  1   
 28  15  18  1   
 29  16  32  1   
 30  17  19  1   
 31  17  33  1   
 32  17  34  1   
 33  18  20  1   
 34  18  35  1   
 35  18  36  1   
 36  19  21  1   
 37  19  37  1   
 38  19  38  1   
 39  20  21  1   
 40  20  39  1   
 41  20  40  1   
 42  21  22  1   
 43  21  41  1   
 44  22  42  1   
@<TRIPOS>SUBSTRUCTURE
  1 ****   5 GROUP 4 **** **** 0

# MOE 2024.06 (io_trps.svl 2023.06)
