@<TRIPOS>MOLECULE
NONAME
53 55 1 0 0 
SMALL
USER_CHARGES


@<TRIPOS>ATOM
  1 O       -1.8710     0.2830    -1.4370 O.2   1 <1>  -0.5700 
  2 C       -1.7980     1.0170    -0.4690 C.2   1 <1>   0.6900 
  3 N       -0.8300     1.9870    -0.3930 N.am  1 <1>  -0.6600 
  4 N       -2.6930     0.8860     0.5420 N.am  1 <1>  -0.7300 
  5 C       -0.0040     2.3380    -1.5810 C.3   1 <1>   0.1400 
  6 C       -0.4590     2.7200     0.8470 C.3   1 <1>   0.1400 
  7 C       -3.8130    -0.0700     0.5770 C.3   1 <1>   0.1400 
  8 C       -0.1170     3.8410    -1.8480 C.3   1 <1>  -0.1600 
  9 C       -0.5980     4.2220     0.6010 C.3   1 <1>  -0.1600 
 10 C       -5.0700     0.6730     1.0140 C.3   1 <1>  -0.2400 
 11 C        0.2490     4.6450    -0.6010 C.3   1 <1>   0.2890 
 12 N        0.0150     6.0740    -0.8720 N.pl3 1 <1>  -0.8690 
 13 C        0.6820     7.1000    -0.2560 C.ar  1 <1>   0.4100 
 14 N        1.6890     6.7900     0.5520 N.ar  1 <1>  -0.6200 
 15 C        0.2810     8.4130    -0.4870 C.ar  1 <1>  -0.1500 
 16 C        2.3030     7.8040     1.1370 C.ar  1 <1>   0.1600 
 17 C        0.9340     9.4540     0.1250 C.ar  1 <1>  -0.1500 
 18 C        2.0000     9.1520     0.9670 C.ar  1 <1>   0.0860 
 19 C        2.7640    10.1620     1.6590 C.2   1 <1>   0.5440 
 20 O        2.9440    10.0460     2.8560 O.2   1 <1>  -0.5700 
 21 N        3.3090    11.2520     1.0110 N.am  1 <1>  -0.6600 
 22 C        3.8970    12.3980     1.7670 C.3   1 <1>   0.1400 
 23 C        3.5780    11.3260    -0.4560 C.3   1 <1>   0.1400 
 24 C        3.5310    13.7330     1.0970 C.3   1 <1>   0.1200 
 25 C        3.2190    12.7190    -1.0000 C.3   1 <1>   0.1200 
 26 O        3.8660    13.7180    -0.2640 O.3   1 <1>  -0.5600 
 27 H       -2.6810     1.5920     1.2700 H     1 <1>   0.3700 
 28 H       -0.3330     1.7950    -2.4510 H     1 <1>   0.0800 
 29 H        1.0200     2.0700    -1.3890 H     1 <1>   0.0800 
 30 H        0.5620     2.4860     1.0970 H     1 <1>   0.0800 
 31 H       -1.0750     2.4270     1.6770 H     1 <1>   0.0800 
 32 H       -3.5850    -0.8600     1.2720 H     1 <1>   0.0800 
 33 H       -3.9610    -0.5050    -0.3980 H     1 <1>   0.0800 
 34 H       -1.1260     4.0590    -2.1480 H     1 <1>   0.0800 
 35 H        0.5450     4.1080    -2.6510 H     1 <1>   0.0800 
 36 H       -0.2640     4.7560     1.4720 H     1 <1>   0.0800 
 37 H       -1.6320     4.4570     0.4270 H     1 <1>   0.0800 
 38 H       -4.9440     1.0830     1.9990 H     1 <1>   0.0800 
 39 H       -5.9010    -0.0090     1.0320 H     1 <1>   0.0800 
 40 H       -5.2940     1.4610     0.3170 H     1 <1>   0.0800 
 41 H        1.2910     4.4830    -0.3770 H     1 <1>   0.0800 
 42 H       -0.8850     6.2780    -1.3050 H     1 <1>   0.4000 
 43 H       -0.5450     8.5960    -1.1480 H     1 <1>   0.1500 
 44 H        3.1120     7.5620     1.8050 H     1 <1>   0.1500 
 45 H        0.6370    10.4760    -0.0300 H     1 <1>   0.1500 
 46 H        4.9670    12.2930     1.7950 H     1 <1>   0.0800 
 47 H        3.5360    12.4030     2.7810 H     1 <1>   0.0800 
 48 H        3.0280    10.5760    -0.9930 H     1 <1>   0.0800 
 49 H        4.6260    11.1470    -0.6270 H     1 <1>   0.0800 
 50 H        4.0720    14.5400     1.5590 H     1 <1>   0.0800 
 51 H        2.4770    13.9250     1.1900 H     1 <1>   0.0800 
 52 H        2.1570    12.8860    -0.9480 H     1 <1>   0.0800 
 53 H        3.5340    12.8110    -2.0240 H     1 <1>   0.0800 
@<TRIPOS>BOND
  1   1   2  2   
  2   2   3  am  
  3   2   4  am  
  4   3   5  1   
  5   3   6  1   
  6   4   7  1   
  7   4  27  1   
  8   5   8  1   
  9   5  28  1   
 10   5  29  1   
 11   6   9  1   
 12   6  30  1   
 13   6  31  1   
 14   7  10  1   
 15   7  32  1   
 16   7  33  1   
 17   8  11  1   
 18   8  34  1   
 19   8  35  1   
 20   9  11  1   
 21   9  36  1   
 22   9  37  1   
 23  10  38  1   
 24  10  39  1   
 25  10  40  1   
 26  11  12  1   
 27  11  41  1   
 28  12  13  1   
 29  12  42  1   
 30  13  14  ar  
 31  13  15  ar  
 32  14  16  ar  
 33  15  17  ar  
 34  15  43  1   
 35  16  18  ar  
 36  16  44  1   
 37  17  18  ar  
 38  17  45  1   
 39  18  19  1   
 40  19  20  2   
 41  19  21  am  
 42  21  22  1   
 43  21  23  1   
 44  22  24  1   
 45  22  46  1   
 46  22  47  1   
 47  23  25  1   
 48  23  48  1   
 49  23  49  1   
 50  24  26  1   
 51  24  50  1   
 52  24  51  1   
 53  25  26  1   
 54  25  52  1   
 55  25  53  1   
@<TRIPOS>SUBSTRUCTURE
  1 ****  13 GROUP 4 **** **** 0

# MOE 2024.06 (io_trps.svl 2023.06)
