@<TRIPOS>MOLECULE
NONAME
47 49 1 0 0 
SMALL
USER_CHARGES


@<TRIPOS>ATOM
  1 O       -0.0970     0.3520     0.3900 O.3   1 <1>  -0.6800 
  2 C        0.9170    -0.1250    -0.4320 C.3   1 <1>   0.2000 
  3 C        1.3470    -1.4910     0.1000 C.3   1 <1>  -0.0800 
  4 C        2.1610     0.7560    -0.2240 C.3   1 <1>   0.3430 
  5 C        2.1960    -1.0750     1.3040 C.3   1 <1>   0.3430 
  6 C        2.1400    -2.2740    -0.9800 C.3   1 <1>   0.0210 
  7 N        3.0080     0.0490     0.7890 N.4   1 <1>  -0.9590 
  8 C        3.4060    -2.9350    -0.4640 C.2   1 <1>   0.1080 
  9 C        3.5700     0.9340     1.8290 C.3   1 <1>   0.5240 
 10 N        4.5030    -2.2750    -0.2290 N.2   1 <1>  -0.7070 
 11 C        3.5360    -4.2920    -0.1980 C.2   1 <1>  -0.1500 
 12 C        4.3430     2.0420     1.1370 C.2   1 <1>  -0.1810 
 13 N        5.3810    -3.2240     0.1730 N.pl3 1 <1>   0.3000 
 14 C        4.8120    -4.4450     0.2110 C.2   1 <1>  -0.3320 
 15 C        5.5160     1.9720     0.4470 C.2   1 <1>  -0.3320 
 16 C        3.9300     3.3760     1.0960 C.2   1 <1>  -0.1500 
 17 C        5.5380    -5.7120     0.6290 C.3   1 <1>  -0.0600 
 18 N        5.8350     3.2120    -0.0240 N.pl3 1 <1>   0.0480 
 19 C        6.3900     0.7480     0.2070 C.3   1 <1>  -0.0600 
 20 C        4.8570     4.0780     0.3830 C.2   1 <1>  -0.1320 
 21 C        7.0390     3.5760    -0.8090 C.3   1 <1>   0.0160 
 22 C        4.8630     5.4780     0.0830 C.1   1 <1>   0.5370 
 23 N        4.8860     6.5870    -0.1770 N.1   1 <1>  -0.5570 
 24 H       -0.9620    -0.0480     0.1600 H     1 <1>   0.4000 
 25 H        0.5670    -0.1240    -1.4510 H     1 <1>   0.0800 
 26 H        0.5100    -2.0850     0.4230 H     1 <1>   0.0800 
 27 H        1.8650     1.7340     0.1180 H     1 <1>   0.0800 
 28 H        2.7130     0.8530    -1.1440 H     1 <1>   0.0800 
 29 H        2.8120    -1.8810     1.6700 H     1 <1>   0.0800 
 30 H        1.5470    -0.7280     2.0920 H     1 <1>   0.0800 
 31 H        2.4360    -1.6260    -1.7850 H     1 <1>   0.0800 
 32 H        1.5030    -3.0270    -1.4110 H     1 <1>   0.0800 
 33 H        3.8030    -0.3980     0.2880 H     1 <1>   0.4500 
 34 H        2.7790     1.3590     2.4250 H     1 <1>   0.0800 
 35 H        4.2320     0.3780     2.4720 H     1 <1>   0.0800 
 36 H        2.7740    -5.0450    -0.3090 H     1 <1>   0.1500 
 37 H        6.3630    -3.0220     0.4050 H     1 <1>   0.2700 
 38 H        3.0390     3.7760     1.5520 H     1 <1>   0.1500 
 39 H        4.8740    -6.5560     0.5720 H     1 <1>   0.0800 
 40 H        5.8910    -5.6250     1.6420 H     1 <1>   0.0800 
 41 H        6.3760    -5.8940    -0.0200 H     1 <1>   0.0800 
 42 H        6.0310    -0.0970     0.7640 H     1 <1>   0.0800 
 43 H        7.4000     0.9470     0.5190 H     1 <1>   0.0800 
 44 H        6.3930     0.4910    -0.8380 H     1 <1>   0.0800 
 45 H        7.3940     2.7220    -1.3550 H     1 <1>   0.0800 
 46 H        7.8070     3.9190    -0.1400 H     1 <1>   0.0800 
 47 H        6.7990     4.3570    -1.5080 H     1 <1>   0.0800 
@<TRIPOS>BOND
  1   1   2  1   
  2   1  24  1   
  3   2   3  1   
  4   2   4  1   
  5   2  25  1   
  6   3   5  1   
  7   3   6  1   
  8   3  26  1   
  9   4   7  1   
 10   4  27  1   
 11   4  28  1   
 12   5   7  1   
 13   5  29  1   
 14   5  30  1   
 15   6   8  1   
 16   6  31  1   
 17   6  32  1   
 18   7   9  1   
 19   7  33  1   
 20   8  10  2   
 21   8  11  1   
 22   9  12  1   
 23   9  34  1   
 24   9  35  1   
 25  10  13  1   
 26  11  14  2   
 27  11  36  1   
 28  12  15  2   
 29  12  16  1   
 30  13  14  1   
 31  13  37  1   
 32  14  17  1   
 33  15  18  1   
 34  15  19  1   
 35  16  20  2   
 36  16  38  1   
 37  17  39  1   
 38  17  40  1   
 39  17  41  1   
 40  18  20  1   
 41  18  21  1   
 42  19  42  1   
 43  19  43  1   
 44  19  44  1   
 45  20  22  1   
 46  21  45  1   
 47  21  46  1   
 48  21  47  1   
 49  22  23  3   
@<TRIPOS>SUBSTRUCTURE
  1 ****   7 GROUP 4 **** **** 0

# MOE 2024.06 (io_trps.svl 2023.06)
