@<TRIPOS>MOLECULE
NONAME
43 44 1 0 0 
SMALL
USER_CHARGES


@<TRIPOS>ATOM
  1 O       -0.4210     0.9050     1.6870 O.2   1 <1>  -0.5700 
  2 C       -0.2510     1.9330     1.0600 C.2   1 <1>   0.5690 
  3 N       -1.2730     2.8680     1.0160 N.am  1 <1>  -0.6600 
  4 C        1.1460     2.1350     0.3680 C.3   1 <1>   0.3410 
  5 C       -2.6340     2.5450     1.5410 C.3   1 <1>   0.1400 
  6 C       -1.2470     4.1750     0.3060 C.3   1 <1>   0.1400 
  7 O        0.9630     2.6510    -0.9420 O.3   1 <1>  -0.5600 
  8 C        1.9940     3.1120     1.2050 C.3   1 <1>  -0.2400 
  9 C        1.9030     0.7950     0.2370 C.3   1 <1>  -0.2400 
 10 C       -3.6270     2.3930     0.3710 C.3   1 <1>   0.0000 
 11 C       -2.1890     4.1130    -0.9010 C.3   1 <1>  -0.1600 
 12 C        2.0580     2.9760    -1.7490 C.3   1 <1>   0.0400 
 13 C       -5.0260     2.0210     0.8970 C.3   1 <1>   0.2000 
 14 C       -3.6130     3.6890    -0.4910 C.3   1 <1>  -0.1600 
 15 C       -3.3030     1.1600    -0.4930 C.3   1 <1>  -0.1600 
 16 O       -5.7650     3.1200     1.2980 O.3   1 <1>  -0.6800 
 17 C       -5.7380     1.2940    -0.2430 C.3   1 <1>  -0.1600 
 18 C       -4.6250     0.7490    -1.1490 C.3   1 <1>  -0.1600 
 19 H       -2.6160     1.6420     2.1260 H     1 <1>   0.0800 
 20 H       -2.9590     3.3410     2.1880 H     1 <1>   0.0800 
 21 H       -1.5790     4.9430     0.9830 H     1 <1>   0.0800 
 22 H       -0.2580     4.4370    -0.0160 H     1 <1>   0.0800 
 23 H        2.0250     2.7650     2.2220 H     1 <1>   0.0800 
 24 H        1.5620     4.0930     1.2030 H     1 <1>   0.0800 
 25 H        3.0060     3.1620     0.8500 H     1 <1>   0.0800 
 26 H        1.9980     0.3330     1.2040 H     1 <1>   0.0800 
 27 H        2.8950     0.9270    -0.1490 H     1 <1>   0.0800 
 28 H        1.3500     0.1260    -0.3980 H     1 <1>   0.0800 
 29 H       -2.2230     5.0790    -1.3700 H     1 <1>   0.0800 
 30 H       -1.7810     3.4250    -1.6200 H     1 <1>   0.0800 
 31 H        1.6760     3.3720    -2.6730 H     1 <1>   0.0800 
 32 H        2.6350     2.0950    -1.9610 H     1 <1>   0.0800 
 33 H        2.6600     3.7270    -1.2700 H     1 <1>   0.0800 
 34 H       -4.9370     1.3570     1.7410 H     1 <1>   0.0800 
 35 H       -4.2170     3.5660    -1.3720 H     1 <1>   0.0800 
 36 H       -4.0280     4.5000     0.0810 H     1 <1>   0.0800 
 37 H       -2.5310     1.3390    -1.2200 H     1 <1>   0.0800 
 38 H       -2.9710     0.3580     0.1440 H     1 <1>   0.0800 
 39 H       -5.8910     3.7160     0.5380 H     1 <1>   0.4000 
 40 H       -6.3380     0.4920     0.1480 H     1 <1>   0.0800 
 41 H       -6.3610     1.9670    -0.8050 H     1 <1>   0.0800 
 42 H       -4.6850    -0.3210    -1.2510 H     1 <1>   0.0800 
 43 H       -4.7010     1.1950    -2.1260 H     1 <1>   0.0800 
@<TRIPOS>BOND
  1   1   2  2   
  2   2   3  am  
  3   2   4  1   
  4   3   5  1   
  5   3   6  1   
  6   4   7  1   
  7   4   8  1   
  8   4   9  1   
  9   5  10  1   
 10   5  19  1   
 11   5  20  1   
 12   6  11  1   
 13   6  21  1   
 14   6  22  1   
 15   7  12  1   
 16   8  23  1   
 17   8  24  1   
 18   8  25  1   
 19   9  26  1   
 20   9  27  1   
 21   9  28  1   
 22  10  13  1   
 23  10  14  1   
 24  10  15  1   
 25  11  14  1   
 26  11  29  1   
 27  11  30  1   
 28  12  31  1   
 29  12  32  1   
 30  12  33  1   
 31  13  16  1   
 32  13  17  1   
 33  13  34  1   
 34  14  35  1   
 35  14  36  1   
 36  15  18  1   
 37  15  37  1   
 38  15  38  1   
 39  16  39  1   
 40  17  18  1   
 41  17  40  1   
 42  17  41  1   
 43  18  42  1   
 44  18  43  1   
@<TRIPOS>SUBSTRUCTURE
  1 ****   3 GROUP 4 **** **** 0

# MOE 2024.06 (io_trps.svl 2023.06)
