@<TRIPOS>MOLECULE
NONAME
47 50 1 0 0 
SMALL
USER_CHARGES


@<TRIPOS>ATOM
  1 O        0.6480     0.1600    -0.4350 O.3   1 <1>  -0.3630 
  2 C        1.6860    -0.4040     0.2280 C.ar  1 <1>   0.0820 
  3 C        0.1230     1.3280     0.1540 C.3   1 <1>   0.1200 
  4 C        1.4880    -1.1970     1.3630 C.ar  1 <1>   0.0820 
  5 C        2.9710    -0.1400    -0.2270 C.ar  1 <1>  -0.1440 
  6 C        1.1770     2.4480     0.2390 C.3   1 <1>  -0.1600 
  7 O        0.2570    -1.5050     1.8440 O.3   1 <1>  -0.3620 
  8 C        2.5830    -1.6860     2.0540 C.ar  1 <1>  -0.1500 
  9 C        4.0570    -0.6430     0.4740 C.ar  1 <1>  -0.1500 
 10 C        3.1870     0.6970    -1.4790 C.3   1 <1>   0.2530 
 11 C        1.8890     2.7500    -1.0880 C.3   1 <1>   0.1100 
 12 C       -0.5980    -2.2340     0.9910 C.3   1 <1>   0.0400 
 13 C        3.8650    -1.4110     1.6110 C.ar  1 <1>  -0.1500 
 14 N        3.2370     2.1400    -1.1570 N.3   1 <1>  -0.8100 
 15 C        4.0830     2.8640    -2.1270 C.3   1 <1>   0.2900 
 16 C        4.5560     4.1880    -1.5540 C.2   1 <1>  -0.0400 
 17 O        5.1050     5.0730    -2.3370 O.3   1 <1>  -0.0190 
 18 C        4.5410     4.6970    -0.3160 C.2   1 <1>  -0.1500 
 19 N        5.4540     6.1460    -1.6950 N.2   1 <1>  -0.4100 
 20 C        5.1300     5.9600    -0.4500 C.2   1 <1>   0.2350 
 21 C        5.3500     6.9180     0.6160 C.ar  1 <1>   0.0540 
 22 C        5.1740     6.6200     1.9610 C.ar  1 <1>  -0.1500 
 23 C        5.7590     8.2200     0.3640 C.ar  1 <1>  -0.1500 
 24 C        5.4000     7.5820     2.9280 C.ar  1 <1>   0.1600 
 25 C        5.9580     9.1090     1.4020 C.ar  1 <1>   0.1600 
 26 N        5.7860     8.8220     2.6820 N.ar  1 <1>  -0.6200 
 27 H       -0.2420     1.0750     1.1350 H     1 <1>   0.0800 
 28 H       -0.7060     1.6420    -0.4530 H     1 <1>   0.0800 
 29 H        1.8980     2.2300     1.0070 H     1 <1>   0.0800 
 30 H        0.6590     3.3370     0.5480 H     1 <1>   0.0800 
 31 H        2.4260    -2.2810     2.9350 H     1 <1>   0.1500 
 32 H        5.0570    -0.4320     0.1390 H     1 <1>   0.1500 
 33 H        2.4150     0.4990    -2.2030 H     1 <1>   0.0800 
 34 H        4.1200     0.3850    -1.9160 H     1 <1>   0.0800 
 35 H        1.9860     3.8200    -1.1540 H     1 <1>   0.0800 
 36 H        1.2860     2.4340    -1.9230 H     1 <1>   0.0800 
 37 H       -1.4230    -2.5990     1.5750 H     1 <1>   0.0800 
 38 H       -0.0500    -3.0590     0.5690 H     1 <1>   0.0800 
 39 H       -0.9610    -1.5880     0.2130 H     1 <1>   0.0800 
 40 H        4.7140    -1.7930     2.1520 H     1 <1>   0.1500 
 41 H        3.5350     3.0330    -3.0390 H     1 <1>   0.0800 
 42 H        4.9600     2.2860    -2.3620 H     1 <1>   0.0800 
 43 H        4.1620     4.2400     0.5790 H     1 <1>   0.1500 
 44 H        4.8650     5.6380     2.2650 H     1 <1>   0.1500 
 45 H        5.9240     8.5400    -0.6490 H     1 <1>   0.1500 
 46 H        5.2550     7.3190     3.9620 H     1 <1>   0.1500 
 47 H        6.2750    10.1120     1.1690 H     1 <1>   0.1500 
@<TRIPOS>BOND
  1   1   2  1   
  2   1   3  1   
  3   2   4  ar  
  4   2   5  ar  
  5   3   6  1   
  6   3  27  1   
  7   3  28  1   
  8   4   7  1   
  9   4   8  ar  
 10   5   9  ar  
 11   5  10  1   
 12   6  11  1   
 13   6  29  1   
 14   6  30  1   
 15   7  12  1   
 16   8  13  ar  
 17   8  31  1   
 18   9  13  ar  
 19   9  32  1   
 20  10  14  1   
 21  10  33  1   
 22  10  34  1   
 23  11  14  1   
 24  11  35  1   
 25  11  36  1   
 26  12  37  1   
 27  12  38  1   
 28  12  39  1   
 29  13  40  1   
 30  14  15  1   
 31  15  16  1   
 32  15  41  1   
 33  15  42  1   
 34  16  17  1   
 35  16  18  2   
 36  17  19  1   
 37  18  20  1   
 38  18  43  1   
 39  19  20  2   
 40  20  21  1   
 41  21  22  ar  
 42  21  23  ar  
 43  22  24  ar  
 44  22  44  1   
 45  23  25  ar  
 46  23  45  1   
 47  24  26  ar  
 48  24  46  1   
 49  25  26  ar  
 50  25  47  1   
@<TRIPOS>SUBSTRUCTURE
  1 ****  14 GROUP 4 **** **** 0

# MOE 2024.06 (io_trps.svl 2023.06)
