@<TRIPOS>MOLECULE
NONAME
58 61 1 0 0 
SMALL
USER_CHARGES


@<TRIPOS>ATOM
  1 O       -1.2840     0.4040     0.3510 O.3   1 <1>  -0.3630 
  2 C       -0.4630     1.4830     0.4510 C.ar  1 <1>   0.0830 
  3 C       -1.5460    -0.2680     1.5660 C.3   1 <1>   0.1200 
  4 C        0.8930     1.3290     0.1690 C.ar  1 <1>   0.0830 
  5 C       -0.9830     2.7270     0.8140 C.ar  1 <1>   0.0830 
  6 C       -2.6440    -1.3180     1.3260 C.3   1 <1>   0.3430 
  7 O        1.3370     0.0830    -0.1680 O.3   1 <1>  -0.3630 
  8 C        1.7320     2.4370     0.2470 C.ar  1 <1>  -0.1500 
  9 O       -2.3180     2.8160     1.0890 O.3   1 <1>  -0.3630 
 10 C       -0.1260     3.8220     0.8860 C.ar  1 <1>  -0.1500 
 11 N       -3.6140    -0.8540     0.2850 N.4   1 <1>  -0.9590 
 12 C        2.6690    -0.1320    -0.5790 C.3   1 <1>   0.0400 
 13 C        1.2200     3.6740     0.6020 C.ar  1 <1>  -0.1500 
 14 C       -2.9160     4.0400     1.4650 C.3   1 <1>   0.0400 
 15 C       -4.3670     0.3690     0.7180 C.3   1 <1>   0.3430 
 16 C       -4.5370    -1.9190    -0.1940 C.3   1 <1>   0.3430 
 17 C       -5.1410     0.9840    -0.4560 C.3   1 <1>   0.1440 
 18 C       -5.3770    -1.3930    -1.3660 C.3   1 <1>  -0.1600 
 19 C       -5.8860     2.1920     0.0580 C.ar  1 <1>   0.1670 
 20 C       -6.1040    -0.0710    -1.0390 C.3   1 <1>  -0.1600 
 21 C       -4.2130     1.5930    -1.5450 C.3   1 <1>  -0.1600 
 22 N       -6.6240     2.2070     1.1450 N.ar  1 <1>  -0.6200 
 23 C       -5.6810     3.2880    -0.7230 C.ar  1 <1>  -0.1430 
 24 C       -4.7800     2.9830    -1.8920 C.3   1 <1>  -0.0170 
 25 C       -7.1680     3.3870     1.4150 C.ar  1 <1>   0.4770 
 26 C       -6.2870     4.4600    -0.3470 C.ar  1 <1>   0.1600 
 27 N       -7.0340     4.5190     0.7360 N.ar  1 <1>  -0.6200 
 28 C       -8.0380     3.4610     2.6460 C.3   1 <1>  -0.0970 
 29 H       -1.8700     0.4550     2.2950 H     1 <1>   0.0800 
 30 H       -0.6360    -0.7300     1.9090 H     1 <1>   0.0800 
 31 H       -3.1510    -1.5350     2.2510 H     1 <1>   0.0800 
 32 H       -2.1690    -2.2250     0.9890 H     1 <1>   0.0800 
 33 H        2.7820     2.3610     0.0380 H     1 <1>   0.1500 
 34 H       -0.4820     4.7980     1.1590 H     1 <1>   0.1500 
 35 H       -3.0160    -0.5430    -0.4990 H     1 <1>   0.4500 
 36 H        2.7760    -1.1700    -0.8390 H     1 <1>   0.0800 
 37 H        3.3310     0.1090     0.2330 H     1 <1>   0.0800 
 38 H        2.8740     0.4810    -1.4390 H     1 <1>   0.0800 
 39 H        1.8760     4.5260     0.6600 H     1 <1>   0.1500 
 40 H       -3.9630     3.8670     1.6430 H     1 <1>   0.0800 
 41 H       -2.7970     4.7490     0.6640 H     1 <1>   0.0800 
 42 H       -2.4500     4.3970     2.3660 H     1 <1>   0.0800 
 43 H       -3.6900     1.1050     1.1100 H     1 <1>   0.0800 
 44 H       -5.0650     0.1140     1.4990 H     1 <1>   0.0800 
 45 H       -5.1910    -2.2180     0.6090 H     1 <1>   0.0800 
 46 H       -3.9740    -2.7820    -0.5140 H     1 <1>   0.0800 
 47 H       -6.1070    -2.1380    -1.6300 H     1 <1>   0.0800 
 48 H       -4.7390    -1.2640    -2.2220 H     1 <1>   0.0800 
 49 H       -6.5850     0.3170    -1.9210 H     1 <1>   0.0800 
 50 H       -6.8780    -0.2690    -0.3160 H     1 <1>   0.0800 
 51 H       -4.1390     0.9840    -2.4270 H     1 <1>   0.0800 
 52 H       -3.2220     1.7300    -1.1490 H     1 <1>   0.0800 
 53 H       -5.3610     2.9460    -2.7970 H     1 <1>   0.0800 
 54 H       -3.9960     3.7150    -1.9910 H     1 <1>   0.0800 
 55 H       -6.1610     5.3560    -0.9310 H     1 <1>   0.1500 
 56 H       -8.2940     2.4760     2.9880 H     1 <1>   0.0800 
 57 H       -8.9410     3.9960     2.4180 H     1 <1>   0.0800 
 58 H       -7.5100     3.9800     3.4240 H     1 <1>   0.0800 
@<TRIPOS>BOND
  1   1   2  1   
  2   1   3  1   
  3   2   4  ar  
  4   2   5  ar  
  5   3   6  1   
  6   3  29  1   
  7   3  30  1   
  8   4   7  1   
  9   4   8  ar  
 10   5   9  1   
 11   5  10  ar  
 12   6  11  1   
 13   6  31  1   
 14   6  32  1   
 15   7  12  1   
 16   8  13  ar  
 17   8  33  1   
 18   9  14  1   
 19  10  13  ar  
 20  10  34  1   
 21  11  15  1   
 22  11  16  1   
 23  11  35  1   
 24  12  36  1   
 25  12  37  1   
 26  12  38  1   
 27  13  39  1   
 28  14  40  1   
 29  14  41  1   
 30  14  42  1   
 31  15  17  1   
 32  15  43  1   
 33  15  44  1   
 34  16  18  1   
 35  16  45  1   
 36  16  46  1   
 37  17  19  1   
 38  17  20  1   
 39  17  21  1   
 40  18  20  1   
 41  18  47  1   
 42  18  48  1   
 43  19  22  ar  
 44  19  23  ar  
 45  20  49  1   
 46  20  50  1   
 47  21  24  1   
 48  21  51  1   
 49  21  52  1   
 50  22  25  ar  
 51  23  24  1   
 52  23  26  ar  
 53  24  53  1   
 54  24  54  1   
 55  25  27  ar  
 56  25  28  1   
 57  26  27  ar  
 58  26  55  1   
 59  28  56  1   
 60  28  57  1   
 61  28  58  1   
@<TRIPOS>SUBSTRUCTURE
  1 ****   9 GROUP 4 **** **** 0

# MOE 2024.06 (io_trps.svl 2023.06)
