@<TRIPOS>MOLECULE
NONAME
49 51 1 0 0 
SMALL
USER_CHARGES


@<TRIPOS>ATOM
  1 S       -0.2290     0.4190     1.3580 S.o2  1 <1>   1.5760 
  2 O       -0.4760     1.8340     1.5230 O.2   1 <1>  -0.6500 
  3 O       -0.0990    -0.4440     2.5100 O.2   1 <1>  -0.6500 
  4 N       -1.4420    -0.2200     0.3780 N.am  1 <1>  -0.8490 
  5 N        1.0990     0.2230     0.3320 N.am  1 <1>  -0.8490 
  6 C       -1.2560    -1.6660     0.1490 C.3   1 <1>   0.1960 
  7 C       -2.7660     0.0040     0.9750 C.3   1 <1>   0.1960 
  8 C        2.3610     0.2380     1.0720 C.3   1 <1>   0.1960 
  9 C        1.0800     1.1920    -0.7620 C.3   1 <1>   0.1960 
 10 C       -2.4050    -2.2610    -0.6910 C.3   1 <1>   0.3440 
 11 C       -3.8880    -0.6300     0.1240 C.3   1 <1>   0.2950 
 12 C        2.8270    -1.2010     1.2660 C.3   1 <1>  -0.2400 
 13 C        1.8980     0.6640    -1.9400 C.3   1 <1>  -0.2400 
 14 O       -3.6400    -1.9910    -0.0810 O.3   1 <1>  -0.5600 
 15 C       -2.2330    -3.7680    -0.8490 C.ar  1 <1>  -0.1440 
 16 C       -5.2530    -0.5110     0.8100 C.3   1 <1>  -0.1950 
 17 C       -1.6240    -4.2780    -1.9870 C.ar  1 <1>  -0.1500 
 18 C       -2.6620    -4.6470     0.1370 C.ar  1 <1>  -0.1500 
 19 C       -6.5240    -0.5890     0.0240 C.3   1 <1>  -0.2000 
 20 C       -6.0990     0.7130     0.6440 C.3   1 <1>  -0.2000 
 21 C       -1.4440    -5.6430    -2.1360 C.ar  1 <1>  -0.1500 
 22 C       -2.4840    -6.0110    -0.0110 C.ar  1 <1>  -0.1500 
 23 C       -1.8740    -6.5100    -1.1480 C.ar  1 <1>  -0.1500 
 24 H       -0.3280    -1.8350    -0.3680 H     1 <1>   0.0800 
 25 H       -1.2090    -2.1930     1.0870 H     1 <1>   0.0800 
 26 H       -2.8000    -0.4160     1.9670 H     1 <1>   0.0800 
 27 H       -2.9480     1.0620     1.0570 H     1 <1>   0.0800 
 28 H        3.1210     0.7740     0.5300 H     1 <1>   0.0800 
 29 H        2.2430     0.7250     2.0280 H     1 <1>   0.0800 
 30 H        0.0660     1.3360    -1.1010 H     1 <1>   0.0800 
 31 H        1.4520     2.1470    -0.4260 H     1 <1>   0.0800 
 32 H       -2.4120    -1.8000    -1.6640 H     1 <1>   0.0800 
 33 H       -3.9260    -0.1490    -0.8390 H     1 <1>   0.0800 
 34 H        2.9570    -1.6790     0.3110 H     1 <1>   0.0800 
 35 H        2.1120    -1.7550     1.8470 H     1 <1>   0.0800 
 36 H        3.7670    -1.2110     1.7860 H     1 <1>   0.0800 
 37 H        1.5170    -0.2930    -2.2470 H     1 <1>   0.0800 
 38 H        2.9370     0.5700    -1.6850 H     1 <1>   0.0800 
 39 H        1.8140     1.3450    -2.7670 H     1 <1>   0.0800 
 40 H       -5.2530    -0.9750     1.7810 H     1 <1>   0.1000 
 41 H       -1.2840    -3.6170    -2.7650 H     1 <1>   0.1500 
 42 H       -3.1420    -4.2670     1.0230 H     1 <1>   0.1500 
 43 H       -6.4620    -0.7090    -1.0440 H     1 <1>   0.1000 
 44 H       -7.3530    -1.1270     0.4500 H     1 <1>   0.1000 
 45 H       -6.6490     1.0820     1.4920 H     1 <1>   0.1000 
 46 H       -5.7710     1.5040    -0.0100 H     1 <1>   0.1000 
 47 H       -0.9720    -6.0310    -3.0220 H     1 <1>   0.1500 
 48 H       -2.8220    -6.6830     0.7590 H     1 <1>   0.1500 
 49 H       -1.7350    -7.5710    -1.2630 H     1 <1>   0.1500 
@<TRIPOS>BOND
  1   1   2  2   
  2   1   3  2   
  3   1   4  am  
  4   1   5  am  
  5   4   6  1   
  6   4   7  1   
  7   5   8  1   
  8   5   9  1   
  9   6  10  1   
 10   6  24  1   
 11   6  25  1   
 12   7  11  1   
 13   7  26  1   
 14   7  27  1   
 15   8  12  1   
 16   8  28  1   
 17   8  29  1   
 18   9  13  1   
 19   9  30  1   
 20   9  31  1   
 21  10  14  1   
 22  10  15  1   
 23  10  32  1   
 24  11  14  1   
 25  11  16  1   
 26  11  33  1   
 27  12  34  1   
 28  12  35  1   
 29  12  36  1   
 30  13  37  1   
 31  13  38  1   
 32  13  39  1   
 33  15  17  ar  
 34  15  18  ar  
 35  16  19  1   
 36  16  20  1   
 37  16  40  1   
 38  17  21  ar  
 39  17  41  1   
 40  18  22  ar  
 41  18  42  1   
 42  19  20  1   
 43  19  43  1   
 44  19  44  1   
 45  20  45  1   
 46  20  46  1   
 47  21  23  ar  
 48  21  47  1   
 49  22  23  ar  
 50  22  48  1   
 51  23  49  1   
@<TRIPOS>SUBSTRUCTURE
  1 ****   6 GROUP 4 **** **** 0

# MOE 2024.06 (io_trps.svl 2023.06)
