@<TRIPOS>MOLECULE
NONAME
52 54 1 0 0 
SMALL
USER_CHARGES


@<TRIPOS>ATOM
  1 F        0.4790     1.8490     2.3180 F     1 <1>  -0.1900 
  2 C        0.2990     3.0750     1.9080 C.ar  1 <1>   0.1900 
  3 C        0.8130     3.4500     0.6820 C.ar  1 <1>  -0.1500 
  4 C       -0.3980     3.9530     2.7160 C.ar  1 <1>  -0.1500 
  5 C        0.6170     4.7520     0.2540 C.ar  1 <1>  -0.1500 
  6 C       -0.5860     5.2530     2.2770 C.ar  1 <1>  -0.1500 
  7 C       -0.0810     5.6560     1.0460 C.ar  1 <1>  -0.1430 
  8 C       -0.2830     7.0850     0.5570 C.3   1 <1>   0.2540 
  9 N       -0.9990     7.1190    -0.7380 N.3   1 <1>  -0.8100 
 10 C       -1.1010     8.5160    -1.2930 C.3   1 <1>   0.2510 
 11 C       -2.3280     6.4730    -0.6410 C.3   1 <1>   0.1100 
 12 C       -2.1940     8.7010    -2.3810 C.2   1 <1>   0.5690 
 13 C        0.2730     8.9640    -1.8330 C.3   1 <1>  -0.0990 
 14 C       -3.0070     6.3680    -2.0170 C.3   1 <1>   0.1400 
 15 O       -2.3240     9.7630    -2.9420 O.2   1 <1>  -0.5700 
 16 N       -3.0380     7.6870    -2.6870 N.am  1 <1>  -0.7300 
 17 C        0.9480     9.9360    -0.8840 C.2   1 <1>   0.5690 
 18 O        1.8710     9.5190    -0.2260 O.2   1 <1>  -0.5700 
 19 N        0.5260    11.2380    -0.7680 N.am  1 <1>  -0.6600 
 20 C        1.1220    12.1330     0.2660 C.3   1 <1>   0.1400 
 21 C       -0.5130    11.8810    -1.6250 C.3   1 <1>   0.0600 
 22 C        2.3620    12.8370    -0.2860 C.3   1 <1>   0.0210 
 23 C        2.8720    13.8620     0.7040 C.2   1 <1>   0.3350 
 24 N        3.9920    13.8080     1.3070 N.2   1 <1>  -0.4100 
 25 N        2.1520    14.9310     1.0180 N.2   1 <1>  -0.5650 
 26 O        4.0680    14.8600     2.0640 O.3   1 <1>  -0.0190 
 27 C        2.9400    15.4880     1.8450 C.2   1 <1>   0.2980 
 28 C        2.6770    16.7860     2.5720 C.3   1 <1>  -0.0600 
 29 H        1.3500     2.7410     0.0790 H     1 <1>   0.1500 
 30 H       -0.7800     3.6230     3.6650 H     1 <1>   0.1500 
 31 H        1.0030     5.0700    -0.7000 H     1 <1>   0.1500 
 32 H       -1.1260     5.9470     2.8970 H     1 <1>   0.1500 
 33 H        0.6920     7.5220     0.4480 H     1 <1>   0.0800 
 34 H       -0.8240     7.6580     1.2900 H     1 <1>   0.0800 
 35 H       -1.3900     9.1740    -0.4920 H     1 <1>   0.0800 
 36 H       -2.9600     7.0310     0.0300 H     1 <1>   0.0800 
 37 H       -2.2290     5.4760    -0.2490 H     1 <1>   0.0800 
 38 H        0.1820     9.4360    -2.7910 H     1 <1>   0.0800 
 39 H        0.9060     8.1080    -1.9780 H     1 <1>   0.0800 
 40 H       -4.0110     6.0030    -1.8930 H     1 <1>   0.0800 
 41 H       -2.4630     5.6700    -2.6300 H     1 <1>   0.0800 
 42 H       -3.7080     7.8380    -3.4430 H     1 <1>   0.3700 
 43 H        1.4000    11.5580     1.1340 H     1 <1>   0.0800 
 44 H        0.3920    12.8610     0.5770 H     1 <1>   0.0800 
 45 H       -0.4440    11.5290    -2.6390 H     1 <1>   0.0800 
 46 H       -0.3810    12.9490    -1.6380 H     1 <1>   0.0800 
 47 H       -1.4940    11.6590    -1.2410 H     1 <1>   0.0800 
 48 H        2.1230    13.3410    -1.2040 H     1 <1>   0.0800 
 49 H        3.1320    12.1110    -0.4760 H     1 <1>   0.0800 
 50 H        1.7180    17.1770     2.2880 H     1 <1>   0.0800 
 51 H        3.4370    17.5020     2.3210 H     1 <1>   0.0800 
 52 H        2.6880    16.6150     3.6330 H     1 <1>   0.0800 
@<TRIPOS>BOND
  1   1   2  1   
  2   2   3  ar  
  3   2   4  ar  
  4   3   5  ar  
  5   3  29  1   
  6   4   6  ar  
  7   4  30  1   
  8   5   7  ar  
  9   5  31  1   
 10   6   7  ar  
 11   6  32  1   
 12   7   8  1   
 13   8   9  1   
 14   8  33  1   
 15   8  34  1   
 16   9  10  1   
 17   9  11  1   
 18  10  12  1   
 19  10  13  1   
 20  10  35  1   
 21  11  14  1   
 22  11  36  1   
 23  11  37  1   
 24  12  15  2   
 25  12  16  am  
 26  13  17  1   
 27  13  38  1   
 28  13  39  1   
 29  14  16  1   
 30  14  40  1   
 31  14  41  1   
 32  16  42  1   
 33  17  18  2   
 34  17  19  am  
 35  19  20  1   
 36  19  21  1   
 37  20  22  1   
 38  20  43  1   
 39  20  44  1   
 40  21  45  1   
 41  21  46  1   
 42  21  47  1   
 43  22  23  1   
 44  22  48  1   
 45  22  49  1   
 46  23  24  2   
 47  23  25  1   
 48  24  26  1   
 49  25  27  2   
 50  26  27  1   
 51  27  28  1   
 52  28  50  1   
 53  28  51  1   
 54  28  52  1   
@<TRIPOS>SUBSTRUCTURE
  1 ****  17 GROUP 4 **** **** 0

# MOE 2024.06 (io_trps.svl 2023.06)
