@<TRIPOS>MOLECULE
NONAME
53 55 1 0 0 
SMALL
USER_CHARGES


@<TRIPOS>ATOM
  1 O       -0.7240     0.6480    -1.6610 O.2   1 <1>  -0.5700 
  2 C       -0.6080     1.7290    -1.1300 C.2   1 <1>   0.5690 
  3 N       -1.5730     2.2640    -0.3160 N.am  1 <1>  -0.6600 
  4 C        0.6810     2.5070    -1.3900 C.3   1 <1>   0.1810 
  5 C       -1.4190     3.6720     0.2150 C.3   1 <1>   0.3640 
  6 C       -2.5900     1.3570     0.3000 C.3   1 <1>   0.2200 
  7 O        0.9720     3.4120    -0.3570 O.3   1 <1>  -0.5600 
  8 C       -2.5200     4.5890    -0.3260 C.ar  1 <1>  -0.1440 
  9 C       -0.0630     4.3490    -0.1340 C.3   1 <1>   0.2610 
 10 C       -4.0010     1.9440     0.2920 C.3   1 <1>  -0.2400 
 11 C       -2.1580     0.9850     1.7190 C.3   1 <1>  -0.2400 
 12 C       -3.1000     5.5310     0.5130 C.ar  1 <1>  -0.1500 
 13 C       -2.9410     4.5170    -1.6480 C.ar  1 <1>  -0.1500 
 14 C        0.3510     5.4000     0.9130 C.2   1 <1>   0.5690 
 15 C       -4.0830     6.3830     0.0420 C.ar  1 <1>  -0.1500 
 16 C       -3.9240     5.3690    -2.1210 C.ar  1 <1>  -0.1500 
 17 O       -0.1310     5.3630     2.0250 O.2   1 <1>  -0.5700 
 18 N        1.2410     6.3880     0.5790 N.am  1 <1>  -0.6600 
 19 C       -4.4960     6.3030    -1.2750 C.ar  1 <1>  -0.1500 
 20 C        2.0290     6.4720    -0.6750 C.3   1 <1>   0.1400 
 21 C        1.6780     7.4220     1.5400 C.3   1 <1>   0.1400 
 22 C        3.1980     7.4160    -0.3570 C.3   1 <1>   0.0000 
 23 C        2.6320     8.3130     0.7500 C.3   1 <1>  -0.1600 
 24 C        4.4020     6.6160     0.1700 C.3   1 <1>  -0.2400 
 25 C        3.6260     8.2370    -1.5820 C.3   1 <1>  -0.2400 
 26 H        0.6030     3.0460    -2.3160 H     1 <1>   0.0800 
 27 H        1.5010     1.8160    -1.4570 H     1 <1>   0.0800 
 28 H       -1.5130     3.6200     1.2840 H     1 <1>   0.0800 
 29 H       -2.6300     0.4450    -0.2730 H     1 <1>   0.0800 
 30 H       -0.1930     4.8800    -1.0590 H     1 <1>   0.0800 
 31 H       -4.0780     2.7930     0.9450 H     1 <1>   0.0800 
 32 H       -4.7000     1.2020     0.6310 H     1 <1>   0.0800 
 33 H       -4.2780     2.2270    -0.7070 H     1 <1>   0.0800 
 34 H       -2.1970     1.8320     2.3780 H     1 <1>   0.0800 
 35 H       -1.1590     0.5870     1.7060 H     1 <1>   0.0800 
 36 H       -2.8140     0.2280     2.1080 H     1 <1>   0.0800 
 37 H       -2.7850     5.6090     1.5410 H     1 <1>   0.1500 
 38 H       -2.5110     3.7910    -2.3170 H     1 <1>   0.1500 
 39 H       -4.5240     7.1090     0.7020 H     1 <1>   0.1500 
 40 H       -4.2460     5.3030    -3.1450 H     1 <1>   0.1500 
 41 H       -5.2610     6.9650    -1.6420 H     1 <1>   0.1500 
 42 H        2.3810     5.5020    -0.9810 H     1 <1>   0.0800 
 43 H        1.4070     6.8900    -1.4460 H     1 <1>   0.0800 
 44 H        0.8340     7.9740     1.9170 H     1 <1>   0.0800 
 45 H        2.1900     6.9450     2.3580 H     1 <1>   0.0800 
 46 H        2.0600     9.1180     0.3220 H     1 <1>   0.0800 
 47 H        3.3950     8.7340     1.3800 H     1 <1>   0.0800 
 48 H        5.1950     7.2790     0.4680 H     1 <1>   0.0800 
 49 H        4.7780     5.9580    -0.5930 H     1 <1>   0.0800 
 50 H        4.1210     6.0180     1.0190 H     1 <1>   0.0800 
 51 H        4.4110     8.9230    -1.3160 H     1 <1>   0.0800 
 52 H        2.7970     8.8040    -1.9690 H     1 <1>   0.0800 
 53 H        3.9880     7.5890    -2.3600 H     1 <1>   0.0800 
@<TRIPOS>BOND
  1   1   2  2   
  2   2   3  am  
  3   2   4  1   
  4   3   5  1   
  5   3   6  1   
  6   4   7  1   
  7   4  26  1   
  8   4  27  1   
  9   5   8  1   
 10   5   9  1   
 11   5  28  1   
 12   6  10  1   
 13   6  11  1   
 14   6  29  1   
 15   7   9  1   
 16   8  12  ar  
 17   8  13  ar  
 18   9  14  1   
 19   9  30  1   
 20  10  31  1   
 21  10  32  1   
 22  10  33  1   
 23  11  34  1   
 24  11  35  1   
 25  11  36  1   
 26  12  15  ar  
 27  12  37  1   
 28  13  16  ar  
 29  13  38  1   
 30  14  17  2   
 31  14  18  am  
 32  15  19  ar  
 33  15  39  1   
 34  16  19  ar  
 35  16  40  1   
 36  18  20  1   
 37  18  21  1   
 38  19  41  1   
 39  20  22  1   
 40  20  42  1   
 41  20  43  1   
 42  21  23  1   
 43  21  44  1   
 44  21  45  1   
 45  22  23  1   
 46  22  24  1   
 47  22  25  1   
 48  23  46  1   
 49  23  47  1   
 50  24  48  1   
 51  24  49  1   
 52  24  50  1   
 53  25  51  1   
 54  25  52  1   
 55  25  53  1   
@<TRIPOS>SUBSTRUCTURE
  1 ****   9 GROUP 4 **** **** 0

# MOE 2024.06 (io_trps.svl 2023.06)
