@<TRIPOS>MOLECULE
NONAME
52 54 1 0 0 
SMALL
USER_CHARGES


@<TRIPOS>ATOM
  1 S       -0.0030    -0.8990    -1.6870 S.o2  1 <1>   1.4470 
  2 O       -0.6640    -2.1790    -1.8170 O.2   1 <1>  -0.6500 
  3 O        0.1580    -0.0650    -2.8590 O.2   1 <1>  -0.6500 
  4 N       -0.8620     0.0140    -0.5440 N.am  1 <1>  -0.8490 
  5 C        1.6030    -1.1500    -0.8850 C.ar  1 <1>  -0.0090 
  6 C       -2.3200    -0.0820    -0.7440 C.3   1 <1>   0.1960 
  7 C       -0.4250     1.3720    -0.5010 C.3   1 <1>   0.1960 
  8 C        2.7930    -0.9550    -1.5780 C.ar  1 <1>  -0.1500 
  9 C        1.6800    -1.5530     0.4420 C.ar  1 <1>  -0.1500 
 10 C       -3.5030     0.6990     0.0210 C.3   1 <1>   0.0000 
 11 C       -1.0430     1.8790     0.7630 C.3   1 <1>  -0.1600 
 12 C        4.0210    -1.1470    -0.9690 C.ar  1 <1>  -0.1500 
 13 C        2.9020    -1.7470     1.0610 C.ar  1 <1>  -0.1500 
 14 C       -4.7730     1.3780     0.7450 C.3   1 <1>   0.2000 
 15 C       -2.5720     1.8440     0.6620 C.3   1 <1>  -0.1600 
 16 C       -4.5330    -0.3660    -0.6010 C.3   1 <1>  -0.1600 
 17 C        4.0790    -1.5450     0.3620 C.ar  1 <1>   0.0830 
 18 O       -5.0160     0.6770     1.9390 O.3   1 <1>  -0.5600 
 19 C       -6.0450     1.3620    -0.0980 C.3   1 <1>  -0.1600 
 20 C       -5.7990     0.2950    -1.1110 C.3   1 <1>  -0.1600 
 21 O        5.2320    -1.7560     1.0380 O.3   1 <1>  -0.3630 
 22 C       -5.5780     1.4170     2.9780 C.3   1 <1>   0.0400 
 23 C        6.4980    -1.6100     0.4060 C.3   1 <1>   0.1810 
 24 C        7.6340    -1.9210     1.3730 C.2   1 <1>   0.5690 
 25 O        8.7730    -1.8340     0.9930 O.2   1 <1>  -0.5700 
 26 N        7.3690    -2.2890     2.6430 N.am  1 <1>  -0.8000 
 27 H       -2.4760     0.0920    -1.7990 H     1 <1>   0.0800 
 28 H       -2.4660    -1.1360    -0.5550 H     1 <1>   0.0800 
 29 H        0.6490     1.4280    -0.4320 H     1 <1>   0.0800 
 30 H       -0.7620     1.9230    -1.3660 H     1 <1>   0.0800 
 31 H        2.7560    -0.6470    -2.6100 H     1 <1>   0.1500 
 32 H        0.7700    -1.7150     0.9960 H     1 <1>   0.1500 
 33 H       -0.7120     1.2710     1.5890 H     1 <1>   0.0800 
 34 H       -0.7120     2.8850     0.9470 H     1 <1>   0.0800 
 35 H        4.9110    -0.9810    -1.5470 H     1 <1>   0.1500 
 36 H        2.9440    -2.0580     2.0900 H     1 <1>   0.1500 
 37 H       -4.6730     2.4210     1.0060 H     1 <1>   0.0800 
 38 H       -2.8100     2.7530     0.1320 H     1 <1>   0.0800 
 39 H       -2.8190     1.9950     1.7030 H     1 <1>   0.0800 
 40 H       -4.2450    -0.9850    -1.4410 H     1 <1>   0.0800 
 41 H       -4.7990    -1.0700     0.1730 H     1 <1>   0.0800 
 42 H       -6.9170     1.1470     0.4940 H     1 <1>   0.0800 
 43 H       -6.1760     2.3060    -0.5970 H     1 <1>   0.0800 
 44 H       -6.6170    -0.4040    -1.1680 H     1 <1>   0.0800 
 45 H       -5.6260     0.7310    -2.0800 H     1 <1>   0.0800 
 46 H       -5.7380     0.7540     3.8100 H     1 <1>   0.0800 
 47 H       -6.5180     1.8330     2.6600 H     1 <1>   0.0800 
 48 H       -4.8960     2.1980     3.2650 H     1 <1>   0.0800 
 49 H        6.5450    -2.2900    -0.4240 H     1 <1>   0.0800 
 50 H        6.5930    -0.5970     0.0620 H     1 <1>   0.0800 
 51 H        8.1280    -2.4970     3.2920 H     1 <1>   0.3700 
 52 H        6.4110    -2.3690     2.9890 H     1 <1>   0.3700 
@<TRIPOS>BOND
  1   1   2  2   
  2   1   3  2   
  3   1   4  am  
  4   1   5  1   
  5   4   6  1   
  6   4   7  1   
  7   5   8  ar  
  8   5   9  ar  
  9   6  10  1   
 10   6  27  1   
 11   6  28  1   
 12   7  11  1   
 13   7  29  1   
 14   7  30  1   
 15   8  12  ar  
 16   8  31  1   
 17   9  13  ar  
 18   9  32  1   
 19  10  14  1   
 20  10  15  1   
 21  10  16  1   
 22  11  15  1   
 23  11  33  1   
 24  11  34  1   
 25  12  17  ar  
 26  12  35  1   
 27  13  17  ar  
 28  13  36  1   
 29  14  18  1   
 30  14  19  1   
 31  14  37  1   
 32  15  38  1   
 33  15  39  1   
 34  16  20  1   
 35  16  40  1   
 36  16  41  1   
 37  17  21  1   
 38  18  22  1   
 39  19  20  1   
 40  19  42  1   
 41  19  43  1   
 42  20  44  1   
 43  20  45  1   
 44  21  23  1   
 45  22  46  1   
 46  22  47  1   
 47  22  48  1   
 48  23  24  1   
 49  23  49  1   
 50  23  50  1   
 51  24  25  2   
 52  24  26  am  
 53  26  51  1   
 54  26  52  1   
@<TRIPOS>SUBSTRUCTURE
  1 ****   4 GROUP 4 **** **** 0

# MOE 2024.06 (io_trps.svl 2023.06)
