@<TRIPOS>MOLECULE
NONAME
50 52 1 0 0 
SMALL
USER_CHARGES


@<TRIPOS>ATOM
  1 O       -3.2640     0.6590    -1.7540 O.2   1 <1>  -0.5700 
  2 C       -2.7570     1.1970    -0.7880 C.2   1 <1>   0.5440 
  3 N       -3.0410     0.6380     0.4270 N.am  1 <1>  -0.6600 
  4 C       -1.9850     2.4220    -0.9180 C.ar  1 <1>   0.0860 
  5 C       -2.6380    -0.7760     0.7010 C.3   1 <1>   0.3210 
  6 C       -3.9310     1.3240     1.4160 C.3   1 <1>   0.1400 
  7 C       -1.2370     2.9380     0.1440 C.ar  1 <1>  -0.1500 
  8 C       -1.9690     3.1380    -2.1200 C.ar  1 <1>  -0.1500 
  9 C       -3.7850    -1.7760     0.5550 C.2   1 <1>   0.0460 
 10 C       -5.4240     1.0020     1.1880 C.3   1 <1>   0.3430 
 11 C       -0.5320     4.1190     0.0200 C.ar  1 <1>   0.0830 
 12 C       -1.2680     4.3230    -2.2540 C.ar  1 <1>  -0.1500 
 13 N       -4.6620    -1.9890     1.5610 N.2   1 <1>  -0.5650 
 14 C       -4.0550    -2.5910    -0.4930 C.2   1 <1>  -0.3320 
 15 N       -5.7530     0.8920    -0.2700 N.4   1 <1>  -0.9590 
 16 O        0.1790     4.5690     1.0840 O.3   1 <1>  -0.3620 
 17 C       -0.5550     4.8260    -1.1820 C.ar  1 <1>   0.0830 
 18 C       -5.4100    -2.9500     1.1250 C.2   1 <1>   0.0360 
 19 N       -5.0970    -3.3580    -0.1220 N.pl3 1 <1>   0.0330 
 20 C       -3.3760    -2.7330    -1.8460 C.3   1 <1>  -0.0600 
 21 C       -5.9900     2.2080    -0.9290 C.3   1 <1>   0.2630 
 22 C       -6.8600    -0.0710    -0.5040 C.3   1 <1>   0.2630 
 23 C        1.1480     5.5710     0.8270 C.3   1 <1>   0.1200 
 24 O        0.1060     5.9980    -1.3200 O.3   1 <1>  -0.3630 
 25 C        0.5860     6.6210    -0.1430 C.3   1 <1>   0.1200 
 26 H       -2.2370    -0.8480     1.6960 H     1 <1>   0.0800 
 27 H       -1.8530    -1.0520     0.0190 H     1 <1>   0.0800 
 28 H       -3.7940     2.3880     1.3380 H     1 <1>   0.0800 
 29 H       -3.6540     1.0350     2.4160 H     1 <1>   0.0800 
 30 H       -1.1890     2.4160     1.0810 H     1 <1>   0.1500 
 31 H       -2.5150     2.7580    -2.9680 H     1 <1>   0.1500 
 32 H       -6.0390     1.7500     1.6580 H     1 <1>   0.0800 
 33 H       -5.6390     0.0660     1.6710 H     1 <1>   0.0800 
 34 H       -1.2680     4.8630    -3.1840 H     1 <1>   0.1500 
 35 H       -4.8900     0.4780    -0.7000 H     1 <1>   0.4500 
 36 H       -6.2090    -3.4030     1.6880 H     1 <1>   0.1500 
 37 H       -5.5340    -4.1170    -0.6550 H     1 <1>   0.2700 
 38 H       -2.5810    -2.0170    -1.9550 H     1 <1>   0.0800 
 39 H       -4.0850    -2.5660    -2.6380 H     1 <1>   0.0800 
 40 H       -2.9610    -3.7200    -1.9530 H     1 <1>   0.0800 
 41 H       -6.8640     2.6830    -0.5160 H     1 <1>   0.0800 
 42 H       -6.1350     2.0680    -1.9880 H     1 <1>   0.0800 
 43 H       -5.1390     2.8530    -0.7860 H     1 <1>   0.0800 
 44 H       -7.7740     0.2910    -0.0640 H     1 <1>   0.0800 
 45 H       -6.6140    -1.0230    -0.0640 H     1 <1>   0.0800 
 46 H       -7.0110    -0.2110    -1.5620 H     1 <1>   0.0800 
 47 H        2.0150     5.0980     0.4020 H     1 <1>   0.0800 
 48 H        1.4170     6.0220     1.7650 H     1 <1>   0.0800 
 49 H        1.3460     7.3250    -0.4270 H     1 <1>   0.0800 
 50 H       -0.2330     7.1500     0.3130 H     1 <1>   0.0800 
@<TRIPOS>BOND
  1   1   2  2   
  2   2   3  am  
  3   2   4  1   
  4   3   5  1   
  5   3   6  1   
  6   4   7  ar  
  7   4   8  ar  
  8   5   9  1   
  9   5  26  1   
 10   5  27  1   
 11   6  10  1   
 12   6  28  1   
 13   6  29  1   
 14   7  11  ar  
 15   7  30  1   
 16   8  12  ar  
 17   8  31  1   
 18   9  13  1   
 19   9  14  2   
 20  10  15  1   
 21  10  32  1   
 22  10  33  1   
 23  11  16  1   
 24  11  17  ar  
 25  12  17  ar  
 26  12  34  1   
 27  13  18  2   
 28  14  19  1   
 29  14  20  1   
 30  15  21  1   
 31  15  22  1   
 32  15  35  1   
 33  16  23  1   
 34  17  24  1   
 35  18  19  1   
 36  18  36  1   
 37  19  37  1   
 38  20  38  1   
 39  20  39  1   
 40  20  40  1   
 41  21  41  1   
 42  21  42  1   
 43  21  43  1   
 44  22  44  1   
 45  22  45  1   
 46  22  46  1   
 47  23  25  1   
 48  23  47  1   
 49  23  48  1   
 50  24  25  1   
 51  25  49  1   
 52  25  50  1   
@<TRIPOS>SUBSTRUCTURE
  1 ****   2 GROUP 4 **** **** 0

# MOE 2024.06 (io_trps.svl 2023.06)
