@<TRIPOS>MOLECULE
NONAME
58 61 1 0 0 
SMALL
USER_CHARGES


@<TRIPOS>ATOM
  1 O       -0.4980     0.4330    -0.4520 O.2   1 <1>  -0.5700 
  2 C       -1.5420     1.0390    -0.3010 C.2   1 <1>   0.5440 
  3 N       -2.6920     0.3170    -0.0660 N.am  1 <1>  -0.6600 
  4 C       -1.5540     2.4850    -0.3860 C.ar  1 <1>   0.0860 
  5 C       -4.0610     0.7940    -0.3890 C.3   1 <1>   0.1400 
  6 C       -2.6750    -1.1630     0.0590 C.3   1 <1>   0.1400 
  7 C       -0.8710     3.1480    -1.4060 C.ar  1 <1>  -0.1500 
  8 C       -2.2330     3.2770     0.5420 C.ar  1 <1>  -0.1500 
  9 C       -4.8420    -0.4720    -0.7360 C.3   1 <1>   0.2000 
 10 C       -4.1420    -1.5920     0.0270 C.3   1 <1>  -0.0800 
 11 C       -0.8780     4.5240    -1.5040 C.ar  1 <1>  -0.1500 
 12 C       -2.2420     4.6550     0.4480 C.ar  1 <1>  -0.1500 
 13 O       -6.1690    -0.3800    -0.3480 O.3   1 <1>  -0.6800 
 14 C       -4.3620    -2.9800    -0.5930 C.3   1 <1>   0.0210 
 15 C       -1.5630     5.3050    -0.5790 C.ar  1 <1>   0.1000 
 16 C       -3.5730    -4.0360     0.1540 C.2   1 <1>   0.1080 
 17 N       -1.5440     6.6900    -0.6850 N.pl3 1 <1>  -0.8380 
 18 N       -3.8040    -4.3400     1.3940 N.2   1 <1>  -0.7070 
 19 C       -2.5250    -4.7770    -0.3820 C.2   1 <1>  -0.1500 
 20 C       -2.7690     7.5160    -0.4680 C.3   1 <1>   0.2090 
 21 C       -0.2370     7.4130    -0.6750 C.3   1 <1>   0.2090 
 22 N       -2.9010    -5.2960     1.6830 N.pl3 1 <1>   0.3000 
 23 C       -2.1140    -5.5770     0.6230 C.2   1 <1>  -0.3320 
 24 C       -2.6030     8.4540     0.7480 C.3   1 <1>   0.3430 
 25 C       -0.1300     8.3470     0.5490 C.3   1 <1>   0.3430 
 26 C       -0.9990    -6.6060     0.6380 C.3   1 <1>  -0.0600 
 27 N       -1.3260     9.2600     0.6950 N.4   1 <1>  -0.9590 
 28 C       -1.1900    10.1400     1.8950 C.3   1 <1>   0.2630 
 29 H       -4.4810     1.2710     0.4790 H     1 <1>   0.0800 
 30 H       -4.0450     1.4750    -1.2220 H     1 <1>   0.0800 
 31 H       -2.1320    -1.5800    -0.7720 H     1 <1>   0.0800 
 32 H       -2.1980    -1.4620     0.9770 H     1 <1>   0.0800 
 33 H       -0.3290     2.5590    -2.1270 H     1 <1>   0.1500 
 34 H       -2.7510     2.7930     1.3510 H     1 <1>   0.1500 
 35 H       -4.8080    -0.6380    -1.8000 H     1 <1>   0.0800 
 36 H       -4.4870    -1.6060     1.0470 H     1 <1>   0.0800 
 37 H       -0.3530     5.0040    -2.3090 H     1 <1>   0.1500 
 38 H       -2.7700     5.2280     1.1840 H     1 <1>   0.1500 
 39 H       -6.2370    -0.4070     0.6260 H     1 <1>   0.4000 
 40 H       -4.0650    -2.9770    -1.6260 H     1 <1>   0.0800 
 41 H       -5.4060    -3.2330    -0.5450 H     1 <1>   0.0800 
 42 H       -2.1450    -4.7060    -1.3860 H     1 <1>   0.1500 
 43 H       -2.9570     8.1000    -1.3520 H     1 <1>   0.0800 
 44 H       -3.6220     6.8770    -0.3200 H     1 <1>   0.0800 
 45 H        0.5720     6.7020    -0.6460 H     1 <1>   0.0800 
 46 H       -0.1400     7.9830    -1.5830 H     1 <1>   0.0800 
 47 H       -2.8480    -5.7350     2.6100 H     1 <1>   0.2700 
 48 H       -2.6060     7.8470     1.6380 H     1 <1>   0.0800 
 49 H       -3.4520     9.1150     0.7970 H     1 <1>   0.0800 
 50 H        0.7710     8.9310     0.4640 H     1 <1>   0.0800 
 51 H       -0.0400     7.7300     1.4280 H     1 <1>   0.0800 
 52 H       -0.5190    -6.6440    -0.3240 H     1 <1>   0.0800 
 53 H       -1.3940    -7.5800     0.8620 H     1 <1>   0.0800 
 54 H       -0.2620    -6.3460     1.3770 H     1 <1>   0.0800 
 55 H       -1.3670     9.8480    -0.1500 H     1 <1>   0.4500 
 56 H       -1.1430     9.5450     2.7930 H     1 <1>   0.0800 
 57 H       -2.0340    10.8070     1.9680 H     1 <1>   0.0800 
 58 H       -0.2910    10.7320     1.8260 H     1 <1>   0.0800 
@<TRIPOS>BOND
  1   1   2  2   
  2   2   3  am  
  3   2   4  1   
  4   3   5  1   
  5   3   6  1   
  6   4   7  ar  
  7   4   8  ar  
  8   5   9  1   
  9   5  29  1   
 10   5  30  1   
 11   6  10  1   
 12   6  31  1   
 13   6  32  1   
 14   7  11  ar  
 15   7  33  1   
 16   8  12  ar  
 17   8  34  1   
 18   9  10  1   
 19   9  13  1   
 20   9  35  1   
 21  10  14  1   
 22  10  36  1   
 23  11  15  ar  
 24  11  37  1   
 25  12  15  ar  
 26  12  38  1   
 27  13  39  1   
 28  14  16  1   
 29  14  40  1   
 30  14  41  1   
 31  15  17  1   
 32  16  18  2   
 33  16  19  1   
 34  17  20  1   
 35  17  21  1   
 36  18  22  1   
 37  19  23  2   
 38  19  42  1   
 39  20  24  1   
 40  20  43  1   
 41  20  44  1   
 42  21  25  1   
 43  21  45  1   
 44  21  46  1   
 45  22  23  1   
 46  22  47  1   
 47  23  26  1   
 48  24  27  1   
 49  24  48  1   
 50  24  49  1   
 51  25  27  1   
 52  25  50  1   
 53  25  51  1   
 54  26  52  1   
 55  26  53  1   
 56  26  54  1   
 57  27  28  1   
 58  27  55  1   
 59  28  56  1   
 60  28  57  1   
 61  28  58  1   
@<TRIPOS>SUBSTRUCTURE
  1 ****   2 GROUP 4 **** **** 0

# MOE 2024.06 (io_trps.svl 2023.06)
