@<TRIPOS>MOLECULE
NONAME
45 47 1 0 0 
SMALL
USER_CHARGES


@<TRIPOS>ATOM
  1 S        0.0030     0.3350     1.6110 S.o2  1 <1>   1.4470 
  2 O        0.5730    -0.5810     2.5730 O.2   1 <1>  -0.6500 
  3 O       -0.6270     1.5560     2.0600 O.2   1 <1>  -0.6500 
  4 N        1.3240     0.8370     0.6650 N.am  1 <1>  -0.8490 
  5 C       -1.0640    -0.5250     0.4240 C.ar  1 <1>  -0.0090 
  6 C        2.1140     1.8410     1.4140 C.3   1 <1>   0.1960 
  7 C        2.1340    -0.2960     0.1990 C.3   1 <1>   0.1960 
  8 C       -1.2370    -1.9050     0.4760 C.ar  1 <1>  -0.1500 
  9 C       -1.7140     0.1740    -0.5870 C.ar  1 <1>  -0.1500 
 10 C        3.4200     2.3560     0.7490 C.3   1 <1>   0.4230 
 11 C        3.0410     0.0860    -0.9910 C.3   1 <1>  -0.0800 
 12 C       -2.0200    -2.5690    -0.4520 C.ar  1 <1>  -0.1500 
 13 C       -2.4980    -0.4810    -1.5190 C.ar  1 <1>  -0.1500 
 14 N        3.3250     2.6130    -0.7400 N.4   1 <1>  -0.9590 
 15 C        4.6300     1.4350     1.0470 C.3   1 <1>   0.1200 
 16 C        4.5390    -0.1700    -0.7110 C.3   1 <1>   0.1200 
 17 C        2.7390     1.4910    -1.5500 C.3   1 <1>   0.3430 
 18 C       -2.6550    -1.8550    -1.4630 C.ar  1 <1>   0.0830 
 19 C        2.6630     3.9100    -1.0610 C.3   1 <1>   0.2630 
 20 O        5.1820     0.9310    -0.1400 O.3   1 <1>  -0.5600 
 21 O       -3.4350    -2.4210    -2.4140 O.3   1 <1>  -0.3630 
 22 C       -3.7300    -3.8010    -2.4010 C.3   1 <1>   0.0400 
 23 H        1.4890     2.7030     1.5790 H     1 <1>   0.0800 
 24 H        2.3540     1.4520     2.3910 H     1 <1>   0.0800 
 25 H        2.7030    -0.7080     1.0170 H     1 <1>   0.0800 
 26 H        1.4760    -1.0810    -0.1390 H     1 <1>   0.0800 
 27 H       -0.7550    -2.4710     1.2560 H     1 <1>   0.1500 
 28 H       -1.6090     1.2440    -0.6420 H     1 <1>   0.1500 
 29 H        3.6480     3.2890     1.2360 H     1 <1>   0.0800 
 30 H        2.7760    -0.6080    -1.7690 H     1 <1>   0.0800 
 31 H       -2.1260    -3.6350    -0.3740 H     1 <1>   0.1500 
 32 H       -2.9990     0.0680    -2.2970 H     1 <1>   0.1500 
 33 H        4.3210     2.6330    -1.0240 H     1 <1>   0.4500 
 34 H        4.3820     0.6190     1.7040 H     1 <1>   0.0800 
 35 H        5.3980     2.0150     1.5290 H     1 <1>   0.0800 
 36 H        5.0490    -0.3720    -1.6380 H     1 <1>   0.0800 
 37 H        4.6820    -1.0230    -0.0680 H     1 <1>   0.0800 
 38 H        1.6680     1.6100    -1.6010 H     1 <1>   0.0800 
 39 H        3.1200     1.5540    -2.5570 H     1 <1>   0.0800 
 40 H        1.6290     3.8830    -0.7570 H     1 <1>   0.0800 
 41 H        2.7060     4.0990    -2.1210 H     1 <1>   0.0800 
 42 H        3.1550     4.7200    -0.5480 H     1 <1>   0.0800 
 43 H       -4.3850    -4.0090    -3.2270 H     1 <1>   0.0800 
 44 H       -4.2200    -4.0450    -1.4750 H     1 <1>   0.0800 
 45 H       -2.8150    -4.3560    -2.5130 H     1 <1>   0.0800 
@<TRIPOS>BOND
  1   1   2  2   
  2   1   3  2   
  3   1   4  am  
  4   1   5  1   
  5   4   6  1   
  6   4   7  1   
  7   5   8  ar  
  8   5   9  ar  
  9   6  10  1   
 10   6  23  1   
 11   6  24  1   
 12   7  11  1   
 13   7  25  1   
 14   7  26  1   
 15   8  12  ar  
 16   8  27  1   
 17   9  13  ar  
 18   9  28  1   
 19  10  14  1   
 20  10  15  1   
 21  10  29  1   
 22  11  16  1   
 23  11  17  1   
 24  11  30  1   
 25  12  18  ar  
 26  12  31  1   
 27  13  18  ar  
 28  13  32  1   
 29  14  17  1   
 30  14  19  1   
 31  14  33  1   
 32  15  20  1   
 33  15  34  1   
 34  15  35  1   
 35  16  20  1   
 36  16  36  1   
 37  16  37  1   
 38  17  38  1   
 39  17  39  1   
 40  18  21  1   
 41  19  40  1   
 42  19  41  1   
 43  19  42  1   
 44  21  22  1   
 45  22  43  1   
 46  22  44  1   
 47  22  45  1   
@<TRIPOS>SUBSTRUCTURE
  1 ****   4 GROUP 4 **** **** 0

# MOE 2024.06 (io_trps.svl 2023.06)
