@<TRIPOS>MOLECULE
NONAME
43 44 1 0 0 
SMALL
USER_CHARGES


@<TRIPOS>ATOM
  1 S       -0.1630     0.9890     0.8080 S.o2  1 <1>   1.3330 
  2 O       -0.9560     0.5150    -0.2970 O.2   1 <1>  -0.6500 
  3 O       -0.5660     2.1350     1.5850 O.2   1 <1>  -0.6500 
  4 N        1.3250     1.3310     0.1220 N.am  1 <1>  -0.9140 
  5 C        0.2110    -0.3610     1.9060 C.3   1 <1>  -0.1350 
  6 C        1.3880     2.6860    -0.4020 C.3   1 <1>   0.1960 
  7 C        2.7690     2.9270    -0.9980 C.3   1 <1>  -0.0990 
  8 C        2.8580     4.3570    -1.4730 C.2   1 <1>   0.5690 
  9 O        2.4970     4.6010    -2.5970 O.2   1 <1>  -0.5700 
 10 N        3.3290     5.2950    -0.5980 N.am  1 <1>  -0.4940 
 11 C        3.5100     6.6930    -0.7380 C.2   1 <1>  -0.0880 
 12 N        2.7490     7.5680    -1.4550 N.pl3 1 <1>   0.3140 
 13 C        4.4740     7.4350    -0.1460 C.2   1 <1>  -0.1810 
 14 N        3.1960     8.8310    -1.3290 N.2   1 <1>  -0.7070 
 15 C        1.5190     7.3120    -2.2170 C.3   1 <1>   0.0160 
 16 C        4.2450     8.7560    -0.5540 C.2   1 <1>   0.2350 
 17 C        5.5830     6.9720     0.7860 C.3   1 <1>  -0.0590 
 18 C        5.0330     9.9080    -0.1720 C.ar  1 <1>   0.0540 
 19 C        4.4280    11.0170     0.4150 C.ar  1 <1>  -0.1500 
 20 C        6.4110     9.9540    -0.3740 C.ar  1 <1>  -0.1500 
 21 C        5.1680    12.1190     0.8050 C.ar  1 <1>  -0.1500 
 22 C        7.1580    11.0520     0.0140 C.ar  1 <1>  -0.1500 
 23 C        6.5370    12.1360     0.6080 C.ar  1 <1>  -0.1500 
 24 H        1.3530     0.7080    -0.6860 H     1 <1>   0.4200 
 25 H       -0.6820    -0.6890     2.4010 H     1 <1>   0.0800 
 26 H        0.9190    -0.0470     2.6470 H     1 <1>   0.0800 
 27 H        0.6240    -1.1840     1.3580 H     1 <1>   0.0800 
 28 H        1.2160     3.3920     0.3950 H     1 <1>   0.0800 
 29 H        0.6270     2.8290    -1.1540 H     1 <1>   0.0800 
 30 H        2.9260     2.2750    -1.8370 H     1 <1>   0.0800 
 31 H        3.5280     2.7400    -0.2620 H     1 <1>   0.0800 
 32 H        3.6810     4.9250     0.2840 H     1 <1>   0.3700 
 33 H        0.9380     6.5610    -1.7180 H     1 <1>   0.0800 
 34 H        1.7830     6.9780    -3.2030 H     1 <1>   0.0800 
 35 H        0.9510     8.2210    -2.2860 H     1 <1>   0.0800 
 36 H        5.3880     5.9820     1.1520 H     1 <1>   0.0800 
 37 H        5.6560     7.6390     1.6260 H     1 <1>   0.0800 
 38 H        6.5210     6.9680     0.2630 H     1 <1>   0.0800 
 39 H        3.3620    11.0030     0.5590 H     1 <1>   0.1500 
 40 H        6.8960     9.1210    -0.8490 H     1 <1>   0.1500 
 41 H        4.6770    12.9620     1.2590 H     1 <1>   0.1500 
 42 H        8.2220    11.0660    -0.1500 H     1 <1>   0.1500 
 43 H        7.1150    12.9920     0.9100 H     1 <1>   0.1500 
@<TRIPOS>BOND
  1   1   2  2   
  2   1   3  2   
  3   1   4  am  
  4   1   5  1   
  5   4   6  1   
  6   4  24  1   
  7   5  25  1   
  8   5  26  1   
  9   5  27  1   
 10   6   7  1   
 11   6  28  1   
 12   6  29  1   
 13   7   8  1   
 14   7  30  1   
 15   7  31  1   
 16   8   9  2   
 17   8  10  am  
 18  10  11  1   
 19  10  32  1   
 20  11  12  1   
 21  11  13  2   
 22  12  14  1   
 23  12  15  1   
 24  13  16  1   
 25  13  17  1   
 26  14  16  2   
 27  15  33  1   
 28  15  34  1   
 29  15  35  1   
 30  16  18  1   
 31  17  36  1   
 32  17  37  1   
 33  17  38  1   
 34  18  19  ar  
 35  18  20  ar  
 36  19  21  ar  
 37  19  39  1   
 38  20  22  ar  
 39  20  40  1   
 40  21  23  ar  
 41  21  41  1   
 42  22  23  ar  
 43  22  42  1   
 44  23  43  1   
@<TRIPOS>SUBSTRUCTURE
  1 ****  11 GROUP 4 **** **** 0

# MOE 2024.06 (io_trps.svl 2023.06)
