@<TRIPOS>MOLECULE
NONAME
46 49 1 0 0 
SMALL
USER_CHARGES


@<TRIPOS>ATOM
  1 S       -0.6020    -0.0950    -2.1410 S.3   1 <1>  -0.0800 
  2 C       -1.2100     1.2020    -1.1250 C.2   1 <1>  -0.1400 
  3 C       -2.2270    -0.7320    -2.3520 C.2   1 <1>  -0.1100 
  4 C       -2.5390     1.1210    -0.9950 C.2   1 <1>  -0.1810 
  5 C       -0.3010     2.2430    -0.4940 C.3   1 <1>   0.4600 
  6 C       -3.1290     0.0170    -1.6880 C.2   1 <1>  -0.1500 
  7 C       -3.2730     2.1490    -0.1660 C.3   1 <1>   0.0210 
  8 O       -1.0640     3.0670     0.3720 O.3   1 <1>  -0.5600 
  9 C        0.7610     1.5740     0.3820 C.3   1 <1>  -0.1600 
 10 C        0.3850     3.1360    -1.5410 C.3   1 <1>  -0.1600 
 11 C       -2.3830     3.4000    -0.0180 C.3   1 <1>   0.1200 
 12 C        1.6400     2.5870     1.1220 C.3   1 <1>   0.3430 
 13 C        1.6020     3.8920    -0.9980 C.3   1 <1>   0.3430 
 14 N        1.5620     3.9350     0.4900 N.4   1 <1>  -0.9590 
 15 C        2.5010     4.9180     1.0840 C.3   1 <1>   0.5240 
 16 C        2.1200     6.2830     0.5650 C.2   1 <1>  -0.1810 
 17 C        2.8420     7.0640    -0.3310 C.2   1 <1>   0.1080 
 18 C        1.0150     7.0130     0.8420 C.2   1 <1>  -0.3020 
 19 N        2.2340     8.1720    -0.5990 N.2   1 <1>  -0.7070 
 20 C        4.1820     6.7390    -0.9590 C.3   1 <1>  -0.0590 
 21 N        1.1100     8.1530     0.1300 N.pl3 1 <1>   0.3140 
 22 C        0.1650     9.2760     0.1070 C.3   1 <1>   0.0160 
 23 H       -2.3380    -1.6130    -2.9590 H     1 <1>   0.1500 
 24 H       -4.1890    -0.1620    -1.6570 H     1 <1>   0.1500 
 25 H       -3.5030     1.7420     0.8030 H     1 <1>   0.0800 
 26 H       -4.1950     2.4230    -0.6470 H     1 <1>   0.0800 
 27 H        1.3900     0.9580    -0.2340 H     1 <1>   0.0800 
 28 H        0.2850     0.9210     1.0910 H     1 <1>   0.0800 
 29 H       -0.3220     3.8290    -1.9560 H     1 <1>   0.0800 
 30 H        0.7250     2.5260    -2.3580 H     1 <1>   0.0800 
 31 H       -2.7940     4.0550     0.7290 H     1 <1>   0.0800 
 32 H       -2.3400     3.9310    -0.9530 H     1 <1>   0.0800 
 33 H        2.6590     2.2340     1.1310 H     1 <1>   0.0800 
 34 H        1.2990     2.6590     2.1430 H     1 <1>   0.0800 
 35 H        1.6050     4.8920    -1.4050 H     1 <1>   0.0800 
 36 H        2.5060     3.3970    -1.3170 H     1 <1>   0.0800 
 37 H        0.6100     4.2800     0.7080 H     1 <1>   0.4500 
 38 H        3.5170     4.6830     0.8130 H     1 <1>   0.0800 
 39 H        2.4160     4.9110     2.1580 H     1 <1>   0.0800 
 40 H        0.1830     6.8050     1.4900 H     1 <1>   0.1500 
 41 H        4.3060     5.6820    -1.0910 H     1 <1>   0.0800 
 42 H        4.9710     7.1190    -0.3360 H     1 <1>   0.0800 
 43 H        4.2510     7.2160    -1.9200 H     1 <1>   0.0800 
 44 H       -0.6900     9.0470     0.7130 H     1 <1>   0.0800 
 45 H       -0.1410     9.4530    -0.9070 H     1 <1>   0.0800 
 46 H        0.6580    10.1510     0.4880 H     1 <1>   0.0800 
@<TRIPOS>BOND
  1   1   2  1   
  2   1   3  1   
  3   2   4  2   
  4   2   5  1   
  5   3   6  2   
  6   3  23  1   
  7   4   6  1   
  8   4   7  1   
  9   5   8  1   
 10   5   9  1   
 11   5  10  1   
 12   6  24  1   
 13   7  11  1   
 14   7  25  1   
 15   7  26  1   
 16   8  11  1   
 17   9  12  1   
 18   9  27  1   
 19   9  28  1   
 20  10  13  1   
 21  10  29  1   
 22  10  30  1   
 23  11  31  1   
 24  11  32  1   
 25  12  14  1   
 26  12  33  1   
 27  12  34  1   
 28  13  14  1   
 29  13  35  1   
 30  13  36  1   
 31  14  15  1   
 32  14  37  1   
 33  15  16  1   
 34  15  38  1   
 35  15  39  1   
 36  16  17  1   
 37  16  18  2   
 38  17  19  2   
 39  17  20  1   
 40  18  21  1   
 41  18  40  1   
 42  19  21  1   
 43  20  41  1   
 44  20  42  1   
 45  20  43  1   
 46  21  22  1   
 47  22  44  1   
 48  22  45  1   
 49  22  46  1   
@<TRIPOS>SUBSTRUCTURE
  1 ****  10 GROUP 4 **** **** 0

# MOE 2024.06 (io_trps.svl 2023.06)
