@<TRIPOS>MOLECULE
NONAME
50 53 1 0 0 
SMALL
USER_CHARGES


@<TRIPOS>ATOM
  1 O        0.4430     0.1890    -0.3130 O.3   1 <1>  -0.3630 
  2 C        1.2360    -0.8270     0.0890 C.ar  1 <1>   0.0830 
  3 C        0.8720     1.5060    -0.0210 C.3   1 <1>   0.1200 
  4 C        2.4900    -1.0350    -0.4750 C.ar  1 <1>  -0.1440 
  5 C        0.7560    -1.6790     1.0700 C.ar  1 <1>  -0.1500 
  6 C        1.8470     2.0320    -1.0830 C.3   1 <1>   0.2090 
  7 C        3.2550    -2.1080    -0.0380 C.ar  1 <1>  -0.1500 
  8 C        2.9960    -0.1220    -1.5790 C.3   1 <1>   0.3530 
  9 C        1.5290    -2.7400     1.5060 C.ar  1 <1>  -0.1500 
 10 N        3.1420     1.2750    -1.0730 N.pl3 1 <1>  -0.8380 
 11 C        2.7790    -2.9540     0.9510 C.ar  1 <1>  -0.1500 
 12 C        4.3090     1.8110    -0.6300 C.ar  1 <1>   0.4100 
 13 N        4.4480     3.1220    -0.6930 N.ar  1 <1>  -0.6200 
 14 C        5.3360     0.9990    -0.1120 C.ar  1 <1>  -0.1500 
 15 C        5.5810     3.6680    -0.2760 C.ar  1 <1>   0.7710 
 16 C        6.4890     1.5690     0.3110 C.ar  1 <1>   0.2180 
 17 N        6.5830     2.9150     0.2090 N.ar  1 <1>  -0.1790 
 18 N        5.7390     5.0180    -0.3460 N.pl3 1 <1>  -0.8380 
 19 C        7.6600     0.7820     0.8870 C.3   1 <1>  -0.0170 
 20 C        6.8370     5.8480     0.2660 C.3   1 <1>   0.2090 
 21 C        4.7410     5.8990    -1.0600 C.3   1 <1>   0.2090 
 22 C        8.9200     0.8990     0.0190 C.3   1 <1>  -0.2400 
 23 C        6.2560     7.0080     1.0970 C.3   1 <1>   0.1200 
 24 C        4.2770     7.0580    -0.1610 C.3   1 <1>   0.1200 
 25 O        5.3780     7.7710     0.3260 O.3   1 <1>  -0.5600 
 26 H        1.3260     1.5180     0.9540 H     1 <1>   0.0800 
 27 H       -0.0060     2.1250    -0.0020 H     1 <1>   0.0800 
 28 H       -0.2200    -1.5060     1.4870 H     1 <1>   0.1500 
 29 H        2.0190     3.0740    -0.8850 H     1 <1>   0.0800 
 30 H        1.3900     1.9650    -2.0550 H     1 <1>   0.0800 
 31 H        4.2210    -2.3040    -0.4670 H     1 <1>   0.1500 
 32 H        2.2970    -0.1390    -2.3980 H     1 <1>   0.0800 
 33 H        3.9380    -0.4750    -1.9570 H     1 <1>   0.0800 
 34 H        1.1560    -3.3990     2.2710 H     1 <1>   0.1500 
 35 H        3.3760    -3.7840     1.2870 H     1 <1>   0.1500 
 36 H        5.1800    -0.0590    -0.0470 H     1 <1>   0.1500 
 37 H        7.4250     3.4090     0.4670 H     1 <1>   0.4570 
 38 H        7.3880    -0.2580     0.9610 H     1 <1>   0.0800 
 39 H        7.8720     1.1260     1.8850 H     1 <1>   0.0800 
 40 H        7.4480     6.2640    -0.5190 H     1 <1>   0.0800 
 41 H        7.4690     5.2610     0.9050 H     1 <1>   0.0800 
 42 H        3.8730     5.3510    -1.3830 H     1 <1>   0.0800 
 43 H        5.2010     6.3130    -1.9410 H     1 <1>   0.0800 
 44 H        8.7210     0.5560    -0.9820 H     1 <1>   0.0800 
 45 H        9.7030     0.2840     0.4310 H     1 <1>   0.0800 
 46 H        9.2800     1.9110    -0.0250 H     1 <1>   0.0800 
 47 H        7.0450     7.6600     1.4300 H     1 <1>   0.0800 
 48 H        5.7270     6.6390     1.9590 H     1 <1>   0.0800 
 49 H        3.7050     6.6880     0.6720 H     1 <1>   0.0800 
 50 H        3.6670     7.7420    -0.7230 H     1 <1>   0.0800 
@<TRIPOS>BOND
  1   1   2  1   
  2   1   3  1   
  3   2   4  ar  
  4   2   5  ar  
  5   3   6  1   
  6   3  26  1   
  7   3  27  1   
  8   4   7  ar  
  9   4   8  1   
 10   5   9  ar  
 11   5  28  1   
 12   6  10  1   
 13   6  29  1   
 14   6  30  1   
 15   7  11  ar  
 16   7  31  1   
 17   8  10  1   
 18   8  32  1   
 19   8  33  1   
 20   9  11  ar  
 21   9  34  1   
 22  10  12  1   
 23  11  35  1   
 24  12  13  ar  
 25  12  14  ar  
 26  13  15  ar  
 27  14  16  ar  
 28  14  36  1   
 29  15  17  ar  
 30  15  18  1   
 31  16  17  ar  
 32  16  19  1   
 33  17  37  1   
 34  18  20  1   
 35  18  21  1   
 36  19  22  1   
 37  19  38  1   
 38  19  39  1   
 39  20  23  1   
 40  20  40  1   
 41  20  41  1   
 42  21  24  1   
 43  21  42  1   
 44  21  43  1   
 45  22  44  1   
 46  22  45  1   
 47  22  46  1   
 48  23  25  1   
 49  23  47  1   
 50  23  48  1   
 51  24  25  1   
 52  24  49  1   
 53  24  50  1   
@<TRIPOS>SUBSTRUCTURE
  1 ****  12 GROUP 4 **** **** 0

# MOE 2024.06 (io_trps.svl 2023.06)
