@<TRIPOS>MOLECULE
NONAME
46 47 1 0 0 
SMALL
USER_CHARGES


@<TRIPOS>ATOM
  1 S        3.2030     0.9990     2.2590 S.3   1 <1>  -0.4600 
  2 C        1.3910     1.2870     2.2320 C.3   1 <1>   0.1310 
  3 C        3.4960    -0.1490     0.8820 C.3   1 <1>   0.0700 
  4 C        1.0110     2.5280     1.4320 C.2   1 <1>   0.5690 
  5 C        3.4810     0.6360    -0.4310 C.3   1 <1>  -0.1600 
  6 O       -0.1570     2.7010     1.1790 O.2   1 <1>  -0.5700 
  7 N        2.0080     3.3750     1.0350 N.am  1 <1>  -0.4940 
  8 C        3.8280    -0.2630    -1.6200 C.3   1 <1>  -0.2400 
  9 C        2.0270     4.5460     0.2420 C.2   1 <1>  -0.0880 
 10 N        1.0470     5.4740     0.0670 N.pl3 1 <1>   0.3140 
 11 C        3.0910     4.9560    -0.5040 C.2   1 <1>  -0.0540 
 12 N        1.4470     6.4610    -0.7650 N.2   1 <1>  -0.7070 
 13 C       -0.2800     5.5540     0.6910 C.3   1 <1>   0.0160 
 14 C        4.3670     4.3060    -0.6570 C.ar  1 <1>   0.0540 
 15 C        2.6550     6.1460    -1.0960 C.2   1 <1>   0.1080 
 16 C        5.2010     4.1000     0.4380 C.ar  1 <1>  -0.1500 
 17 C        4.7920     3.8460    -1.9000 C.ar  1 <1>  -0.1500 
 18 C        3.4790     7.0080    -2.0260 C.3   1 <1>  -0.0590 
 19 C        6.4130     3.4470     0.3040 C.ar  1 <1>  -0.1500 
 20 C        6.0030     3.1950    -2.0420 C.ar  1 <1>  -0.1500 
 21 C        6.8210     2.9860    -0.9440 C.ar  1 <1>   0.0820 
 22 O        7.9880     2.3300    -1.1660 O.3   1 <1>  -0.3620 
 23 C        8.8820     2.0540    -0.1110 C.3   1 <1>   0.0400 
 24 H        1.0780     1.4060     3.2520 H     1 <1>   0.0800 
 25 H        0.9260     0.4140     1.8130 H     1 <1>   0.0800 
 26 H        2.7330    -0.9070     0.9100 H     1 <1>   0.0800 
 27 H        4.4610    -0.5960     1.0510 H     1 <1>   0.0800 
 28 H        4.2040     1.4290    -0.3740 H     1 <1>   0.0800 
 29 H        2.5100     1.0700    -0.5920 H     1 <1>   0.0800 
 30 H        2.9400     2.9950     1.2390 H     1 <1>   0.3700 
 31 H        4.8110    -0.6830    -1.4990 H     1 <1>   0.0800 
 32 H        3.8160     0.3150    -2.5280 H     1 <1>   0.0800 
 33 H        3.1140    -1.0620    -1.7130 H     1 <1>   0.0800 
 34 H       -0.2120     5.2440     1.7160 H     1 <1>   0.0800 
 35 H       -0.9570     4.9140     0.1580 H     1 <1>   0.0800 
 36 H       -0.6320     6.5680     0.6440 H     1 <1>   0.0800 
 37 H        4.8920     4.4600     1.4030 H     1 <1>   0.1500 
 38 H        4.1590     3.9960    -2.7570 H     1 <1>   0.1500 
 39 H        4.5210     6.9380    -1.7770 H     1 <1>   0.0800 
 40 H        3.1680     8.0330    -1.9390 H     1 <1>   0.0800 
 41 H        3.3320     6.6850    -3.0400 H     1 <1>   0.0800 
 42 H        7.0230     3.3070     1.1770 H     1 <1>   0.1500 
 43 H        6.3220     2.8400    -3.0060 H     1 <1>   0.1500 
 44 H        9.7240     1.5230    -0.5170 H     1 <1>   0.0800 
 45 H        8.3820     1.4440     0.6200 H     1 <1>   0.0800 
 46 H        9.2100     2.9830     0.3200 H     1 <1>   0.0800 
@<TRIPOS>BOND
  1   1   2  1   
  2   1   3  1   
  3   2   4  1   
  4   2  24  1   
  5   2  25  1   
  6   3   5  1   
  7   3  26  1   
  8   3  27  1   
  9   4   6  2   
 10   4   7  am  
 11   5   8  1   
 12   5  28  1   
 13   5  29  1   
 14   7   9  1   
 15   7  30  1   
 16   8  31  1   
 17   8  32  1   
 18   8  33  1   
 19   9  10  1   
 20   9  11  2   
 21  10  12  1   
 22  10  13  1   
 23  11  14  1   
 24  11  15  1   
 25  12  15  2   
 26  13  34  1   
 27  13  35  1   
 28  13  36  1   
 29  14  16  ar  
 30  14  17  ar  
 31  15  18  1   
 32  16  19  ar  
 33  16  37  1   
 34  17  20  ar  
 35  17  38  1   
 36  18  39  1   
 37  18  40  1   
 38  18  41  1   
 39  19  21  ar  
 40  19  42  1   
 41  20  21  ar  
 42  20  43  1   
 43  21  22  1   
 44  22  23  1   
 45  23  44  1   
 46  23  45  1   
 47  23  46  1   
@<TRIPOS>SUBSTRUCTURE
  1 ****  14 GROUP 4 **** **** 0

# MOE 2024.06 (io_trps.svl 2023.06)
