@<TRIPOS>MOLECULE
NONAME
45 46 1 0 0 
SMALL
USER_CHARGES


@<TRIPOS>ATOM
  1 S        0.2970     0.7320     0.7350 S.o2  1 <1>   1.3330 
  2 O        0.0030     2.0450     1.2630 O.2   1 <1>  -0.6500 
  3 O        0.5930    -0.3580     1.6380 O.2   1 <1>  -0.6500 
  4 N       -1.0120     0.2530    -0.2330 N.am  1 <1>  -0.8490 
  5 C        1.6110     0.9260    -0.4700 C.3   1 <1>  -0.0550 
  6 C       -2.3010     0.6460     0.3450 C.3   1 <1>   0.1160 
  7 C       -1.0190    -1.1850    -0.5270 C.3   1 <1>   0.1160 
  8 C        2.9690     1.3320     0.1410 C.3   1 <1>  -0.0800 
  9 C        3.9450     1.7630    -0.9570 C.3   1 <1>   0.2760 
 10 C        3.6810     0.1110     0.7210 C.3   1 <1>   0.1200 
 11 N        4.7270     2.9690    -0.6350 N.am  1 <1>  -0.9140 
 12 C        4.7630     0.4920    -1.2430 C.3   1 <1>   0.1200 
 13 O        4.2730    -0.4920    -0.3810 O.3   1 <1>  -0.5600 
 14 S        5.6870     3.0220     0.7500 S.o2  1 <1>   1.3330 
 15 O        4.7690     3.2520     1.8370 O.2   1 <1>  -0.6500 
 16 O        6.5560     1.8710     0.7700 O.2   1 <1>  -0.6500 
 17 C        6.7160     4.4740     0.4890 C.3   1 <1>   0.0890 
 18 C        5.9190     5.7410     0.1880 C.ar  1 <1>  -0.1440 
 19 C        5.4820     6.5770     1.2040 C.ar  1 <1>   0.1900 
 20 C        5.5960     6.0820    -1.1180 C.ar  1 <1>  -0.1500 
 21 F        5.7790     6.2870     2.4430 F     1 <1>  -0.1900 
 22 C        4.7410     7.7180     0.9620 C.ar  1 <1>  -0.1500 
 23 C        4.8560     7.2250    -1.3810 C.ar  1 <1>  -0.1500 
 24 C        4.4270     8.0420    -0.3460 C.ar  1 <1>  -0.1500 
 25 H        1.7300     0.0150    -1.0230 H     1 <1>   0.0800 
 26 H        1.3000     1.6860    -1.1600 H     1 <1>   0.0800 
 27 H       -3.1080     0.3420    -0.2990 H     1 <1>   0.0800 
 28 H       -2.3450     1.7170     0.4550 H     1 <1>   0.0800 
 29 H       -2.4300     0.1940     1.3150 H     1 <1>   0.0800 
 30 H       -1.8130    -1.4170    -1.2160 H     1 <1>   0.0800 
 31 H       -1.1620    -1.7540     0.3770 H     1 <1>   0.0800 
 32 H       -0.0850    -1.4790    -0.9750 H     1 <1>   0.0800 
 33 H        2.8050     2.0920     0.8830 H     1 <1>   0.0800 
 34 H        3.3960     1.9930    -1.8540 H     1 <1>   0.0800 
 35 H        3.0260    -0.5930     1.2020 H     1 <1>   0.0800 
 36 H        4.4610     0.3980     1.4070 H     1 <1>   0.0800 
 37 H        4.0440     3.7090    -0.4660 H     1 <1>   0.4200 
 38 H        5.8150     0.6130    -1.0680 H     1 <1>   0.0800 
 39 H        4.6080     0.1500    -2.2500 H     1 <1>   0.0800 
 40 H        7.3250     4.6330     1.3570 H     1 <1>   0.0800 
 41 H        7.3800     4.2830    -0.3310 H     1 <1>   0.0800 
 42 H        5.9150     5.4610    -1.9390 H     1 <1>   0.1500 
 43 H        4.4220     8.3370     1.7810 H     1 <1>   0.1500 
 44 H        4.6120     7.4840    -2.3980 H     1 <1>   0.1500 
 45 H        3.8520     8.9270    -0.5590 H     1 <1>   0.1500 
@<TRIPOS>BOND
  1   1   2  2   
  2   1   3  2   
  3   1   4  am  
  4   1   5  1   
  5   4   6  1   
  6   4   7  1   
  7   5   8  1   
  8   5  25  1   
  9   5  26  1   
 10   6  27  1   
 11   6  28  1   
 12   6  29  1   
 13   7  30  1   
 14   7  31  1   
 15   7  32  1   
 16   8   9  1   
 17   8  10  1   
 18   8  33  1   
 19   9  11  1   
 20   9  12  1   
 21   9  34  1   
 22  10  13  1   
 23  10  35  1   
 24  10  36  1   
 25  11  14  am  
 26  11  37  1   
 27  12  13  1   
 28  12  38  1   
 29  12  39  1   
 30  14  15  2   
 31  14  16  2   
 32  14  17  1   
 33  17  18  1   
 34  17  40  1   
 35  17  41  1   
 36  18  19  ar  
 37  18  20  ar  
 38  19  21  1   
 39  19  22  ar  
 40  20  23  ar  
 41  20  42  1   
 42  22  24  ar  
 43  22  43  1   
 44  23  24  ar  
 45  23  44  1   
 46  24  45  1   
@<TRIPOS>SUBSTRUCTURE
  1 ****  11 GROUP 4 **** **** 0

# MOE 2024.06 (io_trps.svl 2023.06)
