@<TRIPOS>MOLECULE
NONAME
49 51 1 0 0 
SMALL
USER_CHARGES


@<TRIPOS>ATOM
  1 O        0.3050    -0.3690    -0.0640 O.2   1 <1>  -0.5700 
  2 C        1.3640    -0.9440    -0.2520 C.2   1 <1>   0.7150 
  3 N        2.5000    -0.1800    -0.4220 N.am  1 <1>  -0.6600 
  4 C        1.3810    -2.3940    -0.3000 C.2   1 <1>   0.0550 
  5 C        2.4620     1.3060    -0.3640 C.3   1 <1>   0.1400 
  6 C        3.8940    -0.6600    -0.3010 C.3   1 <1>   0.1400 
  7 O        0.4360    -3.0800     0.3350 O.3   1 <1>  -0.2800 
  8 C        2.1970    -3.2930    -0.9200 C.2   1 <1>  -0.1500 
  9 C        3.9210     1.7570    -0.4030 C.3   1 <1>   0.2000 
 10 C        4.7070     0.5590     0.1210 C.3   1 <1>  -0.1600 
 11 C        0.6060    -4.3650     0.1330 C.2   1 <1>  -0.0400 
 12 C        1.6970    -4.5660    -0.6380 C.2   1 <1>  -0.1500 
 13 O        4.0980     2.8620     0.4290 O.3   1 <1>  -0.5600 
 14 C       -0.3870    -5.3380     0.7460 C.3   1 <1>   0.5230 
 15 C        5.2980     3.5470     0.2530 C.3   1 <1>   0.0400 
 16 N       -1.7520    -5.0590     0.2100 N.4   1 <1>  -0.9590 
 17 C       -2.3800    -3.8770     0.8800 C.3   1 <1>   0.3430 
 18 C       -2.6260    -6.2630     0.2670 C.3   1 <1>   0.3430 
 19 C       -3.7080    -3.5460     0.2000 C.3   1 <1>  -0.1600 
 20 C       -3.9560    -5.9690    -0.4280 C.3   1 <1>  -0.1600 
 21 C       -4.6590    -4.7520     0.1880 C.3   1 <1>  -0.0800 
 22 C       -5.9400    -4.4200    -0.5850 C.3   1 <1>  -0.2400 
 23 H        2.0000     1.6140     0.5590 H     1 <1>   0.0800 
 24 H        1.9100     1.7010    -1.1990 H     1 <1>   0.0800 
 25 H        4.2300    -1.0110    -1.2620 H     1 <1>   0.0800 
 26 H        3.9750    -1.4500     0.4270 H     1 <1>   0.0800 
 27 H        3.0590    -3.0930    -1.5330 H     1 <1>   0.1500 
 28 H        4.1950     2.0110    -1.4130 H     1 <1>   0.0800 
 29 H        5.7040     0.5220    -0.2780 H     1 <1>   0.0800 
 30 H        4.7480     0.5920     1.1960 H     1 <1>   0.0800 
 31 H        2.1250    -5.4890    -0.9930 H     1 <1>   0.1500 
 32 H       -0.3790    -5.2430     1.8190 H     1 <1>   0.0800 
 33 H       -0.0880    -6.3400     0.4880 H     1 <1>   0.0800 
 34 H        5.3070     4.3830     0.9300 H     1 <1>   0.0800 
 35 H        5.3610     3.9020    -0.7610 H     1 <1>   0.0800 
 36 H        6.1220     2.8930     0.4800 H     1 <1>   0.0800 
 37 H       -1.6240    -4.7930    -0.7740 H     1 <1>   0.4500 
 38 H       -1.7340    -3.0160     0.8170 H     1 <1>   0.0800 
 39 H       -2.5530    -4.0940     1.9220 H     1 <1>   0.0800 
 40 H       -2.8110    -6.5320     1.2940 H     1 <1>   0.0800 
 41 H       -2.1450    -7.0950    -0.2230 H     1 <1>   0.0800 
 42 H       -3.5150    -3.2090    -0.8040 H     1 <1>   0.0800 
 43 H       -4.1710    -2.7290     0.7270 H     1 <1>   0.0800 
 44 H       -4.5930    -6.8320    -0.3390 H     1 <1>   0.0800 
 45 H       -3.7800    -5.8060    -1.4770 H     1 <1>   0.0800 
 46 H       -4.9320    -4.9860     1.2050 H     1 <1>   0.0800 
 47 H       -5.7210    -4.1740    -1.6090 H     1 <1>   0.0800 
 48 H       -6.4430    -3.5810    -0.1350 H     1 <1>   0.0800 
 49 H       -6.6150    -5.2580    -0.5720 H     1 <1>   0.0800 
@<TRIPOS>BOND
  1   1   2  2   
  2   2   3  am  
  3   2   4  1   
  4   3   5  1   
  5   3   6  1   
  6   4   7  1   
  7   4   8  2   
  8   5   9  1   
  9   5  23  1   
 10   5  24  1   
 11   6  10  1   
 12   6  25  1   
 13   6  26  1   
 14   7  11  1   
 15   8  12  1   
 16   8  27  1   
 17   9  10  1   
 18   9  13  1   
 19   9  28  1   
 20  10  29  1   
 21  10  30  1   
 22  11  12  2   
 23  11  14  1   
 24  12  31  1   
 25  13  15  1   
 26  14  16  1   
 27  14  32  1   
 28  14  33  1   
 29  15  34  1   
 30  15  35  1   
 31  15  36  1   
 32  16  17  1   
 33  16  18  1   
 34  16  37  1   
 35  17  19  1   
 36  17  38  1   
 37  17  39  1   
 38  18  20  1   
 39  18  40  1   
 40  18  41  1   
 41  19  21  1   
 42  19  42  1   
 43  19  43  1   
 44  20  21  1   
 45  20  44  1   
 46  20  45  1   
 47  21  22  1   
 48  21  46  1   
 49  22  47  1   
 50  22  48  1   
 51  22  49  1   
@<TRIPOS>SUBSTRUCTURE
  1 ****   7 GROUP 4 **** **** 0

# MOE 2024.06 (io_trps.svl 2023.06)
