@<TRIPOS>MOLECULE
NONAME
54 56 1 0 0 
SMALL
USER_CHARGES


@<TRIPOS>ATOM
  1 O       -5.6540     2.2400    -0.1800 O.2   1 <1>  -0.5700 
  2 C       -4.6020     2.0100     0.3880 C.2   1 <1>   0.5440 
  3 N       -4.6280     1.1450     1.4610 N.am  1 <1>  -0.6600 
  4 C       -3.3730     2.6040    -0.1030 C.ar  1 <1>   0.0860 
  5 C       -3.4250     0.3290     1.8230 C.3   1 <1>   0.3210 
  6 C       -5.9000     0.7560     2.1510 C.3   1 <1>   0.1400 
  7 C       -2.4790     3.2420     0.7330 C.ar  1 <1>  -0.1500 
  8 C       -3.0490     2.5400    -1.4720 C.ar  1 <1>  -0.1500 
  9 C       -2.9730    -0.5360     0.6490 C.2   1 <1>   0.0460 
 10 C       -6.5670    -0.4740     1.5000 C.3   1 <1>   0.3430 
 11 C       -1.2670     3.7710     0.2750 C.ar  1 <1>   0.3100 
 12 C       -1.8780     3.0630    -1.9530 C.ar  1 <1>  -0.1500 
 13 N       -3.8070    -1.4380     0.0850 N.2   1 <1>  -0.5650 
 14 C       -1.7640    -0.5490     0.0370 C.2   1 <1>  -0.3320 
 15 N       -6.9920    -0.1850     0.0990 N.4   1 <1>  -0.9590 
 16 N       -0.4200     4.3360     1.1700 N.ar  1 <1>  -0.6200 
 17 C       -0.9520     3.6800    -1.1000 C.ar  1 <1>   0.3100 
 18 C       -3.0910    -1.9780    -0.8480 C.2   1 <1>   0.0360 
 19 N       -1.8420    -1.4790    -0.9320 N.pl3 1 <1>   0.0330 
 20 C       -0.4890     0.2450     0.2830 C.3   1 <1>  -0.0600 
 21 C       -8.2830     0.5550     0.0120 C.3   1 <1>   0.2630 
 22 C       -6.9740    -1.4090    -0.7500 C.3   1 <1>   0.2630 
 23 C        0.6810     4.7900     0.6570 C.ar  1 <1>   0.1670 
 24 N        0.2120     4.1550    -1.6050 N.ar  1 <1>  -0.6200 
 25 C        0.9960     4.7000    -0.7280 C.ar  1 <1>   0.1670 
 26 C        1.6510     5.4420     1.6280 C.3   1 <1>  -0.0970 
 27 C        2.3070     5.2560    -1.2600 C.3   1 <1>  -0.0970 
 28 H       -3.6530    -0.3200     2.6500 H     1 <1>   0.0800 
 29 H       -2.6260     0.9750     2.1350 H     1 <1>   0.0800 
 30 H       -6.5840     1.5870     2.1390 H     1 <1>   0.0800 
 31 H       -5.6870     0.5360     3.1830 H     1 <1>   0.0800 
 32 H       -2.6950     3.3470     1.7800 H     1 <1>   0.1500 
 33 H       -3.7480     2.0650    -2.1390 H     1 <1>   0.1500 
 34 H       -7.4180    -0.7820     2.0830 H     1 <1>   0.0800 
 35 H       -5.8520    -1.2810     1.5010 H     1 <1>   0.0800 
 36 H       -1.6330     3.0130    -2.9990 H     1 <1>   0.1500 
 37 H       -6.2570     0.4700    -0.2540 H     1 <1>   0.4500 
 38 H       -3.4320    -2.7560    -1.5090 H     1 <1>   0.1500 
 39 H       -1.1060    -1.7590    -1.5880 H     1 <1>   0.2700 
 40 H       -0.6080     0.9320     1.1010 H     1 <1>   0.0800 
 41 H       -0.2250     0.8080    -0.5960 H     1 <1>   0.0800 
 42 H        0.3220    -0.4210     0.5190 H     1 <1>   0.0800 
 43 H       -9.0860    -0.0360     0.4220 H     1 <1>   0.0800 
 44 H       -8.5080     0.7850    -1.0160 H     1 <1>   0.0800 
 45 H       -8.2130     1.4830     0.5570 H     1 <1>   0.0800 
 46 H       -7.7140    -2.1130    -0.4080 H     1 <1>   0.0800 
 47 H       -6.0050    -1.8770    -0.7060 H     1 <1>   0.0800 
 48 H       -7.1830    -1.1520    -1.7750 H     1 <1>   0.0800 
 49 H        1.2530     5.4200     2.6270 H     1 <1>   0.0800 
 50 H        1.8130     6.4680     1.3550 H     1 <1>   0.0800 
 51 H        2.5870     4.9170     1.6270 H     1 <1>   0.0800 
 52 H        3.1370     4.7570    -0.7950 H     1 <1>   0.0800 
 53 H        2.3680     6.3110    -1.0670 H     1 <1>   0.0800 
 54 H        2.3750     5.1030    -2.3220 H     1 <1>   0.0800 
@<TRIPOS>BOND
  1   1   2  2   
  2   2   3  am  
  3   2   4  1   
  4   3   5  1   
  5   3   6  1   
  6   4   7  ar  
  7   4   8  ar  
  8   5   9  1   
  9   5  28  1   
 10   5  29  1   
 11   6  10  1   
 12   6  30  1   
 13   6  31  1   
 14   7  11  ar  
 15   7  32  1   
 16   8  12  ar  
 17   8  33  1   
 18   9  13  1   
 19   9  14  2   
 20  10  15  1   
 21  10  34  1   
 22  10  35  1   
 23  11  16  ar  
 24  11  17  ar  
 25  12  17  ar  
 26  12  36  1   
 27  13  18  2   
 28  14  19  1   
 29  14  20  1   
 30  15  21  1   
 31  15  22  1   
 32  15  37  1   
 33  16  23  ar  
 34  17  24  ar  
 35  18  19  1   
 36  18  38  1   
 37  19  39  1   
 38  20  40  1   
 39  20  41  1   
 40  20  42  1   
 41  21  43  1   
 42  21  44  1   
 43  21  45  1   
 44  22  46  1   
 45  22  47  1   
 46  22  48  1   
 47  23  25  ar  
 48  23  26  1   
 49  24  25  ar  
 50  25  27  1   
 51  26  49  1   
 52  26  50  1   
 53  26  51  1   
 54  27  52  1   
 55  27  53  1   
 56  27  54  1   
@<TRIPOS>SUBSTRUCTURE
  1 ****   4 GROUP 4 **** **** 0

# MOE 2024.06 (io_trps.svl 2023.06)
