@<TRIPOS>MOLECULE
NONAME
46 48 1 0 0 
SMALL
USER_CHARGES


@<TRIPOS>ATOM
  1 S       -1.5790    -0.0710     1.7550 S.3   1 <1>  -0.0800 
  2 C       -1.5610    -0.8280     0.1680 C.2   1 <1>  -0.1400 
  3 C       -1.7590     1.5230     1.0460 C.2   1 <1>  -0.1100 
  4 C       -1.6860     0.1070    -0.7960 C.2   1 <1>  -0.1500 
  5 C       -1.4180    -2.3410     0.1380 C.3   1 <1>   0.3800 
  6 C       -1.7980     1.4430    -0.2960 C.2   1 <1>  -0.1500 
  7 O       -1.1560    -2.7240    -1.1640 O.3   1 <1>  -0.6800 
  8 C       -2.6950    -3.0650     0.6280 C.3   1 <1>  -0.0800 
  9 C       -2.5230    -4.5980     0.6240 C.3   1 <1>  -0.1600 
 10 C       -3.9490    -2.6670    -0.1820 C.3   1 <1>  -0.1600 
 11 C       -3.8050    -5.3220     1.0330 C.3   1 <1>   0.3430 
 12 C       -5.1860    -3.4480     0.2510 C.3   1 <1>   0.3430 
 13 N       -4.9190    -4.9090     0.1290 N.4   1 <1>  -0.9590 
 14 C       -6.1790    -5.6850     0.3750 C.3   1 <1>   0.3430 
 15 C       -6.0620    -7.1600    -0.0260 C.3   1 <1>   0.1200 
 16 O       -7.3050    -7.7610     0.2380 O.3   1 <1>  -0.3630 
 17 C       -7.5270    -9.0760    -0.0130 C.ar  1 <1>   0.0830 
 18 C       -8.7850    -9.5640     0.3170 C.ar  1 <1>  -0.1500 
 19 C       -6.5730    -9.9290    -0.5720 C.ar  1 <1>  -0.1500 
 20 C       -9.1030   -10.8930     0.0970 C.ar  1 <1>  -0.1500 
 21 C       -6.8830   -11.2610    -0.7950 C.ar  1 <1>  -0.1500 
 22 C       -8.1430   -11.7180    -0.4560 C.ar  1 <1>   0.1900 
 23 F       -8.4350   -12.9740    -0.6670 F     1 <1>  -0.1900 
 24 H       -1.8160     2.3620     1.7180 H     1 <1>   0.1500 
 25 H       -1.7080    -0.0810    -1.8560 H     1 <1>   0.1500 
 26 H       -0.5710    -2.6300     0.7370 H     1 <1>   0.0800 
 27 H       -1.9020     2.2780    -0.9680 H     1 <1>   0.1500 
 28 H       -0.4260    -2.1720    -1.5070 H     1 <1>   0.4000 
 29 H       -2.8560    -2.7600     1.6480 H     1 <1>   0.0800 
 30 H       -1.7360    -4.8710     1.3050 H     1 <1>   0.0800 
 31 H       -2.2300    -4.9400    -0.3540 H     1 <1>   0.0800 
 32 H       -3.7820    -2.8270    -1.2330 H     1 <1>   0.0800 
 33 H       -4.1470    -1.6170    -0.0480 H     1 <1>   0.0800 
 34 H       -4.0500    -5.0740     2.0540 H     1 <1>   0.0800 
 35 H       -3.6450    -6.3860     0.9700 H     1 <1>   0.0800 
 36 H       -6.0190    -3.1680    -0.3750 H     1 <1>   0.0800 
 37 H       -5.4310    -3.2020     1.2720 H     1 <1>   0.0800 
 38 H       -4.6070    -5.0660    -0.8400 H     1 <1>   0.4500 
 39 H       -6.9810    -5.2500    -0.1990 H     1 <1>   0.0800 
 40 H       -6.4400    -5.6270     1.4190 H     1 <1>   0.0800 
 41 H       -5.3180    -7.6700     0.5590 H     1 <1>   0.0800 
 42 H       -5.8620    -7.2570    -1.0790 H     1 <1>   0.0800 
 43 H       -9.5150    -8.9000     0.7460 H     1 <1>   0.1500 
 44 H       -5.5920    -9.5860    -0.8410 H     1 <1>   0.1500 
 45 H      -10.0730   -11.2860     0.3470 H     1 <1>   0.1500 
 46 H       -6.1670   -11.9400    -1.2240 H     1 <1>   0.1500 
@<TRIPOS>BOND
  1   1   2  1   
  2   1   3  1   
  3   2   4  2   
  4   2   5  1   
  5   3   6  2   
  6   3  24  1   
  7   4   6  1   
  8   4  25  1   
  9   5   7  1   
 10   5   8  1   
 11   5  26  1   
 12   6  27  1   
 13   7  28  1   
 14   8   9  1   
 15   8  10  1   
 16   8  29  1   
 17   9  11  1   
 18   9  30  1   
 19   9  31  1   
 20  10  12  1   
 21  10  32  1   
 22  10  33  1   
 23  11  13  1   
 24  11  34  1   
 25  11  35  1   
 26  12  13  1   
 27  12  36  1   
 28  12  37  1   
 29  13  14  1   
 30  13  38  1   
 31  14  15  1   
 32  14  39  1   
 33  14  40  1   
 34  15  16  1   
 35  15  41  1   
 36  15  42  1   
 37  16  17  1   
 38  17  18  ar  
 39  17  19  ar  
 40  18  20  ar  
 41  18  43  1   
 42  19  21  ar  
 43  19  44  1   
 44  20  22  ar  
 45  20  45  1   
 46  21  22  ar  
 47  21  46  1   
 48  22  23  1   
@<TRIPOS>SUBSTRUCTURE
  1 ****  13 GROUP 4 **** **** 0

# MOE 2024.06 (io_trps.svl 2023.06)
