@<TRIPOS>MOLECULE
NONAME
41 43 1 0 0 
SMALL
USER_CHARGES


@<TRIPOS>ATOM
  1 S       -0.5380    -0.5390    -0.4910 S.3   1 <1>  -0.0800 
  2 C       -1.0530    -1.2920     0.9810 C.2   1 <1>   0.4420 
  3 C       -0.6110     0.9780     0.3440 C.2   1 <1>   0.1980 
  4 N       -1.2300    -0.4420     1.9250 N.2   1 <1>  -0.3380 
  5 N       -1.2020    -2.6630     0.9490 N.am  1 <1>  -0.4940 
  6 N       -0.9770     0.8510     1.5550 N.2   1 <1>  -0.3380 
  7 C       -0.2580     2.2580    -0.4120 C.3   1 <1>   0.3800 
  8 C       -1.5950    -3.5120     1.9420 C.2   1 <1>   0.5690 
  9 O       -1.0420     2.3900    -1.5620 O.3   1 <1>  -0.5600 
 10 C        1.2020     2.2830    -0.8620 C.3   1 <1>  -0.2400 
 11 O       -1.8830    -3.1600     3.0550 O.2   1 <1>  -0.5700 
 12 C       -1.6810    -4.9870     1.6150 C.3   1 <1>  -0.0990 
 13 C       -2.3840     2.6900    -1.3270 C.3   1 <1>   0.0400 
 14 C       -3.0620    -5.3420     1.0530 C.3   1 <1>   0.0200 
 15 C       -3.1630    -6.8000     0.6450 C.2   1 <1>  -0.0400 
 16 O       -4.2430    -7.1780    -0.0040 O.3   1 <1>  -0.2800 
 17 C       -2.3330    -7.8530     0.8160 C.2   1 <1>  -0.1500 
 18 C       -4.1540    -8.4740    -0.2750 C.2   1 <1>   0.1400 
 19 C       -2.9760    -8.9380     0.2190 C.2   1 <1>  -0.1500 
 20 C       -5.2030    -9.1540    -0.9820 C.2   1 <1>   0.0400 
 21 S       -6.6250    -8.2450    -1.5050 S.3   1 <1>  -0.0800 
 22 C       -5.3480   -10.4470    -1.3680 C.2   1 <1>  -0.1500 
 23 C       -7.3570    -9.6650    -2.2250 C.2   1 <1>  -0.1100 
 24 C       -6.5580   -10.7360    -2.0660 C.2   1 <1>  -0.1500 
 25 H       -0.9920    -3.0890     0.0510 H     1 <1>   0.3700 
 26 H       -0.4430     3.1080     0.2230 H     1 <1>   0.0800 
 27 H        1.3980     1.4790    -1.5480 H     1 <1>   0.0800 
 28 H        1.8470     2.1770    -0.0090 H     1 <1>   0.0800 
 29 H        1.4180     3.2200    -1.3420 H     1 <1>   0.0800 
 30 H       -1.5080    -5.5480     2.5160 H     1 <1>   0.0800 
 31 H       -0.9150    -5.2460     0.9070 H     1 <1>   0.0800 
 32 H       -2.8760     2.7900    -2.2790 H     1 <1>   0.0800 
 33 H       -2.4540     3.6190    -0.7870 H     1 <1>   0.0800 
 34 H       -2.8440     1.8930    -0.7680 H     1 <1>   0.0800 
 35 H       -3.2690    -4.7350     0.1890 H     1 <1>   0.0800 
 36 H       -3.8190    -5.1340     1.7900 H     1 <1>   0.0800 
 37 H       -1.3750    -7.8920     1.3040 H     1 <1>   0.1500 
 38 H       -2.5940    -9.9420     0.1720 H     1 <1>   0.1500 
 39 H       -4.6270   -11.2220    -1.1780 H     1 <1>   0.1500 
 40 H       -8.3160    -9.5450    -2.6960 H     1 <1>   0.1500 
 41 H       -6.7740   -11.7300    -2.4160 H     1 <1>   0.1500 
@<TRIPOS>BOND
  1   1   2  1   
  2   1   3  1   
  3   2   4  2   
  4   2   5  1   
  5   3   6  2   
  6   3   7  1   
  7   4   6  1   
  8   5   8  am  
  9   5  25  1   
 10   7   9  1   
 11   7  10  1   
 12   7  26  1   
 13   8  11  2   
 14   8  12  1   
 15   9  13  1   
 16  10  27  1   
 17  10  28  1   
 18  10  29  1   
 19  12  14  1   
 20  12  30  1   
 21  12  31  1   
 22  13  32  1   
 23  13  33  1   
 24  13  34  1   
 25  14  15  1   
 26  14  35  1   
 27  14  36  1   
 28  15  16  1   
 29  15  17  2   
 30  16  18  1   
 31  17  19  1   
 32  17  37  1   
 33  18  19  2   
 34  18  20  1   
 35  19  38  1   
 36  20  21  1   
 37  20  22  2   
 38  21  23  1   
 39  22  24  1   
 40  22  39  1   
 41  23  24  2   
 42  23  40  1   
 43  24  41  1   
@<TRIPOS>SUBSTRUCTURE
  1 ****  14 GROUP 4 **** **** 0

# MOE 2024.06 (io_trps.svl 2023.06)
