@<TRIPOS>MOLECULE
NONAME
46 48 1 0 0 
SMALL
USER_CHARGES


@<TRIPOS>ATOM
  1 S        0.6060     0.7720    -0.3220 S.o2  1 <1>   1.3330 
  2 O        0.3360    -0.4790    -0.9940 O.2   1 <1>  -0.6500 
  3 O       -0.4520     1.7440    -0.1690 O.2   1 <1>  -0.6500 
  4 N        1.1820     0.4100     1.2350 N.am  1 <1>  -0.8490 
  5 C        2.0060     1.5440    -1.1370 C.3   1 <1>  -0.0550 
  6 C        1.1830     1.5680     2.1370 C.3   1 <1>   0.1160 
  7 C        0.4440    -0.6960     1.8500 C.3   1 <1>   0.1160 
  8 C        3.1930     0.5910    -1.3990 C.3   1 <1>  -0.0800 
  9 C        4.3060     1.1800    -2.2530 C.3   1 <1>   0.2200 
 10 C        3.9400     0.1290    -0.1430 C.3   1 <1>   0.1200 
 11 N        4.5820     2.5770    -1.8550 N.am  1 <1>  -0.7300 
 12 C        5.4780     0.3010    -1.8400 C.3   1 <1>   0.1200 
 13 O        5.2950     0.0510    -0.4800 O.3   1 <1>  -0.5600 
 14 C        4.2260     3.7040    -2.5230 C.2   1 <1>   0.7160 
 15 O        3.6280     3.6000    -3.5780 O.2   1 <1>  -0.5700 
 16 C        4.5380     4.9800    -1.9610 C.2   1 <1>  -0.0860 
 17 C        5.0970     5.2810    -0.7460 C.2   1 <1>  -0.0260 
 18 C        4.3300     6.2230    -2.5520 C.2   1 <1>   0.1390 
 19 N        5.5090     4.4560     0.2780 N.2   1 <1>  -0.5760 
 20 N        5.1920     6.6490    -0.6960 N.pl3 1 <1>   0.6010 
 21 N        4.7130     7.2250    -1.8160 N.2   1 <1>  -0.7070 
 22 C        6.0170     5.0460     1.3150 C.2   1 <1>   0.3760 
 23 C        5.7330     7.2530     0.4140 C.2   1 <1>  -0.1810 
 24 C        6.1550     6.4610     1.4370 C.2   1 <1>  -0.1240 
 25 C        6.7670     7.0400     2.7020 C.3   1 <1>  -0.1020 
 26 H        1.6730     1.9240    -2.0840 H     1 <1>   0.0800 
 27 H        2.3340     2.3830    -0.5560 H     1 <1>   0.0800 
 28 H        1.6340     1.3020     3.0780 H     1 <1>   0.0800 
 29 H        0.1760     1.9080     2.3150 H     1 <1>   0.0800 
 30 H        1.7500     2.3750     1.7060 H     1 <1>   0.0800 
 31 H        0.8400    -0.9120     2.8280 H     1 <1>   0.0800 
 32 H        0.5390    -1.5840     1.2470 H     1 <1>   0.0800 
 33 H       -0.6010    -0.4470     1.9360 H     1 <1>   0.0800 
 34 H        2.8240    -0.2880    -1.9000 H     1 <1>   0.0800 
 35 H        4.1000     1.1180    -3.3090 H     1 <1>   0.0800 
 36 H        3.6040    -0.8370     0.1930 H     1 <1>   0.0800 
 37 H        3.8500     0.8430     0.6580 H     1 <1>   0.0800 
 38 H        5.0690     2.7040    -0.9580 H     1 <1>   0.3700 
 39 H        6.4310     0.7750    -1.9980 H     1 <1>   0.0800 
 40 H        5.4460    -0.6430    -2.3550 H     1 <1>   0.0800 
 41 H        3.8920     6.3450    -3.5310 H     1 <1>   0.1500 
 42 H        6.3570     4.4400     2.1370 H     1 <1>   0.0600 
 43 H        5.7840     8.3250     0.3930 H     1 <1>   0.1500 
 44 H        7.7680     6.6680     2.8320 H     1 <1>   0.0800 
 45 H        6.1790     6.7620     3.5590 H     1 <1>   0.0800 
 46 H        6.8070     8.1140     2.6490 H     1 <1>   0.0800 
@<TRIPOS>BOND
  1   1   2  2   
  2   1   3  2   
  3   1   4  am  
  4   1   5  1   
  5   4   6  1   
  6   4   7  1   
  7   5   8  1   
  8   5  26  1   
  9   5  27  1   
 10   6  28  1   
 11   6  29  1   
 12   6  30  1   
 13   7  31  1   
 14   7  32  1   
 15   7  33  1   
 16   8   9  1   
 17   8  10  1   
 18   8  34  1   
 19   9  11  1   
 20   9  12  1   
 21   9  35  1   
 22  10  13  1   
 23  10  36  1   
 24  10  37  1   
 25  11  14  am  
 26  11  38  1   
 27  12  13  1   
 28  12  39  1   
 29  12  40  1   
 30  14  15  2   
 31  14  16  1   
 32  16  17  2   
 33  16  18  1   
 34  17  19  1   
 35  17  20  1   
 36  18  21  2   
 37  18  41  1   
 38  19  22  2   
 39  20  21  1   
 40  20  23  1   
 41  22  24  1   
 42  22  42  1   
 43  23  24  2   
 44  23  43  1   
 45  24  25  1   
 46  25  44  1   
 47  25  45  1   
 48  25  46  1   
@<TRIPOS>SUBSTRUCTURE
  1 ****  11 GROUP 4 **** **** 0

# MOE 2024.06 (io_trps.svl 2023.06)
