@<TRIPOS>MOLECULE
NONAME
45 47 1 0 0 
SMALL
USER_CHARGES


@<TRIPOS>ATOM
  1 O        0.3240     1.2850    -0.5670 O.2   1 <1>  -0.5700 
  2 C        0.0280     2.4520    -0.5480 C.2   1 <1>   0.5690 
  3 N       -0.7620     2.9510     0.4250 N.am  1 <1>  -0.7300 
  4 C        0.5130     3.3900    -1.6520 C.3   1 <1>   0.1810 
  5 C       -1.2680     4.3470     0.4470 C.3   1 <1>   0.3640 
  6 O        0.5110     4.7380    -1.2400 O.3   1 <1>  -0.5600 
  7 C       -2.7950     4.2910     0.4540 C.ar  1 <1>  -0.1440 
  8 C       -0.7390     5.2090    -0.7360 C.3   1 <1>   0.2610 
  9 C       -3.4930     3.4420    -0.3990 C.ar  1 <1>  -0.1500 
 10 C       -3.5130     5.1010     1.3230 C.ar  1 <1>  -0.1500 
 11 C       -0.6050     6.6700    -0.2870 C.2   1 <1>   0.5690 
 12 C       -4.8760     3.4030    -0.3780 C.ar  1 <1>  -0.1500 
 13 C       -4.8960     5.0640     1.3440 C.ar  1 <1>  -0.1500 
 14 O       -1.5660     7.2550     0.1520 O.2   1 <1>  -0.5700 
 15 N        0.6070     7.2780    -0.3840 N.am  1 <1>  -0.7300 
 16 C       -5.5790     4.2130     0.4940 C.ar  1 <1>  -0.1500 
 17 C        0.9200     8.6610    -0.0050 C.3   1 <1>   0.2200 
 18 C        1.4720     9.3980    -1.2320 C.3   1 <1>  -0.1600 
 19 C        1.9360     8.6420     1.1420 C.3   1 <1>  -0.1600 
 20 C        1.9190    10.8230    -0.8690 C.3   1 <1>  -0.1600 
 21 C        2.3850    10.0660     1.5120 C.3   1 <1>  -0.1600 
 22 C        2.9280    10.8030     0.2840 C.3   1 <1>   0.2000 
 23 O        3.2000    12.1020     0.6440 O.3   1 <1>  -0.6800 
 24 H       -1.1420     2.3110     1.1240 H     1 <1>   0.3700 
 25 H       -0.1200     3.2930    -2.5150 H     1 <1>   0.0800 
 26 H        1.5190     3.1300    -1.9250 H     1 <1>   0.0800 
 27 H       -0.9350     4.7970     1.3670 H     1 <1>   0.0800 
 28 H       -1.4460     5.1760    -1.5440 H     1 <1>   0.0800 
 29 H       -2.9660     2.8010    -1.0840 H     1 <1>   0.1500 
 30 H       -3.0000     5.7780     1.9860 H     1 <1>   0.1500 
 31 H       -5.4060     2.7410    -1.0410 H     1 <1>   0.1500 
 32 H       -5.4400     5.7000     2.0200 H     1 <1>   0.1500 
 33 H        1.3750     6.7220    -0.7730 H     1 <1>   0.3700 
 34 H       -6.6550     4.1840     0.5100 H     1 <1>   0.1500 
 35 H        0.0220     9.1570     0.3280 H     1 <1>   0.0800 
 36 H        2.3140     8.8570    -1.6280 H     1 <1>   0.0800 
 37 H        0.7090     9.4460    -1.9890 H     1 <1>   0.0800 
 38 H        1.4910     8.1750     2.0030 H     1 <1>   0.0800 
 39 H        2.7990     8.0680     0.8510 H     1 <1>   0.0800 
 40 H        1.0540    11.3960    -0.5850 H     1 <1>   0.0800 
 41 H        2.3700    11.2860    -1.7300 H     1 <1>   0.0800 
 42 H        3.1510    10.0140     2.2650 H     1 <1>   0.0800 
 43 H        1.5430    10.6020     1.9140 H     1 <1>   0.0800 
 44 H        3.8530    10.3530    -0.0400 H     1 <1>   0.0800 
 45 H        2.3820    12.5440     0.9380 H     1 <1>   0.4000 
@<TRIPOS>BOND
  1   1   2  2   
  2   2   3  am  
  3   2   4  1   
  4   3   5  1   
  5   3  24  1   
  6   4   6  1   
  7   4  25  1   
  8   4  26  1   
  9   5   7  1   
 10   5   8  1   
 11   5  27  1   
 12   6   8  1   
 13   7   9  ar  
 14   7  10  ar  
 15   8  11  1   
 16   8  28  1   
 17   9  12  ar  
 18   9  29  1   
 19  10  13  ar  
 20  10  30  1   
 21  11  14  2   
 22  11  15  am  
 23  12  16  ar  
 24  12  31  1   
 25  13  16  ar  
 26  13  32  1   
 27  15  17  1   
 28  15  33  1   
 29  16  34  1   
 30  17  18  1   
 31  17  19  1   
 32  17  35  1   
 33  18  20  1   
 34  18  36  1   
 35  18  37  1   
 36  19  21  1   
 37  19  38  1   
 38  19  39  1   
 39  20  22  1   
 40  20  40  1   
 41  20  41  1   
 42  21  22  1   
 43  21  42  1   
 44  21  43  1   
 45  22  23  1   
 46  22  44  1   
 47  23  45  1   
@<TRIPOS>SUBSTRUCTURE
  1 ****  11 GROUP 4 **** **** 0

# MOE 2024.06 (io_trps.svl 2023.06)
