@<TRIPOS>MOLECULE
NONAME
46 48 1 0 0 
SMALL
USER_CHARGES


@<TRIPOS>ATOM
  1 CL      -0.0650    -1.2920    -1.6340 Cl    1 <1>  -0.1770 
  2 C       -1.6300    -1.6740    -0.9560 C.ar  1 <1>   0.1770 
  3 C       -1.8090    -2.8240    -0.2080 C.ar  1 <1>  -0.1440 
  4 C       -2.6760    -0.8030    -1.1840 C.ar  1 <1>  -0.1500 
  5 C       -3.0700    -3.0810     0.3050 C.ar  1 <1>  -0.1500 
  6 C       -0.6590    -3.7870     0.0490 C.3   1 <1>  -0.0960 
  7 C       -3.9350    -1.0700    -0.6650 C.ar  1 <1>  -0.1430 
  8 C       -4.1530    -2.2290     0.0900 C.ar  1 <1>  -0.0090 
  9 C       -5.0450    -0.0630    -0.9440 C.3   1 <1>  -0.0960 
 10 S       -5.7740    -2.6820     0.7960 S.o2  1 <1>   1.4470 
 11 O       -5.7110    -3.9760     1.4350 O.2   1 <1>  -0.6500 
 12 O       -6.3390    -1.5800     1.5360 O.2   1 <1>  -0.6500 
 13 N       -6.8080    -2.8200    -0.5230 N.am  1 <1>  -0.9140 
 14 C       -6.9830    -4.1020    -1.2160 C.3   1 <1>   0.2760 
 15 C       -7.7680    -5.1490    -0.4170 C.3   1 <1>  -0.0800 
 16 C       -5.7020    -4.8280    -1.6440 C.3   1 <1>   0.1200 
 17 C       -6.8270    -6.3580    -0.4280 C.3   1 <1>   0.1200 
 18 C       -9.1230    -5.4610    -1.0780 C.3   1 <1>  -0.0170 
 19 O       -6.0080    -6.1790    -1.5360 O.3   1 <1>  -0.5600 
 20 C       -9.9050    -6.5120    -0.3030 C.ar  1 <1>  -0.1430 
 21 C      -10.0740    -7.7960    -0.7820 C.ar  1 <1>  -0.1500 
 22 C      -10.4880    -6.2370     0.9170 C.ar  1 <1>  -0.1500 
 23 C      -10.7950    -8.7160    -0.0390 C.ar  1 <1>   0.1600 
 24 C      -11.1890    -7.2310     1.5810 C.ar  1 <1>   0.1600 
 25 N      -11.3570    -8.4640     1.1320 N.ar  1 <1>  -0.6200 
 26 H       -2.4900     0.0810    -1.7670 H     1 <1>   0.1500 
 27 H       -3.2200    -3.9720     0.8930 H     1 <1>   0.1500 
 28 H       -0.9780    -4.6230     0.6450 H     1 <1>   0.0800 
 29 H        0.1340    -3.2800     0.5690 H     1 <1>   0.0800 
 30 H       -0.2770    -4.1600    -0.8840 H     1 <1>   0.0800 
 31 H       -4.6710     0.7830    -1.4920 H     1 <1>   0.0800 
 32 H       -5.4610     0.3030    -0.0230 H     1 <1>   0.0800 
 33 H       -5.8260    -0.5150    -1.5290 H     1 <1>   0.0800 
 34 H       -7.7070    -2.5290    -0.1470 H     1 <1>   0.4200 
 35 H       -7.5230    -3.8920    -2.1230 H     1 <1>   0.0800 
 36 H       -7.9380    -4.8440     0.6000 H     1 <1>   0.0800 
 37 H       -4.8730    -4.6390    -0.9910 H     1 <1>   0.0800 
 38 H       -5.4340    -4.6130    -2.6630 H     1 <1>   0.0800 
 39 H       -7.3360    -7.3030    -0.5120 H     1 <1>   0.0800 
 40 H       -6.2010    -6.3650     0.4490 H     1 <1>   0.0800 
 41 H       -8.9630    -5.8030    -2.0860 H     1 <1>   0.0800 
 42 H       -9.7140    -4.5630    -1.1290 H     1 <1>   0.0800 
 43 H       -9.6510    -8.0920    -1.7250 H     1 <1>   0.1500 
 44 H      -10.4040    -5.2620     1.3610 H     1 <1>   0.1500 
 45 H      -10.9160    -9.7120    -0.4290 H     1 <1>   0.1500 
 46 H      -11.6360    -6.9980     2.5330 H     1 <1>   0.1500 
@<TRIPOS>BOND
  1   1   2  1   
  2   2   3  ar  
  3   2   4  ar  
  4   3   5  ar  
  5   3   6  1   
  6   4   7  ar  
  7   4  26  1   
  8   5   8  ar  
  9   5  27  1   
 10   6  28  1   
 11   6  29  1   
 12   6  30  1   
 13   7   8  ar  
 14   7   9  1   
 15   8  10  1   
 16   9  31  1   
 17   9  32  1   
 18   9  33  1   
 19  10  11  2   
 20  10  12  2   
 21  10  13  am  
 22  13  14  1   
 23  13  34  1   
 24  14  15  1   
 25  14  16  1   
 26  14  35  1   
 27  15  17  1   
 28  15  18  1   
 29  15  36  1   
 30  16  19  1   
 31  16  37  1   
 32  16  38  1   
 33  17  19  1   
 34  17  39  1   
 35  17  40  1   
 36  18  20  1   
 37  18  41  1   
 38  18  42  1   
 39  20  21  ar  
 40  20  22  ar  
 41  21  23  ar  
 42  21  43  1   
 43  22  24  ar  
 44  22  44  1   
 45  23  25  ar  
 46  23  45  1   
 47  24  25  ar  
 48  24  46  1   
@<TRIPOS>SUBSTRUCTURE
  1 ****  14 GROUP 4 **** **** 0

# MOE 2024.06 (io_trps.svl 2023.06)
