@<TRIPOS>MOLECULE
NONAME
38 41 1 0 0 
SMALL
USER_CHARGES


@<TRIPOS>ATOM
  1 S        0.3500     0.0110     0.1860 S.3   1 <1>  -0.0800 
  2 C       -1.3870     0.1470     0.0740 C.2   1 <1>  -0.1400 
  3 C        0.5210     1.7370    -0.0330 C.2   1 <1>  -0.1100 
  4 C       -1.7690     1.4220    -0.0990 C.2   1 <1>  -0.1810 
  5 C       -2.2570    -1.0870     0.1730 C.3   1 <1>   0.0200 
  6 C       -0.6750     2.3680    -0.1690 C.2   1 <1>  -0.0860 
  7 C       -3.2440     1.7870    -0.2110 C.3   1 <1>   0.0210 
  8 C       -3.6840    -0.7370    -0.2830 C.3   1 <1>  -0.1600 
  9 C       -0.8430     3.7960    -0.3590 C.2   1 <1>   0.7160 
 10 C       -4.1450     0.6280     0.2650 C.3   1 <1>  -0.1600 
 11 O       -1.7810     4.2530    -0.9820 O.2   1 <1>  -0.5700 
 12 N        0.0980     4.6360     0.1830 N.am  1 <1>  -0.4940 
 13 C        0.2570     6.0420     0.1190 C.2   1 <1>  -0.0880 
 14 N       -0.7140     7.0070     0.1230 N.pl3 1 <1>   0.3140 
 15 C        1.4330     6.7100     0.0650 C.2   1 <1>  -0.1810 
 16 N       -0.1780     8.2530     0.0780 N.2   1 <1>  -0.7070 
 17 C       -2.1690     6.8520     0.2570 C.3   1 <1>   0.0160 
 18 C        1.0990     8.0470     0.0390 C.2   1 <1>   0.1080 
 19 C        2.9030     6.3630     0.0210 C.3   1 <1>   0.2510 
 20 C        2.2310     9.0460    -0.0260 C.3   1 <1>   0.2510 
 21 S        3.7150     7.9890    -0.0240 S.3   1 <1>  -0.4600 
 22 H        1.5270     2.1150    -0.0470 H     1 <1>   0.1500 
 23 H       -2.2660    -1.4240     1.1950 H     1 <1>   0.0800 
 24 H       -1.8570    -1.8720    -0.4440 H     1 <1>   0.0800 
 25 H       -3.4630     2.0190    -1.2390 H     1 <1>   0.0800 
 26 H       -3.4550     2.6600     0.3810 H     1 <1>   0.0800 
 27 H       -4.3620    -1.5100     0.0340 H     1 <1>   0.0800 
 28 H       -3.7050    -0.7010    -1.3590 H     1 <1>   0.0800 
 29 H       -5.1590     0.8200    -0.0390 H     1 <1>   0.0800 
 30 H       -4.1250     0.5940     1.3410 H     1 <1>   0.0800 
 31 H        0.8460     4.1390     0.6620 H     1 <1>   0.3700 
 32 H       -2.3830     6.0180     0.8980 H     1 <1>   0.0800 
 33 H       -2.5930     6.6850    -0.7150 H     1 <1>   0.0800 
 34 H       -2.5820     7.7480     0.6800 H     1 <1>   0.0800 
 35 H        3.1710     5.8310    -0.8740 H     1 <1>   0.0800 
 36 H        3.2330     5.8500     0.9060 H     1 <1>   0.0800 
 37 H        2.2600     9.6810     0.8400 H     1 <1>   0.0800 
 38 H        2.2150     9.6140    -0.9380 H     1 <1>   0.0800 
@<TRIPOS>BOND
  1   1   2  1   
  2   1   3  1   
  3   2   4  2   
  4   2   5  1   
  5   3   6  2   
  6   3  22  1   
  7   4   6  1   
  8   4   7  1   
  9   5   8  1   
 10   5  23  1   
 11   5  24  1   
 12   6   9  1   
 13   7  10  1   
 14   7  25  1   
 15   7  26  1   
 16   8  10  1   
 17   8  27  1   
 18   8  28  1   
 19   9  11  2   
 20   9  12  am  
 21  10  29  1   
 22  10  30  1   
 23  12  13  1   
 24  12  31  1   
 25  13  14  1   
 26  13  15  2   
 27  14  16  1   
 28  14  17  1   
 29  15  18  1   
 30  15  19  1   
 31  16  18  2   
 32  17  32  1   
 33  17  33  1   
 34  17  34  1   
 35  18  20  1   
 36  19  21  1   
 37  19  35  1   
 38  19  36  1   
 39  20  21  1   
 40  20  37  1   
 41  20  38  1   
@<TRIPOS>SUBSTRUCTURE
  1 ****   9 GROUP 4 **** **** 0

# MOE 2024.06 (io_trps.svl 2023.06)
