@<TRIPOS>MOLECULE
NONAME
32 33 1 0 0 
SMALL
USER_CHARGES


@<TRIPOS>ATOM
  1 S        0.5200     0.5890     0.4680 S.3   1 <1>  -0.0800 
  2 C        1.2840    -0.8560    -0.1420 C.2   1 <1>  -0.1400 
  3 C        1.1890     1.4810    -0.8800 C.2   1 <1>   0.2280 
  4 C        1.9540    -0.5420    -1.2620 C.2   1 <1>   0.0770 
  5 C        1.1150    -2.1470     0.6250 C.3   1 <1>   0.5230 
  6 N        1.8900     0.7770    -1.6750 N.2   1 <1>  -0.5650 
  7 N       -0.1220    -2.8380     0.1780 N.4   1 <1>  -0.9590 
  8 C       -0.1890    -4.2700     0.5920 C.3   1 <1>   0.3430 
  9 C       -1.3860    -2.0870     0.4710 C.3   1 <1>   0.3430 
 10 C       -1.2200    -4.9560    -0.3250 C.3   1 <1>   0.2000 
 11 C       -2.5870    -3.0240     0.6770 C.3   1 <1>  -0.1600 
 12 O       -0.7270    -4.8400    -1.6220 O.3   1 <1>  -0.6800 
 13 C       -2.5990    -4.2490    -0.2750 C.3   1 <1>  -0.0800 
 14 C       -3.7030    -5.2520     0.1000 C.3   1 <1>   0.1200 
 15 O       -4.9160    -4.5900     0.1190 O.3   1 <1>  -0.6800 
 16 H        0.9660     2.5330    -0.9400 H     1 <1>   0.1500 
 17 H        2.5370    -1.2160    -1.8700 H     1 <1>   0.1500 
 18 H        1.0780    -1.9470     1.6830 H     1 <1>   0.0800 
 19 H        1.9670    -2.7780     0.4280 H     1 <1>   0.0800 
 20 H       -0.0730    -2.9110    -0.8540 H     1 <1>   0.4500 
 21 H        0.7670    -4.7520     0.4650 H     1 <1>   0.0800 
 22 H       -0.4880    -4.3530     1.6240 H     1 <1>   0.0800 
 23 H       -1.2630    -1.4850     1.3560 H     1 <1>   0.0800 
 24 H       -1.5940    -1.4200    -0.3510 H     1 <1>   0.0800 
 25 H       -1.2930    -6.0040    -0.0860 H     1 <1>   0.0800 
 26 H       -2.5920    -3.3600     1.6990 H     1 <1>   0.0800 
 27 H       -3.4890    -2.4510     0.5410 H     1 <1>   0.0800 
 28 H       -1.2910    -5.3320    -2.2580 H     1 <1>   0.4000 
 29 H       -2.8380    -3.8850    -1.2610 H     1 <1>   0.0800 
 30 H       -3.5370    -5.6730     1.0780 H     1 <1>   0.0800 
 31 H       -3.7670    -6.0440    -0.6270 H     1 <1>   0.0800 
 32 H       -5.6560    -5.2040     0.3030 H     1 <1>   0.4000 
@<TRIPOS>BOND
  1   1   2  1   
  2   1   3  1   
  3   2   4  2   
  4   2   5  1   
  5   3   6  2   
  6   3  16  1   
  7   4   6  1   
  8   4  17  1   
  9   5   7  1   
 10   5  18  1   
 11   5  19  1   
 12   7   8  1   
 13   7   9  1   
 14   7  20  1   
 15   8  10  1   
 16   8  21  1   
 17   8  22  1   
 18   9  11  1   
 19   9  23  1   
 20   9  24  1   
 21  10  12  1   
 22  10  13  1   
 23  10  25  1   
 24  11  13  1   
 25  11  26  1   
 26  11  27  1   
 27  12  28  1   
 28  13  14  1   
 29  13  29  1   
 30  14  15  1   
 31  14  30  1   
 32  14  31  1   
 33  15  32  1   
@<TRIPOS>SUBSTRUCTURE
  1 ****   7 GROUP 4 **** **** 0

# MOE 2024.06 (io_trps.svl 2023.06)
