@<TRIPOS>MOLECULE
NONAME
50 54 1 0 0 
SMALL
USER_CHARGES


@<TRIPOS>ATOM
  1 O        0.5610    -0.2930    -0.9630 O.3   1 <1>  -0.5600 
  2 C        1.6920    -0.7520    -0.2510 C.3   1 <1>   0.4600 
  3 C       -0.7120    -0.6920    -0.5140 C.3   1 <1>   0.1200 
  4 C        1.4730    -2.2040     0.1570 C.2   1 <1>  -0.3320 
  5 C        2.8790    -0.6510    -1.2090 C.3   1 <1>  -0.1600 
  6 C        1.9110     0.1320     0.9820 C.3   1 <1>  -0.1600 
  7 C       -0.8890    -2.2170    -0.6230 C.3   1 <1>   0.0210 
  8 N        2.3970    -3.0240     0.7410 N.pl3 1 <1>   0.0330 
  9 C        0.3180    -2.8780    -0.0090 C.2   1 <1>  -0.1810 
 10 C        3.2000     0.7990    -1.5680 C.3   1 <1>   0.2090 
 11 C        2.2020     1.5770     0.5860 C.3   1 <1>   0.2090 
 12 C        1.8080    -4.2500     0.9420 C.ar  1 <1>  -0.1520 
 13 C        0.4970    -4.1910     0.4760 C.ar  1 <1>   0.0000 
 14 N        3.3640     1.6100    -0.3330 N.pl3 1 <1>  -0.8380 
 15 C        2.3180    -5.4250     1.4990 C.ar  1 <1>  -0.1500 
 16 C       -0.3210    -5.3220     0.5650 C.ar  1 <1>  -0.1500 
 17 C        4.6200     1.8340     0.1860 C.ar  1 <1>   0.4100 
 18 C        1.5020    -6.5300     1.5810 C.ar  1 <1>  -0.1500 
 19 C        0.1820    -6.4790     1.1140 C.ar  1 <1>  -0.1500 
 20 N        5.3820     0.7770     0.3870 N.ar  1 <1>  -0.6200 
 21 C        5.0650     3.1130     0.4960 C.ar  1 <1>  -0.1440 
 22 C        6.5720     1.0120     0.9000 C.ar  1 <1>   0.4770 
 23 C        6.3230     3.2190     1.0280 C.ar  1 <1>   0.1600 
 24 C        4.2090     4.3490     0.2480 C.3   1 <1>  -0.0970 
 25 N        7.0960     2.1740     1.2420 N.ar  1 <1>  -0.6200 
 26 C        7.4470    -0.1950     1.1320 C.3   1 <1>  -0.0970 
 27 H       -1.4460    -0.1900    -1.1190 H     1 <1>   0.0800 
 28 H       -0.8290    -0.3760     0.5070 H     1 <1>   0.0800 
 29 H        2.6650    -1.2110    -2.1000 H     1 <1>   0.0800 
 30 H        3.7490    -1.0850    -0.7550 H     1 <1>   0.0800 
 31 H        2.7530    -0.2380     1.5370 H     1 <1>   0.0800 
 32 H        1.0570     0.0870     1.6290 H     1 <1>   0.0800 
 33 H       -0.9760    -2.5040    -1.6550 H     1 <1>   0.0800 
 34 H       -1.7810    -2.5160    -0.1030 H     1 <1>   0.0800 
 35 H        3.3630    -2.7790     0.9810 H     1 <1>   0.2700 
 36 H        2.4010     1.2150    -2.1570 H     1 <1>   0.0800 
 37 H        4.1050     0.8390    -2.1490 H     1 <1>   0.0800 
 38 H        2.4160     2.1570     1.4670 H     1 <1>   0.0800 
 39 H        1.3470     2.0070     0.0920 H     1 <1>   0.0800 
 40 H        3.3320    -5.4560     1.8550 H     1 <1>   0.1500 
 41 H       -1.3300    -5.2670     0.2010 H     1 <1>   0.1500 
 42 H        1.8700    -7.4470     2.0060 H     1 <1>   0.1500 
 43 H       -0.4340    -7.3570     1.1890 H     1 <1>   0.1500 
 44 H        6.7200     4.1850     1.2890 H     1 <1>   0.1500 
 45 H        3.8020     4.3170    -0.7470 H     1 <1>   0.0800 
 46 H        4.7900     5.2480     0.3500 H     1 <1>   0.0800 
 47 H        3.3970     4.3800     0.9510 H     1 <1>   0.0800 
 48 H        7.1070    -1.0230     0.5380 H     1 <1>   0.0800 
 49 H        7.4100    -0.4640     2.1700 H     1 <1>   0.0800 
 50 H        8.4610     0.0340     0.8620 H     1 <1>   0.0800 
@<TRIPOS>BOND
  1   1   2  1   
  2   1   3  1   
  3   2   4  1   
  4   2   5  1   
  5   2   6  1   
  6   3   7  1   
  7   3  27  1   
  8   3  28  1   
  9   4   8  1   
 10   4   9  2   
 11   5  10  1   
 12   5  29  1   
 13   5  30  1   
 14   6  11  1   
 15   6  31  1   
 16   6  32  1   
 17   7   9  1   
 18   7  33  1   
 19   7  34  1   
 20   8  12  1   
 21   8  35  1   
 22   9  13  1   
 23  10  14  1   
 24  10  36  1   
 25  10  37  1   
 26  11  14  1   
 27  11  38  1   
 28  11  39  1   
 29  12  13  ar  
 30  12  15  ar  
 31  13  16  ar  
 32  14  17  1   
 33  15  18  ar  
 34  15  40  1   
 35  16  19  ar  
 36  16  41  1   
 37  17  20  ar  
 38  17  21  ar  
 39  18  19  ar  
 40  18  42  1   
 41  19  43  1   
 42  20  22  ar  
 43  21  23  ar  
 44  21  24  1   
 45  22  25  ar  
 46  22  26  1   
 47  23  25  ar  
 48  23  44  1   
 49  24  45  1   
 50  24  46  1   
 51  24  47  1   
 52  26  48  1   
 53  26  49  1   
 54  26  50  1   
@<TRIPOS>SUBSTRUCTURE
  1 ****   2 GROUP 4 **** **** 0

# MOE 2024.06 (io_trps.svl 2023.06)
