@<TRIPOS>MOLECULE
NONAME
44 46 1 0 0 
SMALL
USER_CHARGES


@<TRIPOS>ATOM
  1 O       -0.8940     0.0480    -1.1550 O.2   1 <1>  -0.5700 
  2 C       -1.7730     0.4720    -0.4530 C.2   1 <1>   0.4230 
  3 C       -3.0410    -0.1900    -0.3230 C.ar  1 <1>   0.0860 
  4 C       -1.4570     1.7160     0.3540 C.3   1 <1>  -0.1790 
  5 C       -4.2950     0.4210    -0.3130 C.ar  1 <1>   0.1660 
  6 C       -3.0670    -1.5690    -0.1900 C.ar  1 <1>   0.1600 
  7 N       -5.4020    -0.2530    -0.1280 N.ar  1 <1>  -0.6200 
  8 C       -4.4850     1.9120    -0.5430 C.3   1 <1>  -0.0960 
  9 N       -4.1610    -2.2640    -0.0130 N.ar  1 <1>  -0.6200 
 10 C       -5.2860    -1.5640     0.0220 C.ar  1 <1>   0.7200 
 11 N       -6.4470    -2.2150     0.2130 N.pl3 1 <1>  -0.8690 
 12 C       -6.6380    -3.6700     0.4270 C.3   1 <1>   0.2090 
 13 C       -6.9970    -4.3490    -0.8900 C.3   1 <1>  -0.0170 
 14 C       -7.3150    -5.8060    -0.6360 C.ar  1 <1>   0.4770 
 15 N       -6.3380    -6.6720    -0.8700 N.ar  1 <1>  -0.6200 
 16 N       -8.5400    -6.0600    -0.1940 N.ar  1 <1>  -0.6200 
 17 C       -6.6140    -7.9390    -0.6430 C.ar  1 <1>   0.1670 
 18 C       -8.7760    -7.3310     0.0220 C.ar  1 <1>   0.1670 
 19 C       -7.8560    -8.3140    -0.1830 C.ar  1 <1>  -0.1430 
 20 C       -5.5060    -8.9340    -0.9150 C.3   1 <1>  -0.0970 
 21 C      -10.0860    -7.8790     0.5210 C.3   1 <1>  -0.0170 
 22 C       -8.4240    -9.6750     0.1500 C.3   1 <1>  -0.0170 
 23 C       -9.7680    -9.3540     0.8320 C.3   1 <1>  -0.1600 
 24 H       -2.1220     1.8100     1.1930 H     1 <1>   0.0800 
 25 H       -1.5340     2.5860    -0.2700 H     1 <1>   0.0800 
 26 H       -0.4500     1.6510     0.7250 H     1 <1>   0.0800 
 27 H       -2.1330    -2.1070    -0.2290 H     1 <1>   0.1500 
 28 H       -3.7670     2.2880    -1.2480 H     1 <1>   0.0800 
 29 H       -4.3970     2.4430     0.3860 H     1 <1>   0.0800 
 30 H       -5.4660     2.0980    -0.9450 H     1 <1>   0.0800 
 31 H       -7.2780    -1.6270     0.1940 H     1 <1>   0.4000 
 32 H       -7.4290    -3.8210     1.1430 H     1 <1>   0.0800 
 33 H       -5.7390    -4.1110     0.8250 H     1 <1>   0.0800 
 34 H       -6.1700    -4.2720    -1.5710 H     1 <1>   0.0800 
 35 H       -7.8550    -3.8750    -1.3260 H     1 <1>   0.0800 
 36 H       -5.1750    -8.8300    -1.9320 H     1 <1>   0.0800 
 37 H       -5.8340    -9.9440    -0.7610 H     1 <1>   0.0800 
 38 H       -4.6780    -8.7320    -0.2610 H     1 <1>   0.0800 
 39 H      -10.8240    -7.7950    -0.2560 H     1 <1>   0.0800 
 40 H      -10.4130    -7.3490     1.3980 H     1 <1>   0.0800 
 41 H       -7.7740   -10.2240     0.8080 H     1 <1>   0.0800 
 42 H       -8.5820   -10.2310    -0.7580 H     1 <1>   0.0800 
 43 H      -10.5520   -10.0080     0.4920 H     1 <1>   0.0800 
 44 H       -9.6550    -9.4690     1.8970 H     1 <1>   0.0800 
@<TRIPOS>BOND
  1   1   2  2   
  2   2   3  1   
  3   2   4  1   
  4   3   5  ar  
  5   3   6  ar  
  6   4  24  1   
  7   4  25  1   
  8   4  26  1   
  9   5   7  ar  
 10   5   8  1   
 11   6   9  ar  
 12   6  27  1   
 13   7  10  ar  
 14   8  28  1   
 15   8  29  1   
 16   8  30  1   
 17   9  10  ar  
 18  10  11  1   
 19  11  12  1   
 20  11  31  1   
 21  12  13  1   
 22  12  32  1   
 23  12  33  1   
 24  13  14  1   
 25  13  34  1   
 26  13  35  1   
 27  14  15  ar  
 28  14  16  ar  
 29  15  17  ar  
 30  16  18  ar  
 31  17  19  ar  
 32  17  20  1   
 33  18  19  ar  
 34  18  21  1   
 35  19  22  1   
 36  20  36  1   
 37  20  37  1   
 38  20  38  1   
 39  21  23  1   
 40  21  39  1   
 41  21  40  1   
 42  22  23  1   
 43  22  41  1   
 44  22  42  1   
 45  23  43  1   
 46  23  44  1   
@<TRIPOS>SUBSTRUCTURE
  1 ****  12 GROUP 4 **** **** 0

# MOE 2024.06 (io_trps.svl 2023.06)
