@<TRIPOS>MOLECULE
NONAME
48 50 1 0 0 
SMALL
USER_CHARGES


@<TRIPOS>ATOM
  1 O       -3.3370     1.1840    -1.9010 O.2   1 <1>  -0.5700 
  2 C       -2.6270     1.1730    -0.9270 C.2   1 <1>   0.5690 
  3 N       -2.2300     0.0190    -0.3390 N.am  1 <1>  -0.7300 
  4 C       -2.1550     2.4800    -0.3440 C.3   1 <1>  -0.0990 
  5 C       -2.6210    -1.3290    -0.8060 C.3   1 <1>   0.2200 
  6 C       -0.8330     2.8800    -0.9920 C.3   1 <1>   0.1400 
  7 C       -3.8580    -1.7770    -0.0500 C.3   1 <1>  -0.0800 
  8 C       -1.5840    -2.3650    -0.3760 C.3   1 <1>   0.1200 
  9 N       -0.2710     4.0540    -0.2900 N.am  1 <1>  -0.7300 
 10 C       -3.2490    -2.3640     1.2240 C.3   1 <1>   0.1200 
 11 C       -4.6600    -2.8220    -0.8500 C.3   1 <1>  -0.0170 
 12 O       -1.9810    -2.8400     0.8790 O.3   1 <1>  -0.5600 
 13 C        0.4730     3.9730     0.8390 C.2   1 <1>   0.5690 
 14 C       -5.9530    -3.2030    -0.1370 C.ar  1 <1>  -0.1440 
 15 O        0.6930     2.9230     1.3900 O.2   1 <1>  -0.5700 
 16 C        1.0280     5.2460     1.4210 C.3   1 <1>  -0.1790 
 17 C       -7.0850    -2.3530    -0.1180 C.ar  1 <1>   0.0000 
 18 C       -6.0510    -4.3970     0.5140 C.ar  1 <1>  -0.1500 
 19 C       -8.2290    -2.7970     0.5900 C.ar  1 <1>   0.3100 
 20 C       -7.1520    -1.0930    -0.7590 C.ar  1 <1>  -0.1500 
 21 C       -7.2320    -4.7430     1.1800 C.ar  1 <1>   0.1600 
 22 N       -8.2860    -3.9920     1.2320 N.ar  1 <1>  -0.6200 
 23 C       -9.3630    -1.9710     0.6360 C.ar  1 <1>  -0.1500 
 24 C       -8.2750    -0.3130    -0.6960 C.ar  1 <1>  -0.1500 
 25 C       -9.3950    -0.7550     0.0110 C.ar  1 <1>  -0.1500 
 26 H       -1.6570     0.0400     0.5100 H     1 <1>   0.3700 
 27 H       -2.8970     3.2340    -0.5260 H     1 <1>   0.0800 
 28 H       -2.0260     2.3640     0.7170 H     1 <1>   0.0800 
 29 H       -2.7610    -1.3180    -1.8750 H     1 <1>   0.0800 
 30 H       -0.9820     3.1090    -2.0340 H     1 <1>   0.0800 
 31 H       -0.1340     2.0620    -0.9220 H     1 <1>   0.0800 
 32 H       -4.4950    -0.9430     0.1840 H     1 <1>   0.0800 
 33 H       -0.5920    -1.9550    -0.3090 H     1 <1>   0.0800 
 34 H       -1.5860    -3.2020    -1.0510 H     1 <1>   0.0800 
 35 H       -0.4580     4.9660    -0.7110 H     1 <1>   0.3700 
 36 H       -3.8280    -3.1670     1.6430 H     1 <1>   0.0800 
 37 H       -3.1150    -1.5960     1.9660 H     1 <1>   0.0800 
 38 H       -4.0590    -3.7020    -1.0000 H     1 <1>   0.0800 
 39 H       -4.8970    -2.4360    -1.8260 H     1 <1>   0.0800 
 40 H        1.6550     5.7340     0.6990 H     1 <1>   0.0800 
 41 H        1.6130     5.0200     2.2940 H     1 <1>   0.0800 
 42 H        0.2230     5.8980     1.7010 H     1 <1>   0.0800 
 43 H       -5.2330    -5.0950     0.5380 H     1 <1>   0.1500 
 44 H       -6.3050    -0.7320    -1.3120 H     1 <1>   0.1500 
 45 H       -7.2660    -5.6950     1.6820 H     1 <1>   0.1500 
 46 H      -10.2140    -2.3330     1.1840 H     1 <1>   0.1500 
 47 H       -8.3080     0.6440    -1.1880 H     1 <1>   0.1500 
 48 H      -10.2720    -0.1320     0.0540 H     1 <1>   0.1500 
@<TRIPOS>BOND
  1   1   2  2   
  2   2   3  am  
  3   2   4  1   
  4   3   5  1   
  5   3  26  1   
  6   4   6  1   
  7   4  27  1   
  8   4  28  1   
  9   5   7  1   
 10   5   8  1   
 11   5  29  1   
 12   6   9  1   
 13   6  30  1   
 14   6  31  1   
 15   7  10  1   
 16   7  11  1   
 17   7  32  1   
 18   8  12  1   
 19   8  33  1   
 20   8  34  1   
 21   9  13  am  
 22   9  35  1   
 23  10  12  1   
 24  10  36  1   
 25  10  37  1   
 26  11  14  1   
 27  11  38  1   
 28  11  39  1   
 29  13  15  2   
 30  13  16  1   
 31  14  17  ar  
 32  14  18  ar  
 33  16  40  1   
 34  16  41  1   
 35  16  42  1   
 36  17  19  ar  
 37  17  20  ar  
 38  18  21  ar  
 39  18  43  1   
 40  19  22  ar  
 41  19  23  ar  
 42  20  24  ar  
 43  20  44  1   
 44  21  22  ar  
 45  21  45  1   
 46  23  25  ar  
 47  23  46  1   
 48  24  25  ar  
 49  24  47  1   
 50  25  48  1   
@<TRIPOS>SUBSTRUCTURE
  1 ****   7 GROUP 4 **** **** 0

# MOE 2024.06 (io_trps.svl 2023.06)
