@<TRIPOS>MOLECULE
NONAME
49 53 1 0 0 
SMALL
USER_CHARGES


@<TRIPOS>ATOM
  1 S        0.3100     0.6430    -1.8800 S.3   1 <1>  -0.0800 
  2 C       -0.8640     1.2260    -0.7100 C.2   1 <1>  -0.1400 
  3 C       -0.7510    -0.6860    -2.3300 C.2   1 <1>  -0.1100 
  4 C       -1.9570     0.4510    -0.7090 C.2   1 <1>  -0.1810 
  5 C       -0.6230     2.4550     0.1610 C.3   1 <1>   0.4600 
  6 C       -1.8980    -0.6460    -1.6250 C.2   1 <1>  -0.1500 
  7 C       -3.1060     0.7830     0.2150 C.3   1 <1>   0.0210 
  8 O       -1.6830     2.5560     1.0960 O.3   1 <1>  -0.5600 
  9 C        0.6610     2.3010     0.9780 C.3   1 <1>  -0.1600 
 10 C       -0.5720     3.7360    -0.6810 C.3   1 <1>  -0.1600 
 11 C       -2.9870     2.2550     0.6560 C.3   1 <1>   0.1200 
 12 C        0.9440     3.5450     1.8210 C.3   1 <1>   0.2090 
 13 C       -0.3040     4.9620     0.1870 C.3   1 <1>   0.2090 
 14 N        0.9530     4.7560     0.9530 N.pl3 1 <1>  -0.8380 
 15 C        2.1430     5.2690     0.4660 C.ar  1 <1>   0.4100 
 16 N        3.1480     4.4200     0.2890 N.ar  1 <1>  -0.6200 
 17 C        2.2440     6.6240     0.1770 C.ar  1 <1>  -0.1500 
 18 C        4.2610     4.9300    -0.2030 C.ar  1 <1>   0.1600 
 19 C        3.4080     7.1680    -0.3320 C.ar  1 <1>   0.0860 
 20 C        4.4410     6.2590    -0.5260 C.ar  1 <1>  -0.1500 
 21 C        3.5240     8.5810    -0.6380 C.2   1 <1>   0.5440 
 22 O        2.5500     9.2130    -0.9990 O.2   1 <1>  -0.5700 
 23 N        4.7290     9.2170    -0.5150 N.am  1 <1>  -0.5790 
 24 C        4.9890    10.6330    -0.8140 C.3   1 <1>   0.0490 
 25 C        6.3440    11.0050    -1.3190 C.3   1 <1>  -0.2000 
 26 C        5.9310    11.3760     0.0740 C.3   1 <1>  -0.2000 
 27 H       -0.3960    -1.3650    -3.0840 H     1 <1>   0.1500 
 28 H       -2.7110    -1.3460    -1.7110 H     1 <1>   0.1500 
 29 H       -3.0780     0.1400     1.0760 H     1 <1>   0.0800 
 30 H       -4.0430     0.6380    -0.2910 H     1 <1>   0.0800 
 31 H        1.4940     2.1470     0.3180 H     1 <1>   0.0800 
 32 H        0.5810     1.4380     1.6110 H     1 <1>   0.0800 
 33 H       -1.4860     3.8590    -1.2280 H     1 <1>   0.0800 
 34 H        0.2230     3.6510    -1.4000 H     1 <1>   0.0800 
 35 H       -3.6600     2.4530     1.4710 H     1 <1>   0.0800 
 36 H       -3.2310     2.9110    -0.1600 H     1 <1>   0.0800 
 37 H        1.8910     3.4410     2.3220 H     1 <1>   0.0800 
 38 H        0.1810     3.6590     2.5730 H     1 <1>   0.0800 
 39 H       -1.1160     5.1150     0.8770 H     1 <1>   0.0800 
 40 H       -0.2250     5.8340    -0.4390 H     1 <1>   0.0800 
 41 H        1.3990     7.2590     0.3610 H     1 <1>   0.1500 
 42 H        5.0740     4.2410    -0.3600 H     1 <1>   0.1500 
 43 H        5.3790     6.5810    -0.9360 H     1 <1>   0.1500 
 44 H        5.5140     8.7210    -0.0970 H     1 <1>   0.3700 
 45 H        4.1290    11.1540    -1.2080 H     1 <1>   0.1000 
 46 H        6.4220    11.7890    -2.0510 H     1 <1>   0.1000 
 47 H        7.0770    10.2310    -1.4610 H     1 <1>   0.1000 
 48 H        6.3730    10.8620     0.9090 H     1 <1>   0.1000 
 49 H        5.7260    12.4110     0.2860 H     1 <1>   0.1000 
@<TRIPOS>BOND
  1   1   2  1   
  2   1   3  1   
  3   2   4  2   
  4   2   5  1   
  5   3   6  2   
  6   3  27  1   
  7   4   6  1   
  8   4   7  1   
  9   5   8  1   
 10   5   9  1   
 11   5  10  1   
 12   6  28  1   
 13   7  11  1   
 14   7  29  1   
 15   7  30  1   
 16   8  11  1   
 17   9  12  1   
 18   9  31  1   
 19   9  32  1   
 20  10  13  1   
 21  10  33  1   
 22  10  34  1   
 23  11  35  1   
 24  11  36  1   
 25  12  14  1   
 26  12  37  1   
 27  12  38  1   
 28  13  14  1   
 29  13  39  1   
 30  13  40  1   
 31  14  15  1   
 32  15  16  ar  
 33  15  17  ar  
 34  16  18  ar  
 35  17  19  ar  
 36  17  41  1   
 37  18  20  ar  
 38  18  42  1   
 39  19  20  ar  
 40  19  21  1   
 41  20  43  1   
 42  21  22  2   
 43  21  23  am  
 44  23  24  1   
 45  23  44  1   
 46  24  25  1   
 47  24  26  1   
 48  24  45  1   
 49  25  26  1   
 50  25  46  1   
 51  25  47  1   
 52  26  48  1   
 53  26  49  1   
@<TRIPOS>SUBSTRUCTURE
  1 ****  15 GROUP 4 **** **** 0

# MOE 2024.06 (io_trps.svl 2023.06)
