@<TRIPOS>MOLECULE
NONAME
48 51 1 0 0 
SMALL
USER_CHARGES


@<TRIPOS>ATOM
  1 O        0.9100    -0.1820    -1.7630 O.2   1 <1>  -0.5700 
  2 C        1.6830    -0.5760    -0.9070 C.2   1 <1>   0.7160 
  3 N        2.6830     0.2950    -0.5050 N.am  1 <1>  -0.6600 
  4 C        1.5390    -1.9300    -0.3900 C.2   1 <1>   0.2030 
  5 C        3.3880     0.1570     0.8280 C.3   1 <1>   0.2200 
  6 C        3.0760     1.4170    -1.4170 C.3   1 <1>   0.1400 
  7 N        2.4630    -2.6580     0.1660 N.2   1 <1>  -0.4100 
  8 C        0.3770    -2.6760    -0.4370 C.2   1 <1>  -0.1500 
  9 C        3.4170     1.4770     1.6170 C.3   1 <1>   0.1200 
 10 C        4.8070    -0.4390     0.6650 C.3   1 <1>   0.3430 
 11 C        4.4550     2.0460    -1.1390 C.3   1 <1>  -0.0800 
 12 O        1.9750    -3.8280     0.4950 O.3   1 <1>  -0.0190 
 13 C        0.7020    -3.8520     0.1290 C.2   1 <1>   0.0870 
 14 O        4.5180     2.2570     1.2690 O.3   1 <1>  -0.5600 
 15 N        5.3130    -0.3360    -0.7480 N.4   1 <1>  -0.9590 
 16 C        4.4270     2.9720     0.0850 C.3   1 <1>   0.1200 
 17 C        5.6580     1.0770    -1.1060 C.3   1 <1>   0.3430 
 18 C       -0.0990    -5.0340     0.3640 C.ar  1 <1>   0.0530 
 19 C        6.5660    -1.1910    -0.8700 C.3   1 <1>   0.2370 
 20 C       -1.3760    -5.1620    -0.1830 C.ar  1 <1>  -0.1500 
 21 C        0.3700    -6.0900     1.1470 C.ar  1 <1>  -0.1500 
 22 C        7.7360    -0.7350     0.0080 C.2   1 <1>   0.9060 
 23 C       -2.1490    -6.2870     0.0390 C.ar  1 <1>  -0.1500 
 24 C       -0.3980    -7.2180     1.3730 C.ar  1 <1>  -0.1500 
 25 O        7.7740    -1.1410     1.1730 O.co2 1 <1>  -0.9000 
 26 O        8.5010     0.1170    -0.4520 O.co2 1 <1>  -0.9000 
 27 C       -1.6610    -7.3190     0.8190 C.ar  1 <1>  -0.1500 
 28 H        2.8240    -0.5170     1.4470 H     1 <1>   0.0800 
 29 H        3.0690     1.0470    -2.4290 H     1 <1>   0.0800 
 30 H        2.3180     2.1810    -1.3600 H     1 <1>   0.0800 
 31 H       -0.5590    -2.3460    -0.8490 H     1 <1>   0.1500 
 32 H        3.5290     1.2540     2.6640 H     1 <1>   0.0800 
 33 H        2.5090     2.0410     1.4880 H     1 <1>   0.0800 
 34 H        4.7710    -1.4770     0.9490 H     1 <1>   0.0800 
 35 H        5.4940     0.0480     1.3410 H     1 <1>   0.0800 
 36 H        4.6410     2.7070    -1.9660 H     1 <1>   0.0800 
 37 H        4.5670    -0.6800    -1.3620 H     1 <1>   0.4500 
 38 H        3.5370     3.5800     0.1090 H     1 <1>   0.0800 
 39 H        5.2800     3.6300     0.0590 H     1 <1>   0.0800 
 40 H        6.3950     1.4520    -0.4110 H     1 <1>   0.0800 
 41 H        6.1210     1.0750    -2.0790 H     1 <1>   0.0800 
 42 H        6.3430    -2.2060    -0.5970 H     1 <1>   0.0800 
 43 H        6.9160    -1.1830    -1.8860 H     1 <1>   0.0800 
 44 H       -1.7760    -4.3750    -0.7960 H     1 <1>   0.1500 
 45 H        1.3490    -6.0330     1.5880 H     1 <1>   0.1500 
 46 H       -3.1310    -6.3620    -0.3950 H     1 <1>   0.1500 
 47 H       -0.0130    -8.0200     1.9800 H     1 <1>   0.1500 
 48 H       -2.2600    -8.1960     0.9940 H     1 <1>   0.1500 
@<TRIPOS>BOND
  1   1   2  2   
  2   2   3  am  
  3   2   4  1   
  4   3   5  1   
  5   3   6  1   
  6   4   7  2   
  7   4   8  1   
  8   5   9  1   
  9   5  10  1   
 10   5  28  1   
 11   6  11  1   
 12   6  29  1   
 13   6  30  1   
 14   7  12  1   
 15   8  13  2   
 16   8  31  1   
 17   9  14  1   
 18   9  32  1   
 19   9  33  1   
 20  10  15  1   
 21  10  34  1   
 22  10  35  1   
 23  11  16  1   
 24  11  17  1   
 25  11  36  1   
 26  12  13  1   
 27  13  18  1   
 28  14  16  1   
 29  15  17  1   
 30  15  19  1   
 31  15  37  1   
 32  16  38  1   
 33  16  39  1   
 34  17  40  1   
 35  17  41  1   
 36  18  20  ar  
 37  18  21  ar  
 38  19  22  1   
 39  19  42  1   
 40  19  43  1   
 41  20  23  ar  
 42  20  44  1   
 43  21  24  ar  
 44  21  45  1   
 45  22  25  ar  
 46  22  26  ar  
 47  23  27  ar  
 48  23  46  1   
 49  24  27  ar  
 50  24  47  1   
 51  27  48  1   
@<TRIPOS>SUBSTRUCTURE
  1 ****   7 GROUP 4 **** **** 0

# MOE 2024.06 (io_trps.svl 2023.06)
