@<TRIPOS>MOLECULE
NONAME
45 46 1 0 0 
SMALL
USER_CHARGES


@<TRIPOS>ATOM
  1 S       -0.0560    -0.0720     1.5080 S.o2  1 <1>   1.4470 
  2 O       -0.0110     0.8110     2.6540 O.2   1 <1>  -0.6500 
  3 O        0.1920    -1.4840     1.7090 O.2   1 <1>  -0.6500 
  4 N       -1.5960     0.0690     0.8170 N.am  1 <1>  -0.8490 
  5 C        1.0530     0.5670     0.2050 C.ar  1 <1>  -0.0090 
  6 C       -1.7990    -0.8120    -0.3660 C.3   1 <1>   0.1960 
  7 C       -2.6620    -0.0310     1.8290 C.3   1 <1>   0.1960 
  8 C        1.0140     1.8910    -0.2570 C.ar  1 <1>  -0.1440 
  9 C        1.9810    -0.3030    -0.3710 C.ar  1 <1>  -0.1500 
 10 C       -2.9140    -1.8510    -0.1670 C.3   1 <1>   0.2000 
 11 C       -4.0270     0.0190     1.1400 C.3   1 <1>  -0.1600 
 12 C        1.8790     2.3120    -1.2590 C.ar  1 <1>  -0.1500 
 13 C        0.0340     2.9120     0.3110 C.3   1 <1>  -0.0960 
 14 C        2.8470     0.1070    -1.3690 C.ar  1 <1>  -0.1500 
 15 O       -3.0610    -2.6490    -1.2890 O.3   1 <1>  -0.6800 
 16 C       -4.2780    -1.2340     0.2400 C.3   1 <1>  -0.1060 
 17 C        2.7780     1.4150    -1.7960 C.ar  1 <1>   0.1900 
 18 C       -4.9530    -2.3820     1.0120 C.2   1 <1>   0.9060 
 19 C       -5.2170    -0.8200    -0.9420 C.3   1 <1>  -0.1600 
 20 F        3.5890     1.8170    -2.7360 F     1 <1>  -0.1900 
 21 O       -5.2170    -2.2640     2.2130 O.co2 1 <1>  -0.9000 
 22 O       -5.1700    -3.4400     0.4000 O.co2 1 <1>  -0.9000 
 23 C       -4.6250     0.1050    -2.0240 C.3   1 <1>  -0.1600 
 24 C       -5.6990     0.5140    -3.0360 C.3   1 <1>  -0.2400 
 25 H       -2.0500    -0.1890    -1.2030 H     1 <1>   0.0800 
 26 H       -0.8920    -1.3370    -0.6110 H     1 <1>   0.0800 
 27 H       -2.5700    -0.9470     2.3910 H     1 <1>   0.0800 
 28 H       -2.5800     0.7930     2.5190 H     1 <1>   0.0800 
 29 H        2.0280    -1.3250    -0.0310 H     1 <1>   0.1500 
 30 H       -2.5790    -2.5110     0.6180 H     1 <1>   0.0800 
 31 H       -4.7990     0.1010     1.8860 H     1 <1>   0.0800 
 32 H       -4.0650     0.9290     0.5740 H     1 <1>   0.0800 
 33 H        1.8660     3.3220    -1.6260 H     1 <1>   0.1500 
 34 H        0.1480     3.8680    -0.1670 H     1 <1>   0.0800 
 35 H        0.2040     3.0490     1.3650 H     1 <1>   0.0800 
 36 H       -0.9800     2.5870     0.1610 H     1 <1>   0.0800 
 37 H        3.5600    -0.5690    -1.8070 H     1 <1>   0.1500 
 38 H       -3.8250    -3.2480    -1.0750 H     1 <1>   0.4000 
 39 H       -5.5630    -1.7120    -1.4360 H     1 <1>   0.0800 
 40 H       -6.0900    -0.3540    -0.5190 H     1 <1>   0.0800 
 41 H       -4.2060     0.9930    -1.5880 H     1 <1>   0.0800 
 42 H       -3.8430    -0.4140    -2.5490 H     1 <1>   0.0800 
 43 H       -6.4890     1.0540    -2.5460 H     1 <1>   0.0800 
 44 H       -6.1160    -0.3590    -3.5070 H     1 <1>   0.0800 
 45 H       -5.2700     1.1420    -3.7950 H     1 <1>   0.0800 
@<TRIPOS>BOND
  1   1   2  2   
  2   1   3  2   
  3   1   4  am  
  4   1   5  1   
  5   4   6  1   
  6   4   7  1   
  7   5   8  ar  
  8   5   9  ar  
  9   6  10  1   
 10   6  25  1   
 11   6  26  1   
 12   7  11  1   
 13   7  27  1   
 14   7  28  1   
 15   8  12  ar  
 16   8  13  1   
 17   9  14  ar  
 18   9  29  1   
 19  10  15  1   
 20  10  16  1   
 21  10  30  1   
 22  11  16  1   
 23  11  31  1   
 24  11  32  1   
 25  12  17  ar  
 26  12  33  1   
 27  13  34  1   
 28  13  35  1   
 29  13  36  1   
 30  14  17  ar  
 31  14  37  1   
 32  15  38  1   
 33  16  18  1   
 34  16  19  1   
 35  17  20  1   
 36  18  21  ar  
 37  18  22  ar  
 38  19  23  1   
 39  19  39  1   
 40  19  40  1   
 41  23  24  1   
 42  23  41  1   
 43  23  42  1   
 44  24  43  1   
 45  24  44  1   
 46  24  45  1   
@<TRIPOS>SUBSTRUCTURE
  1 ****   6 GROUP 4 **** **** 0

# MOE 2024.06 (io_trps.svl 2023.06)
