@<TRIPOS>MOLECULE
NONAME
57 59 1 0 0 
SMALL
USER_CHARGES


@<TRIPOS>ATOM
  1 O       -0.0880     0.5410    -0.6550 O.2   1 <1>  -0.5700 
  2 C       -0.0400     1.7390    -0.4450 C.2   1 <1>   0.5440 
  3 N       -1.2140     2.4620    -0.4680 N.am  1 <1>  -0.6600 
  4 C        1.2400     2.3640    -0.1630 C.ar  1 <1>   0.0860 
  5 C       -2.4630     1.8420    -1.0010 C.3   1 <1>   0.1400 
  6 C       -1.3450     3.8060     0.1680 C.3   1 <1>   0.1400 
  7 C        2.1030     1.8280     0.7920 C.ar  1 <1>  -0.1500 
  8 C        1.6590     3.5140    -0.8320 C.ar  1 <1>  -0.1500 
  9 C       -3.4730     2.9190    -1.4030 C.3   1 <1>  -0.1600 
 10 C       -2.7240     3.9290     0.8140 C.3   1 <1>  -0.1600 
 11 C        3.3170     2.4230     1.0820 C.ar  1 <1>  -0.1500 
 12 C        2.8720     4.1130    -0.5450 C.ar  1 <1>  -0.1500 
 13 C       -3.8490     3.8700    -0.2410 C.3   1 <1>   0.2800 
 14 C        3.7090     3.5740     0.4180 C.ar  1 <1>  -0.1430 
 15 O       -3.9350     5.1370    -0.8350 O.3   1 <1>  -0.5600 
 16 C       -5.1920     3.4550     0.4160 C.3   1 <1>  -0.1600 
 17 C        5.0440     4.2290     0.7340 C.3   1 <1>  -0.0170 
 18 C       -4.7140     6.1340    -0.2340 C.3   1 <1>   0.1200 
 19 C       -6.4170     4.1850    -0.1510 C.3   1 <1>   0.2800 
 20 C        6.1480     3.6600    -0.1640 C.3   1 <1>  -0.1600 
 21 C       -6.1910     5.7210    -0.0590 C.3   1 <1>   0.2000 
 22 O       -6.5630     3.8370    -1.4800 O.3   1 <1>  -0.6800 
 23 C       -7.7100     3.7040     0.5210 C.3   1 <1>  -0.2400 
 24 C        7.5070     4.3040     0.1370 C.3   1 <1>  -0.1600 
 25 O       -6.6080     6.2190     1.1810 O.3   1 <1>  -0.6800 
 26 C        8.6000     3.7270    -0.7660 C.3   1 <1>  -0.2400 
 27 H       -2.2210     1.2360    -1.8580 H     1 <1>   0.0800 
 28 H       -2.8830     1.2000    -0.2460 H     1 <1>   0.0800 
 29 H       -0.5850     3.9360     0.9190 H     1 <1>   0.0800 
 30 H       -1.2250     4.5710    -0.5810 H     1 <1>   0.0800 
 31 H        1.8080     0.9300     1.3070 H     1 <1>   0.1500 
 32 H        1.0220     3.9360    -1.5890 H     1 <1>   0.1500 
 33 H       -4.3480     2.4420    -1.8010 H     1 <1>   0.0800 
 34 H       -3.0340     3.4840    -2.2070 H     1 <1>   0.0800 
 35 H       -2.7810     4.8410     1.3770 H     1 <1>   0.0800 
 36 H       -2.8270     3.1160     1.5110 H     1 <1>   0.0800 
 37 H        3.9590     1.9830     1.8250 H     1 <1>   0.1500 
 38 H        3.1660     5.0010    -1.0780 H     1 <1>   0.1500 
 39 H       -5.3230     2.3900     0.3550 H     1 <1>   0.0800 
 40 H       -5.1420     3.6830     1.4650 H     1 <1>   0.0800 
 41 H        4.9660     5.2920     0.5870 H     1 <1>   0.0800 
 42 H        5.2910     4.0590     1.7680 H     1 <1>   0.0800 
 43 H       -4.2660     6.3780     0.7120 H     1 <1>   0.0800 
 44 H       -4.6620     7.0000    -0.8690 H     1 <1>   0.0800 
 45 H        6.2120     2.5960    -0.0120 H     1 <1>   0.0800 
 46 H        5.8880     3.8310    -1.1940 H     1 <1>   0.0800 
 47 H       -6.7960     6.2110    -0.8020 H     1 <1>   0.0800 
 48 H       -6.7900     2.8930    -1.5530 H     1 <1>   0.4000 
 49 H       -7.6720     3.8750     1.5810 H     1 <1>   0.0800 
 50 H       -7.8610     2.6520     0.3610 H     1 <1>   0.0800 
 51 H       -8.5510     4.2480     0.1280 H     1 <1>   0.0800 
 52 H        7.4470     5.3680    -0.0170 H     1 <1>   0.0800 
 53 H        7.7720     4.1300     1.1670 H     1 <1>   0.0800 
 54 H       -6.1340     5.7690     1.9040 H     1 <1>   0.4000 
 55 H        8.3690     3.9090    -1.8010 H     1 <1>   0.0800 
 56 H        8.6940     2.6660    -0.6130 H     1 <1>   0.0800 
 57 H        9.5460     4.1890    -0.5420 H     1 <1>   0.0800 
@<TRIPOS>BOND
  1   1   2  2   
  2   2   3  am  
  3   2   4  1   
  4   3   5  1   
  5   3   6  1   
  6   4   7  ar  
  7   4   8  ar  
  8   5   9  1   
  9   5  27  1   
 10   5  28  1   
 11   6  10  1   
 12   6  29  1   
 13   6  30  1   
 14   7  11  ar  
 15   7  31  1   
 16   8  12  ar  
 17   8  32  1   
 18   9  13  1   
 19   9  33  1   
 20   9  34  1   
 21  10  13  1   
 22  10  35  1   
 23  10  36  1   
 24  11  14  ar  
 25  11  37  1   
 26  12  14  ar  
 27  12  38  1   
 28  13  15  1   
 29  13  16  1   
 30  14  17  1   
 31  15  18  1   
 32  16  19  1   
 33  16  39  1   
 34  16  40  1   
 35  17  20  1   
 36  17  41  1   
 37  17  42  1   
 38  18  21  1   
 39  18  43  1   
 40  18  44  1   
 41  19  21  1   
 42  19  22  1   
 43  19  23  1   
 44  20  24  1   
 45  20  45  1   
 46  20  46  1   
 47  21  25  1   
 48  21  47  1   
 49  22  48  1   
 50  23  49  1   
 51  23  50  1   
 52  23  51  1   
 53  24  26  1   
 54  24  52  1   
 55  24  53  1   
 56  25  54  1   
 57  26  55  1   
 58  26  56  1   
 59  26  57  1   
@<TRIPOS>SUBSTRUCTURE
  1 ****   6 GROUP 4 **** **** 0

# MOE 2024.06 (io_trps.svl 2023.06)
