@<TRIPOS>MOLECULE
NONAME
55 57 1 0 0 
SMALL
USER_CHARGES


@<TRIPOS>ATOM
  1 O        1.8450    -0.3140     2.1970 O.2   1 <1>  -0.5700 
  2 C        2.1400    -0.8340     1.1270 C.2   1 <1>   0.6160 
  3 N        2.5750    -0.0660     0.0580 N.am  1 <1>  -0.4690 
  4 C        2.0300    -2.2340     0.9490 C.2   1 <1>  -0.1360 
  5 C        2.8910    -0.6730    -1.1410 C.2   1 <1>  -0.0410 
  6 C        2.7250     1.4040     0.1990 C.3   1 <1>   0.1400 
  7 C        2.3150    -2.8520    -0.2390 C.2   1 <1>   0.0140 
  8 C        2.7710    -2.0160    -1.3000 C.2   1 <1>  -0.1500 
  9 C        4.1510     1.7360     0.6320 C.3   1 <1>  -0.2400 
 10 C        2.1830    -4.2820    -0.4450 C.2   1 <1>   0.6160 
 11 O        2.9860    -4.8650    -1.1480 O.2   1 <1>  -0.5700 
 12 N        1.1570    -5.0040     0.1220 N.am  1 <1>  -0.6600 
 13 C        1.1920    -6.4990     0.1890 C.3   1 <1>   0.1400 
 14 C       -0.2190    -4.4530     0.3200 C.3   1 <1>   0.1400 
 15 C        0.1100    -7.1180    -0.7110 C.3   1 <1>   0.3430 
 16 C       -1.2380    -5.1760    -0.5940 C.3   1 <1>   0.2000 
 17 O       -1.1410    -6.5640    -0.3990 O.3   1 <1>  -0.5600 
 18 C        0.0600    -8.6320    -0.5270 C.ar  1 <1>  -0.1430 
 19 C       -2.7190    -4.7320    -0.3950 C.3   1 <1>   0.0000 
 20 C        0.8380    -9.4460    -1.3380 C.ar  1 <1>  -0.1500 
 21 C       -0.7380    -9.2190     0.4470 C.ar  1 <1>  -0.1500 
 22 C       -3.2360    -5.0490     1.0210 C.3   1 <1>  -0.2400 
 23 C       -3.6150    -5.4670    -1.4100 C.3   1 <1>  -0.2400 
 24 C       -2.8780    -3.2210    -0.6440 C.3   1 <1>  -0.2400 
 25 C        0.8200   -10.8210    -1.1790 C.ar  1 <1>  -0.1500 
 26 C       -0.7580   -10.5930     0.6070 C.ar  1 <1>  -0.1500 
 27 C        0.0220   -11.3960    -0.2060 C.ar  1 <1>  -0.1500 
 28 H        1.7080    -2.7910     1.8070 H     1 <1>   0.1500 
 29 H        3.2390    -0.0410    -1.9420 H     1 <1>   0.1500 
 30 H        2.5060     1.8770    -0.7430 H     1 <1>   0.0800 
 31 H        2.0230     1.7770     0.9270 H     1 <1>   0.0800 
 32 H        3.0230    -2.4890    -2.2350 H     1 <1>   0.1500 
 33 H        4.8590     1.3800    -0.0950 H     1 <1>   0.0800 
 34 H        4.3610     1.2850     1.5860 H     1 <1>   0.0800 
 35 H        4.2630     2.8010     0.7280 H     1 <1>   0.0800 
 36 H        2.1560    -6.8730    -0.1080 H     1 <1>   0.0800 
 37 H        1.0230    -6.8120     1.2040 H     1 <1>   0.0800 
 38 H       -0.4980    -4.5800     1.3510 H     1 <1>   0.0800 
 39 H       -0.2330    -3.4030     0.0960 H     1 <1>   0.0800 
 40 H        0.3260    -6.8930    -1.7410 H     1 <1>   0.0800 
 41 H       -0.9690    -4.9770    -1.6180 H     1 <1>   0.0800 
 42 H        1.4640    -9.0140    -2.0990 H     1 <1>   0.1500 
 43 H       -1.3520    -8.6030     1.0820 H     1 <1>   0.1500 
 44 H       -4.2770    -4.7940     1.1070 H     1 <1>   0.0800 
 45 H       -2.6970    -4.4970     1.7690 H     1 <1>   0.0800 
 46 H       -3.1310    -6.0990     1.2320 H     1 <1>   0.0800 
 47 H       -4.6400    -5.1540    -1.3150 H     1 <1>   0.0800 
 48 H       -3.5760    -6.5300    -1.2490 H     1 <1>   0.0800 
 49 H       -3.2900    -5.2680    -2.4160 H     1 <1>   0.0800 
 50 H       -3.9170    -2.9420    -0.6060 H     1 <1>   0.0800 
 51 H       -2.4970    -2.9550    -1.6140 H     1 <1>   0.0800 
 52 H       -2.3600    -2.6430     0.1000 H     1 <1>   0.0800 
 53 H        1.4260   -11.4440    -1.8140 H     1 <1>   0.1500 
 54 H       -1.3820   -11.0370     1.3630 H     1 <1>   0.1500 
 55 H        0.0070   -12.4650    -0.0820 H     1 <1>   0.1500 
@<TRIPOS>BOND
  1   1   2  2   
  2   2   3  am  
  3   2   4  1   
  4   3   5  1   
  5   3   6  1   
  6   4   7  2   
  7   4  28  1   
  8   5   8  2   
  9   5  29  1   
 10   6   9  1   
 11   6  30  1   
 12   6  31  1   
 13   7   8  1   
 14   7  10  1   
 15   8  32  1   
 16   9  33  1   
 17   9  34  1   
 18   9  35  1   
 19  10  11  2   
 20  10  12  am  
 21  12  13  1   
 22  12  14  1   
 23  13  15  1   
 24  13  36  1   
 25  13  37  1   
 26  14  16  1   
 27  14  38  1   
 28  14  39  1   
 29  15  17  1   
 30  15  18  1   
 31  15  40  1   
 32  16  17  1   
 33  16  19  1   
 34  16  41  1   
 35  18  20  ar  
 36  18  21  ar  
 37  19  22  1   
 38  19  23  1   
 39  19  24  1   
 40  20  25  ar  
 41  20  42  1   
 42  21  26  ar  
 43  21  43  1   
 44  22  44  1   
 45  22  45  1   
 46  22  46  1   
 47  23  47  1   
 48  23  48  1   
 49  23  49  1   
 50  24  50  1   
 51  24  51  1   
 52  24  52  1   
 53  25  27  ar  
 54  25  53  1   
 55  26  27  ar  
 56  26  54  1   
 57  27  55  1   
@<TRIPOS>SUBSTRUCTURE
  1 ****  12 GROUP 4 **** **** 0

# MOE 2024.06 (io_trps.svl 2023.06)
