@<TRIPOS>MOLECULE
NONAME
48 49 1 0 0 
SMALL
USER_CHARGES


@<TRIPOS>ATOM
  1 N        0.3820     0.4760    -0.0620 N.ar  1 <1>  -0.6200 
  2 C        1.5310     1.0200    -0.4160 C.ar  1 <1>   0.4100 
  3 C       -0.2350     1.1760     0.8830 C.ar  1 <1>   0.1600 
  4 N        2.2580     0.3570    -1.4120 N.pl3 1 <1>  -0.8380 
  5 C        2.0370     2.2250     0.1640 C.ar  1 <1>   0.4100 
  6 C        0.2600     2.3420     1.4410 C.ar  1 <1>   0.1600 
  7 C        1.5500     0.2260    -2.7160 C.3   1 <1>   0.1290 
  8 C        2.8530    -0.9340    -0.9750 C.3   1 <1>   0.1290 
  9 N        1.4160     2.9090     1.1040 N.ar  1 <1>  -0.6200 
 10 N        3.2560     2.7230    -0.2700 N.pl3 1 <1>  -0.8690 
 11 C        3.3070     4.1360    -0.7680 C.3   1 <1>   0.2090 
 12 C        3.8830     5.2420     0.2020 C.3   1 <1>   0.5030 
 13 N        4.8150     4.7240     1.2860 N.4   1 <1>  -0.9590 
 14 C        2.7450     6.0430     0.8900 C.3   1 <1>  -0.1600 
 15 C        4.7170     6.2480    -0.6320 C.3   1 <1>  -0.1600 
 16 C        5.9450     3.8930     0.7620 C.3   1 <1>   0.2630 
 17 C        4.1200     3.9310     2.3580 C.3   1 <1>   0.2630 
 18 C        1.9070     6.9260    -0.0540 C.3   1 <1>  -0.1600 
 19 C        3.8850     7.0910    -1.6140 C.3   1 <1>  -0.1600 
 20 C        2.7920     7.8670    -0.8750 C.3   1 <1>  -0.1600 
 21 H       -1.1820     0.7960     1.2240 H     1 <1>   0.1500 
 22 H       -0.3210     2.8350     2.2010 H     1 <1>   0.1500 
 23 H        1.0680     1.1550    -2.9670 H     1 <1>   0.0800 
 24 H        0.8000    -0.5450    -2.6530 H     1 <1>   0.0800 
 25 H        2.2510    -0.0250    -3.4930 H     1 <1>   0.0800 
 26 H        3.3270    -0.8140    -0.0160 H     1 <1>   0.0800 
 27 H        3.5890    -1.2620    -1.6880 H     1 <1>   0.0800 
 28 H        2.0840    -1.6830    -0.8880 H     1 <1>   0.0800 
 29 H        3.5610     2.0580    -1.0010 H     1 <1>   0.4000 
 30 H        2.3210     4.4210    -1.0870 H     1 <1>   0.0800 
 31 H        3.9050     4.1270    -1.6620 H     1 <1>   0.0800 
 32 H        5.2060     5.5590     1.7340 H     1 <1>   0.4500 
 33 H        3.1730     6.6890     1.6360 H     1 <1>   0.0800 
 34 H        2.0640     5.3780     1.3860 H     1 <1>   0.0800 
 35 H        5.4680     5.7330    -1.2020 H     1 <1>   0.0800 
 36 H        5.2190     6.9300     0.0330 H     1 <1>   0.0800 
 37 H        5.5660     3.0030     0.2870 H     1 <1>   0.0800 
 38 H        6.5920     3.5950     1.5710 H     1 <1>   0.0800 
 39 H        6.5290     4.4470     0.0470 H     1 <1>   0.0800 
 40 H        3.7360     3.0070     1.9610 H     1 <1>   0.0800 
 41 H        3.2980     4.4850     2.7770 H     1 <1>   0.0800 
 42 H        4.8090     3.6930     3.1510 H     1 <1>   0.0800 
 43 H        1.2150     7.5120     0.5270 H     1 <1>   0.0800 
 44 H        1.3190     6.3150    -0.7180 H     1 <1>   0.0800 
 45 H        3.4350     6.4650    -2.3650 H     1 <1>   0.0800 
 46 H        4.5280     7.7900    -2.1220 H     1 <1>   0.0800 
 47 H        3.2460     8.5930    -0.2210 H     1 <1>   0.0800 
 48 H        2.1860     8.4040    -1.5850 H     1 <1>   0.0800 
@<TRIPOS>BOND
  1   1   2  ar  
  2   1   3  ar  
  3   2   4  1   
  4   2   5  ar  
  5   3   6  ar  
  6   3  21  1   
  7   4   7  1   
  8   4   8  1   
  9   5   9  ar  
 10   5  10  1   
 11   6   9  ar  
 12   6  22  1   
 13   7  23  1   
 14   7  24  1   
 15   7  25  1   
 16   8  26  1   
 17   8  27  1   
 18   8  28  1   
 19  10  11  1   
 20  10  29  1   
 21  11  12  1   
 22  11  30  1   
 23  11  31  1   
 24  12  13  1   
 25  12  14  1   
 26  12  15  1   
 27  13  16  1   
 28  13  17  1   
 29  13  32  1   
 30  14  18  1   
 31  14  33  1   
 32  14  34  1   
 33  15  19  1   
 34  15  35  1   
 35  15  36  1   
 36  16  37  1   
 37  16  38  1   
 38  16  39  1   
 39  17  40  1   
 40  17  41  1   
 41  17  42  1   
 42  18  20  1   
 43  18  43  1   
 44  18  44  1   
 45  19  20  1   
 46  19  45  1   
 47  19  46  1   
 48  20  47  1   
 49  20  48  1   
@<TRIPOS>SUBSTRUCTURE
  1 ****  10 GROUP 4 **** **** 0

# MOE 2024.06 (io_trps.svl 2023.06)
