@<TRIPOS>MOLECULE
NONAME
40 42 1 0 0 
SMALL
USER_CHARGES


@<TRIPOS>ATOM
  1 S       -0.7250    -0.4190     1.7810 S.3   1 <1>  -0.3310 
  2 C       -0.5620    -2.0460     1.0660 C.ar  1 <1>   0.7220 
  3 C       -0.9360     0.7260     0.3450 C.3   1 <1>  -0.0100 
  4 N       -0.6510    -2.1200    -0.2540 N.ar  1 <1>  -0.6200 
  5 N       -0.3730    -3.0230     1.9370 N.ar  1 <1>  -0.6200 
  6 C       -0.5240    -3.3290    -0.7470 C.ar  1 <1>   0.1600 
  7 C       -0.2520    -4.2180     1.4120 C.ar  1 <1>   0.1600 
  8 C       -0.3330    -4.4340     0.0540 C.ar  1 <1>  -0.1430 
  9 C       -0.2170    -5.8200    -0.5420 C.3   1 <1>   0.4870 
 10 N       -1.4570    -6.6040    -0.2790 N.4   1 <1>  -0.9590 
 11 C       -1.3910    -8.0020    -0.8580 C.3   1 <1>   0.3430 
 12 C       -2.7490    -5.9230    -0.6520 C.3   1 <1>   0.3430 
 13 C       -2.7200    -8.7780    -0.6980 C.3   1 <1>   0.2510 
 14 C       -3.9760    -6.7400    -0.1660 C.3   1 <1>   0.1100 
 15 N       -3.6050    -8.0950     0.3060 N.3   1 <1>  -0.8100 
 16 C       -2.4070   -10.2420    -0.3640 C.2   1 <1>   0.5690 
 17 C       -4.7790    -8.9420     0.6160 C.3   1 <1>   0.1100 
 18 O       -1.4230   -10.7570    -0.8350 O.2   1 <1>  -0.5700 
 19 N       -3.2370   -10.9310     0.4550 N.am  1 <1>  -0.7300 
 20 C       -4.3650   -10.3100     1.2060 C.3   1 <1>   0.1400 
 21 H       -1.0350     1.7240     0.7320 H     1 <1>   0.0800 
 22 H       -1.8210     0.4290    -0.1880 H     1 <1>   0.0800 
 23 H       -0.0630     0.6400    -0.2780 H     1 <1>   0.0800 
 24 H       -0.5790    -3.4260    -1.8190 H     1 <1>   0.1500 
 25 H       -0.0860    -5.0350     2.0960 H     1 <1>   0.1500 
 26 H        0.6340    -6.3250    -0.1130 H     1 <1>   0.0800 
 27 H       -0.0560    -5.7400    -1.6050 H     1 <1>   0.0800 
 28 H       -1.5560    -6.7630     0.7360 H     1 <1>   0.4500 
 29 H       -0.6110    -8.5570    -0.3620 H     1 <1>   0.0800 
 30 H       -1.1400    -7.9680    -1.9050 H     1 <1>   0.0800 
 31 H       -2.8050    -5.8070    -1.7220 H     1 <1>   0.0800 
 32 H       -2.7970    -4.9380    -0.2140 H     1 <1>   0.0800 
 33 H       -3.2220    -8.7890    -1.6490 H     1 <1>   0.0800 
 34 H       -4.6920    -6.8090    -0.9680 H     1 <1>   0.0800 
 35 H       -4.4510    -6.2090     0.6420 H     1 <1>   0.0800 
 36 H       -5.3580    -9.1070    -0.2780 H     1 <1>   0.0800 
 37 H       -5.4120    -8.4370     1.3270 H     1 <1>   0.0800 
 38 H       -2.9910   -11.9000     0.6770 H     1 <1>   0.3700 
 39 H       -5.2130   -10.9740     1.1940 H     1 <1>   0.0800 
 40 H       -4.0670   -10.1750     2.2320 H     1 <1>   0.0800 
@<TRIPOS>BOND
  1   1   2  1   
  2   1   3  1   
  3   2   4  ar  
  4   2   5  ar  
  5   3  21  1   
  6   3  22  1   
  7   3  23  1   
  8   4   6  ar  
  9   5   7  ar  
 10   6   8  ar  
 11   6  24  1   
 12   7   8  ar  
 13   7  25  1   
 14   8   9  1   
 15   9  10  1   
 16   9  26  1   
 17   9  27  1   
 18  10  11  1   
 19  10  12  1   
 20  10  28  1   
 21  11  13  1   
 22  11  29  1   
 23  11  30  1   
 24  12  14  1   
 25  12  31  1   
 26  12  32  1   
 27  13  15  1   
 28  13  16  1   
 29  13  33  1   
 30  14  15  1   
 31  14  34  1   
 32  14  35  1   
 33  15  17  1   
 34  16  18  2   
 35  16  19  am  
 36  17  20  1   
 37  17  36  1   
 38  17  37  1   
 39  19  20  1   
 40  19  38  1   
 41  20  39  1   
 42  20  40  1   
@<TRIPOS>SUBSTRUCTURE
  1 ****  10 GROUP 4 **** **** 0

# MOE 2024.06 (io_trps.svl 2023.06)
