@<TRIPOS>MOLECULE
NONAME
47 49 1 0 0 
SMALL
USER_CHARGES


@<TRIPOS>ATOM
  1 F       -3.1650     0.3240     2.0480 F     1 <1>  -0.1900 
  2 C       -3.1250     0.8860     0.8700 C.ar  1 <1>   0.1900 
  3 C       -3.0100     0.0870    -0.2650 C.ar  1 <1>   0.0860 
  4 C       -3.2000     2.2630     0.8200 C.ar  1 <1>  -0.1500 
  5 C       -2.9500    -1.3540    -0.2050 C.2   1 <1>   0.5440 
  6 C       -2.9530     0.7540    -1.4900 C.ar  1 <1>  -0.1500 
  7 C       -3.1530     2.9000    -0.4090 C.ar  1 <1>   0.0830 
  8 O       -1.9320    -1.9260    -0.5510 O.2   1 <1>  -0.5700 
  9 N       -4.0330    -2.1040     0.1880 N.am  1 <1>  -0.6600 
 10 C       -3.0250     2.1340    -1.5680 C.ar  1 <1>  -0.1500 
 11 O       -3.2350     4.2480    -0.4030 O.3   1 <1>  -0.3620 
 12 C       -5.3890    -1.5660     0.4360 C.3   1 <1>   0.1400 
 13 C       -4.0480    -3.5800     0.1380 C.3   1 <1>   0.1400 
 14 C       -3.1900     5.0020    -1.5940 C.3   1 <1>   0.0400 
 15 C       -6.2520    -2.7830     0.8060 C.3   1 <1>  -0.0800 
 16 C       -5.5240    -3.9820     0.1680 C.3   1 <1>  -0.0800 
 17 C       -7.7720    -2.6780     0.4690 C.3   1 <1>   0.2800 
 18 C       -6.0820    -4.2790    -1.2320 C.3   1 <1>  -0.1600 
 19 O       -7.9730    -1.8260    -0.6010 O.3   1 <1>  -0.6800 
 20 C       -8.3150    -4.0530     0.0360 C.3   1 <1>  -0.1600 
 21 C       -8.6080    -2.1270     1.6460 C.3   1 <1>  -0.1600 
 22 C       -7.5750    -4.6540    -1.1790 C.3   1 <1>  -0.1600 
 23 C       -8.2300    -0.7150     2.1260 C.3   1 <1>  -0.2400 
 24 H       -3.2920     2.8390     1.7220 H     1 <1>   0.1500 
 25 H       -2.8490     0.1680    -2.3880 H     1 <1>   0.1500 
 26 H       -2.9800     2.5980    -2.5350 H     1 <1>   0.1500 
 27 H       -5.3760    -0.8460     1.2340 H     1 <1>   0.0800 
 28 H       -5.7280    -1.0900    -0.4670 H     1 <1>   0.0800 
 29 H       -3.5490    -3.9380    -0.7470 H     1 <1>   0.0800 
 30 H       -3.5380    -3.9560     1.0080 H     1 <1>   0.0800 
 31 H       -3.2690     6.0420    -1.3340 H     1 <1>   0.0800 
 32 H       -4.0190     4.7180    -2.2190 H     1 <1>   0.0800 
 33 H       -2.2530     4.8190    -2.0890 H     1 <1>   0.0800 
 34 H       -6.1580    -2.9170     1.8680 H     1 <1>   0.0800 
 35 H       -5.6380    -4.8630     0.7750 H     1 <1>   0.0800 
 36 H       -5.9630    -3.4000    -1.8440 H     1 <1>   0.0800 
 37 H       -5.5260    -5.0750    -1.6970 H     1 <1>   0.0800 
 38 H       -8.9160    -1.8300    -0.8430 H     1 <1>   0.4000 
 39 H       -8.2000    -4.7280     0.8660 H     1 <1>   0.0800 
 40 H       -9.3680    -3.9960    -0.1740 H     1 <1>   0.0800 
 41 H       -9.6460    -2.1260     1.3650 H     1 <1>   0.0800 
 42 H       -8.5140    -2.8020     2.4790 H     1 <1>   0.0800 
 43 H       -7.6770    -5.7250    -1.1490 H     1 <1>   0.0800 
 44 H       -8.0410    -4.3120    -2.0880 H     1 <1>   0.0800 
 45 H       -8.2590    -0.0130     1.3110 H     1 <1>   0.0800 
 46 H       -7.2460    -0.7060     2.5580 H     1 <1>   0.0800 
 47 H       -8.9260    -0.3870     2.8790 H     1 <1>   0.0800 
@<TRIPOS>BOND
  1   1   2  1   
  2   2   3  ar  
  3   2   4  ar  
  4   3   5  1   
  5   3   6  ar  
  6   4   7  ar  
  7   4  24  1   
  8   5   8  2   
  9   5   9  am  
 10   6  10  ar  
 11   6  25  1   
 12   7  10  ar  
 13   7  11  1   
 14   9  12  1   
 15   9  13  1   
 16  10  26  1   
 17  11  14  1   
 18  12  15  1   
 19  12  27  1   
 20  12  28  1   
 21  13  16  1   
 22  13  29  1   
 23  13  30  1   
 24  14  31  1   
 25  14  32  1   
 26  14  33  1   
 27  15  16  1   
 28  15  17  1   
 29  15  34  1   
 30  16  18  1   
 31  16  35  1   
 32  17  19  1   
 33  17  20  1   
 34  17  21  1   
 35  18  22  1   
 36  18  36  1   
 37  18  37  1   
 38  19  38  1   
 39  20  22  1   
 40  20  39  1   
 41  20  40  1   
 42  21  23  1   
 43  21  41  1   
 44  21  42  1   
 45  22  43  1   
 46  22  44  1   
 47  23  45  1   
 48  23  46  1   
 49  23  47  1   
@<TRIPOS>SUBSTRUCTURE
  1 ****  12 GROUP 4 **** **** 0

# MOE 2024.06 (io_trps.svl 2023.06)
