@<TRIPOS>MOLECULE
NONAME
47 50 1 0 0 
SMALL
USER_CHARGES


@<TRIPOS>ATOM
  1 S       -0.6750     0.5070     0.1350 S.o2  1 <1>   1.0900 
  2 O        0.6720     0.1800    -0.2700 O.2   1 <1>  -0.6500 
  3 O       -0.9730     1.6810     0.9190 O.2   1 <1>  -0.6500 
  4 C       -1.3710    -0.9390     0.8800 C.3   1 <1>  -0.0550 
  5 C       -1.7160     0.4360    -1.3150 C.3   1 <1>  -0.0550 
  6 C       -1.7040    -1.8430    -0.3040 C.3   1 <1>   0.1760 
  7 C       -2.3660    -0.9580    -1.3810 C.3   1 <1>  -0.1600 
  8 N       -2.5870    -2.9670     0.0930 N.pl3 1 <1>   0.3140 
  9 N       -3.6810    -2.7560     0.8470 N.2   1 <1>  -0.7070 
 10 C       -2.4730    -4.2730    -0.2620 C.2   1 <1>  -0.3320 
 11 C       -4.2470    -3.9180     0.9510 C.2   1 <1>   0.1080 
 12 C       -3.5360    -4.9130     0.2740 C.2   1 <1>   0.0630 
 13 C       -1.3490    -4.8380    -1.1210 C.3   1 <1>  -0.0600 
 14 C       -5.5240    -4.1050     1.7400 C.3   1 <1>  -0.0590 
 15 N       -3.8160    -6.2980     0.1660 N.am  1 <1>  -0.4930 
 16 C       -4.9960    -6.9160    -0.1580 C.2   1 <1>   0.5440 
 17 O       -5.9900    -6.2490    -0.3710 O.2   1 <1>  -0.5700 
 18 C       -5.0620    -8.3640    -0.2330 C.ar  1 <1>   0.0860 
 19 C       -6.2400    -9.0350     0.0980 C.ar  1 <1>  -0.1500 
 20 C       -3.9600    -9.1400    -0.6360 C.ar  1 <1>  -0.1500 
 21 C       -6.2680   -10.4130     0.0340 C.ar  1 <1>   0.0400 
 22 C       -4.0140   -10.5240    -0.6920 C.ar  1 <1>  -0.1500 
 23 S       -7.5940   -11.4970     0.3960 S.3   1 <1>  -0.0800 
 24 C       -5.1850   -11.1810    -0.3490 C.ar  1 <1>   0.2270 
 25 C       -6.5600   -12.8650     0.0000 C.2   1 <1>   0.1980 
 26 N       -5.3800   -12.5570    -0.3560 N.2   1 <1>  -0.5650 
 27 C       -7.1710   -14.2410     0.1230 C.3   1 <1>  -0.0600 
 28 H       -2.2690    -0.6740     1.4050 H     1 <1>   0.0800 
 29 H       -0.6800    -1.4070     1.5540 H     1 <1>   0.0800 
 30 H       -1.1290     0.6210    -2.1960 H     1 <1>   0.0800 
 31 H       -2.4840     1.1860    -1.2560 H     1 <1>   0.0800 
 32 H       -0.7850    -2.2420    -0.6930 H     1 <1>   0.0800 
 33 H       -2.2500    -1.3940    -2.3580 H     1 <1>   0.0800 
 34 H       -3.4180    -0.8580    -1.1670 H     1 <1>   0.0800 
 35 H       -1.3200    -4.3320    -2.0700 H     1 <1>   0.0800 
 36 H       -1.5030    -5.8850    -1.3060 H     1 <1>   0.0800 
 37 H       -0.4020    -4.7140    -0.6260 H     1 <1>   0.0800 
 38 H       -5.5830    -3.3720     2.5220 H     1 <1>   0.0800 
 39 H       -5.5530    -5.0860     2.1760 H     1 <1>   0.0800 
 40 H       -6.3680    -3.9870     1.0850 H     1 <1>   0.0800 
 41 H       -3.0140    -6.9000     0.3320 H     1 <1>   0.3700 
 42 H       -7.1160    -8.4860     0.3990 H     1 <1>   0.1500 
 43 H       -3.0460    -8.6530    -0.9230 H     1 <1>   0.1500 
 44 H       -3.1670   -11.1090    -1.0000 H     1 <1>   0.1500 
 45 H       -7.4890   -14.4100     1.1340 H     1 <1>   0.0800 
 46 H       -6.4430   -14.9860    -0.1450 H     1 <1>   0.0800 
 47 H       -8.0150   -14.3250    -0.5360 H     1 <1>   0.0800 
@<TRIPOS>BOND
  1   1   2  2   
  2   1   3  2   
  3   1   4  1   
  4   1   5  1   
  5   4   6  1   
  6   4  28  1   
  7   4  29  1   
  8   5   7  1   
  9   5  30  1   
 10   5  31  1   
 11   6   7  1   
 12   6   8  1   
 13   6  32  1   
 14   7  33  1   
 15   7  34  1   
 16   8   9  1   
 17   8  10  1   
 18   9  11  2   
 19  10  12  2   
 20  10  13  1   
 21  11  12  1   
 22  11  14  1   
 23  12  15  1   
 24  13  35  1   
 25  13  36  1   
 26  13  37  1   
 27  14  38  1   
 28  14  39  1   
 29  14  40  1   
 30  15  16  am  
 31  15  41  1   
 32  16  17  2   
 33  16  18  1   
 34  18  19  ar  
 35  18  20  ar  
 36  19  21  ar  
 37  19  42  1   
 38  20  22  ar  
 39  20  43  1   
 40  21  23  1   
 41  21  24  ar  
 42  22  24  ar  
 43  22  44  1   
 44  23  25  1   
 45  24  26  1   
 46  25  26  2   
 47  25  27  1   
 48  27  45  1   
 49  27  46  1   
 50  27  47  1   
@<TRIPOS>SUBSTRUCTURE
  1 ****  15 GROUP 4 **** **** 0

# MOE 2024.06 (io_trps.svl 2023.06)
