@<TRIPOS>MOLECULE
NONAME
46 49 1 0 0 
SMALL
USER_CHARGES


@<TRIPOS>ATOM
  1 O        1.3950     1.5800    -1.2920 O.3   1 <1>  -0.0190 
  2 N        2.2620     0.6140    -1.3020 N.2   1 <1>  -0.4100 
  3 C        0.9660     1.8350    -0.0850 C.2   1 <1>  -0.0400 
  4 C        2.3780     0.2220    -0.0840 C.2   1 <1>   0.1080 
  5 C        1.5650     0.9790     0.7560 C.2   1 <1>  -0.1500 
  6 C       -0.0230     2.9630     0.1410 C.3   1 <1>   0.0200 
  7 C        3.2790    -0.9090     0.3640 C.3   1 <1>  -0.0590 
  8 C        0.4400     4.2330    -0.6010 C.3   1 <1>  -0.0800 
  9 C       -0.3330     5.5180    -0.3130 C.3   1 <1>   0.2000 
 10 C        1.9020     4.5970    -0.3200 C.3   1 <1>   0.3430 
 11 O       -0.5040     5.6690     1.0610 O.3   1 <1>  -0.6800 
 12 C        0.6470     6.5890    -0.7990 C.3   1 <1>   0.3430 
 13 N        2.0120     6.0860    -0.4310 N.4   1 <1>  -0.9590 
 14 C        2.4700     6.6750     0.8580 C.3   1 <1>   0.4860 
 15 C        2.6830     8.1660     0.6700 C.ar  1 <1>  -0.1440 
 16 C        3.7910     8.6550     0.0250 C.ar  1 <1>  -0.1500 
 17 C        1.7250     9.0610     1.1680 C.ar  1 <1>  -0.1500 
 18 C        3.9770    10.0390    -0.1650 C.ar  1 <1>   0.0000 
 19 C        1.8880    10.4090     0.9930 C.ar  1 <1>  -0.1500 
 20 C        3.0020    10.9370     0.3230 C.ar  1 <1>   0.3100 
 21 C        5.0960    10.5790    -0.8230 C.ar  1 <1>  -0.1500 
 22 N        3.0980    12.2800     0.1700 N.ar  1 <1>  -0.6200 
 23 C        5.1710    11.9320    -0.9590 C.ar  1 <1>  -0.1500 
 24 C        4.1450    12.7380    -0.4450 C.ar  1 <1>   0.1600 
 25 H        1.4740     0.8670     1.8210 H     1 <1>   0.1500 
 26 H       -0.9890     2.6600    -0.2240 H     1 <1>   0.0800 
 27 H       -0.1030     3.1350     1.2000 H     1 <1>   0.0800 
 28 H        3.9600    -0.5610     1.1180 H     1 <1>   0.0800 
 29 H        3.8440    -1.2810    -0.4720 H     1 <1>   0.0800 
 30 H        2.6850    -1.7100     0.7640 H     1 <1>   0.0800 
 31 H        0.3660     4.0370    -1.6580 H     1 <1>   0.0800 
 32 H       -1.2920     5.5790    -0.8020 H     1 <1>   0.0800 
 33 H        2.5550     4.0990    -1.0200 H     1 <1>   0.0800 
 34 H        2.1620     4.2820     0.6780 H     1 <1>   0.0800 
 35 H       -1.3420     5.2540     1.3610 H     1 <1>   0.4000 
 36 H        0.4250     7.5490    -0.3630 H     1 <1>   0.0800 
 37 H        0.5730     6.6680    -1.8710 H     1 <1>   0.0800 
 38 H        2.6850     6.3590    -1.1580 H     1 <1>   0.4500 
 39 H        1.7360     6.5010     1.6290 H     1 <1>   0.0800 
 40 H        3.3990     6.2200     1.1630 H     1 <1>   0.0800 
 41 H        4.5530     7.9970    -0.3550 H     1 <1>   0.1500 
 42 H        0.8590     8.6910     1.6930 H     1 <1>   0.1500 
 43 H        1.1650    11.1110     1.3670 H     1 <1>   0.1500 
 44 H        5.8650     9.9310    -1.2030 H     1 <1>   0.1500 
 45 H        6.0030    12.4030    -1.4520 H     1 <1>   0.1500 
 46 H        4.2330    13.8040    -0.5700 H     1 <1>   0.1500 
@<TRIPOS>BOND
  1   1   2  1   
  2   1   3  1   
  3   2   4  2   
  4   3   5  2   
  5   3   6  1   
  6   4   5  1   
  7   4   7  1   
  8   5  25  1   
  9   6   8  1   
 10   6  26  1   
 11   6  27  1   
 12   7  28  1   
 13   7  29  1   
 14   7  30  1   
 15   8   9  1   
 16   8  10  1   
 17   8  31  1   
 18   9  11  1   
 19   9  12  1   
 20   9  32  1   
 21  10  13  1   
 22  10  33  1   
 23  10  34  1   
 24  11  35  1   
 25  12  13  1   
 26  12  36  1   
 27  12  37  1   
 28  13  14  1   
 29  13  38  1   
 30  14  15  1   
 31  14  39  1   
 32  14  40  1   
 33  15  16  ar  
 34  15  17  ar  
 35  16  18  ar  
 36  16  41  1   
 37  17  19  ar  
 38  17  42  1   
 39  18  20  ar  
 40  18  21  ar  
 41  19  20  ar  
 42  19  43  1   
 43  20  22  ar  
 44  21  23  ar  
 45  21  44  1   
 46  22  24  ar  
 47  23  24  ar  
 48  23  45  1   
 49  24  46  1   
@<TRIPOS>SUBSTRUCTURE
  1 ****  13 GROUP 4 **** **** 0

# MOE 2024.06 (io_trps.svl 2023.06)
