@<TRIPOS>MOLECULE
NONAME
45 46 1 0 0 
SMALL
USER_CHARGES


@<TRIPOS>ATOM
  1 O       -2.2260     1.0190    -2.3580 O.2   1 <1>  -0.5700 
  2 C       -2.7110     1.4900    -1.3520 C.2   1 <1>   0.5690 
  3 N       -3.6240     0.7640    -0.6210 N.am  1 <1>  -0.6600 
  4 C       -2.2840     2.9130    -0.9330 C.3   1 <1>   0.1250 
  5 C       -4.2490    -0.4610    -1.1980 C.3   1 <1>   0.3200 
  6 C       -4.0780     1.1110     0.7640 C.3   1 <1>   0.1400 
  7 C       -1.4160     2.9030     0.3290 C.ar  1 <1>  -0.1440 
  8 C       -1.5730     3.6870    -2.0690 C.3   1 <1>  -0.1600 
  9 C       -3.8440    -1.6870    -0.4040 C.2   1 <1>  -0.3320 
 10 C       -3.2080     0.4250     1.8290 C.3   1 <1>   0.1200 
 11 C       -0.3470     2.0260     0.4440 C.ar  1 <1>  -0.1500 
 12 C       -1.6910     3.7740     1.3740 C.ar  1 <1>  -0.1500 
 13 C       -1.2870     5.1570    -1.7270 C.3   1 <1>  -0.2400 
 14 N       -2.6050    -2.2200    -0.3910 N.pl3 1 <1>   0.0480 
 15 C       -4.6020    -2.4580     0.4060 C.2   1 <1>   0.0770 
 16 O       -2.8950     1.3290     2.8330 O.3   1 <1>  -0.6800 
 17 C        0.4210     2.0050     1.5950 C.ar  1 <1>  -0.1500 
 18 C       -0.9210     3.7560     2.5240 C.ar  1 <1>  -0.1500 
 19 C       -2.7000    -3.2800     0.4430 C.2   1 <1>   0.0360 
 20 C       -1.4070    -1.7660    -1.1190 C.3   1 <1>   0.0160 
 21 N       -3.8800    -3.4560     0.9430 N.2   1 <1>  -0.5650 
 22 C        0.1330     2.8680     2.6370 C.ar  1 <1>  -0.1500 
 23 H       -3.1920     3.4470    -0.7230 H     1 <1>   0.0800 
 24 H       -5.3190    -0.3510    -1.1700 H     1 <1>   0.0800 
 25 H       -3.9690    -0.5910    -2.2300 H     1 <1>   0.0800 
 26 H       -4.0520     2.1760     0.9060 H     1 <1>   0.0800 
 27 H       -5.0980     0.7960     0.8950 H     1 <1>   0.0800 
 28 H       -0.6460     3.1950    -2.3070 H     1 <1>   0.0800 
 29 H       -2.1910     3.6530    -2.9500 H     1 <1>   0.0800 
 30 H       -2.2840     0.0660     1.4110 H     1 <1>   0.0800 
 31 H       -3.7390    -0.3980     2.2770 H     1 <1>   0.0800 
 32 H       -0.1060     1.3580    -0.3640 H     1 <1>   0.1500 
 33 H       -2.5070     4.4730     1.3020 H     1 <1>   0.1500 
 34 H       -0.5990     5.2300    -0.9020 H     1 <1>   0.0800 
 35 H       -2.1960     5.6720    -1.4700 H     1 <1>   0.0800 
 36 H       -0.8450     5.6490    -2.5750 H     1 <1>   0.0800 
 37 H       -5.6480    -2.3470     0.6410 H     1 <1>   0.1500 
 38 H       -2.1820     1.9360     2.5250 H     1 <1>   0.4000 
 39 H        1.2460     1.3190     1.6790 H     1 <1>   0.1500 
 40 H       -1.1410     4.4340     3.3320 H     1 <1>   0.1500 
 41 H       -1.8560    -3.9100     0.6600 H     1 <1>   0.1500 
 42 H       -1.6590    -1.5920    -2.1490 H     1 <1>   0.0800 
 43 H       -0.6400    -2.5150    -1.0590 H     1 <1>   0.0800 
 44 H       -1.0530    -0.8520    -0.6800 H     1 <1>   0.0800 
 45 H        0.7310     2.8510     3.5320 H     1 <1>   0.1500 
@<TRIPOS>BOND
  1   1   2  2   
  2   2   3  am  
  3   2   4  1   
  4   3   5  1   
  5   3   6  1   
  6   4   7  1   
  7   4   8  1   
  8   4  23  1   
  9   5   9  1   
 10   5  24  1   
 11   5  25  1   
 12   6  10  1   
 13   6  26  1   
 14   6  27  1   
 15   7  11  ar  
 16   7  12  ar  
 17   8  13  1   
 18   8  28  1   
 19   8  29  1   
 20   9  14  1   
 21   9  15  2   
 22  10  16  1   
 23  10  30  1   
 24  10  31  1   
 25  11  17  ar  
 26  11  32  1   
 27  12  18  ar  
 28  12  33  1   
 29  13  34  1   
 30  13  35  1   
 31  13  36  1   
 32  14  19  1   
 33  14  20  1   
 34  15  21  1   
 35  15  37  1   
 36  16  38  1   
 37  17  22  ar  
 38  17  39  1   
 39  18  22  ar  
 40  18  40  1   
 41  19  21  2   
 42  19  41  1   
 43  20  42  1   
 44  20  43  1   
 45  20  44  1   
 46  22  45  1   
@<TRIPOS>SUBSTRUCTURE
  1 ****   3 GROUP 4 **** **** 0

# MOE 2024.06 (io_trps.svl 2023.06)
