@<TRIPOS>MOLECULE
NONAME
52 55 1 0 0 
SMALL
USER_CHARGES


@<TRIPOS>ATOM
  1 F        0.9290     0.8180     1.3250 F     1 <1>  -0.1900 
  2 C        2.1910     1.1600     1.2680 C.ar  1 <1>   0.1900 
  3 C        2.7070     1.6090     0.0770 C.ar  1 <1>  -0.1500 
  4 C        2.9520     1.0470     2.4360 C.ar  1 <1>  -0.1500 
  5 C        4.0530     1.9640     0.0530 C.ar  1 <1>   0.2270 
  6 C        4.2840     1.3990     2.4090 C.ar  1 <1>  -0.1500 
  7 N        4.8050     2.4330    -0.9800 N.2   1 <1>  -0.5650 
  8 C        4.8210     1.8580     1.2020 C.ar  1 <1>  -0.1520 
  9 C        5.9770     2.6030    -0.4750 C.2   1 <1>   0.0060 
 10 N        6.0600     2.2750     0.8400 N.pl3 1 <1>   0.0330 
 11 C        7.1650     3.1220    -1.2620 C.3   1 <1>   0.0200 
 12 C        7.4990     4.5640    -0.8600 C.3   1 <1>  -0.1600 
 13 C        8.6720     5.1070    -1.6700 C.3   1 <1>   0.2090 
 14 N        8.9870     6.4690    -1.1910 N.pl3 1 <1>  -0.8690 
 15 C       10.1360     7.1250    -1.5690 C.ar  1 <1>   0.4100 
 16 N       11.0710     6.4200    -2.1920 N.ar  1 <1>  -0.6200 
 17 C       10.2640     8.4770    -1.2850 C.ar  1 <1>  -0.1500 
 18 C       12.1540     7.0880    -2.5510 C.ar  1 <1>   0.1600 
 19 C       11.4010     9.1750    -1.6430 C.ar  1 <1>   0.0860 
 20 C       12.3640     8.4300    -2.3100 C.ar  1 <1>  -0.1500 
 21 C       11.5640    10.5840    -1.3500 C.2   1 <1>   0.5440 
 22 O       10.7160    11.3640    -1.7410 O.2   1 <1>  -0.5700 
 23 N       12.6470    11.0600    -0.6390 N.am  1 <1>  -0.6600 
 24 C       12.9110    12.5210    -0.5020 C.3   1 <1>   0.1400 
 25 C       13.5270    10.2020     0.2050 C.3   1 <1>   0.1400 
 26 C       12.7590    12.9410     0.9630 C.3   1 <1>  -0.1600 
 27 C       13.3850    10.6050     1.6770 C.3   1 <1>  -0.1600 
 28 C       13.6530    12.1020     1.8870 C.3   1 <1>  -0.1600 
 29 H        2.1140     1.6920    -0.8130 H     1 <1>   0.1500 
 30 H        2.4830     0.6870     3.3340 H     1 <1>   0.1500 
 31 H        4.8990     1.3250     3.2890 H     1 <1>   0.1500 
 32 H        6.8850     2.3330     1.4410 H     1 <1>   0.2700 
 33 H        6.9240     3.0880    -2.3100 H     1 <1>   0.0800 
 34 H        8.0120     2.4810    -1.0950 H     1 <1>   0.0800 
 35 H        7.7500     4.5970     0.1850 H     1 <1>   0.0800 
 36 H        6.6330     5.1810    -1.0280 H     1 <1>   0.0800 
 37 H        8.4270     5.1440    -2.7190 H     1 <1>   0.0800 
 38 H        9.5330     4.4720    -1.5390 H     1 <1>   0.0800 
 39 H        8.1650     7.0650    -1.0830 H     1 <1>   0.4000 
 40 H        9.4700     8.9890    -0.7790 H     1 <1>   0.1500 
 41 H       12.9150     6.5290    -3.0680 H     1 <1>   0.1500 
 42 H       13.2700     8.9060    -2.6370 H     1 <1>   0.1500 
 43 H       12.2330    13.0920    -1.1140 H     1 <1>   0.0800 
 44 H       13.9120    12.7280    -0.8400 H     1 <1>   0.0800 
 45 H       14.5480    10.3300    -0.1110 H     1 <1>   0.0800 
 46 H       13.2710     9.1630     0.1020 H     1 <1>   0.0800 
 47 H       11.7270    12.8230     1.2480 H     1 <1>   0.0800 
 48 H       13.0090    13.9820     1.0620 H     1 <1>   0.0800 
 49 H       14.0710    10.0290     2.2720 H     1 <1>   0.0800 
 50 H       12.3880    10.3670     2.0050 H     1 <1>   0.0800 
 51 H       13.4650    12.3650     2.9130 H     1 <1>   0.0800 
 52 H       14.6870    12.3140     1.6720 H     1 <1>   0.0800 
@<TRIPOS>BOND
  1   1   2  1   
  2   2   3  ar  
  3   2   4  ar  
  4   3   5  ar  
  5   3  29  1   
  6   4   6  ar  
  7   4  30  1   
  8   5   7  1   
  9   5   8  ar  
 10   6   8  ar  
 11   6  31  1   
 12   7   9  2   
 13   8  10  1   
 14   9  10  1   
 15   9  11  1   
 16  10  32  1   
 17  11  12  1   
 18  11  33  1   
 19  11  34  1   
 20  12  13  1   
 21  12  35  1   
 22  12  36  1   
 23  13  14  1   
 24  13  37  1   
 25  13  38  1   
 26  14  15  1   
 27  14  39  1   
 28  15  16  ar  
 29  15  17  ar  
 30  16  18  ar  
 31  17  19  ar  
 32  17  40  1   
 33  18  20  ar  
 34  18  41  1   
 35  19  20  ar  
 36  19  21  1   
 37  20  42  1   
 38  21  22  2   
 39  21  23  am  
 40  23  24  1   
 41  23  25  1   
 42  24  26  1   
 43  24  43  1   
 44  24  44  1   
 45  25  27  1   
 46  25  45  1   
 47  25  46  1   
 48  26  28  1   
 49  26  47  1   
 50  26  48  1   
 51  27  28  1   
 52  27  49  1   
 53  27  50  1   
 54  28  51  1   
 55  28  52  1   
@<TRIPOS>SUBSTRUCTURE
  1 ****  14 GROUP 4 **** **** 0

# MOE 2024.06 (io_trps.svl 2023.06)
