@<TRIPOS>MOLECULE
NONAME
49 52 1 0 0 
SMALL
USER_CHARGES


@<TRIPOS>ATOM
  1 O       -0.6350     0.0290     1.6370 O.2   1 <1>  -0.5700 
  2 C       -1.4930     0.6870     1.0790 C.2   1 <1>   0.5440 
  3 N       -2.5700     0.0280     0.5310 N.am  1 <1>  -0.6600 
  4 C       -1.3600     2.1250     0.9870 C.ar  1 <1>   0.0860 
  5 C       -3.5380     0.6180    -0.4290 C.3   1 <1>   0.1400 
  6 C       -2.6860    -1.4530     0.5300 C.3   1 <1>   0.1400 
  7 C       -0.2590     2.7000     0.3740 C.ar  1 <1>  -0.1500 
  8 C       -2.3500     2.9790     1.5180 C.ar  1 <1>  -0.1500 
  9 C       -4.5690    -0.4870    -0.6480 C.3   1 <1>   0.2000 
 10 C       -3.7460    -1.7750    -0.5300 C.3   1 <1>  -0.0800 
 11 C       -0.1470     4.0860     0.2590 C.ar  1 <1>   0.0000 
 12 C       -2.2580     4.3460     1.4170 C.ar  1 <1>  -0.1500 
 13 O       -5.4860    -0.4270     0.3910 O.3   1 <1>  -0.6800 
 14 C       -4.5560    -3.0510    -0.2350 C.3   1 <1>  -0.0170 
 15 C       -1.1480     4.9000     0.7760 C.ar  1 <1>  -0.1520 
 16 C        0.8200     4.9500    -0.3060 C.2   1 <1>  -0.1810 
 17 C       -3.6580    -4.2780    -0.2360 C.ar  1 <1>  -0.1430 
 18 N       -0.8070     6.2020     0.5360 N.pl3 1 <1>   0.0330 
 19 C        0.3910     6.2240    -0.1230 C.2   1 <1>  -0.3320 
 20 C        2.0830     4.4410    -0.9740 C.3   1 <1>  -0.0590 
 21 C       -3.3170    -4.9270    -1.4050 C.ar  1 <1>  -0.1500 
 22 C       -3.1340    -4.8040     0.9280 C.ar  1 <1>  -0.1500 
 23 C        1.0300     7.5410    -0.5260 C.3   1 <1>  -0.0600 
 24 C       -2.4900    -6.0380    -1.3560 C.ar  1 <1>   0.1600 
 25 C       -2.3150    -5.9200     0.8670 C.ar  1 <1>   0.1600 
 26 N       -1.9800    -6.5490    -0.2470 N.ar  1 <1>  -0.6200 
 27 H       -3.9970     1.5140    -0.0500 H     1 <1>   0.0800 
 28 H       -3.0280     0.8350    -1.3510 H     1 <1>   0.0800 
 29 H       -1.7410    -1.9130     0.2930 H     1 <1>   0.0800 
 30 H       -3.0010    -1.7760     1.5070 H     1 <1>   0.0800 
 31 H        0.5220     2.0770    -0.0210 H     1 <1>   0.1500 
 32 H       -3.1920     2.5320     2.0160 H     1 <1>   0.1500 
 33 H       -5.0990    -0.3970    -1.5810 H     1 <1>   0.0800 
 34 H       -3.2280    -1.9140    -1.4630 H     1 <1>   0.0800 
 35 H       -3.0180     4.9900     1.8240 H     1 <1>   0.1500 
 36 H       -4.9920    -0.3620     1.2340 H     1 <1>   0.4000 
 37 H       -5.3200    -3.1690    -0.9830 H     1 <1>   0.0800 
 38 H       -5.0510    -2.9700     0.7170 H     1 <1>   0.0800 
 39 H       -1.3590     7.0180     0.8140 H     1 <1>   0.2700 
 40 H        1.8240     3.8070    -1.8030 H     1 <1>   0.0800 
 41 H        2.6610     3.8740    -0.2680 H     1 <1>   0.0800 
 42 H        2.6840     5.2530    -1.3370 H     1 <1>   0.0800 
 43 H       -3.6850    -4.5810    -2.3530 H     1 <1>   0.1500 
 44 H       -3.3520    -4.3600     1.8820 H     1 <1>   0.1500 
 45 H        1.9630     7.3780    -1.0330 H     1 <1>   0.0800 
 46 H        1.2190     8.1410     0.3460 H     1 <1>   0.0800 
 47 H        0.3760     8.0810    -1.1870 H     1 <1>   0.0800 
 48 H       -2.2350    -6.5310    -2.2780 H     1 <1>   0.1500 
 49 H       -1.9150    -6.3150     1.7850 H     1 <1>   0.1500 
@<TRIPOS>BOND
  1   1   2  2   
  2   2   3  am  
  3   2   4  1   
  4   3   5  1   
  5   3   6  1   
  6   4   7  ar  
  7   4   8  ar  
  8   5   9  1   
  9   5  27  1   
 10   5  28  1   
 11   6  10  1   
 12   6  29  1   
 13   6  30  1   
 14   7  11  ar  
 15   7  31  1   
 16   8  12  ar  
 17   8  32  1   
 18   9  10  1   
 19   9  13  1   
 20   9  33  1   
 21  10  14  1   
 22  10  34  1   
 23  11  15  ar  
 24  11  16  1   
 25  12  15  ar  
 26  12  35  1   
 27  13  36  1   
 28  14  17  1   
 29  14  37  1   
 30  14  38  1   
 31  15  18  1   
 32  16  19  2   
 33  16  20  1   
 34  17  21  ar  
 35  17  22  ar  
 36  18  19  1   
 37  18  39  1   
 38  19  23  1   
 39  20  40  1   
 40  20  41  1   
 41  20  42  1   
 42  21  24  ar  
 43  21  43  1   
 44  22  25  ar  
 45  22  44  1   
 46  23  45  1   
 47  23  46  1   
 48  23  47  1   
 49  24  26  ar  
 50  24  48  1   
 51  25  26  ar  
 52  25  49  1   
@<TRIPOS>SUBSTRUCTURE
  1 ****   3 GROUP 4 **** **** 0

# MOE 2024.06 (io_trps.svl 2023.06)
