@<TRIPOS>MOLECULE
NONAME
50 54 1 0 0 
SMALL
USER_CHARGES


@<TRIPOS>ATOM
  1 O        0.1730     2.1470     1.4020 O.co2 1 <1>  -0.9000 
  2 C       -0.9680     1.8810     1.0010 C.2   1 <1>   0.9790 
  3 O       -1.4920     0.8000     1.3070 O.co2 1 <1>  -0.9000 
  4 C       -1.7400     2.8350     0.2310 C.ar  1 <1>  -0.1790 
  5 C       -1.1630     3.6820    -0.7770 C.ar  1 <1>   0.0000 
  6 C       -3.0850     2.9410     0.4720 C.ar  1 <1>  -0.1500 
  7 C       -2.0040     4.6010    -1.4290 C.ar  1 <1>   0.3610 
  8 C        0.1840     3.6500    -1.1750 C.ar  1 <1>  -0.1500 
  9 C       -3.9300     3.8470    -0.2020 C.ar  1 <1>   0.4610 
 10 N       -3.3450     4.6380    -1.1020 N.ar  1 <1>  -0.1790 
 11 C       -1.4940     5.4580    -2.4120 C.ar  1 <1>  -0.1500 
 12 C        0.6730     4.4930    -2.1440 C.ar  1 <1>  -0.1500 
 13 N       -5.2640     3.9390     0.0120 N.pl3 1 <1>  -0.8380 
 14 C       -0.1680     5.4080    -2.7680 C.ar  1 <1>  -0.1500 
 15 C       -6.1330     5.0730    -0.4820 C.3   1 <1>   0.2090 
 16 C       -5.9990     2.8770     0.7890 C.3   1 <1>   0.2090 
 17 C       -7.2910     5.3910     0.4820 C.3   1 <1>   0.1440 
 18 C       -7.4870     2.8260     0.4160 C.3   1 <1>  -0.1600 
 19 C       -8.0620     6.5910    -0.0310 C.ar  1 <1>   0.1670 
 20 C       -8.2230     4.1650     0.6250 C.3   1 <1>  -0.1600 
 21 C       -6.7960     5.8960     1.8670 C.3   1 <1>  -0.1600 
 22 N       -8.4470     6.7620    -1.2760 N.ar  1 <1>  -0.6200 
 23 C       -8.3000     7.5000     0.9550 C.ar  1 <1>  -0.1430 
 24 C       -7.7260     7.0540     2.2760 C.3   1 <1>  -0.0170 
 25 C       -9.1120     7.8910    -1.4890 C.ar  1 <1>   0.4770 
 26 C       -8.9900     8.6390     0.6210 C.ar  1 <1>   0.1600 
 27 N       -9.4020     8.8430    -0.6130 N.ar  1 <1>  -0.6200 
 28 C       -9.5960     8.1300    -2.8980 C.3   1 <1>  -0.0970 
 29 H       -3.5090     2.3030     1.2270 H     1 <1>   0.1500 
 30 H        0.8600     2.9500    -0.7110 H     1 <1>   0.1500 
 31 H       -3.9490     5.2650    -1.6150 H     1 <1>   0.4570 
 32 H       -2.1390     6.1660    -2.9010 H     1 <1>   0.1500 
 33 H        1.7130     4.4460    -2.4220 H     1 <1>   0.1500 
 34 H        0.2340     6.0630    -3.5230 H     1 <1>   0.1500 
 35 H       -6.5510     4.8030    -1.4380 H     1 <1>   0.0800 
 36 H       -5.5520     5.9690    -0.6100 H     1 <1>   0.0800 
 37 H       -5.8960     3.0700     1.8440 H     1 <1>   0.0800 
 38 H       -5.5680     1.9100     0.5850 H     1 <1>   0.0800 
 39 H       -7.9730     2.0580     0.9930 H     1 <1>   0.0800 
 40 H       -7.5600     2.5360    -0.6180 H     1 <1>   0.0800 
 41 H       -9.0110     4.2260    -0.1070 H     1 <1>   0.0800 
 42 H       -8.6970     4.1780     1.5910 H     1 <1>   0.0800 
 43 H       -5.7980     6.2860     1.7700 H     1 <1>   0.0800 
 44 H       -6.7800     5.1220     2.6130 H     1 <1>   0.0800 
 45 H       -7.1870     7.8450     2.7670 H     1 <1>   0.0800 
 46 H       -8.5200     6.7010     2.9120 H     1 <1>   0.0800 
 47 H       -9.2060     9.3880     1.3630 H     1 <1>   0.1500 
 48 H       -9.4580     7.2520    -3.5010 H     1 <1>   0.0800 
 49 H       -9.0470     8.9460    -3.3300 H     1 <1>   0.0800 
 50 H      -10.6400     8.3800    -2.8800 H     1 <1>   0.0800 
@<TRIPOS>BOND
  1   1   2  ar  
  2   2   3  ar  
  3   2   4  1   
  4   4   5  ar  
  5   4   6  ar  
  6   5   7  ar  
  7   5   8  ar  
  8   6   9  ar  
  9   6  29  1   
 10   7  10  ar  
 11   7  11  ar  
 12   8  12  ar  
 13   8  30  1   
 14   9  10  ar  
 15   9  13  1   
 16  10  31  1   
 17  11  14  ar  
 18  11  32  1   
 19  12  14  ar  
 20  12  33  1   
 21  13  15  1   
 22  13  16  1   
 23  14  34  1   
 24  15  17  1   
 25  15  35  1   
 26  15  36  1   
 27  16  18  1   
 28  16  37  1   
 29  16  38  1   
 30  17  19  1   
 31  17  20  1   
 32  17  21  1   
 33  18  20  1   
 34  18  39  1   
 35  18  40  1   
 36  19  22  ar  
 37  19  23  ar  
 38  20  41  1   
 39  20  42  1   
 40  21  24  1   
 41  21  43  1   
 42  21  44  1   
 43  22  25  ar  
 44  23  24  1   
 45  23  26  ar  
 46  24  45  1   
 47  24  46  1   
 48  25  27  ar  
 49  25  28  1   
 50  26  27  ar  
 51  26  47  1   
 52  28  48  1   
 53  28  49  1   
 54  28  50  1   
@<TRIPOS>SUBSTRUCTURE
  1 ****  13 GROUP 4 **** **** 0

# MOE 2024.06 (io_trps.svl 2023.06)
