@<TRIPOS>MOLECULE
NONAME
51 54 1 0 0 
SMALL
USER_CHARGES


@<TRIPOS>ATOM
  1 O        2.3320     2.0600     1.0910 O.3   1 <1>  -0.0190 
  2 N        3.0700     0.9940     1.0300 N.2   1 <1>  -0.4100 
  3 C        1.2970     1.9840     0.2980 C.2   1 <1>  -0.0400 
  4 C        2.4900     0.2050     0.1980 C.2   1 <1>   0.1080 
  5 C        1.3340     0.7910    -0.3130 C.2   1 <1>  -0.1500 
  6 C        0.3300     3.1490     0.2110 C.3   1 <1>   0.0200 
  7 C        3.0020    -1.1700    -0.1710 C.3   1 <1>  -0.0590 
  8 C        1.0080     4.3750    -0.4350 C.3   1 <1>  -0.0800 
  9 C        0.1380     5.6240    -0.5780 C.3   1 <1>   0.2000 
 10 C        2.2430     4.8640     0.3350 C.3   1 <1>   0.3430 
 11 O       -0.5560     5.8540     0.6080 O.3   1 <1>  -0.6800 
 12 C        1.1840     6.7290    -0.7470 C.3   1 <1>   0.3430 
 13 N        2.3260     6.3440     0.1450 N.4   1 <1>  -0.9590 
 14 C        2.2330     7.0450     1.4560 C.3   1 <1>   0.4860 
 15 C        2.4890     8.5220     1.2300 C.ar  1 <1>  -0.1440 
 16 C        3.7720     8.9840     0.9780 C.ar  1 <1>  -0.1500 
 17 C        1.4340     9.4210     1.2670 C.ar  1 <1>  -0.1500 
 18 C        4.0290    10.3330     0.7410 C.ar  1 <1>   0.0530 
 19 C        1.6650    10.7640     1.0360 C.ar  1 <1>  -0.1500 
 20 C        5.3680    10.8050     0.4700 C.2   1 <1>   0.0870 
 21 C        2.9470    11.2100     0.7730 C.ar  1 <1>  -0.1500 
 22 O        5.5510    11.9650    -0.1480 O.3   1 <1>  -0.2800 
 23 C        6.5860    10.2590     0.7340 C.2   1 <1>  -0.1500 
 24 C        6.8420    12.1740    -0.2860 C.2   1 <1>  -0.0400 
 25 C        7.5420    11.1490     0.2410 C.2   1 <1>  -0.1500 
 26 C        7.3040    13.4430    -0.9670 C.3   1 <1>  -0.0600 
 27 H        0.6620     0.3520    -1.0280 H     1 <1>   0.1500 
 28 H       -0.5210     2.8530    -0.3790 H     1 <1>   0.0800 
 29 H       -0.0160     3.3760     1.2050 H     1 <1>   0.0800 
 30 H        2.2670    -1.9120     0.0790 H     1 <1>   0.0800 
 31 H        3.9070    -1.3830     0.3700 H     1 <1>   0.0800 
 32 H        3.2080    -1.2150    -1.2240 H     1 <1>   0.0800 
 33 H        1.3410     4.0860    -1.4170 H     1 <1>   0.0800 
 34 H       -0.5610     5.5850    -1.3970 H     1 <1>   0.0800 
 35 H        3.1320     4.3700    -0.0250 H     1 <1>   0.0800 
 36 H        2.1240     4.6330     1.3810 H     1 <1>   0.0800 
 37 H       -1.4050     5.3610     0.6260 H     1 <1>   0.4000 
 38 H        0.7760     7.6960    -0.5040 H     1 <1>   0.0800 
 39 H        1.5200     6.7390    -1.7710 H     1 <1>   0.0800 
 40 H        3.2130     6.6220    -0.2910 H     1 <1>   0.4500 
 41 H        1.2560     6.8990     1.8890 H     1 <1>   0.0800 
 42 H        2.9710     6.6560     2.1390 H     1 <1>   0.0800 
 43 H        4.6000     8.3000     0.9590 H     1 <1>   0.1500 
 44 H        0.4290     9.0900     1.4750 H     1 <1>   0.1500 
 45 H        0.8500    11.4670     1.0630 H     1 <1>   0.1500 
 46 H        3.1170    12.2580     0.5930 H     1 <1>   0.1500 
 47 H        6.8090     9.3320     1.2280 H     1 <1>   0.1500 
 48 H        8.6080    11.0180     0.2890 H     1 <1>   0.1500 
 49 H        8.3770    13.4750    -1.0080 H     1 <1>   0.0800 
 50 H        6.9470    14.2970    -0.4220 H     1 <1>   0.0800 
 51 H        6.9140    13.4790    -1.9680 H     1 <1>   0.0800 
@<TRIPOS>BOND
  1   1   2  1   
  2   1   3  1   
  3   2   4  2   
  4   3   5  2   
  5   3   6  1   
  6   4   5  1   
  7   4   7  1   
  8   5  27  1   
  9   6   8  1   
 10   6  28  1   
 11   6  29  1   
 12   7  30  1   
 13   7  31  1   
 14   7  32  1   
 15   8   9  1   
 16   8  10  1   
 17   8  33  1   
 18   9  11  1   
 19   9  12  1   
 20   9  34  1   
 21  10  13  1   
 22  10  35  1   
 23  10  36  1   
 24  11  37  1   
 25  12  13  1   
 26  12  38  1   
 27  12  39  1   
 28  13  14  1   
 29  13  40  1   
 30  14  15  1   
 31  14  41  1   
 32  14  42  1   
 33  15  16  ar  
 34  15  17  ar  
 35  16  18  ar  
 36  16  43  1   
 37  17  19  ar  
 38  17  44  1   
 39  18  20  1   
 40  18  21  ar  
 41  19  21  ar  
 42  19  45  1   
 43  20  22  1   
 44  20  23  2   
 45  21  46  1   
 46  22  24  1   
 47  23  25  1   
 48  23  47  1   
 49  24  25  2   
 50  24  26  1   
 51  25  48  1   
 52  26  49  1   
 53  26  50  1   
 54  26  51  1   
@<TRIPOS>SUBSTRUCTURE
  1 ****  13 GROUP 4 **** **** 0

# MOE 2024.06 (io_trps.svl 2023.06)
