@<TRIPOS>MOLECULE
NONAME
49 51 1 0 0 
SMALL
USER_CHARGES


@<TRIPOS>ATOM
  1 S       -0.6310     2.8840    -1.3850 S.3   1 <1>  -0.0800 
  2 C       -0.5950     1.9860     0.1070 C.2   1 <1>  -0.1400 
  3 C        0.2100     1.5660    -2.1670 C.2   1 <1>   0.1980 
  4 C        0.0260     0.8150    -0.1130 C.2   1 <1>   0.0460 
  5 C       -1.2450     2.6270     1.3260 C.3   1 <1>   0.0810 
  6 N        0.4720     0.5870    -1.4010 N.2   1 <1>  -0.5650 
  7 C        0.5330     1.7170    -3.6350 C.3   1 <1>  -0.0600 
  8 C        0.2860    -0.2940     0.8850 C.3   1 <1>  -0.0590 
  9 C       -2.7550     2.4490     1.3470 C.2   1 <1>   0.5690 
 10 O       -3.3860     2.9220     2.2610 O.2   1 <1>  -0.5700 
 11 N       -3.3690     1.7380     0.3680 N.am  1 <1>  -0.7300 
 12 C       -4.8280     1.5250     0.2160 C.3   1 <1>   0.2200 
 13 C       -5.3530     0.4650     1.2110 C.3   1 <1>   0.2000 
 14 C       -5.0950     1.1180    -1.2370 C.3   1 <1>  -0.1600 
 15 O       -5.2780     0.9560     2.5090 O.3   1 <1>  -0.6800 
 16 C       -6.8120     0.0820     0.9320 C.3   1 <1>   0.1400 
 17 C       -6.5750     0.8030    -1.4560 C.3   1 <1>   0.1400 
 18 N       -6.9920    -0.2680    -0.5110 N.am  1 <1>  -0.6600 
 19 C       -7.3020    -1.5410    -0.9520 C.2   1 <1>   0.5440 
 20 O       -7.0210    -1.8470    -2.0950 O.2   1 <1>  -0.5700 
 21 C       -7.9330    -2.5250    -0.0910 C.ar  1 <1>   0.0860 
 22 C       -9.0840    -2.2290     0.6410 C.ar  1 <1>  -0.1500 
 23 C       -7.4070    -3.8110     0.0280 C.ar  1 <1>  -0.1500 
 24 C       -9.6730    -3.1680     1.4670 C.ar  1 <1>  -0.1500 
 25 C       -7.9910    -4.7560     0.8520 C.ar  1 <1>  -0.1500 
 26 C       -9.1260    -4.4340     1.5750 C.ar  1 <1>  -0.1500 
 27 H       -0.8490     2.1870     2.2210 H     1 <1>   0.0800 
 28 H       -1.0170     3.6760     1.3490 H     1 <1>   0.0800 
 29 H        1.0320     0.8330    -3.9880 H     1 <1>   0.0800 
 30 H        1.1770     2.5640    -3.7810 H     1 <1>   0.0800 
 31 H       -0.3720     1.8560    -4.1960 H     1 <1>   0.0800 
 32 H       -0.1150    -0.0500     1.8510 H     1 <1>   0.0800 
 33 H        1.3450    -0.4530     0.9760 H     1 <1>   0.0800 
 34 H       -0.1710    -1.2030     0.5380 H     1 <1>   0.0800 
 35 H       -2.7840     1.3260    -0.3660 H     1 <1>   0.3700 
 36 H       -5.3420     2.4530     0.4090 H     1 <1>   0.0800 
 37 H       -4.7400    -0.4180     1.1570 H     1 <1>   0.0800 
 38 H       -4.8090     1.9190    -1.8940 H     1 <1>   0.0800 
 39 H       -4.5220     0.2440    -1.4920 H     1 <1>   0.0800 
 40 H       -4.5660     1.6470     2.5560 H     1 <1>   0.4000 
 41 H       -7.4530     0.9130     1.1690 H     1 <1>   0.0800 
 42 H       -7.0730    -0.7460     1.5660 H     1 <1>   0.0800 
 43 H       -6.7350     0.4940    -2.4760 H     1 <1>   0.0800 
 44 H       -7.1740     1.6800    -1.2800 H     1 <1>   0.0800 
 45 H       -9.5180    -1.2490     0.5540 H     1 <1>   0.1500 
 46 H       -6.5290    -4.0640    -0.5410 H     1 <1>   0.1500 
 47 H      -10.5590    -2.9170     2.0250 H     1 <1>   0.1500 
 48 H       -7.5660    -5.7410     0.9280 H     1 <1>   0.1500 
 49 H       -9.5830    -5.1680     2.2170 H     1 <1>   0.1500 
@<TRIPOS>BOND
  1   1   2  1   
  2   1   3  1   
  3   2   4  2   
  4   2   5  1   
  5   3   6  2   
  6   3   7  1   
  7   4   6  1   
  8   4   8  1   
  9   5   9  1   
 10   5  27  1   
 11   5  28  1   
 12   7  29  1   
 13   7  30  1   
 14   7  31  1   
 15   8  32  1   
 16   8  33  1   
 17   8  34  1   
 18   9  10  2   
 19   9  11  am  
 20  11  12  1   
 21  11  35  1   
 22  12  13  1   
 23  12  14  1   
 24  12  36  1   
 25  13  15  1   
 26  13  16  1   
 27  13  37  1   
 28  14  17  1   
 29  14  38  1   
 30  14  39  1   
 31  15  40  1   
 32  16  18  1   
 33  16  41  1   
 34  16  42  1   
 35  17  18  1   
 36  17  43  1   
 37  17  44  1   
 38  18  19  am  
 39  19  20  2   
 40  19  21  1   
 41  21  22  ar  
 42  21  23  ar  
 43  22  24  ar  
 44  22  45  1   
 45  23  25  ar  
 46  23  46  1   
 47  24  26  ar  
 48  24  47  1   
 49  25  26  ar  
 50  25  48  1   
 51  26  49  1   
@<TRIPOS>SUBSTRUCTURE
  1 ****  13 GROUP 4 **** **** 0

# MOE 2024.06 (io_trps.svl 2023.06)
