@<TRIPOS>MOLECULE
NONAME
51 53 1 0 0 
SMALL
USER_CHARGES


@<TRIPOS>ATOM
  1 CL      -1.5890    -1.2010     1.0520 Cl    1 <1>  -0.1770 
  2 C       -2.2040     0.2470     0.2880 C.ar  1 <1>   0.1770 
  3 C       -2.9860     0.1410    -0.8530 C.ar  1 <1>  -0.1440 
  4 C       -1.9090     1.4720     0.8520 C.ar  1 <1>  -0.1500 
  5 C       -3.4740     1.3020    -1.4340 C.ar  1 <1>  -0.1500 
  6 C       -3.2980    -1.2170    -1.4460 C.3   1 <1>   0.4870 
  7 C       -2.4030     2.6280     0.2710 C.ar  1 <1>  -0.1440 
  8 C       -3.1830     2.5350    -0.8720 C.ar  1 <1>  -0.1500 
  9 N       -4.1610    -1.9700    -0.4860 N.4   1 <1>  -0.9590 
 10 C       -2.0910     3.9880     0.8700 C.3   1 <1>  -0.0970 
 11 C       -4.2270    -3.4430    -0.8060 C.3   1 <1>   0.3430 
 12 C       -5.5020    -1.3190    -0.3590 C.3   1 <1>   0.3430 
 13 C       -5.1810    -4.2580     0.1340 C.3   1 <1>   0.4230 
 14 C       -6.3280    -2.0930     0.6670 C.3   1 <1>  -0.1600 
 15 N       -5.2680    -5.7580    -0.1640 N.4   1 <1>  -0.9590 
 16 C       -6.5710    -3.5700     0.2440 C.3   1 <1>   0.0000 
 17 C       -6.4910    -6.4300     0.4010 C.3   1 <1>   0.3430 
 18 C       -5.1180    -6.1730    -1.6020 C.3   1 <1>   0.2630 
 19 C       -7.4130    -4.2540     1.3550 C.3   1 <1>  -0.1600 
 20 C       -7.3140    -3.6600    -1.1240 C.3   1 <1>   0.1200 
 21 C       -6.9880    -5.7050     1.6500 C.3   1 <1>  -0.1600 
 22 O       -8.2070    -2.6190    -1.2840 O.3   1 <1>  -0.6800 
 23 H       -1.2980     1.5190     1.7370 H     1 <1>   0.1500 
 24 H       -4.0790     1.2720    -2.3260 H     1 <1>   0.1500 
 25 H       -2.3700    -1.7430    -1.6080 H     1 <1>   0.0800 
 26 H       -3.7970    -1.1010    -2.3950 H     1 <1>   0.0800 
 27 H       -3.5630     3.4330    -1.3310 H     1 <1>   0.1500 
 28 H       -3.6840    -1.8380     0.4220 H     1 <1>   0.4500 
 29 H       -2.9610     4.6200     0.8370 H     1 <1>   0.0800 
 30 H       -1.3000     4.4590     0.3130 H     1 <1>   0.0800 
 31 H       -1.7800     3.8940     1.8950 H     1 <1>   0.0800 
 32 H       -4.5700    -3.5540    -1.8200 H     1 <1>   0.0800 
 33 H       -3.2350    -3.8600    -0.7380 H     1 <1>   0.0800 
 34 H       -5.3910    -0.2960    -0.0340 H     1 <1>   0.0800 
 35 H       -6.0150    -1.3140    -1.3090 H     1 <1>   0.0800 
 36 H       -4.7500    -4.1770     1.1190 H     1 <1>   0.0800 
 37 H       -5.8280    -2.0450     1.6190 H     1 <1>   0.0800 
 38 H       -7.2680    -1.5830     0.7970 H     1 <1>   0.0800 
 39 H       -4.4830    -6.1950     0.3470 H     1 <1>   0.4500 
 40 H       -7.2830    -6.4300    -0.3310 H     1 <1>   0.0800 
 41 H       -6.2680    -7.4580     0.6420 H     1 <1>   0.0800 
 42 H       -5.9150    -5.7640    -2.2020 H     1 <1>   0.0800 
 43 H       -5.1550    -7.2490    -1.6830 H     1 <1>   0.0800 
 44 H       -4.1730    -5.8440    -2.0020 H     1 <1>   0.0800 
 45 H       -7.3470    -3.7080     2.2820 H     1 <1>   0.0800 
 46 H       -8.4560    -4.2390     1.0800 H     1 <1>   0.0800 
 47 H       -7.8590    -4.5830    -1.2300 H     1 <1>   0.0800 
 48 H       -6.6290    -3.5830    -1.9500 H     1 <1>   0.0800 
 49 H       -7.8300    -6.2410     2.0570 H     1 <1>   0.0800 
 50 H       -6.2160    -5.7240     2.4010 H     1 <1>   0.0800 
 51 H       -9.0720    -2.8000    -0.8560 H     1 <1>   0.4000 
@<TRIPOS>BOND
  1   1   2  1   
  2   2   3  ar  
  3   2   4  ar  
  4   3   5  ar  
  5   3   6  1   
  6   4   7  ar  
  7   4  23  1   
  8   5   8  ar  
  9   5  24  1   
 10   6   9  1   
 11   6  25  1   
 12   6  26  1   
 13   7   8  ar  
 14   7  10  1   
 15   8  27  1   
 16   9  11  1   
 17   9  12  1   
 18   9  28  1   
 19  10  29  1   
 20  10  30  1   
 21  10  31  1   
 22  11  13  1   
 23  11  32  1   
 24  11  33  1   
 25  12  14  1   
 26  12  34  1   
 27  12  35  1   
 28  13  15  1   
 29  13  16  1   
 30  13  36  1   
 31  14  16  1   
 32  14  37  1   
 33  14  38  1   
 34  15  17  1   
 35  15  18  1   
 36  15  39  1   
 37  16  19  1   
 38  16  20  1   
 39  17  21  1   
 40  17  40  1   
 41  17  41  1   
 42  18  42  1   
 43  18  43  1   
 44  18  44  1   
 45  19  21  1   
 46  19  45  1   
 47  19  46  1   
 48  20  22  1   
 49  20  47  1   
 50  20  48  1   
 51  21  49  1   
 52  21  50  1   
 53  22  51  1   
@<TRIPOS>SUBSTRUCTURE
  1 ****   9 GROUP 4 **** **** 0

# MOE 2024.06 (io_trps.svl 2023.06)
