@<TRIPOS>MOLECULE
NONAME
53 56 1 0 0 
SMALL
USER_CHARGES


@<TRIPOS>ATOM
  1 O       -0.0010    -0.7620    -1.6240 O.2   1 <1>  -0.5700 
  2 C       -0.1190    -1.8870    -1.1830 C.2   1 <1>   0.5440 
  3 N       -1.1950    -2.3510    -0.4570 N.am  1 <1>  -0.6600 
  4 C        0.8620    -2.9200    -1.3430 C.ar  1 <1>   0.0860 
  5 C       -2.4220    -1.5750    -0.0220 C.3   1 <1>   0.3000 
  6 C       -0.9220    -3.7710    -0.0580 C.3   1 <1>   0.2840 
  7 C        0.4240    -4.0550    -0.6930 C.ar  1 <1>  -0.1440 
  8 C        2.0840    -2.9350    -2.0040 C.ar  1 <1>  -0.1500 
  9 C       -3.1200    -1.0300    -1.2930 C.3   1 <1>  -0.1600 
 10 C       -1.9550    -0.4090     0.8810 C.3   1 <1>  -0.1600 
 11 C       -3.3610    -2.5460     0.7510 C.3   1 <1>  -0.0990 
 12 C        1.1750    -5.2160    -0.6840 C.ar  1 <1>  -0.1500 
 13 C        2.8460    -4.0910    -2.0030 C.ar  1 <1>  -0.1500 
 14 C       -4.0070     0.1970    -1.0510 C.3   1 <1>   0.1200 
 15 C       -2.9370     0.7680     0.9530 C.3   1 <1>   0.1200 
 16 C       -4.6350    -1.9910     1.3460 C.2   1 <1>   0.5690 
 17 C        2.3940    -5.2280    -1.3460 C.ar  1 <1>  -0.1500 
 18 O       -3.3070     1.1550    -0.3300 O.3   1 <1>  -0.5600 
 19 O       -4.6070    -1.5330     2.4600 O.2   1 <1>  -0.5700 
 20 N       -5.7900    -2.0780     0.6440 N.am  1 <1>  -0.7300 
 21 C       -7.0690    -1.4910     1.0840 C.3   1 <1>   0.3210 
 22 C       -7.6240    -0.6810    -0.0660 C.2   1 <1>  -0.1810 
 23 C       -7.5260     0.6360    -0.3110 C.2   1 <1>  -0.0400 
 24 C       -8.3660    -1.1540    -1.1480 C.2   1 <1>   0.1080 
 25 O       -8.1500     0.8830    -1.4310 O.3   1 <1>  -0.0190 
 26 C       -6.8550     1.7720     0.4350 C.3   1 <1>  -0.0600 
 27 N       -8.6610    -0.1960    -1.9490 N.2   1 <1>  -0.4100 
 28 C       -8.7890    -2.5900    -1.3780 C.3   1 <1>  -0.0590 
 29 H       -1.6710    -4.4330    -0.4550 H     1 <1>   0.0800 
 30 H       -0.8530    -3.8610     1.0120 H     1 <1>   0.0800 
 31 H        2.4190    -2.0450    -2.5080 H     1 <1>   0.1500 
 32 H       -3.7030    -1.8020    -1.7590 H     1 <1>   0.0800 
 33 H       -2.3930    -0.7160    -2.0150 H     1 <1>   0.0800 
 34 H       -1.0350     0.0020     0.5090 H     1 <1>   0.0800 
 35 H       -1.7620    -0.7650     1.8750 H     1 <1>   0.0800 
 36 H       -2.8220    -2.9560     1.5840 H     1 <1>   0.0800 
 37 H       -3.6390    -3.3570     0.1060 H     1 <1>   0.0800 
 38 H        0.8260    -6.0970    -0.1740 H     1 <1>   0.1500 
 39 H        3.7940    -4.1090    -2.5140 H     1 <1>   0.1500 
 40 H       -4.8990    -0.0430    -0.5120 H     1 <1>   0.0800 
 41 H       -4.2890     0.6400    -1.9900 H     1 <1>   0.0800 
 42 H       -2.4590     1.6130     1.4190 H     1 <1>   0.0800 
 43 H       -3.8250     0.5390     1.5100 H     1 <1>   0.0800 
 44 H        2.9940    -6.1220    -1.3510 H     1 <1>   0.1500 
 45 H       -5.7880    -2.4100    -0.3200 H     1 <1>   0.3700 
 46 H       -6.9160    -0.8570     1.9410 H     1 <1>   0.0800 
 47 H       -7.7550    -2.2730     1.3580 H     1 <1>   0.0800 
 48 H       -6.3520     1.4070     1.3120 H     1 <1>   0.0800 
 49 H       -7.5900     2.4990     0.7300 H     1 <1>   0.0800 
 50 H       -6.1320     2.2490    -0.2020 H     1 <1>   0.0800 
 51 H       -7.9300    -3.2340    -1.3830 H     1 <1>   0.0800 
 52 H       -9.2910    -2.6750    -2.3250 H     1 <1>   0.0800 
 53 H       -9.4630    -2.9000    -0.6020 H     1 <1>   0.0800 
@<TRIPOS>BOND
  1   1   2  2   
  2   2   3  am  
  3   2   4  1   
  4   3   5  1   
  5   3   6  1   
  6   4   7  ar  
  7   4   8  ar  
  8   5   9  1   
  9   5  10  1   
 10   5  11  1   
 11   6   7  1   
 12   6  29  1   
 13   6  30  1   
 14   7  12  ar  
 15   8  13  ar  
 16   8  31  1   
 17   9  14  1   
 18   9  32  1   
 19   9  33  1   
 20  10  15  1   
 21  10  34  1   
 22  10  35  1   
 23  11  16  1   
 24  11  36  1   
 25  11  37  1   
 26  12  17  ar  
 27  12  38  1   
 28  13  17  ar  
 29  13  39  1   
 30  14  18  1   
 31  14  40  1   
 32  14  41  1   
 33  15  18  1   
 34  15  42  1   
 35  15  43  1   
 36  16  19  2   
 37  16  20  am  
 38  17  44  1   
 39  20  21  1   
 40  20  45  1   
 41  21  22  1   
 42  21  46  1   
 43  21  47  1   
 44  22  23  2   
 45  22  24  1   
 46  23  25  1   
 47  23  26  1   
 48  24  27  2   
 49  24  28  1   
 50  25  27  1   
 51  26  48  1   
 52  26  49  1   
 53  26  50  1   
 54  28  51  1   
 55  28  52  1   
 56  28  53  1   
@<TRIPOS>SUBSTRUCTURE
  1 ****   5 GROUP 4 **** **** 0

# MOE 2024.06 (io_trps.svl 2023.06)
