@<TRIPOS>MOLECULE
NONAME
44 46 1 0 0 
SMALL
USER_CHARGES


@<TRIPOS>ATOM
  1 S       -1.4580     2.1410     0.6520 S.3   1 <1>  -0.4600 
  2 C       -2.0390     1.9410    -1.0690 C.3   1 <1>   0.1310 
  3 C       -0.3800     0.7040     0.8910 C.3   1 <1>   0.0700 
  4 C       -2.6220     0.5520    -1.3160 C.2   1 <1>   0.5690 
  5 C        0.2440     0.8240     2.2780 C.3   1 <1>  -0.2400 
  6 O       -1.9730    -0.1900    -2.0180 O.2   1 <1>  -0.5700 
  7 N       -3.8260     0.1640    -0.7760 N.am  1 <1>  -0.6600 
  8 C       -4.6530     0.9920     0.1620 C.3   1 <1>   0.1400 
  9 C       -4.3880    -1.1930    -1.0270 C.3   1 <1>   0.1400 
 10 C       -6.0930     1.1530    -0.3620 C.3   1 <1>   0.1430 
 11 C       -5.8190    -1.0770    -1.5650 C.3   1 <1>  -0.1600 
 12 C       -6.8890     1.9490     0.6560 C.ar  1 <1>   0.1670 
 13 C       -6.7100    -0.2360    -0.6340 C.3   1 <1>  -0.1600 
 14 C       -6.1460     2.0690    -1.6150 C.3   1 <1>  -0.1600 
 15 N       -7.3060     1.5000     1.8190 N.ar  1 <1>  -0.6200 
 16 C       -7.1160     3.2240     0.2310 C.ar  1 <1>  -0.1430 
 17 C       -6.5120     3.4820    -1.1260 C.3   1 <1>  -0.0170 
 18 C       -7.9780     2.3860     2.5400 C.ar  1 <1>   0.4770 
 19 C       -7.8230     4.0590     1.0600 C.ar  1 <1>   0.1600 
 20 N       -8.2650     3.6440     2.2290 N.ar  1 <1>  -0.6200 
 21 C       -8.4810     1.9040     3.8790 C.3   1 <1>  -0.0970 
 22 H       -1.1880     2.1010    -1.7050 H     1 <1>   0.0800 
 23 H       -2.7710     2.7030    -1.2540 H     1 <1>   0.0800 
 24 H        0.3650     0.7200     0.1140 H     1 <1>   0.0800 
 25 H       -0.9870    -0.1810     0.8050 H     1 <1>   0.0800 
 26 H        0.8190     1.7300     2.3470 H     1 <1>   0.0800 
 27 H        0.8920    -0.0130     2.4620 H     1 <1>   0.0800 
 28 H       -0.5260     0.8380     3.0290 H     1 <1>   0.0800 
 29 H       -4.2230     1.9640     0.3150 H     1 <1>   0.0800 
 30 H       -4.6810     0.5000     1.1200 H     1 <1>   0.0800 
 31 H       -4.3890    -1.7460    -0.1030 H     1 <1>   0.0800 
 32 H       -3.7820    -1.7330    -1.7350 H     1 <1>   0.0800 
 33 H       -6.2370    -2.0630    -1.6660 H     1 <1>   0.0800 
 34 H       -5.7870    -0.6380    -2.5470 H     1 <1>   0.0800 
 35 H       -7.6940    -0.1290    -1.0560 H     1 <1>   0.0800 
 36 H       -6.8180    -0.7570     0.3020 H     1 <1>   0.0800 
 37 H       -6.9300     1.7330    -2.2700 H     1 <1>   0.0800 
 38 H       -5.2250     2.0650    -2.1700 H     1 <1>   0.0800 
 39 H       -7.2100     3.9610    -1.7890 H     1 <1>   0.0800 
 40 H       -5.6300     4.0890    -1.0190 H     1 <1>   0.0800 
 41 H       -8.0300     5.0740     0.7670 H     1 <1>   0.1500 
 42 H       -7.8020     1.1790     4.2880 H     1 <1>   0.0800 
 43 H       -9.4460     1.4520     3.7520 H     1 <1>   0.0800 
 44 H       -8.5640     2.7280     4.5620 H     1 <1>   0.0800 
@<TRIPOS>BOND
  1   1   2  1   
  2   1   3  1   
  3   2   4  1   
  4   2  22  1   
  5   2  23  1   
  6   3   5  1   
  7   3  24  1   
  8   3  25  1   
  9   4   6  2   
 10   4   7  am  
 11   5  26  1   
 12   5  27  1   
 13   5  28  1   
 14   7   8  1   
 15   7   9  1   
 16   8  10  1   
 17   8  29  1   
 18   8  30  1   
 19   9  11  1   
 20   9  31  1   
 21   9  32  1   
 22  10  12  1   
 23  10  13  1   
 24  10  14  1   
 25  11  13  1   
 26  11  33  1   
 27  11  34  1   
 28  12  15  ar  
 29  12  16  ar  
 30  13  35  1   
 31  13  36  1   
 32  14  17  1   
 33  14  37  1   
 34  14  38  1   
 35  15  18  ar  
 36  16  17  1   
 37  16  19  ar  
 38  17  39  1   
 39  17  40  1   
 40  18  20  ar  
 41  18  21  1   
 42  19  20  ar  
 43  19  41  1   
 44  21  42  1   
 45  21  43  1   
 46  21  44  1   
@<TRIPOS>SUBSTRUCTURE
  1 ****   8 GROUP 4 **** **** 0

# MOE 2024.06 (io_trps.svl 2023.06)
