@<TRIPOS>MOLECULE
NONAME
51 54 1 0 0 
SMALL
USER_CHARGES


@<TRIPOS>ATOM
  1 O        0.6310    -1.1630     0.4590 O.3   1 <1>  -0.5600 
  2 C       -0.0210    -2.1380    -0.3290 C.3   1 <1>   0.2800 
  3 C        0.6520     0.1500    -0.0360 C.3   1 <1>   0.1200 
  4 C       -1.3270    -1.5690    -0.9390 C.3   1 <1>  -0.1600 
  5 C       -0.3110    -3.3230     0.6180 C.3   1 <1>  -0.1600 
  6 C        0.9610    -2.6330    -1.4070 C.3   1 <1>  -0.1600 
  7 C       -0.7700     0.7290    -0.1150 C.3   1 <1>  -0.1600 
  8 C       -1.8560    -0.3500    -0.1800 C.3   1 <1>   0.2800 
  9 C        0.9240    -4.1490     1.0040 C.3   1 <1>   0.3430 
 10 C        2.2730    -3.1830    -0.8290 C.3   1 <1>   0.3430 
 11 O       -2.1180    -0.7370     1.1080 O.3   1 <1>  -0.6800 
 12 C       -3.1680     0.1760    -0.7540 C.3   1 <1>  -0.2400 
 13 N        2.1560    -3.4080     0.6420 N.4   1 <1>  -0.9590 
 14 C        3.3910    -3.9340     1.2820 C.3   1 <1>   0.4860 
 15 C        4.5220    -2.9570     1.0260 C.ar  1 <1>  -0.1440 
 16 C        5.4560    -3.1540    -0.0180 C.ar  1 <1>   0.0000 
 17 C        4.6520    -1.8380     1.7980 C.ar  1 <1>  -0.1500 
 18 C        6.4380    -2.1530    -0.2120 C.ar  1 <1>   0.3100 
 19 C        5.4710    -4.2770    -0.8790 C.ar  1 <1>  -0.1500 
 20 C        5.6710    -0.9170     1.5300 C.ar  1 <1>   0.1600 
 21 N        6.5250    -1.0480     0.5670 N.ar  1 <1>  -0.6200 
 22 C        7.3630    -2.3010    -1.2570 C.ar  1 <1>  -0.1500 
 23 C        6.3900    -4.3910    -1.8880 C.ar  1 <1>  -0.1500 
 24 C        7.3450    -3.3910    -2.0830 C.ar  1 <1>  -0.1500 
 25 H        1.1140     0.1440    -1.0080 H     1 <1>   0.0800 
 26 H        1.2590     0.7460     0.6240 H     1 <1>   0.0800 
 27 H       -2.0910    -2.3240    -0.9920 H     1 <1>   0.0800 
 28 H       -1.1410    -1.2660    -1.9530 H     1 <1>   0.0800 
 29 H       -1.0080    -3.9950     0.1500 H     1 <1>   0.0800 
 30 H       -0.7920    -2.9670     1.5110 H     1 <1>   0.0800 
 31 H        1.1850    -1.8500    -2.1090 H     1 <1>   0.0800 
 32 H        0.4870    -3.4160    -1.9720 H     1 <1>   0.0800 
 33 H       -0.8190     1.3370    -1.0010 H     1 <1>   0.0800 
 34 H       -0.9530     1.3880     0.7160 H     1 <1>   0.0800 
 35 H        0.9050    -5.0930     0.4830 H     1 <1>   0.0800 
 36 H        0.9010    -4.3450     2.0640 H     1 <1>   0.0800 
 37 H        3.0580    -2.4670    -1.0140 H     1 <1>   0.0800 
 38 H        2.5340    -4.1000    -1.3310 H     1 <1>   0.0800 
 39 H       -1.2590    -0.8490     1.5590 H     1 <1>   0.4000 
 40 H       -3.0330     0.4880    -1.7740 H     1 <1>   0.0800 
 41 H       -3.5120     1.0200    -0.1830 H     1 <1>   0.0800 
 42 H       -3.9210    -0.5920    -0.7300 H     1 <1>   0.0800 
 43 H        1.9960    -2.4500     1.0100 H     1 <1>   0.4500 
 44 H        3.6320    -4.9100     0.8960 H     1 <1>   0.0800 
 45 H        3.2380    -4.0230     2.3450 H     1 <1>   0.0800 
 46 H        3.9900    -1.6230     2.6190 H     1 <1>   0.1500 
 47 H        4.7610    -5.0710    -0.7520 H     1 <1>   0.1500 
 48 H        5.7490    -0.0450     2.1590 H     1 <1>   0.1500 
 49 H        8.0930    -1.5230    -1.3860 H     1 <1>   0.1500 
 50 H        6.3980    -5.2480    -2.5410 H     1 <1>   0.1500 
 51 H        8.0630    -3.4920    -2.8800 H     1 <1>   0.1500 
@<TRIPOS>BOND
  1   1   2  1   
  2   1   3  1   
  3   2   4  1   
  4   2   5  1   
  5   2   6  1   
  6   3   7  1   
  7   3  25  1   
  8   3  26  1   
  9   4   8  1   
 10   4  27  1   
 11   4  28  1   
 12   5   9  1   
 13   5  29  1   
 14   5  30  1   
 15   6  10  1   
 16   6  31  1   
 17   6  32  1   
 18   7   8  1   
 19   7  33  1   
 20   7  34  1   
 21   8  11  1   
 22   8  12  1   
 23   9  13  1   
 24   9  35  1   
 25   9  36  1   
 26  10  13  1   
 27  10  37  1   
 28  10  38  1   
 29  11  39  1   
 30  12  40  1   
 31  12  41  1   
 32  12  42  1   
 33  13  14  1   
 34  13  43  1   
 35  14  15  1   
 36  14  44  1   
 37  14  45  1   
 38  15  16  ar  
 39  15  17  ar  
 40  16  18  ar  
 41  16  19  ar  
 42  17  20  ar  
 43  17  46  1   
 44  18  21  ar  
 45  18  22  ar  
 46  19  23  ar  
 47  19  47  1   
 48  20  21  ar  
 49  20  48  1   
 50  22  24  ar  
 51  22  49  1   
 52  23  24  ar  
 53  23  50  1   
 54  24  51  1   
@<TRIPOS>SUBSTRUCTURE
  1 ****  10 GROUP 4 **** **** 0

# MOE 2024.06 (io_trps.svl 2023.06)
