@<TRIPOS>MOLECULE
NONAME
56 59 1 0 0 
SMALL
USER_CHARGES


@<TRIPOS>ATOM
  1 O       -0.7340     0.2410     0.6790 O.2   1 <1>  -0.5700 
  2 C       -1.8110     0.6560     0.2960 C.2   1 <1>   0.5440 
  3 N       -1.9650     2.0130     0.1030 N.am  1 <1>  -0.6600 
  4 C       -2.8830    -0.2830     0.0710 C.ar  1 <1>   0.0860 
  5 C       -0.7970     2.9450     0.1180 C.3   1 <1>   0.1400 
  6 C       -3.2760     2.7280     0.0770 C.3   1 <1>   0.1400 
  7 C       -3.2190    -1.2150     1.0490 C.ar  1 <1>   0.1600 
  8 C       -3.6160    -0.3230    -1.1110 C.ar  1 <1>  -0.1500 
  9 C       -0.9430     4.0130    -0.9790 C.3   1 <1>   0.1200 
 10 C       -3.2830     3.7990    -1.0270 C.3   1 <1>   0.1200 
 11 N       -4.1880    -2.1120     0.9700 N.ar  1 <1>  -0.6200 
 12 C       -4.6220    -1.2520    -1.2150 C.ar  1 <1>  -0.1500 
 13 O       -2.1840     4.6560    -0.8900 O.3   1 <1>  -0.5600 
 14 C       -4.8830    -2.1240    -0.1610 C.ar  1 <1>   0.4100 
 15 N       -5.8910    -3.0440    -0.2780 N.pl3 1 <1>  -0.8690 
 16 C       -6.1220    -4.1170     0.7100 C.3   1 <1>   0.2090 
 17 C       -7.3890    -4.8760     0.3320 C.3   1 <1>  -0.1600 
 18 C       -7.6810    -5.9780     1.3520 C.3   1 <1>   0.2090 
 19 N       -8.9080    -6.7280     0.9670 N.pl3 1 <1>  -0.8380 
 20 C       -8.9380    -7.4810    -0.2250 C.ar  1 <1>   0.1000 
 21 C      -10.1610    -6.1400     1.5250 C.3   1 <1>   0.2090 
 22 C      -10.1060    -7.5830    -0.9880 C.ar  1 <1>  -0.1430 
 23 C       -7.8060    -8.1570    -0.6800 C.ar  1 <1>  -0.1500 
 24 C      -11.4030    -6.8610     1.0050 C.3   1 <1>  -0.1600 
 25 C      -10.1180    -8.3040    -2.1710 C.ar  1 <1>  -0.1500 
 26 C      -11.3830    -6.9070    -0.5220 C.3   1 <1>  -0.0170 
 27 C       -7.8190    -8.8770    -1.8590 C.ar  1 <1>  -0.1500 
 28 C       -8.9760    -8.9490    -2.6120 C.ar  1 <1>  -0.1500 
 29 H        0.1180     2.4010    -0.0390 H     1 <1>   0.0800 
 30 H       -0.7380     3.4240     1.0790 H     1 <1>   0.0800 
 31 H       -3.4300     3.2100     1.0270 H     1 <1>   0.0800 
 32 H       -4.0900     2.0450    -0.0790 H     1 <1>   0.0800 
 33 H       -2.6400    -1.2070     1.9570 H     1 <1>   0.1500 
 34 H       -3.3890     0.3560    -1.9140 H     1 <1>   0.1500 
 35 H       -0.8560     3.5650    -1.9540 H     1 <1>   0.0800 
 36 H       -0.1770     4.7600    -0.8720 H     1 <1>   0.0800 
 37 H       -4.1740     4.3970    -0.9590 H     1 <1>   0.0800 
 38 H       -3.2440     3.3430    -2.0010 H     1 <1>   0.0800 
 39 H       -5.2180    -1.3200    -2.1050 H     1 <1>   0.1500 
 40 H       -6.2460    -3.2450    -1.2140 H     1 <1>   0.4000 
 41 H       -6.2260    -3.6800     1.6900 H     1 <1>   0.0800 
 42 H       -5.2730    -4.7800     0.7180 H     1 <1>   0.0800 
 43 H       -7.2590    -5.3170    -0.6390 H     1 <1>   0.0800 
 44 H       -8.2160    -4.1900     0.3040 H     1 <1>   0.0800 
 45 H       -7.8190    -5.5440     2.3280 H     1 <1>   0.0800 
 46 H       -6.8480    -6.6550     1.4200 H     1 <1>   0.0800 
 47 H      -10.2140    -5.1000     1.2510 H     1 <1>   0.0800 
 48 H      -10.1350    -6.2090     2.5990 H     1 <1>   0.0800 
 49 H       -6.9030    -8.1300    -0.1050 H     1 <1>   0.1500 
 50 H      -12.2860    -6.3550     1.3480 H     1 <1>   0.0800 
 51 H      -11.4130    -7.8630     1.3970 H     1 <1>   0.0800 
 52 H      -11.0180    -8.3700    -2.7560 H     1 <1>   0.1500 
 53 H      -12.2420    -7.4470    -0.8760 H     1 <1>   0.0800 
 54 H      -11.4160    -5.9080    -0.9210 H     1 <1>   0.0800 
 55 H       -6.9300    -9.3850    -2.1900 H     1 <1>   0.1500 
 56 H       -8.9910    -9.5070    -3.5310 H     1 <1>   0.1500 
@<TRIPOS>BOND
  1   1   2  2   
  2   2   3  am  
  3   2   4  1   
  4   3   5  1   
  5   3   6  1   
  6   4   7  ar  
  7   4   8  ar  
  8   5   9  1   
  9   5  29  1   
 10   5  30  1   
 11   6  10  1   
 12   6  31  1   
 13   6  32  1   
 14   7  11  ar  
 15   7  33  1   
 16   8  12  ar  
 17   8  34  1   
 18   9  13  1   
 19   9  35  1   
 20   9  36  1   
 21  10  13  1   
 22  10  37  1   
 23  10  38  1   
 24  11  14  ar  
 25  12  14  ar  
 26  12  39  1   
 27  14  15  1   
 28  15  16  1   
 29  15  40  1   
 30  16  17  1   
 31  16  41  1   
 32  16  42  1   
 33  17  18  1   
 34  17  43  1   
 35  17  44  1   
 36  18  19  1   
 37  18  45  1   
 38  18  46  1   
 39  19  20  1   
 40  19  21  1   
 41  20  22  ar  
 42  20  23  ar  
 43  21  24  1   
 44  21  47  1   
 45  21  48  1   
 46  22  25  ar  
 47  22  26  1   
 48  23  27  ar  
 49  23  49  1   
 50  24  26  1   
 51  24  50  1   
 52  24  51  1   
 53  25  28  ar  
 54  25  52  1   
 55  26  53  1   
 56  26  54  1   
 57  27  28  ar  
 58  27  55  1   
 59  28  56  1   
@<TRIPOS>SUBSTRUCTURE
  1 ****  15 GROUP 4 **** **** 0

# MOE 2024.06 (io_trps.svl 2023.06)
