@<TRIPOS>MOLECULE
NONAME
59 62 1 0 0 
SMALL
USER_CHARGES


@<TRIPOS>ATOM
  1 O       -0.4490    -0.6530    -0.5730 O.3   1 <1>  -0.5600 
  2 C       -1.5940    -1.4530    -0.6490 C.3   1 <1>   0.1200 
  3 C        0.7460    -1.3560    -0.7280 C.3   1 <1>   0.1200 
  4 C       -1.5810    -2.5230     0.4570 C.3   1 <1>   0.2090 
  5 C        0.8970    -2.4140     0.3820 C.3   1 <1>   0.2090 
  6 N       -0.3010    -3.3270     0.4320 N.pl3 1 <1>  -0.8380 
  7 C       -0.3110    -4.6880     0.4480 C.ar  1 <1>   0.7710 
  8 N       -1.4670    -5.3330     0.3730 N.ar  1 <1>  -0.6200 
  9 N        0.8530    -5.3550     0.5450 N.ar  1 <1>  -0.1790 
 10 C       -1.4690    -6.6510     0.3790 C.ar  1 <1>   0.4100 
 11 C        0.9080    -6.7070     0.5680 C.ar  1 <1>   0.2180 
 12 N       -2.6760    -7.2770     0.2830 N.pl3 1 <1>  -0.8380 
 13 C       -0.2680    -7.3770     0.4830 C.ar  1 <1>  -0.1500 
 14 C        2.2610    -7.3860     0.6950 C.3   1 <1>  -0.0970 
 15 C       -2.9230    -8.4780    -0.5740 C.3   1 <1>   0.2090 
 16 C       -3.9250    -6.5970     0.7560 C.3   1 <1>   0.2090 
 17 C       -3.8840    -9.4930     0.1080 C.3   1 <1>   0.4230 
 18 C       -4.8080    -7.6120     1.4850 C.3   1 <1>  -0.1600 
 19 N       -4.1130   -10.7760    -0.6930 N.4   1 <1>  -0.9590 
 20 C       -5.2010    -8.8280     0.6050 C.3   1 <1>   0.0000 
 21 C       -5.3160   -11.5620    -0.2570 C.3   1 <1>   0.3430 
 22 C       -4.1450   -10.6120    -2.1850 C.3   1 <1>   0.2630 
 23 C       -5.9890    -9.8390     1.4880 C.3   1 <1>  -0.1600 
 24 C       -6.0680    -8.3690    -0.6030 C.3   1 <1>   0.1200 
 25 C       -5.6320   -11.3130     1.2150 C.3   1 <1>  -0.1600 
 26 O       -7.1170    -7.5600    -0.2030 O.3   1 <1>  -0.6800 
 27 H       -2.4500    -0.8110    -0.5340 H     1 <1>   0.0800 
 28 H       -1.6350    -1.9100    -1.6220 H     1 <1>   0.0800 
 29 H        0.7530    -1.8130    -1.7020 H     1 <1>   0.0800 
 30 H        1.5500    -0.6420    -0.6760 H     1 <1>   0.0800 
 31 H       -2.4520    -3.1420     0.3340 H     1 <1>   0.0800 
 32 H       -1.6710    -2.0310     1.4100 H     1 <1>   0.0800 
 33 H        0.9930    -1.9030     1.3270 H     1 <1>   0.0800 
 34 H        1.8050    -2.9580     0.2060 H     1 <1>   0.0800 
 35 H        1.6820    -4.7830     0.6290 H     1 <1>   0.4570 
 36 H       -0.3060    -8.4480     0.5140 H     1 <1>   0.1500 
 37 H        2.1480    -8.4560     0.7040 H     1 <1>   0.0800 
 38 H        2.7440    -7.0950     1.6120 H     1 <1>   0.0800 
 39 H        2.8950    -7.1240    -0.1340 H     1 <1>   0.0800 
 40 H       -3.3460    -8.1330    -1.5000 H     1 <1>   0.0800 
 41 H       -1.9930    -8.9670    -0.7970 H     1 <1>   0.0800 
 42 H       -3.6840    -5.7990     1.4400 H     1 <1>   0.0800 
 43 H       -4.4470    -6.1630    -0.0810 H     1 <1>   0.0800 
 44 H       -3.3730    -9.7900     1.0090 H     1 <1>   0.0800 
 45 H       -4.2690    -7.9410     2.3570 H     1 <1>   0.0800 
 46 H       -5.6870    -7.1030     1.8420 H     1 <1>   0.0800 
 47 H       -3.3040   -11.3760    -0.4760 H     1 <1>   0.4500 
 48 H       -6.1740   -11.2730    -0.8430 H     1 <1>   0.0800 
 49 H       -5.1450   -12.6150    -0.4210 H     1 <1>   0.0800 
 50 H       -4.9560    -9.9670    -2.4790 H     1 <1>   0.0800 
 51 H       -4.2820   -11.5700    -2.6630 H     1 <1>   0.0800 
 52 H       -3.2200   -10.1890    -2.5430 H     1 <1>   0.0800 
 53 H       -5.8070    -9.6540     2.5340 H     1 <1>   0.0800 
 54 H       -7.0480    -9.7050     1.3450 H     1 <1>   0.0800 
 55 H       -6.4920    -9.2060    -1.1280 H     1 <1>   0.0800 
 56 H       -5.4910    -7.7900    -1.3020 H     1 <1>   0.0800 
 57 H       -6.4600   -11.9350     1.5110 H     1 <1>   0.0800 
 58 H       -4.7880   -11.6090     1.8140 H     1 <1>   0.0800 
 59 H       -7.7510    -8.0290     0.3750 H     1 <1>   0.4000 
@<TRIPOS>BOND
  1   1   2  1   
  2   1   3  1   
  3   2   4  1   
  4   2  27  1   
  5   2  28  1   
  6   3   5  1   
  7   3  29  1   
  8   3  30  1   
  9   4   6  1   
 10   4  31  1   
 11   4  32  1   
 12   5   6  1   
 13   5  33  1   
 14   5  34  1   
 15   6   7  1   
 16   7   8  ar  
 17   7   9  ar  
 18   8  10  ar  
 19   9  11  ar  
 20   9  35  1   
 21  10  12  1   
 22  10  13  ar  
 23  11  13  ar  
 24  11  14  1   
 25  12  15  1   
 26  12  16  1   
 27  13  36  1   
 28  14  37  1   
 29  14  38  1   
 30  14  39  1   
 31  15  17  1   
 32  15  40  1   
 33  15  41  1   
 34  16  18  1   
 35  16  42  1   
 36  16  43  1   
 37  17  19  1   
 38  17  20  1   
 39  17  44  1   
 40  18  20  1   
 41  18  45  1   
 42  18  46  1   
 43  19  21  1   
 44  19  22  1   
 45  19  47  1   
 46  20  23  1   
 47  20  24  1   
 48  21  25  1   
 49  21  48  1   
 50  21  49  1   
 51  22  50  1   
 52  22  51  1   
 53  22  52  1   
 54  23  25  1   
 55  23  53  1   
 56  23  54  1   
 57  24  26  1   
 58  24  55  1   
 59  24  56  1   
 60  25  57  1   
 61  25  58  1   
 62  26  59  1   
@<TRIPOS>SUBSTRUCTURE
  1 ****  12 GROUP 4 **** **** 0

# MOE 2024.06 (io_trps.svl 2023.06)
