@<TRIPOS>MOLECULE
NONAME
40 41 1 0 0 
SMALL
USER_CHARGES


@<TRIPOS>ATOM
  1 O        1.7790    -1.1470     0.6170 O.co2 1 <1>  -0.9000 
  2 C        2.5550    -0.2520     0.2910 C.2   1 <1>   0.9060 
  3 O        2.2230     0.7130    -0.4130 O.co2 1 <1>  -0.9000 
  4 C        3.9890    -0.3010     0.7770 C.3   1 <1>  -0.1860 
  5 C        5.0110    -0.3280    -0.3930 C.3   1 <1>   0.2000 
  6 C        4.2500     0.8690     1.7610 C.3   1 <1>  -0.1600 
  7 O        4.4740     0.2270    -1.5530 O.3   1 <1>  -0.6800 
  8 C        6.2680     0.4860    -0.0240 C.3   1 <1>   0.3430 
  9 C        4.6380     2.1250     0.9840 C.3   1 <1>   0.3430 
 10 N        5.9360     1.9190     0.2870 N.4   1 <1>  -0.9590 
 11 C        6.0890     2.7400    -0.9400 C.3   1 <1>   0.4860 
 12 C        6.1400     4.2220    -0.6020 C.ar  1 <1>  -0.1440 
 13 C        7.3640     4.8830    -0.5510 C.ar  1 <1>   0.0820 
 14 C        4.9770     4.9400    -0.3540 C.ar  1 <1>  -0.1500 
 15 O        8.5080     4.2430    -0.8790 O.3   1 <1>  -0.3620 
 16 C        7.4230     6.2260    -0.2170 C.ar  1 <1>  -0.1500 
 17 C        5.0370     6.2830    -0.0220 C.ar  1 <1>  -0.1500 
 18 C        9.3550     3.8030     0.1850 C.3   1 <1>   0.0140 
 19 C        6.2610     6.9260     0.0530 C.ar  1 <1>  -0.1500 
 20 C        8.8310     2.5320     0.8270 C.2   1 <1>   0.9060 
 21 O        8.0940     2.6070     1.8190 O.co2 1 <1>  -0.9000 
 22 O        9.0020     1.4410     0.2730 O.co2 1 <1>  -0.9000 
 23 H        4.0940    -1.2130     1.3340 H     1 <1>   0.0800 
 24 H        5.2780    -1.3450    -0.6240 H     1 <1>   0.0800 
 25 H        5.0340     0.6230     2.4560 H     1 <1>   0.0800 
 26 H        3.3590     1.0650     2.3320 H     1 <1>   0.0800 
 27 H        3.5180     0.4790    -1.3520 H     1 <1>   0.4000 
 28 H        6.9970     0.4330    -0.8150 H     1 <1>   0.0800 
 29 H        6.7210     0.0460     0.8480 H     1 <1>   0.0800 
 30 H        4.7160     2.9710     1.6480 H     1 <1>   0.0800 
 31 H        3.8650     2.3240     0.2590 H     1 <1>   0.0800 
 32 H        6.7030     2.2220     0.9360 H     1 <1>   0.4500 
 33 H        7.0080     2.4660    -1.4340 H     1 <1>   0.0800 
 34 H        5.2730     2.5410    -1.6130 H     1 <1>   0.0800 
 35 H        4.0150     4.4600    -0.4170 H     1 <1>   0.1500 
 36 H        8.3780     6.7180    -0.1780 H     1 <1>   0.1500 
 37 H        4.1310     6.8290     0.1770 H     1 <1>   0.1500 
 38 H       10.3250     3.6060    -0.2280 H     1 <1>   0.0800 
 39 H        9.4250     4.5790     0.9230 H     1 <1>   0.0800 
 40 H        6.3090     7.9690     0.3150 H     1 <1>   0.1500 
@<TRIPOS>BOND
  1   1   2  ar  
  2   2   3  ar  
  3   2   4  1   
  4   4   5  1   
  5   4   6  1   
  6   4  23  1   
  7   5   7  1   
  8   5   8  1   
  9   5  24  1   
 10   6   9  1   
 11   6  25  1   
 12   6  26  1   
 13   7  27  1   
 14   8  10  1   
 15   8  28  1   
 16   8  29  1   
 17   9  10  1   
 18   9  30  1   
 19   9  31  1   
 20  10  11  1   
 21  10  32  1   
 22  11  12  1   
 23  11  33  1   
 24  11  34  1   
 25  12  13  ar  
 26  12  14  ar  
 27  13  15  1   
 28  13  16  ar  
 29  14  17  ar  
 30  14  35  1   
 31  15  18  1   
 32  16  19  ar  
 33  16  36  1   
 34  17  19  ar  
 35  17  37  1   
 36  18  20  1   
 37  18  38  1   
 38  18  39  1   
 39  19  40  1   
 40  20  21  ar  
 41  20  22  ar  
@<TRIPOS>SUBSTRUCTURE
  1 ****  10 GROUP 4 **** **** 0

# MOE 2024.06 (io_trps.svl 2023.06)
