@<TRIPOS>MOLECULE
NONAME
52 54 1 0 0 
SMALL
USER_CHARGES


@<TRIPOS>ATOM
  1 O        1.5790     1.2960    -0.2440 O.2   1 <1>  -0.5700 
  2 C        2.2870     0.3990    -0.6640 C.2   1 <1>   0.5440 
  3 N        2.7390     0.5020    -1.9710 N.am  1 <1>  -0.6600 
  4 C        2.6840    -0.6920     0.2310 C.ar  1 <1>   0.3960 
  5 C        3.1590    -0.6690    -2.8020 C.3   1 <1>   0.1400 
  6 C        2.9690     1.8380    -2.5750 C.3   1 <1>   0.1400 
  7 N        3.9310    -1.2030     0.1300 N.ar  1 <1>  -0.6200 
  8 C        1.7790    -1.1560     1.1790 C.ar  1 <1>  -0.1500 
  9 C        4.6750    -0.6770    -3.0940 C.3   1 <1>   0.3430 
 10 C        4.3100     2.3820    -2.0680 C.3   1 <1>  -0.1600 
 11 C        4.2520    -2.1520     0.9960 C.ar  1 <1>   0.1600 
 12 C        2.1250    -2.1550     2.0580 C.ar  1 <1>   0.0830 
 13 N        5.4350     0.1340    -2.0950 N.4   1 <1>  -0.9590 
 14 C        5.5490     1.5750    -2.4700 C.3   1 <1>   0.3430 
 15 C        3.4070    -2.6610     1.9610 C.ar  1 <1>  -0.1500 
 16 O        1.2000    -2.5670     2.9510 O.3   1 <1>  -0.3630 
 17 C        6.7570    -0.4680    -1.7150 C.3   1 <1>   0.5240 
 18 C        1.4850    -3.5620     3.9090 C.3   1 <1>   0.0400 
 19 C        7.1430    -0.1330    -0.2720 C.2   1 <1>   0.3350 
 20 N        7.4830    -0.9980     0.5960 N.2   1 <1>  -0.4100 
 21 N        7.1190     1.1080     0.1960 N.2   1 <1>  -0.5650 
 22 O        7.6980    -0.3590     1.7060 O.3   1 <1>  -0.0190 
 23 C        7.4590     0.8960     1.4090 C.2   1 <1>   0.2980 
 24 C        7.6020     1.9360     2.5210 C.3   1 <1>   0.1000 
 25 C        6.4380     1.8180     3.5150 C.3   1 <1>  -0.2400 
 26 C        7.6800     3.3720     1.9800 C.3   1 <1>  -0.2400 
 27 H        2.6150    -0.6620    -3.7310 H     1 <1>   0.0800 
 28 H        2.8960    -1.5830    -2.2980 H     1 <1>   0.0800 
 29 H        2.1750     2.5070    -2.2840 H     1 <1>   0.0800 
 30 H        2.9610     1.7710    -3.6500 H     1 <1>   0.0800 
 31 H        0.7950    -0.7250     1.2340 H     1 <1>   0.1500 
 32 H        4.8490    -0.2910    -4.0850 H     1 <1>   0.0800 
 33 H        5.0130    -1.7010    -3.0790 H     1 <1>   0.0800 
 34 H        4.2750     2.4680    -0.9950 H     1 <1>   0.0800 
 35 H        4.4290     3.3800    -2.4480 H     1 <1>   0.0800 
 36 H        5.2500    -2.5560     0.9410 H     1 <1>   0.1500 
 37 H        4.8640     0.0960    -1.2250 H     1 <1>   0.4500 
 38 H        6.4010     2.0110    -1.9730 H     1 <1>   0.0800 
 39 H        5.7100     1.6620    -3.5320 H     1 <1>   0.0800 
 40 H        3.7590    -3.4350     2.6160 H     1 <1>   0.1500 
 41 H        7.5290    -0.1210    -2.3790 H     1 <1>   0.0800 
 42 H        6.7010    -1.5410    -1.7910 H     1 <1>   0.0800 
 43 H        0.6040    -3.7110     4.5070 H     1 <1>   0.0800 
 44 H        2.2950    -3.2270     4.5320 H     1 <1>   0.0800 
 45 H        1.7400    -4.4750     3.4010 H     1 <1>   0.0800 
 46 H        8.5190     1.7280     3.0450 H     1 <1>   0.0800 
 47 H        5.5010     2.0070     3.0200 H     1 <1>   0.0800 
 48 H        6.5540     2.5270     4.3160 H     1 <1>   0.0800 
 49 H        6.4070     0.8300     3.9390 H     1 <1>   0.0800 
 50 H        6.7710     3.6310     1.4660 H     1 <1>   0.0800 
 51 H        8.5020     3.4640     1.2920 H     1 <1>   0.0800 
 52 H        7.8300     4.0690     2.7850 H     1 <1>   0.0800 
@<TRIPOS>BOND
  1   1   2  2   
  2   2   3  am  
  3   2   4  1   
  4   3   5  1   
  5   3   6  1   
  6   4   7  ar  
  7   4   8  ar  
  8   5   9  1   
  9   5  27  1   
 10   5  28  1   
 11   6  10  1   
 12   6  29  1   
 13   6  30  1   
 14   7  11  ar  
 15   8  12  ar  
 16   8  31  1   
 17   9  13  1   
 18   9  32  1   
 19   9  33  1   
 20  10  14  1   
 21  10  34  1   
 22  10  35  1   
 23  11  15  ar  
 24  11  36  1   
 25  12  15  ar  
 26  12  16  1   
 27  13  14  1   
 28  13  17  1   
 29  13  37  1   
 30  14  38  1   
 31  14  39  1   
 32  15  40  1   
 33  16  18  1   
 34  17  19  1   
 35  17  41  1   
 36  17  42  1   
 37  18  43  1   
 38  18  44  1   
 39  18  45  1   
 40  19  20  2   
 41  19  21  1   
 42  20  22  1   
 43  21  23  2   
 44  22  23  1   
 45  23  24  1   
 46  24  25  1   
 47  24  26  1   
 48  24  46  1   
 49  25  47  1   
 50  25  48  1   
 51  25  49  1   
 52  26  50  1   
 53  26  51  1   
 54  26  52  1   
@<TRIPOS>SUBSTRUCTURE
  1 ****   7 GROUP 4 **** **** 0

# MOE 2024.06 (io_trps.svl 2023.06)
