@<TRIPOS>MOLECULE
NONAME
33 34 1 0 0 
SMALL
USER_CHARGES


@<TRIPOS>ATOM
  1 S        0.2090    -0.2570    -0.5390 S.3   1 <1>  -0.0800 
  2 C       -1.3390    -0.8690    -0.0480 C.2   1 <1>   0.4420 
  3 C       -0.3770     1.3240    -0.1520 C.2   1 <1>   0.1980 
  4 N       -2.1240     0.0700     0.3410 N.2   1 <1>  -0.3380 
  5 N       -1.5200    -2.2310    -0.1350 N.am  1 <1>  -0.4940 
  6 N       -1.5700     1.3160     0.2790 N.2   1 <1>  -0.3380 
  7 C        0.5380     2.5120    -0.3510 C.3   1 <1>   0.0200 
  8 C       -2.6200    -2.9880     0.1690 C.2   1 <1>   0.7160 
  9 C       -0.2220     3.7890     0.0300 C.3   1 <1>   0.3430 
 10 O       -3.6350    -2.4650     0.5740 O.2   1 <1>  -0.5700 
 11 C       -2.5480    -4.4260    -0.0030 C.2   1 <1>  -0.0860 
 12 N        0.5770     5.0400    -0.1920 N.4   1 <1>  -0.9590 
 13 C       -1.4820    -5.1550    -0.4290 C.2   1 <1>  -0.1100 
 14 C       -3.6780    -5.2770     0.2810 C.2   1 <1>  -0.1500 
 15 C        1.7300     5.1620     0.7570 C.3   1 <1>   0.2630 
 16 C       -0.3180     6.2320    -0.0620 C.3   1 <1>   0.2630 
 17 S       -1.8360    -6.8650    -0.4900 S.3   1 <1>  -0.0800 
 18 C       -3.4670    -6.5880     0.0760 C.2   1 <1>  -0.1100 
 19 H       -0.7270    -2.7590    -0.4760 H     1 <1>   0.3700 
 20 H        0.8340     2.5510    -1.3830 H     1 <1>   0.0800 
 21 H        1.4040     2.3840     0.2710 H     1 <1>   0.0800 
 22 H       -0.5220     3.7240     1.0650 H     1 <1>   0.0800 
 23 H       -1.1230     3.8300    -0.5620 H     1 <1>   0.0800 
 24 H        0.9420     5.0300    -1.1580 H     1 <1>   0.4500 
 25 H       -0.4890    -4.8690    -0.7250 H     1 <1>   0.1500 
 26 H       -4.6040    -4.8480     0.6310 H     1 <1>   0.1500 
 27 H        1.3790     5.1620     1.7770 H     1 <1>   0.0800 
 28 H        2.2640     6.0820     0.5800 H     1 <1>   0.0800 
 29 H        2.4170     4.3420     0.6280 H     1 <1>   0.0800 
 30 H       -0.7310     6.2850     0.9330 H     1 <1>   0.0800 
 31 H       -1.1320     6.1700    -0.7670 H     1 <1>   0.0800 
 32 H        0.2330     7.1390    -0.2540 H     1 <1>   0.0800 
 33 H       -4.1040    -7.4470     0.1970 H     1 <1>   0.1500 
@<TRIPOS>BOND
  1   1   2  1   
  2   1   3  1   
  3   2   4  2   
  4   2   5  1   
  5   3   6  2   
  6   3   7  1   
  7   4   6  1   
  8   5   8  am  
  9   5  19  1   
 10   7   9  1   
 11   7  20  1   
 12   7  21  1   
 13   8  10  2   
 14   8  11  1   
 15   9  12  1   
 16   9  22  1   
 17   9  23  1   
 18  11  13  2   
 19  11  14  1   
 20  12  15  1   
 21  12  16  1   
 22  12  24  1   
 23  13  17  1   
 24  13  25  1   
 25  14  18  2   
 26  14  26  1   
 27  15  27  1   
 28  15  28  1   
 29  15  29  1   
 30  16  30  1   
 31  16  31  1   
 32  16  32  1   
 33  17  18  1   
 34  18  33  1   
@<TRIPOS>SUBSTRUCTURE
  1 ****   2 GROUP 4 **** **** 0

# MOE 2024.06 (io_trps.svl 2023.06)
