@<TRIPOS>MOLECULE
NONAME
54 57 1 0 0 
SMALL
USER_CHARGES


@<TRIPOS>ATOM
  1 O       -2.4970     1.9420    -1.7290 O.co2 1 <1>  -0.9000 
  2 C       -3.5930     2.4280    -2.0630 C.2   1 <1>   0.9790 
  3 O       -3.6740     3.0380    -3.1450 O.co2 1 <1>  -0.9000 
  4 C       -4.7650     2.2820    -1.2060 C.ar  1 <1>  -0.1790 
  5 C       -6.0010     2.8260    -1.5620 C.ar  1 <1>  -0.1500 
  6 C       -4.7030     1.5960     0.0080 C.ar  1 <1>  -0.1500 
  7 C       -7.1150     2.6860    -0.7560 C.ar  1 <1>  -0.1500 
  8 C       -5.8110     1.4490     0.8230 C.ar  1 <1>  -0.1500 
  9 C       -7.0350     1.9900     0.4400 C.ar  1 <1>   0.0820 
 10 O       -8.1730     1.8710     1.1680 O.3   1 <1>  -0.3630 
 11 C       -8.2240     1.0150     2.2900 C.3   1 <1>   0.1200 
 12 C       -9.6780     0.8720     2.7640 C.3   1 <1>  -0.1600 
 13 C      -10.6240     0.3260     1.6870 C.3   1 <1>   0.3430 
 14 N      -10.8160     1.3330     0.6130 N.4   1 <1>  -0.9590 
 15 C      -11.8020     2.3960     1.0090 C.3   1 <1>   0.3430 
 16 C      -11.1780     0.7010    -0.6850 C.3   1 <1>   0.3430 
 17 C      -11.9090     3.5130    -0.0440 C.3   1 <1>   0.1430 
 18 C      -11.2330     1.7670    -1.7830 C.3   1 <1>  -0.1600 
 19 C      -13.0210     4.4430     0.3780 C.ar  1 <1>   0.1670 
 20 C      -12.2030     2.9110    -1.4340 C.3   1 <1>  -0.1600 
 21 C      -10.6690     4.4490    -0.0640 C.3   1 <1>  -0.1600 
 22 N      -14.2180     4.0490     0.7360 N.ar  1 <1>  -0.6200 
 23 C      -12.6290     5.7470     0.3670 C.ar  1 <1>  -0.1430 
 24 C      -11.1960     5.8980    -0.0740 C.3   1 <1>  -0.0170 
 25 C      -15.0220     5.0430     1.0880 C.ar  1 <1>   0.7200 
 26 C      -13.5540     6.6910     0.7450 C.ar  1 <1>   0.1600 
 27 N      -14.7670     6.3430     1.1090 N.ar  1 <1>  -0.6200 
 28 N      -16.2550     4.6920     1.4560 N.pl3 1 <1>  -0.9000 
 29 H       -6.0670     3.3670    -2.4920 H     1 <1>   0.1500 
 30 H       -3.7550     1.1750     0.3030 H     1 <1>   0.1500 
 31 H       -8.0410     3.1220    -1.0660 H     1 <1>   0.1500 
 32 H       -5.6880     0.9160     1.7450 H     1 <1>   0.1500 
 33 H       -7.6080     1.4390     3.0660 H     1 <1>   0.0800 
 34 H       -7.8290     0.0540     2.0020 H     1 <1>   0.0800 
 35 H      -10.0320     1.8100     3.1520 H     1 <1>   0.0800 
 36 H       -9.6830     0.1790     3.5860 H     1 <1>   0.0800 
 37 H      -11.5760     0.0710     2.1230 H     1 <1>   0.0800 
 38 H      -10.1920    -0.5710     1.2720 H     1 <1>   0.0800 
 39 H       -9.8880     1.7830     0.4900 H     1 <1>   0.4500 
 40 H      -11.5220     2.8360     1.9510 H     1 <1>   0.0800 
 41 H      -12.7770     1.9530     1.1310 H     1 <1>   0.0800 
 42 H      -12.1400     0.2210    -0.6010 H     1 <1>   0.0800 
 43 H      -10.4450    -0.0460    -0.9480 H     1 <1>   0.0800 
 44 H      -11.5530     1.3030    -2.7000 H     1 <1>   0.0800 
 45 H      -10.2430     2.1500    -1.9550 H     1 <1>   0.0800 
 46 H      -12.1590     3.6790    -2.1880 H     1 <1>   0.0800 
 47 H      -13.2090     2.5220    -1.4380 H     1 <1>   0.0800 
 48 H      -10.0350     4.2790    -0.9150 H     1 <1>   0.0800 
 49 H      -10.0840     4.3080     0.8280 H     1 <1>   0.0800 
 50 H      -11.1650     6.3110    -1.0690 H     1 <1>   0.0800 
 51 H      -10.6380     6.5290     0.5970 H     1 <1>   0.0800 
 52 H      -13.2980     7.7380     0.7500 H     1 <1>   0.1500 
 53 H      -16.9260     5.4560     1.4760 H     1 <1>   0.4000 
 54 H      -16.5930     3.8040     1.1000 H     1 <1>   0.4000 
@<TRIPOS>BOND
  1   1   2  ar  
  2   2   3  ar  
  3   2   4  1   
  4   4   5  ar  
  5   4   6  ar  
  6   5   7  ar  
  7   5  29  1   
  8   6   8  ar  
  9   6  30  1   
 10   7   9  ar  
 11   7  31  1   
 12   8   9  ar  
 13   8  32  1   
 14   9  10  1   
 15  10  11  1   
 16  11  12  1   
 17  11  33  1   
 18  11  34  1   
 19  12  13  1   
 20  12  35  1   
 21  12  36  1   
 22  13  14  1   
 23  13  37  1   
 24  13  38  1   
 25  14  15  1   
 26  14  16  1   
 27  14  39  1   
 28  15  17  1   
 29  15  40  1   
 30  15  41  1   
 31  16  18  1   
 32  16  42  1   
 33  16  43  1   
 34  17  19  1   
 35  17  20  1   
 36  17  21  1   
 37  18  20  1   
 38  18  44  1   
 39  18  45  1   
 40  19  22  ar  
 41  19  23  ar  
 42  20  46  1   
 43  20  47  1   
 44  21  24  1   
 45  21  48  1   
 46  21  49  1   
 47  22  25  ar  
 48  23  24  1   
 49  23  26  ar  
 50  24  50  1   
 51  24  51  1   
 52  25  27  ar  
 53  25  28  1   
 54  26  27  ar  
 55  26  52  1   
 56  28  53  1   
 57  28  54  1   
@<TRIPOS>SUBSTRUCTURE
  1 ****  21 GROUP 4 **** **** 0

# MOE 2024.06 (io_trps.svl 2023.06)
