@<TRIPOS>MOLECULE
NONAME
60 62 1 0 0 
SMALL
USER_CHARGES


@<TRIPOS>ATOM
  1 S       -0.1860     0.3630     2.1310 S.3   1 <1>  -0.0800 
  2 C        0.5520    -0.8630     1.0860 C.2   1 <1>  -0.0450 
  3 C        0.7320     1.6450     1.3800 C.2   1 <1>  -0.1400 
  4 C        0.1850    -2.2520     1.2130 C.2   1 <1>   0.7150 
  5 C        1.4420    -0.2500     0.2610 C.2   1 <1>  -0.1500 
  6 C        1.5400     1.1610     0.4290 C.2   1 <1>  -0.1810 
  7 C        0.5830     3.0830     1.8210 C.3   1 <1>   0.0200 
  8 O        0.8950    -3.1080     0.7160 O.2   1 <1>  -0.5700 
  9 N       -1.0030    -2.6630     1.7800 N.am  1 <1>  -0.6600 
 10 C        2.4690     2.0590    -0.3700 C.3   1 <1>   0.0210 
 11 C        1.2590     3.9980     0.7830 C.3   1 <1>  -0.1600 
 12 C       -1.0880    -4.0270     2.3690 C.3   1 <1>   0.3200 
 13 C       -2.3130    -2.0820     1.3450 C.3   1 <1>   0.1400 
 14 C        2.6230     3.4460     0.3030 C.3   1 <1>  -0.0800 
 15 C       -1.6770    -4.9350     1.3120 C.2   1 <1>  -0.3320 
 16 C       -2.4130    -2.0740    -0.1950 C.3   1 <1>   0.3430 
 17 C        3.3040     4.4700    -0.6270 C.3   1 <1>  -0.1600 
 18 N       -1.0000    -5.2790     0.2020 N.pl3 1 <1>   0.0330 
 19 C       -2.8870    -5.5250     1.2220 C.2   1 <1>   0.0770 
 20 N       -3.8240    -2.0330    -0.7070 N.4   1 <1>  -0.9590 
 21 C        4.7320     4.0700    -1.0300 C.3   1 <1>  -0.1600 
 22 C       -1.8640    -6.0230    -0.5210 C.2   1 <1>   0.0060 
 23 N       -3.0150    -6.1740     0.0500 N.2   1 <1>  -0.5650 
 24 C       -4.4780    -3.3770    -0.5790 C.3   1 <1>   0.2630 
 25 C       -3.8350    -1.6070    -2.1400 C.3   1 <1>   0.2630 
 26 C        5.3970     5.1750    -1.8550 C.3   1 <1>  -0.2400 
 27 C       -1.4990    -6.6250    -1.8610 C.3   1 <1>  -0.0600 
 28 H        2.0480    -0.7640    -0.4660 H     1 <1>   0.1500 
 29 H        1.0540     3.2020     2.7810 H     1 <1>   0.0800 
 30 H       -0.4570     3.3400     1.9150 H     1 <1>   0.0800 
 31 H        2.0680     2.1730    -1.3620 H     1 <1>   0.0800 
 32 H        3.4310     1.5850    -0.4460 H     1 <1>   0.0800 
 33 H        1.3850     4.9760     1.2140 H     1 <1>   0.0800 
 34 H        0.6070     4.0960    -0.0680 H     1 <1>   0.0800 
 35 H       -1.7170    -4.0050     3.2430 H     1 <1>   0.0800 
 36 H       -0.1120    -4.3760     2.6650 H     1 <1>   0.0800 
 37 H       -2.4170    -1.0830     1.7260 H     1 <1>   0.0800 
 38 H       -3.1100    -2.6740     1.7590 H     1 <1>   0.0800 
 39 H        3.2440     3.3200     1.1750 H     1 <1>   0.0800 
 40 H       -1.9350    -2.9620    -0.5740 H     1 <1>   0.0800 
 41 H       -1.8680    -1.2190    -0.5620 H     1 <1>   0.0800 
 42 H        3.3490     5.4180    -0.1190 H     1 <1>   0.0800 
 43 H        2.7080     4.6040    -1.5130 H     1 <1>   0.0800 
 44 H       -0.0320    -5.0080    -0.0270 H     1 <1>   0.2700 
 45 H       -3.6930    -5.5070     1.9380 H     1 <1>   0.1500 
 46 H       -4.3610    -1.3430    -0.1610 H     1 <1>   0.4500 
 47 H        4.7160     3.1670    -1.6150 H     1 <1>   0.0800 
 48 H        5.3200     3.8870    -0.1460 H     1 <1>   0.0800 
 49 H       -3.9140    -4.1250    -1.1150 H     1 <1>   0.0800 
 50 H       -5.4780    -3.3510    -0.9800 H     1 <1>   0.0800 
 51 H       -4.5340    -3.6760     0.4540 H     1 <1>   0.0800 
 52 H       -3.2840    -2.3090    -2.7440 H     1 <1>   0.0800 
 53 H       -3.3860    -0.6320    -2.2460 H     1 <1>   0.0800 
 54 H       -4.8480    -1.5580    -2.5070 H     1 <1>   0.0800 
 55 H        4.8350     5.3640    -2.7530 H     1 <1>   0.0800 
 56 H        6.3940     4.8780    -2.1320 H     1 <1>   0.0800 
 57 H        5.4590     6.0860    -1.2860 H     1 <1>   0.0800 
 58 H       -1.2190    -5.8540    -2.5550 H     1 <1>   0.0800 
 59 H       -2.3400    -7.1650    -2.2610 H     1 <1>   0.0800 
 60 H       -0.6800    -7.3110    -1.7440 H     1 <1>   0.0800 
@<TRIPOS>BOND
  1   1   2  1   
  2   1   3  1   
  3   2   4  1   
  4   2   5  2   
  5   3   6  2   
  6   3   7  1   
  7   4   8  2   
  8   4   9  am  
  9   5   6  1   
 10   5  28  1   
 11   6  10  1   
 12   7  11  1   
 13   7  29  1   
 14   7  30  1   
 15   9  12  1   
 16   9  13  1   
 17  10  14  1   
 18  10  31  1   
 19  10  32  1   
 20  11  14  1   
 21  11  33  1   
 22  11  34  1   
 23  12  15  1   
 24  12  35  1   
 25  12  36  1   
 26  13  16  1   
 27  13  37  1   
 28  13  38  1   
 29  14  17  1   
 30  14  39  1   
 31  15  18  1   
 32  15  19  2   
 33  16  20  1   
 34  16  40  1   
 35  16  41  1   
 36  17  21  1   
 37  17  42  1   
 38  17  43  1   
 39  18  22  1   
 40  18  44  1   
 41  19  23  1   
 42  19  45  1   
 43  20  24  1   
 44  20  25  1   
 45  20  46  1   
 46  21  26  1   
 47  21  47  1   
 48  21  48  1   
 49  22  23  2   
 50  22  27  1   
 51  24  49  1   
 52  24  50  1   
 53  24  51  1   
 54  25  52  1   
 55  25  53  1   
 56  25  54  1   
 57  26  55  1   
 58  26  56  1   
 59  26  57  1   
 60  27  58  1   
 61  27  59  1   
 62  27  60  1   
@<TRIPOS>SUBSTRUCTURE
  1 ****   2 GROUP 4 **** **** 0

# MOE 2024.06 (io_trps.svl 2023.06)
