@<TRIPOS>MOLECULE
NONAME
41 43 1 0 0 
SMALL
USER_CHARGES


@<TRIPOS>ATOM
  1 O        0.3570     0.4760     0.4910 O.3   1 <1>  -0.0190 
  2 N        1.2670    -0.4470     0.3680 N.2   1 <1>  -0.4100 
  3 C        0.7690     1.6320     0.0430 C.2   1 <1>  -0.0400 
  4 C        2.2820     0.1230    -0.1730 C.2   1 <1>   0.1080 
  5 C        2.0230     1.4700    -0.4090 C.2   1 <1>  -0.1500 
  6 C       -0.1730     2.8230     0.1120 C.3   1 <1>   0.0200 
  7 C        3.5770    -0.5840    -0.5050 C.3   1 <1>  -0.0590 
  8 C        0.5320     4.1580    -0.1900 C.3   1 <1>  -0.0800 
  9 C       -0.3950     5.3710    -0.2860 C.3   1 <1>   0.2000 
 10 C        1.5450     4.5610     0.8810 C.3   1 <1>   0.2090 
 11 O       -1.3570     5.2820     0.7310 O.3   1 <1>  -0.5600 
 12 C        0.5500     6.5600    -0.0500 C.3   1 <1>   0.2090 
 13 N        1.7110     6.0230     0.7180 N.pl3 1 <1>  -0.8380 
 14 C       -2.4630     6.1130     0.5780 C.3   1 <1>   0.0400 
 15 C        2.9550     6.6180     0.6910 C.ar  1 <1>   0.4100 
 16 N        3.1820     7.5540    -0.2100 N.ar  1 <1>  -0.6200 
 17 C        3.9410     6.2490     1.5860 C.ar  1 <1>  -0.1500 
 18 C        4.3890     8.0850    -0.2040 C.ar  1 <1>   0.4770 
 19 C        5.1560     6.8690     1.4960 C.ar  1 <1>   0.1600 
 20 N        5.4020     7.7970     0.5930 N.ar  1 <1>  -0.6200 
 21 C        4.6550     9.1550    -1.2350 C.3   1 <1>  -0.0970 
 22 H        2.7000     2.1740    -0.8560 H     1 <1>   0.1500 
 23 H       -0.9700     2.6690    -0.5930 H     1 <1>   0.0800 
 24 H       -0.6100     2.8580     1.0940 H     1 <1>   0.0800 
 25 H        3.8150    -0.4430    -1.5420 H     1 <1>   0.0800 
 26 H        3.4790    -1.6370    -0.3100 H     1 <1>   0.0800 
 27 H        4.3720    -0.1910     0.1010 H     1 <1>   0.0800 
 28 H        1.0560     4.0750    -1.1250 H     1 <1>   0.0800 
 29 H       -0.8920     5.4220    -1.2390 H     1 <1>   0.0800 
 30 H        2.4790     4.0420     0.7560 H     1 <1>   0.0800 
 31 H        1.1500     4.3660     1.8640 H     1 <1>   0.0800 
 32 H        0.0740     7.3540     0.4960 H     1 <1>   0.0800 
 33 H        0.8870     6.9340    -1.0000 H     1 <1>   0.0800 
 34 H       -3.1230     5.9450     1.4110 H     1 <1>   0.0800 
 35 H       -2.9700     5.8680    -0.3390 H     1 <1>   0.0800 
 36 H       -2.1470     7.1420     0.5750 H     1 <1>   0.0800 
 37 H        3.7450     5.5040     2.3290 H     1 <1>   0.1500 
 38 H        5.9490     6.6090     2.1750 H     1 <1>   0.1500 
 39 H        5.4500     8.8360    -1.8830 H     1 <1>   0.0800 
 40 H        4.9450    10.0620    -0.7410 H     1 <1>   0.0800 
 41 H        3.7760     9.3410    -1.8240 H     1 <1>   0.0800 
@<TRIPOS>BOND
  1   1   2  1   
  2   1   3  1   
  3   2   4  2   
  4   3   5  2   
  5   3   6  1   
  6   4   5  1   
  7   4   7  1   
  8   5  22  1   
  9   6   8  1   
 10   6  23  1   
 11   6  24  1   
 12   7  25  1   
 13   7  26  1   
 14   7  27  1   
 15   8   9  1   
 16   8  10  1   
 17   8  28  1   
 18   9  11  1   
 19   9  12  1   
 20   9  29  1   
 21  10  13  1   
 22  10  30  1   
 23  10  31  1   
 24  11  14  1   
 25  12  13  1   
 26  12  32  1   
 27  12  33  1   
 28  13  15  1   
 29  14  34  1   
 30  14  35  1   
 31  14  36  1   
 32  15  16  ar  
 33  15  17  ar  
 34  16  18  ar  
 35  17  19  ar  
 36  17  37  1   
 37  18  20  ar  
 38  18  21  1   
 39  19  20  ar  
 40  19  38  1   
 41  21  39  1   
 42  21  40  1   
 43  21  41  1   
@<TRIPOS>SUBSTRUCTURE
  1 ****  10 GROUP 4 **** **** 0

# MOE 2024.06 (io_trps.svl 2023.06)
