@<TRIPOS>MOLECULE
NONAME
48 50 1 0 0 
SMALL
USER_CHARGES


@<TRIPOS>ATOM
  1 O        1.0260     1.5970    -0.3290 O.2   1 <1>  -0.5700 
  2 C       -0.0270     2.1770    -0.4840 C.2   1 <1>   0.7800 
  3 O       -0.9360     1.7780    -1.3590 O.3   1 <1>  -0.4300 
  4 N       -0.4110     3.2990     0.1580 N.am  1 <1>  -0.6600 
  5 C       -2.0430     2.6620    -1.3730 C.3   1 <1>   0.1200 
  6 C       -1.7110     3.7470    -0.3390 C.3   1 <1>   0.1400 
  7 C        0.3870     4.0740     1.1540 C.3   1 <1>   0.2010 
  8 C        0.7070     5.5010     0.7000 C.2   1 <1>   0.5690 
  9 O        0.0130     6.3870     1.1440 O.2   1 <1>  -0.5700 
 10 N        1.7450     5.7700    -0.1600 N.am  1 <1>  -0.6600 
 11 C        2.6190     4.7400    -0.8130 C.3   1 <1>   0.1400 
 12 C        2.0990     7.1710    -0.5140 C.3   1 <1>   0.1400 
 13 C        3.9970     4.6260    -0.1400 C.3   1 <1>   0.1400 
 14 C        3.0510     7.7780     0.5250 C.3   1 <1>  -0.1600 
 15 N        4.6790     5.9550    -0.0240 N.am  1 <1>  -0.6600 
 16 C        4.1400     6.8320     1.0540 C.3   1 <1>   0.1400 
 17 C        5.5600     6.3930    -0.9880 C.2   1 <1>   0.5440 
 18 O        5.7300     5.7180    -1.9850 O.2   1 <1>  -0.5700 
 19 C        6.2480     7.6480    -0.8640 C.ar  1 <1>   0.0860 
 20 C        7.2500     7.9120     0.0630 C.ar  1 <1>   0.1670 
 21 C        5.9110     8.7020    -1.6930 C.ar  1 <1>   0.1600 
 22 N        7.7970     9.0970     0.1810 N.ar  1 <1>  -0.6200 
 23 C        7.7840     6.8460     1.0050 C.3   1 <1>  -0.0970 
 24 N        6.4440     9.8960    -1.5980 N.ar  1 <1>  -0.6200 
 25 C        7.3560    10.0270    -0.6500 C.ar  1 <1>   0.7200 
 26 N        7.9060    11.2300    -0.5290 N.pl3 1 <1>  -0.9000 
 27 H       -2.9280     2.1120    -1.1030 H     1 <1>   0.0800 
 28 H       -2.1460     3.0720    -2.3620 H     1 <1>   0.0800 
 29 H       -1.6340     4.7170    -0.8010 H     1 <1>   0.0800 
 30 H       -2.4390     3.7710     0.4530 H     1 <1>   0.0800 
 31 H        1.3050     3.5560     1.3630 H     1 <1>   0.0800 
 32 H       -0.1700     4.1270     2.0710 H     1 <1>   0.0800 
 33 H        2.7620     4.9980    -1.8480 H     1 <1>   0.0800 
 34 H        2.1480     3.7780    -0.7990 H     1 <1>   0.0800 
 35 H        1.2050     7.7690    -0.5780 H     1 <1>   0.0800 
 36 H        2.5680     7.1850    -1.4820 H     1 <1>   0.0800 
 37 H        4.6080     3.9520    -0.7170 H     1 <1>   0.0800 
 38 H        3.8830     4.1920     0.8370 H     1 <1>   0.0800 
 39 H        2.4680     8.1200     1.3620 H     1 <1>   0.0800 
 40 H        3.5130     8.6490     0.0990 H     1 <1>   0.0800 
 41 H        3.7150     6.2140     1.8280 H     1 <1>   0.0800 
 42 H        4.9310     7.4060     1.5040 H     1 <1>   0.0800 
 43 H        5.1660     8.5410    -2.4540 H     1 <1>   0.1500 
 44 H        7.5370     5.8550     0.6710 H     1 <1>   0.0800 
 45 H        7.3790     6.9960     1.9880 H     1 <1>   0.0800 
 46 H        8.8550     6.9210     1.0620 H     1 <1>   0.0800 
 47 H        7.7550    11.9010    -1.2780 H     1 <1>   0.4000 
 48 H        8.7500    11.3150     0.0290 H     1 <1>   0.4000 
@<TRIPOS>BOND
  1   1   2  2   
  2   2   3  1   
  3   2   4  am  
  4   3   5  1   
  5   4   6  1   
  6   4   7  1   
  7   5   6  1   
  8   5  27  1   
  9   5  28  1   
 10   6  29  1   
 11   6  30  1   
 12   7   8  1   
 13   7  31  1   
 14   7  32  1   
 15   8   9  2   
 16   8  10  am  
 17  10  11  1   
 18  10  12  1   
 19  11  13  1   
 20  11  33  1   
 21  11  34  1   
 22  12  14  1   
 23  12  35  1   
 24  12  36  1   
 25  13  15  1   
 26  13  37  1   
 27  13  38  1   
 28  14  16  1   
 29  14  39  1   
 30  14  40  1   
 31  15  16  1   
 32  15  17  am  
 33  16  41  1   
 34  16  42  1   
 35  17  18  2   
 36  17  19  1   
 37  19  20  ar  
 38  19  21  ar  
 39  20  22  ar  
 40  20  23  1   
 41  21  24  ar  
 42  21  43  1   
 43  22  25  ar  
 44  23  44  1   
 45  23  45  1   
 46  23  46  1   
 47  24  25  ar  
 48  25  26  1   
 49  26  47  1   
 50  26  48  1   
@<TRIPOS>SUBSTRUCTURE
  1 ****  15 GROUP 4 **** **** 0

# MOE 2024.06 (io_trps.svl 2023.06)
