@<TRIPOS>MOLECULE
NONAME
45 47 1 0 0 
SMALL
USER_CHARGES


@<TRIPOS>ATOM
  1 S       -2.0670    -0.4300     0.8230 S.3   1 <1>  -0.3320 
  2 C       -1.5470    -2.1250     0.6320 C.ar  1 <1>   0.7220 
  3 C       -1.5140     0.4290    -0.7180 C.3   1 <1>  -0.0100 
  4 N       -1.8350    -2.9170     1.6500 N.ar  1 <1>  -0.6200 
  5 N       -0.9300    -2.4290    -0.5020 N.ar  1 <1>  -0.6200 
  6 C       -1.4580    -4.1630     1.5100 C.ar  1 <1>   0.1600 
  7 C       -0.5660    -3.6830    -0.6130 C.ar  1 <1>   0.1600 
  8 C       -0.8270    -4.6130     0.3710 C.ar  1 <1>  -0.1430 
  9 C       -0.4450    -6.0670     0.2020 C.3   1 <1>   0.4870 
 10 N       -1.6750    -6.8920     0.0180 N.4   1 <1>  -0.8520 
 11 C       -1.4740    -8.3640     0.0110 C.3   1 <1>   0.2960 
 12 C       -2.4720    -6.4850    -1.1730 C.3   1 <1>   0.4860 
 13 C       -0.3920    -9.0070     0.8130 C.3   1 <1>  -0.2000 
 14 C       -0.2980    -8.9620    -0.6870 C.3   1 <1>  -0.2000 
 15 C       -3.9120    -6.8470    -0.8830 C.ar  1 <1>  -0.1430 
 16 C       -4.6340    -6.0830     0.0210 C.ar  1 <1>  -0.1500 
 17 C       -4.5180    -7.9340    -1.4940 C.ar  1 <1>  -0.1500 
 18 C       -5.9430    -6.3960     0.3460 C.ar  1 <1>   0.0830 
 19 C       -5.8280    -8.2580    -1.1870 C.ar  1 <1>  -0.1500 
 20 O       -6.5010    -5.5570     1.2630 O.3   1 <1>  -0.3620 
 21 C       -6.5450    -7.5060    -0.2700 C.ar  1 <1>   0.0830 
 22 C       -7.8860    -5.5250     1.5300 C.3   1 <1>   0.0400 
 23 O       -7.8080    -7.9010    -0.0100 O.3   1 <1>  -0.5330 
 24 H       -1.8050     1.4600    -0.6410 H     1 <1>   0.0800 
 25 H       -1.9970    -0.0460    -1.5530 H     1 <1>   0.0800 
 26 H       -0.4460     0.3330    -0.7850 H     1 <1>   0.0800 
 27 H       -1.6710    -4.8280     2.3320 H     1 <1>   0.1500 
 28 H       -0.0540    -3.9620    -1.5200 H     1 <1>   0.1500 
 29 H        0.0880    -6.3910     1.0810 H     1 <1>   0.0800 
 30 H        0.2080    -6.1820    -0.6480 H     1 <1>   0.0800 
 31 H       -2.3000    -6.7000     0.8130 H     1 <1>   0.4500 
 32 H       -2.4110    -8.9010    -0.0460 H     1 <1>   0.1000 
 33 H       -2.1210    -6.9910    -2.0580 H     1 <1>   0.0800 
 34 H       -2.4130    -5.4210    -1.3330 H     1 <1>   0.0800 
 35 H       -0.5890    -9.9640     1.2680 H     1 <1>   0.1000 
 36 H        0.3170    -8.4360     1.3830 H     1 <1>   0.1000 
 37 H        0.4680    -8.3500    -1.1270 H     1 <1>   0.1000 
 38 H       -0.4250    -9.8920    -1.2160 H     1 <1>   0.1000 
 39 H       -4.2030    -5.2170     0.4950 H     1 <1>   0.1500 
 40 H       -3.9870    -8.5370    -2.2120 H     1 <1>   0.1500 
 41 H       -6.2880    -9.1040    -1.6680 H     1 <1>   0.1500 
 42 H       -8.0850    -4.6830     2.1680 H     1 <1>   0.0800 
 43 H       -8.1650    -6.4350     2.0300 H     1 <1>   0.0800 
 44 H       -8.4190    -5.4170     0.6020 H     1 <1>   0.0800 
 45 H       -8.0870    -8.6790    -0.5240 H     1 <1>   0.4500 
@<TRIPOS>BOND
  1   1   2  1   
  2   1   3  1   
  3   2   4  ar  
  4   2   5  ar  
  5   3  24  1   
  6   3  25  1   
  7   3  26  1   
  8   4   6  ar  
  9   5   7  ar  
 10   6   8  ar  
 11   6  27  1   
 12   7   8  ar  
 13   7  28  1   
 14   8   9  1   
 15   9  10  1   
 16   9  29  1   
 17   9  30  1   
 18  10  11  1   
 19  10  12  1   
 20  10  31  1   
 21  11  13  1   
 22  11  14  1   
 23  11  32  1   
 24  12  15  1   
 25  12  33  1   
 26  12  34  1   
 27  13  14  1   
 28  13  35  1   
 29  13  36  1   
 30  14  37  1   
 31  14  38  1   
 32  15  16  ar  
 33  15  17  ar  
 34  16  18  ar  
 35  16  39  1   
 36  17  19  ar  
 37  17  40  1   
 38  18  20  1   
 39  18  21  ar  
 40  19  21  ar  
 41  19  41  1   
 42  20  22  1   
 43  21  23  1   
 44  22  42  1   
 45  22  43  1   
 46  22  44  1   
 47  23  45  1   
@<TRIPOS>SUBSTRUCTURE
  1 ****  16 GROUP 4 **** **** 0

# MOE 2024.06 (io_trps.svl 2023.06)
