@<TRIPOS>MOLECULE
NONAME
49 51 1 0 0 
SMALL
USER_CHARGES


@<TRIPOS>ATOM
  1 S        0.5840    -0.3250     1.8660 S.o2  1 <1>   1.4470 
  2 O        0.0850     0.6090     2.8520 O.2   1 <1>  -0.6500 
  3 O        1.3960    -1.4420     2.2980 O.2   1 <1>  -0.6500 
  4 N        1.5280     0.5600     0.7700 N.am  1 <1>  -0.8490 
  5 C       -0.7920    -0.9050     0.8370 C.ar  1 <1>  -0.0090 
  6 C        2.4610     1.4790     1.4630 C.3   1 <1>   0.1960 
  7 C        2.1880    -0.3120    -0.2230 C.3   1 <1>   0.1960 
  8 C       -1.2880    -2.1960     0.9610 C.ar  1 <1>  -0.1500 
  9 C       -1.3850    -0.0730    -0.1020 C.ar  1 <1>  -0.1500 
 10 C        3.1560     2.5380     0.5610 C.3   1 <1>   0.2200 
 11 C        2.7750     0.4370    -1.4370 C.3   1 <1>  -0.0190 
 12 C       -2.3310    -2.6720     0.1780 C.ar  1 <1>  -0.1440 
 13 C       -2.4240    -0.5180    -0.8960 C.ar  1 <1>  -0.1500 
 14 N        2.4250     2.7790    -0.7140 N.am  1 <1>  -0.7300 
 15 C        4.6270     2.1730     0.2740 C.3   1 <1>   0.1200 
 16 C        2.1690     1.8140    -1.6210 C.2   1 <1>   0.5690 
 17 C        4.3090     0.5190    -1.4030 C.3   1 <1>   0.1200 
 18 C       -2.9050    -1.8180    -0.7670 C.ar  1 <1>   0.0830 
 19 C       -2.7840    -4.1220     0.4060 C.3   1 <1>   0.0640 
 20 O        4.7860     0.8440    -0.1320 O.3   1 <1>  -0.5600 
 21 O        1.4720     2.0420    -2.5780 O.2   1 <1>  -0.5700 
 22 O       -3.9220    -2.2810    -1.5400 O.3   1 <1>  -0.3630 
 23 C       -2.5540    -4.9970    -0.8320 C.3   1 <1>  -0.2400 
 24 C       -4.2350    -4.2050     0.8920 C.3   1 <1>  -0.2400 
 25 C       -4.5530    -1.4860    -2.5190 C.3   1 <1>   0.0400 
 26 H        1.9100     2.0330     2.2020 H     1 <1>   0.0800 
 27 H        3.2010     0.9070     1.9980 H     1 <1>   0.0800 
 28 H        2.9510    -0.9020     0.2580 H     1 <1>   0.0800 
 29 H        1.4550    -1.0010    -0.6070 H     1 <1>   0.0800 
 30 H       -0.8330    -2.8410     1.6940 H     1 <1>   0.1500 
 31 H       -1.0230     0.9360    -0.2180 H     1 <1>   0.1500 
 32 H        3.1720     3.4670     1.1040 H     1 <1>   0.0800 
 33 H        2.5270    -0.1300    -2.3150 H     1 <1>   0.0800 
 34 H       -2.8410     0.1670    -1.6090 H     1 <1>   0.1500 
 35 H        1.9000     3.6490    -0.8120 H     1 <1>   0.3700 
 36 H        5.1980     2.2850     1.1790 H     1 <1>   0.0800 
 37 H        5.0480     2.8250    -0.4710 H     1 <1>   0.0800 
 38 H        4.6810     1.2350    -2.1170 H     1 <1>   0.0800 
 39 H        4.7210    -0.4450    -1.6460 H     1 <1>   0.0800 
 40 H       -2.1770    -4.5420     1.1900 H     1 <1>   0.0800 
 41 H       -3.1960    -4.7000    -1.6400 H     1 <1>   0.0800 
 42 H       -2.7550    -6.0270    -0.6000 H     1 <1>   0.0800 
 43 H       -1.5330    -4.9100    -1.1570 H     1 <1>   0.0800 
 44 H       -4.9190    -3.8900     0.1260 H     1 <1>   0.0800 
 45 H       -4.3690    -3.5740     1.7510 H     1 <1>   0.0800 
 46 H       -4.4760    -5.2160     1.1670 H     1 <1>   0.0800 
 47 H       -5.3170    -2.0790    -2.9870 H     1 <1>   0.0800 
 48 H       -3.8230    -1.1880    -3.2500 H     1 <1>   0.0800 
 49 H       -4.9960    -0.6310    -2.0410 H     1 <1>   0.0800 
@<TRIPOS>BOND
  1   1   2  2   
  2   1   3  2   
  3   1   4  am  
  4   1   5  1   
  5   4   6  1   
  6   4   7  1   
  7   5   8  ar  
  8   5   9  ar  
  9   6  10  1   
 10   6  26  1   
 11   6  27  1   
 12   7  11  1   
 13   7  28  1   
 14   7  29  1   
 15   8  12  ar  
 16   8  30  1   
 17   9  13  ar  
 18   9  31  1   
 19  10  14  1   
 20  10  15  1   
 21  10  32  1   
 22  11  16  1   
 23  11  17  1   
 24  11  33  1   
 25  12  18  ar  
 26  12  19  1   
 27  13  18  ar  
 28  13  34  1   
 29  14  16  am  
 30  14  35  1   
 31  15  20  1   
 32  15  36  1   
 33  15  37  1   
 34  16  21  2   
 35  17  20  1   
 36  17  38  1   
 37  17  39  1   
 38  18  22  1   
 39  19  23  1   
 40  19  24  1   
 41  19  40  1   
 42  22  25  1   
 43  23  41  1   
 44  23  42  1   
 45  23  43  1   
 46  24  44  1   
 47  24  45  1   
 48  24  46  1   
 49  25  47  1   
 50  25  48  1   
 51  25  49  1   
@<TRIPOS>SUBSTRUCTURE
  1 ****   5 GROUP 4 **** **** 0

# MOE 2024.06 (io_trps.svl 2023.06)
