@<TRIPOS>MOLECULE
NONAME
59 62 1 0 0 
SMALL
USER_CHARGES


@<TRIPOS>ATOM
  1 O       -0.0640    -0.5150    -1.1470 O.2   1 <1>  -0.5700 
  2 C        0.6950    -1.3700    -0.7610 C.2   1 <1>   0.5690 
  3 N        0.2910    -2.6150    -0.3610 N.am  1 <1>  -0.6600 
  4 C        2.1790    -1.0680    -0.7080 C.3   1 <1>  -0.0990 
  5 C        1.2800    -3.6160     0.1050 C.3   1 <1>   0.1400 
  6 C       -1.1420    -3.0130    -0.3170 C.3   1 <1>   0.0600 
  7 C        2.9890    -2.2390    -1.2990 C.3   1 <1>  -0.0800 
  8 C        2.4930    -3.6340    -0.8480 C.3   1 <1>  -0.0800 
  9 C        4.4810    -2.1760    -0.9530 C.3   1 <1>  -0.1600 
 10 C        3.7190    -4.3470    -0.2560 C.3   1 <1>  -0.1600 
 11 C        4.9080    -3.6380    -0.9010 C.3   1 <1>   0.4230 
 12 N        6.2260    -3.8840    -0.2350 N.4   1 <1>  -0.9590 
 13 C        6.3340    -3.5240     1.2350 C.3   1 <1>   0.4860 
 14 C        6.6920    -5.2830    -0.4750 C.3   1 <1>   0.2630 
 15 C        6.6700    -2.0460     1.4640 C.ar  1 <1>   0.4770 
 16 N        7.5800    -1.5180     0.6850 N.ar  1 <1>  -0.6200 
 17 N        5.9930    -1.4270     2.3870 N.ar  1 <1>  -0.6200 
 18 C        7.7850    -0.2330     0.8980 C.ar  1 <1>   0.7200 
 19 C        6.2900    -0.1570     2.4890 C.ar  1 <1>   0.7200 
 20 N        7.1630     0.4940     1.7870 N.ar  1 <1>  -0.6200 
 21 N        8.7420     0.3320     0.1090 N.pl3 1 <1>  -0.6000 
 22 N        5.6240     0.5380     3.4090 N.pl3 1 <1>  -0.9000 
 23 C        9.0810     1.6700    -0.1290 C.ar  1 <1>   0.1000 
 24 C       10.4050     1.9900    -0.4110 C.ar  1 <1>  -0.1500 
 25 C        8.1390     2.6930    -0.1220 C.ar  1 <1>  -0.1500 
 26 C       10.7870     3.2950    -0.6730 C.ar  1 <1>  -0.1440 
 27 C        8.5120     3.9990    -0.3830 C.ar  1 <1>  -0.1500 
 28 C        9.8340     4.3000    -0.6580 C.ar  1 <1>  -0.1500 
 29 C       12.2360     3.6350    -0.9770 C.3   1 <1>  -0.0960 
 30 H        2.3790    -0.1640    -1.2540 H     1 <1>   0.0800 
 31 H        2.4360    -0.9010     0.3220 H     1 <1>   0.0800 
 32 H        1.5840    -3.3470     1.1020 H     1 <1>   0.0800 
 33 H        0.8280    -4.5930     0.1400 H     1 <1>   0.0800 
 34 H       -1.3060    -3.8580    -0.9630 H     1 <1>   0.0800 
 35 H       -1.7700    -2.2030    -0.6470 H     1 <1>   0.0800 
 36 H       -1.4190    -3.2730     0.6890 H     1 <1>   0.0800 
 37 H        2.8820    -2.1930    -2.3720 H     1 <1>   0.0800 
 38 H        2.1890    -4.1690    -1.7330 H     1 <1>   0.0800 
 39 H        4.5840    -1.7040     0.0040 H     1 <1>   0.0800 
 40 H        5.0300    -1.6200    -1.6920 H     1 <1>   0.0800 
 41 H        3.7000    -5.3970    -0.4900 H     1 <1>   0.0800 
 42 H        3.7210    -4.2120     0.8090 H     1 <1>   0.0800 
 43 H        4.9720    -3.9800    -1.9230 H     1 <1>   0.0800 
 44 H        6.8970    -3.2380    -0.6880 H     1 <1>   0.4500 
 45 H        5.4220    -3.7580     1.7540 H     1 <1>   0.0800 
 46 H        7.1240    -4.0970     1.6870 H     1 <1>   0.0800 
 47 H        6.0340    -5.9870     0.0090 H     1 <1>   0.0800 
 48 H        7.6890    -5.4200    -0.0870 H     1 <1>   0.0800 
 49 H        6.7060    -5.4970    -1.5320 H     1 <1>   0.0800 
 50 H        9.3610    -0.3530    -0.3130 H     1 <1>   0.4000 
 51 H        5.9640     1.4740     3.6260 H     1 <1>   0.4000 
 52 H        5.1280     0.0450     4.1470 H     1 <1>   0.4000 
 53 H       11.1420     1.2100    -0.4200 H     1 <1>   0.1500 
 54 H        7.1080     2.4720     0.0840 H     1 <1>   0.1500 
 55 H        7.7740     4.7810    -0.3730 H     1 <1>   0.1500 
 56 H       10.1170     5.3180    -0.8610 H     1 <1>   0.1500 
 57 H       12.5370     4.4990    -0.4120 H     1 <1>   0.0800 
 58 H       12.3480     3.8480    -2.0240 H     1 <1>   0.0800 
 59 H       12.8840     2.8180    -0.7180 H     1 <1>   0.0800 
@<TRIPOS>BOND
  1   1   2  2   
  2   2   3  am  
  3   2   4  1   
  4   3   5  1   
  5   3   6  1   
  6   4   7  1   
  7   4  30  1   
  8   4  31  1   
  9   5   8  1   
 10   5  32  1   
 11   5  33  1   
 12   6  34  1   
 13   6  35  1   
 14   6  36  1   
 15   7   8  1   
 16   7   9  1   
 17   7  37  1   
 18   8  10  1   
 19   8  38  1   
 20   9  11  1   
 21   9  39  1   
 22   9  40  1   
 23  10  11  1   
 24  10  41  1   
 25  10  42  1   
 26  11  12  1   
 27  11  43  1   
 28  12  13  1   
 29  12  14  1   
 30  12  44  1   
 31  13  15  1   
 32  13  45  1   
 33  13  46  1   
 34  14  47  1   
 35  14  48  1   
 36  14  49  1   
 37  15  16  ar  
 38  15  17  ar  
 39  16  18  ar  
 40  17  19  ar  
 41  18  20  ar  
 42  18  21  1   
 43  19  20  ar  
 44  19  22  1   
 45  21  23  1   
 46  21  50  1   
 47  22  51  1   
 48  22  52  1   
 49  23  24  ar  
 50  23  25  ar  
 51  24  26  ar  
 52  24  53  1   
 53  25  27  ar  
 54  25  54  1   
 55  26  28  ar  
 56  26  29  1   
 57  27  28  ar  
 58  27  55  1   
 59  28  56  1   
 60  29  57  1   
 61  29  58  1   
 62  29  59  1   
@<TRIPOS>SUBSTRUCTURE
  1 ****  15 GROUP 4 **** **** 0

# MOE 2024.06 (io_trps.svl 2023.06)
