@<TRIPOS>MOLECULE
NONAME
45 47 1 0 0 
SMALL
USER_CHARGES


@<TRIPOS>ATOM
  1 O       -0.4910    -0.5960    -2.4670 O.2   1 <1>  -0.5700 
  2 C       -1.1510     0.2150    -1.8600 C.2   1 <1>   0.5690 
  3 N       -1.9300    -0.1590    -0.7980 N.am  1 <1>  -0.6600 
  4 C       -1.0960     1.6650    -2.3230 C.3   1 <1>   0.0440 
  5 C       -2.6370     0.7330     0.1560 C.3   1 <1>   0.1400 
  6 C       -2.0320    -1.5720    -0.3530 C.3   1 <1>   0.1400 
  7 C       -0.3510     2.5740    -1.3500 C.ar  1 <1>  -0.1440 
  8 C       -2.7870    -0.1120     1.4210 C.3   1 <1>   0.2000 
  9 C       -2.9030    -1.5510     0.9140 C.3   1 <1>  -0.0800 
 10 C       -0.9340     3.7500    -0.9010 C.ar  1 <1>  -0.1500 
 11 C        0.9140     2.2310    -0.9010 C.ar  1 <1>  -0.1500 
 12 O       -1.6180    -0.0120     2.1550 O.3   1 <1>  -0.6800 
 13 C       -4.3740    -1.9090     0.6180 C.3   1 <1>  -0.0170 
 14 C       -0.2740     4.5710    -0.0020 C.ar  1 <1>   0.0830 
 15 C        1.5830     3.0470    -0.0050 C.ar  1 <1>  -0.1500 
 16 C       -4.5400    -3.3670     0.2200 C.ar  1 <1>   0.1670 
 17 O       -0.9280     5.6920     0.3910 O.3   1 <1>  -0.3630 
 18 C        0.9940     4.2140     0.4480 C.ar  1 <1>  -0.1500 
 19 N       -4.6230    -3.6230    -1.0750 N.ar  1 <1>  -0.6200 
 20 C       -4.6000    -4.3530     1.2030 C.ar  1 <1>   0.1600 
 21 C       -0.3480     6.5940     1.3070 C.3   1 <1>   0.0400 
 22 C       -4.7630    -4.9150    -1.3200 C.ar  1 <1>   0.1600 
 23 N       -4.7410    -5.6460     0.9620 N.ar  1 <1>  -0.6200 
 24 C       -4.8200    -5.8940    -0.3340 C.ar  1 <1>   0.1600 
 25 H       -0.6000     1.7020    -3.2760 H     1 <1>   0.0800 
 26 H       -2.1010     2.0120    -2.4680 H     1 <1>   0.0800 
 27 H       -2.0910     1.6360     0.3610 H     1 <1>   0.0800 
 28 H       -3.6050     0.9760    -0.2440 H     1 <1>   0.0800 
 29 H       -2.4490    -2.1800    -1.1370 H     1 <1>   0.0800 
 30 H       -1.0450    -1.9370    -0.1220 H     1 <1>   0.0800 
 31 H       -3.6040     0.2020     2.0470 H     1 <1>   0.0800 
 32 H       -2.5240    -2.2440     1.6460 H     1 <1>   0.0800 
 33 H       -1.9090     4.0460    -1.2400 H     1 <1>   0.1500 
 34 H        1.3850     1.3250    -1.2470 H     1 <1>   0.1500 
 35 H       -0.8560    -0.0850     1.5430 H     1 <1>   0.4000 
 36 H       -4.7580    -1.2820    -0.1690 H     1 <1>   0.0800 
 37 H       -4.9690    -1.7270     1.4950 H     1 <1>   0.0800 
 38 H        2.5650     2.7710     0.3390 H     1 <1>   0.1500 
 39 H        1.5330     4.8270     1.1440 H     1 <1>   0.1500 
 40 H       -4.5270    -4.0610     2.2360 H     1 <1>   0.1500 
 41 H       -1.0420     7.3990     1.4670 H     1 <1>   0.0800 
 42 H        0.5660     6.9770     0.8880 H     1 <1>   0.0800 
 43 H       -0.1640     6.0800     2.2330 H     1 <1>   0.0800 
 44 H       -4.8370    -5.2150    -2.3500 H     1 <1>   0.1500 
 45 H       -4.9360    -6.9200    -0.6330 H     1 <1>   0.1500 
@<TRIPOS>BOND
  1   1   2  2   
  2   2   3  am  
  3   2   4  1   
  4   3   5  1   
  5   3   6  1   
  6   4   7  1   
  7   4  25  1   
  8   4  26  1   
  9   5   8  1   
 10   5  27  1   
 11   5  28  1   
 12   6   9  1   
 13   6  29  1   
 14   6  30  1   
 15   7  10  ar  
 16   7  11  ar  
 17   8   9  1   
 18   8  12  1   
 19   8  31  1   
 20   9  13  1   
 21   9  32  1   
 22  10  14  ar  
 23  10  33  1   
 24  11  15  ar  
 25  11  34  1   
 26  12  35  1   
 27  13  16  1   
 28  13  36  1   
 29  13  37  1   
 30  14  17  1   
 31  14  18  ar  
 32  15  18  ar  
 33  15  38  1   
 34  16  19  ar  
 35  16  20  ar  
 36  17  21  1   
 37  18  39  1   
 38  19  22  ar  
 39  20  23  ar  
 40  20  40  1   
 41  21  41  1   
 42  21  42  1   
 43  21  43  1   
 44  22  24  ar  
 45  22  44  1   
 46  23  24  ar  
 47  24  45  1   
@<TRIPOS>SUBSTRUCTURE
  1 ****   3 GROUP 4 **** **** 0

# MOE 2024.06 (io_trps.svl 2023.06)
