@<TRIPOS>MOLECULE
NONAME
55 57 1 0 0 
SMALL
USER_CHARGES


@<TRIPOS>ATOM
  1 O       -0.1810     1.6000     1.3640 O.2   1 <1>  -0.5700 
  2 C        0.9940     1.7760     1.1530 C.2   1 <1>   0.5690 
  3 N        1.4400     2.7070     0.2530 N.am  1 <1>  -0.6600 
  4 C        1.9710     0.9210     1.9260 C.3   1 <1>  -0.1790 
  5 C        2.8690     3.0390    -0.0260 C.3   1 <1>   0.1400 
  6 C        0.4830     3.5290    -0.5480 C.3   1 <1>   0.1400 
  7 C        3.0980     4.5620     0.0410 C.3   1 <1>   0.2000 
  8 C        0.8430     5.0210    -0.4610 C.3   1 <1>   0.1200 
  9 O        2.1870     5.2270    -0.8000 O.3   1 <1>  -0.5600 
 10 C        4.5300     4.9420    -0.3750 C.3   1 <1>   0.2090 
 11 N        4.6520     6.4150    -0.4970 N.pl3 1 <1>  -0.8690 
 12 C        5.6690     7.2560    -0.2610 C.ar  1 <1>   0.4100 
 13 N        5.3740     8.5280    -0.3810 N.ar  1 <1>  -0.6200 
 14 C        6.9580     6.8130     0.0840 C.ar  1 <1>  -0.1500 
 15 C        6.3330     9.4180    -0.1690 C.ar  1 <1>   0.7710 
 16 C        7.9260     7.7350     0.3060 C.ar  1 <1>   0.2180 
 17 N        7.5770     9.0370     0.1730 N.ar  1 <1>  -0.1790 
 18 N        6.0630    10.7460    -0.2910 N.pl3 1 <1>  -0.8380 
 19 C        9.3580     7.3840     0.6900 C.3   1 <1>  -0.0170 
 20 C        4.6600    11.2500    -0.4740 C.3   1 <1>   0.2090 
 21 C        7.0410    11.8780    -0.2580 C.3   1 <1>   0.2090 
 22 C       10.3690     7.8340    -0.3730 C.3   1 <1>  -0.2400 
 23 C        4.2930    12.1510     0.7100 C.3   1 <1>  -0.1600 
 24 C        6.7320    12.7740     0.9450 C.3   1 <1>  -0.1600 
 25 C        5.2920    13.3040     0.8870 C.3   1 <1>  -0.1600 
 26 H        2.6220     0.4040     1.2480 H     1 <1>   0.0800 
 27 H        1.4320     0.1930     2.5050 H     1 <1>   0.0800 
 28 H        2.5430     1.5350     2.5930 H     1 <1>   0.0800 
 29 H        3.1220     2.6840    -1.0110 H     1 <1>   0.0800 
 30 H        3.5190     2.5550     0.6790 H     1 <1>   0.0800 
 31 H       -0.5250     3.3900    -0.1970 H     1 <1>   0.0800 
 32 H        0.5180     3.2130    -1.5760 H     1 <1>   0.0800 
 33 H        2.9320     4.9030     1.0480 H     1 <1>   0.0800 
 34 H        0.6740     5.3920     0.5350 H     1 <1>   0.0800 
 35 H        0.2390     5.5880    -1.1480 H     1 <1>   0.0800 
 36 H        4.7540     4.4920    -1.3270 H     1 <1>   0.0800 
 37 H        5.2260     4.5670     0.3550 H     1 <1>   0.0800 
 38 H        3.7630     6.8350    -0.8080 H     1 <1>   0.4000 
 39 H        7.1440     5.7600     0.1580 H     1 <1>   0.1500 
 40 H        8.2320     9.7880     0.3390 H     1 <1>   0.4570 
 41 H        9.4420     6.3170     0.8150 H     1 <1>   0.0800 
 42 H        9.6010     7.8350     1.6370 H     1 <1>   0.0800 
 43 H        3.9430    10.4490    -0.5390 H     1 <1>   0.0800 
 44 H        4.6000    11.8120    -1.3910 H     1 <1>   0.0800 
 45 H        6.9410    12.4530    -1.1640 H     1 <1>   0.0800 
 46 H        8.0580    11.5350    -0.2050 H     1 <1>   0.0800 
 47 H       10.1380     7.3890    -1.3260 H     1 <1>   0.0800 
 48 H       11.3590     7.5180    -0.0900 H     1 <1>   0.0800 
 49 H       10.3800     8.9040    -0.4820 H     1 <1>   0.0800 
 50 H        4.2640    11.5520     1.6040 H     1 <1>   0.0800 
 51 H        3.3070    12.5510     0.5570 H     1 <1>   0.0800 
 52 H        7.4150    13.6060     0.9570 H     1 <1>   0.0800 
 53 H        6.8760    12.2170     1.8540 H     1 <1>   0.0800 
 54 H        5.0650    13.8480     1.7880 H     1 <1>   0.0800 
 55 H        5.1950    13.9850     0.0580 H     1 <1>   0.0800 
@<TRIPOS>BOND
  1   1   2  2   
  2   2   3  am  
  3   2   4  1   
  4   3   5  1   
  5   3   6  1   
  6   4  26  1   
  7   4  27  1   
  8   4  28  1   
  9   5   7  1   
 10   5  29  1   
 11   5  30  1   
 12   6   8  1   
 13   6  31  1   
 14   6  32  1   
 15   7   9  1   
 16   7  10  1   
 17   7  33  1   
 18   8   9  1   
 19   8  34  1   
 20   8  35  1   
 21  10  11  1   
 22  10  36  1   
 23  10  37  1   
 24  11  12  1   
 25  11  38  1   
 26  12  13  ar  
 27  12  14  ar  
 28  13  15  ar  
 29  14  16  ar  
 30  14  39  1   
 31  15  17  ar  
 32  15  18  1   
 33  16  17  ar  
 34  16  19  1   
 35  17  40  1   
 36  18  20  1   
 37  18  21  1   
 38  19  22  1   
 39  19  41  1   
 40  19  42  1   
 41  20  23  1   
 42  20  43  1   
 43  20  44  1   
 44  21  24  1   
 45  21  45  1   
 46  21  46  1   
 47  22  47  1   
 48  22  48  1   
 49  22  49  1   
 50  23  25  1   
 51  23  50  1   
 52  23  51  1   
 53  24  25  1   
 54  24  52  1   
 55  24  53  1   
 56  25  54  1   
 57  25  55  1   
@<TRIPOS>SUBSTRUCTURE
  1 ****  11 GROUP 4 **** **** 0

# MOE 2024.06 (io_trps.svl 2023.06)
