@<TRIPOS>MOLECULE
NONAME
45 46 1 0 0 
SMALL
USER_CHARGES


@<TRIPOS>ATOM
  1 S        0.5110     0.3140    -1.5030 S.o2  1 <1>   1.3330 
  2 O       -0.3060     1.1760    -2.3250 O.2   1 <1>  -0.6500 
  3 O        0.7840    -1.0400    -1.9290 O.2   1 <1>  -0.6500 
  4 N       -0.2200     0.2420     0.0300 N.am  1 <1>  -0.8490 
  5 C        2.0810     1.1210    -1.1810 C.3   1 <1>  -0.0550 
  6 C       -1.1470    -0.8880     0.1480 C.3   1 <1>   0.1160 
  7 C       -0.9060     1.4840     0.4060 C.3   1 <1>   0.1160 
  8 C        3.0920     0.2560    -0.3970 C.3   1 <1>  -0.0800 
  9 C        4.4730     0.8730    -0.2380 C.3   1 <1>   0.2200 
 10 C        2.7000    -0.0680     1.0510 C.3   1 <1>   0.1200 
 11 N        4.3690     2.3050     0.1340 N.am  1 <1>  -0.7300 
 12 C        4.9820     0.0960     0.9670 C.3   1 <1>   0.1200 
 13 O        3.8760    -0.0170     1.8090 O.3   1 <1>  -0.5600 
 14 C        4.5370     3.3590    -0.7170 C.2   1 <1>   0.5440 
 15 O        4.7520     3.1140    -1.8870 O.2   1 <1>  -0.5700 
 16 C        4.4430     4.7310    -0.2500 C.ar  1 <1>   0.0860 
 17 C        4.9480     5.7850    -1.0160 C.ar  1 <1>  -0.1500 
 18 C        3.8420     5.0650     0.9660 C.ar  1 <1>  -0.1500 
 19 C        4.8610     7.0950    -0.5830 C.ar  1 <1>   0.1900 
 20 C        3.7670     6.3820     1.3760 C.ar  1 <1>   0.1900 
 21 F        5.3700     7.9990    -1.3810 F     1 <1>  -0.1900 
 22 C        4.2660     7.4460     0.6320 C.ar  1 <1>   0.0820 
 23 F        3.1880     6.6180     2.5270 F     1 <1>  -0.1900 
 24 O        4.1290     8.7030     1.1470 O.3   1 <1>  -0.3620 
 25 C        4.5830     9.8700     0.4970 C.3   1 <1>   0.0400 
 26 H        2.5270     1.3750    -2.1230 H     1 <1>   0.0800 
 27 H        1.9020     2.0390    -0.6580 H     1 <1>   0.0800 
 28 H       -1.5850    -0.9120     1.1300 H     1 <1>   0.0800 
 29 H       -0.6200    -1.8150    -0.0080 H     1 <1>   0.0800 
 30 H       -1.9290    -0.8080    -0.5890 H     1 <1>   0.0800 
 31 H       -1.2680     1.4150     1.4170 H     1 <1>   0.0800 
 32 H       -1.7390     1.6680    -0.2530 H     1 <1>   0.0800 
 33 H       -0.2280     2.3180     0.3440 H     1 <1>   0.0800 
 34 H        3.2090    -0.6800    -0.9170 H     1 <1>   0.0800 
 35 H        5.0960     0.7420    -1.1070 H     1 <1>   0.0800 
 36 H        2.2670    -1.0510     1.1370 H     1 <1>   0.0800 
 37 H        2.0220     0.6630     1.4570 H     1 <1>   0.0800 
 38 H        4.2110     2.4490     1.1330 H     1 <1>   0.3700 
 39 H        5.7840     0.5960     1.4820 H     1 <1>   0.0800 
 40 H        5.2870    -0.8970     0.6840 H     1 <1>   0.0800 
 41 H        5.4150     5.5750    -1.9630 H     1 <1>   0.1500 
 42 H        3.4230     4.3070     1.6010 H     1 <1>   0.1500 
 43 H        4.3450    10.7130     1.1200 H     1 <1>   0.0800 
 44 H        4.0800     9.9630    -0.4490 H     1 <1>   0.0800 
 45 H        5.6490     9.8050     0.3630 H     1 <1>   0.0800 
@<TRIPOS>BOND
  1   1   2  2   
  2   1   3  2   
  3   1   4  am  
  4   1   5  1   
  5   4   6  1   
  6   4   7  1   
  7   5   8  1   
  8   5  26  1   
  9   5  27  1   
 10   6  28  1   
 11   6  29  1   
 12   6  30  1   
 13   7  31  1   
 14   7  32  1   
 15   7  33  1   
 16   8   9  1   
 17   8  10  1   
 18   8  34  1   
 19   9  11  1   
 20   9  12  1   
 21   9  35  1   
 22  10  13  1   
 23  10  36  1   
 24  10  37  1   
 25  11  14  am  
 26  11  38  1   
 27  12  13  1   
 28  12  39  1   
 29  12  40  1   
 30  14  15  2   
 31  14  16  1   
 32  16  17  ar  
 33  16  18  ar  
 34  17  19  ar  
 35  17  41  1   
 36  18  20  ar  
 37  18  42  1   
 38  19  21  1   
 39  19  22  ar  
 40  20  22  ar  
 41  20  23  1   
 42  22  24  1   
 43  24  25  1   
 44  25  43  1   
 45  25  44  1   
 46  25  45  1   
@<TRIPOS>SUBSTRUCTURE
  1 ****  14 GROUP 4 **** **** 0

# MOE 2024.06 (io_trps.svl 2023.06)
