@<TRIPOS>MOLECULE
NONAME
47 50 1 0 0 
SMALL
USER_CHARGES


@<TRIPOS>ATOM
  1 F       -1.9370    -0.3380     1.3520 F     1 <1>  -0.1900 
  2 C       -2.3640     0.4830     0.4310 C.ar  1 <1>   0.1900 
  3 C       -3.1150    -0.0050    -0.6400 C.ar  1 <1>   0.0860 
  4 C       -2.0360     1.8170     0.5830 C.ar  1 <1>  -0.1500 
  5 C       -3.4810    -1.4010    -0.7960 C.2   1 <1>   0.5440 
  6 C       -3.5110     0.9410    -1.5870 C.ar  1 <1>  -0.1500 
  7 C       -2.4570     2.7310    -0.3670 C.ar  1 <1>  -0.1440 
  8 O       -3.5810    -1.8860    -1.9060 O.2   1 <1>  -0.5700 
  9 N       -3.8260    -2.2130     0.2610 N.am  1 <1>  -0.6600 
 10 C       -3.1930     2.2820    -1.4530 C.ar  1 <1>  -0.1500 
 11 C       -2.1150     4.2050    -0.2380 C.3   1 <1>  -0.0970 
 12 C       -4.7720    -1.7580     1.3190 C.3   1 <1>   0.1400 
 13 C       -3.7510    -3.6950     0.1220 C.3   1 <1>   0.1400 
 14 C       -6.1870    -2.3380     1.0760 C.3   1 <1>   0.4230 
 15 C       -5.1500    -4.2590    -0.1710 C.3   1 <1>   0.3430 
 16 N       -6.1650    -3.8460     0.8760 N.4   1 <1>  -0.9590 
 17 C       -6.8650    -1.6330    -0.1230 C.3   1 <1>   0.1200 
 18 C       -7.5520    -4.3320     0.5610 C.3   1 <1>   0.5180 
 19 O       -8.1460    -2.1550    -0.3290 O.3   1 <1>  -0.5600 
 20 C       -7.5250    -5.8590     0.3460 C.3   1 <1>  -0.1950 
 21 C       -8.1800    -3.5290    -0.6060 C.3   1 <1>   0.1200 
 22 C       -7.2630    -6.5360    -0.9690 C.3   1 <1>  -0.2000 
 23 C       -8.6280    -6.6030    -0.3450 C.3   1 <1>  -0.2000 
 24 H       -1.4550     2.1280     1.4320 H     1 <1>   0.1500 
 25 H       -4.0750     0.6180    -2.4460 H     1 <1>   0.1500 
 26 H       -3.5170     2.9830    -2.2050 H     1 <1>   0.1500 
 27 H       -2.9980     4.8030    -0.3750 H     1 <1>   0.0800 
 28 H       -1.3910     4.4780    -0.9850 H     1 <1>   0.0800 
 29 H       -1.7050     4.4210     0.7320 H     1 <1>   0.0800 
 30 H       -4.4070    -2.0780     2.2800 H     1 <1>   0.0800 
 31 H       -4.8230    -0.6820     1.3380 H     1 <1>   0.0800 
 32 H       -3.0830    -3.9570    -0.6820 H     1 <1>   0.0800 
 33 H       -3.3550    -4.1240     1.0250 H     1 <1>   0.0800 
 34 H       -6.7830    -2.1100     1.9440 H     1 <1>   0.0800 
 35 H       -5.0870    -5.3330    -0.2210 H     1 <1>   0.0800 
 36 H       -5.4570    -3.9020    -1.1410 H     1 <1>   0.0800 
 37 H       -5.8860    -4.2790     1.7610 H     1 <1>   0.4500 
 38 H       -6.2940    -1.7500    -1.0290 H     1 <1>   0.0800 
 39 H       -6.9740    -0.5810     0.0750 H     1 <1>   0.0800 
 40 H       -8.1770    -4.1490     1.4200 H     1 <1>   0.0800 
 41 H       -7.1560    -6.3530     1.2290 H     1 <1>   0.1000 
 42 H       -9.2120    -3.8020    -0.7310 H     1 <1>   0.0800 
 43 H       -7.6650    -3.7060    -1.5330 H     1 <1>   0.0800 
 44 H       -7.1720    -5.9790    -1.8860 H     1 <1>   0.1000 
 45 H       -6.6790    -7.4420    -0.9900 H     1 <1>   0.1000 
 46 H       -8.9530    -7.5480     0.0610 H     1 <1>   0.1000 
 47 H       -9.4310    -6.0900    -0.8460 H     1 <1>   0.1000 
@<TRIPOS>BOND
  1   1   2  1   
  2   2   3  ar  
  3   2   4  ar  
  4   3   5  1   
  5   3   6  ar  
  6   4   7  ar  
  7   4  24  1   
  8   5   8  2   
  9   5   9  am  
 10   6  10  ar  
 11   6  25  1   
 12   7  10  ar  
 13   7  11  1   
 14   9  12  1   
 15   9  13  1   
 16  10  26  1   
 17  11  27  1   
 18  11  28  1   
 19  11  29  1   
 20  12  14  1   
 21  12  30  1   
 22  12  31  1   
 23  13  15  1   
 24  13  32  1   
 25  13  33  1   
 26  14  16  1   
 27  14  17  1   
 28  14  34  1   
 29  15  16  1   
 30  15  35  1   
 31  15  36  1   
 32  16  18  1   
 33  16  37  1   
 34  17  19  1   
 35  17  38  1   
 36  17  39  1   
 37  18  20  1   
 38  18  21  1   
 39  18  40  1   
 40  19  21  1   
 41  20  22  1   
 42  20  23  1   
 43  20  41  1   
 44  21  42  1   
 45  21  43  1   
 46  22  23  1   
 47  22  44  1   
 48  22  45  1   
 49  23  46  1   
 50  23  47  1   
@<TRIPOS>SUBSTRUCTURE
  1 ****   9 GROUP 4 **** **** 0

# MOE 2024.06 (io_trps.svl 2023.06)
