@<TRIPOS>MOLECULE
NONAME
49 52 1 0 0 
SMALL
USER_CHARGES


@<TRIPOS>ATOM
  1 O       -0.7130    -0.8080     0.8450 O.co2 1 <1>  -0.9000 
  2 C       -0.6310    -2.0390     0.7170 C.2   1 <1>   1.0330 
  3 O       -1.6850    -2.6820     0.5360 O.co2 1 <1>  -0.9000 
  4 C        0.6320    -2.7150     0.7570 C.2   1 <1>  -0.2330 
  5 C        0.7720    -4.0820     0.9930 C.2   1 <1>   0.3720 
  6 C        1.9170    -2.2960     0.5930 C.2   1 <1>   0.0870 
  7 N        2.0030    -4.4490     0.9690 N.2   1 <1>  -0.4100 
  8 N       -0.2870    -4.9480     1.2110 N.pl3 1 <1>  -0.8520 
  9 O        2.6800    -3.3570     0.7330 O.3   1 <1>  -0.0190 
 10 C        2.5450    -1.0280     0.2970 C.ar  1 <1>   0.0530 
 11 C       -0.3530    -6.0770     0.2680 C.3   1 <1>   0.2090 
 12 C        3.8300    -0.7460     0.7660 C.ar  1 <1>  -0.1500 
 13 C        1.9240    -0.0480    -0.4770 C.ar  1 <1>  -0.1500 
 14 C       -1.7130    -6.7850     0.3550 C.3   1 <1>  -0.0800 
 15 C        4.4640     0.4480     0.4780 C.ar  1 <1>  -0.1500 
 16 C        2.5490     1.1510    -0.7680 C.ar  1 <1>  -0.1500 
 17 C       -1.7270    -7.9600    -0.6370 C.3   1 <1>   0.1400 
 18 C       -2.8940    -5.8260     0.0900 C.3   1 <1>  -0.1600 
 19 C        3.8240     1.4020    -0.2930 C.ar  1 <1>  -0.1500 
 20 N       -3.0550    -8.6400    -0.6310 N.am  1 <1>  -0.6600 
 21 C       -4.2280    -6.5840     0.0530 C.3   1 <1>  -0.1600 
 22 C       -3.1710    -9.9770    -0.3410 C.2   1 <1>   0.6300 
 23 C       -4.1920    -7.7360    -0.9530 C.3   1 <1>   0.1400 
 24 O       -2.2030   -10.6810    -0.1660 O.2   1 <1>  -0.5700 
 25 C       -4.5470   -10.6290    -0.2420 C.3   1 <1>  -0.1000 
 26 C       -5.4760   -10.3110     0.8970 C.3   1 <1>  -0.2000 
 27 C       -4.8440   -11.6640     0.8070 C.3   1 <1>  -0.2000 
 28 H       -1.1420    -4.3620     1.0920 H     1 <1>   0.4000 
 29 H        0.4370    -6.7690     0.5030 H     1 <1>   0.0800 
 30 H       -0.1960    -5.7070    -0.7320 H     1 <1>   0.0800 
 31 H        4.3350    -1.4790     1.3690 H     1 <1>   0.1500 
 32 H        0.9330    -0.2260    -0.8530 H     1 <1>   0.1500 
 33 H       -1.8060    -7.1920     1.3470 H     1 <1>   0.0800 
 34 H        5.4540     0.6370     0.8540 H     1 <1>   0.1500 
 35 H        2.0360     1.8860    -1.3620 H     1 <1>   0.1500 
 36 H       -0.9470    -8.6560    -0.3760 H     1 <1>   0.0800 
 37 H       -1.5300    -7.6000    -1.6310 H     1 <1>   0.0800 
 38 H       -2.7430    -5.3130    -0.8450 H     1 <1>   0.0800 
 39 H       -2.9430    -5.0760     0.8620 H     1 <1>   0.0800 
 40 H        4.3100     2.3350    -0.5180 H     1 <1>   0.1500 
 41 H       -5.0160    -5.9020    -0.2100 H     1 <1>   0.0800 
 42 H       -4.4470    -6.9780     1.0300 H     1 <1>   0.0800 
 43 H       -5.1300    -8.2600    -0.9350 H     1 <1>   0.0800 
 44 H       -4.0530    -7.3420    -1.9460 H     1 <1>   0.0800 
 45 H       -4.9710   -10.7980    -1.2140 H     1 <1>   0.1000 
 46 H       -6.5290   -10.2150     0.6960 H     1 <1>   0.1000 
 47 H       -5.1370    -9.6390     1.6670 H     1 <1>   0.1000 
 48 H       -4.0610   -11.9230     1.4990 H     1 <1>   0.1000 
 49 H       -5.4500   -12.5100     0.5350 H     1 <1>   0.1000 
@<TRIPOS>BOND
  1   1   2  ar  
  2   2   3  ar  
  3   2   4  1   
  4   4   5  1   
  5   4   6  2   
  6   5   7  2   
  7   5   8  1   
  8   6   9  1   
  9   6  10  1   
 10   7   9  1   
 11   8  11  1   
 12   8  28  1   
 13  10  12  ar  
 14  10  13  ar  
 15  11  14  1   
 16  11  29  1   
 17  11  30  1   
 18  12  15  ar  
 19  12  31  1   
 20  13  16  ar  
 21  13  32  1   
 22  14  17  1   
 23  14  18  1   
 24  14  33  1   
 25  15  19  ar  
 26  15  34  1   
 27  16  19  ar  
 28  16  35  1   
 29  17  20  1   
 30  17  36  1   
 31  17  37  1   
 32  18  21  1   
 33  18  38  1   
 34  18  39  1   
 35  19  40  1   
 36  20  22  am  
 37  20  23  1   
 38  21  23  1   
 39  21  41  1   
 40  21  42  1   
 41  22  24  2   
 42  22  25  1   
 43  23  43  1   
 44  23  44  1   
 45  25  26  1   
 46  25  27  1   
 47  25  45  1   
 48  26  27  1   
 49  26  46  1   
 50  26  47  1   
 51  27  48  1   
 52  27  49  1   
@<TRIPOS>SUBSTRUCTURE
  1 ****   8 GROUP 4 **** **** 0

# MOE 2024.06 (io_trps.svl 2023.06)
