@<TRIPOS>MOLECULE
NONAME
51 54 1 0 0 
SMALL
USER_CHARGES


@<TRIPOS>ATOM
  1 O        1.1560     1.6500    -1.2730 O.3   1 <1>  -0.0190 
  2 N        2.0280     0.6930    -1.3820 N.2   1 <1>  -0.4100 
  3 C        0.9240     1.9560    -0.0250 C.2   1 <1>  -0.0400 
  4 C        2.3460     0.3590    -0.1830 C.2   1 <1>   0.1080 
  5 C        1.6660     1.1460     0.7440 C.2   1 <1>  -0.1500 
  6 C       -0.0350     3.0830     0.3090 C.3   1 <1>   0.0200 
  7 C        3.3260    -0.7410     0.1610 C.3   1 <1>  -0.0590 
  8 C        0.2770     4.3220    -0.5540 C.3   1 <1>  -0.0800 
  9 C       -0.4680     5.6090    -0.2050 C.3   1 <1>   0.2000 
 10 C        1.7600     4.7160    -0.5280 C.3   1 <1>   0.3430 
 11 O       -0.4350     5.8170     1.1730 O.3   1 <1>  -0.6800 
 12 C        0.4060     6.6710    -0.8760 C.3   1 <1>   0.3430 
 13 N        1.8200     6.2020    -0.6990 N.4   1 <1>  -0.9590 
 14 C        2.4450     6.8420     0.4930 C.3   1 <1>   0.4860 
 15 C        2.5430     8.3370     0.2580 C.ar  1 <1>  -0.1440 
 16 C        1.6980     9.2020     0.9380 C.ar  1 <1>  -0.1500 
 17 C        3.4720     8.8540    -0.6330 C.ar  1 <1>  -0.1500 
 18 C        1.7730    10.5660     0.7220 C.ar  1 <1>  -0.1500 
 19 C        3.5440    10.2190    -0.8470 C.ar  1 <1>  -0.1500 
 20 C        2.6960    11.0830    -0.1730 C.ar  1 <1>  -0.1440 
 21 C        2.7900    12.5870    -0.4170 C.3   1 <1>   0.2390 
 22 N        4.1410    13.0980    -0.1050 N.pl3 1 <1>   0.3140 
 23 N        4.9640    13.5710    -1.0630 N.2   1 <1>  -0.7070 
 24 C        4.7170    13.1770     1.1120 C.2   1 <1>  -0.3020 
 25 C        6.0380    13.9350    -0.4300 C.2   1 <1>   0.1390 
 26 C        5.9430    13.7130     0.9380 C.2   1 <1>  -0.1500 
 27 H        1.7500     1.0810     1.8130 H     1 <1>   0.1500 
 28 H       -1.0420     2.7530     0.1200 H     1 <1>   0.0800 
 29 H        0.0560     3.3040     1.3580 H     1 <1>   0.0800 
 30 H        4.1130    -0.3530     0.7810 H     1 <1>   0.0800 
 31 H        3.7570    -1.1440    -0.7380 H     1 <1>   0.0800 
 32 H        2.8180    -1.5300     0.6850 H     1 <1>   0.0800 
 33 H        0.0400     4.0750    -1.5750 H     1 <1>   0.0800 
 34 H       -1.4900     5.6350    -0.5450 H     1 <1>   0.0800 
 35 H        2.2970     4.2060    -1.3130 H     1 <1>   0.0800 
 36 H        2.1870     4.4350     0.4210 H     1 <1>   0.0800 
 37 H       -1.1990     5.3870     1.6140 H     1 <1>   0.4000 
 38 H        0.2350     7.6460    -0.4500 H     1 <1>   0.0800 
 39 H        0.1710     6.7040    -1.9270 H     1 <1>   0.0800 
 40 H        2.3760     6.4680    -1.5200 H     1 <1>   0.4500 
 41 H        1.8500     6.6490     1.3720 H     1 <1>   0.0800 
 42 H        3.4330     6.4420     0.6550 H     1 <1>   0.0800 
 43 H        0.9750     8.8240     1.6430 H     1 <1>   0.1500 
 44 H        4.1530     8.2120    -1.1640 H     1 <1>   0.1500 
 45 H        1.1100    11.2230     1.2600 H     1 <1>   0.1500 
 46 H        4.2730    10.6140    -1.5390 H     1 <1>   0.1500 
 47 H        2.0810    13.1180     0.1900 H     1 <1>   0.0800 
 48 H        2.5800    12.8000    -1.4500 H     1 <1>   0.0800 
 49 H        4.2330    12.8500     2.0140 H     1 <1>   0.1500 
 50 H        6.8980    14.3610    -0.9200 H     1 <1>   0.1500 
 51 H        6.7000    13.9310     1.6700 H     1 <1>   0.1500 
@<TRIPOS>BOND
  1   1   2  1   
  2   1   3  1   
  3   2   4  2   
  4   3   5  2   
  5   3   6  1   
  6   4   5  1   
  7   4   7  1   
  8   5  27  1   
  9   6   8  1   
 10   6  28  1   
 11   6  29  1   
 12   7  30  1   
 13   7  31  1   
 14   7  32  1   
 15   8   9  1   
 16   8  10  1   
 17   8  33  1   
 18   9  11  1   
 19   9  12  1   
 20   9  34  1   
 21  10  13  1   
 22  10  35  1   
 23  10  36  1   
 24  11  37  1   
 25  12  13  1   
 26  12  38  1   
 27  12  39  1   
 28  13  14  1   
 29  13  40  1   
 30  14  15  1   
 31  14  41  1   
 32  14  42  1   
 33  15  16  ar  
 34  15  17  ar  
 35  16  18  ar  
 36  16  43  1   
 37  17  19  ar  
 38  17  44  1   
 39  18  20  ar  
 40  18  45  1   
 41  19  20  ar  
 42  19  46  1   
 43  20  21  1   
 44  21  22  1   
 45  21  47  1   
 46  21  48  1   
 47  22  23  1   
 48  22  24  1   
 49  23  25  2   
 50  24  26  2   
 51  24  49  1   
 52  25  26  1   
 53  25  50  1   
 54  26  51  1   
@<TRIPOS>SUBSTRUCTURE
  1 ****  14 GROUP 4 **** **** 0

# MOE 2024.06 (io_trps.svl 2023.06)
