@<TRIPOS>MOLECULE
NONAME
40 42 1 0 0 
SMALL
USER_CHARGES


@<TRIPOS>ATOM
  1 CL      -2.6530     0.2510    -2.3570 Cl    1 <1>  -0.1770 
  2 C       -2.7820     1.0450    -0.8020 C.ar  1 <1>   0.1770 
  3 C       -2.7400     2.4270    -0.7400 C.ar  1 <1>   0.1770 
  4 C       -2.9260     0.2830     0.3540 C.ar  1 <1>   0.0860 
  5 CL      -2.5790     3.3820    -2.1960 Cl    1 <1>  -0.1770 
  6 C       -2.8300     3.0860     0.4720 C.ar  1 <1>  -0.1500 
  7 C       -2.9970    -1.1580     0.3120 C.2   1 <1>   0.5440 
  8 C       -3.0060     0.9630     1.5710 C.ar  1 <1>  -0.1500 
  9 C       -2.9610     2.3450     1.6340 C.ar  1 <1>  -0.1500 
 10 O       -2.0120    -1.7950     0.6320 O.2   1 <1>  -0.5700 
 11 N       -4.1530    -1.8270    -0.0420 N.am  1 <1>  -0.6600 
 12 C       -5.4600    -1.1220    -0.2140 C.3   1 <1>   0.2200 
 13 C       -4.1250    -3.3140    -0.2020 C.3   1 <1>   0.0600 
 14 C       -6.6110    -1.7410     0.5760 C.3   1 <1>  -0.1600 
 15 C       -5.9520    -1.1080    -1.6580 C.3   1 <1>  -0.1600 
 16 C       -7.8740    -1.2200    -0.1200 C.3   1 <1>  -0.0800 
 17 C       -7.4580    -0.8330    -1.5510 C.3   1 <1>  -0.0800 
 18 C       -8.4490     0.0510     0.5220 C.3   1 <1>  -0.1600 
 19 C       -7.8210     0.6500    -1.7230 C.3   1 <1>  -0.1600 
 20 C       -8.8700     0.9150    -0.6550 C.3   1 <1>   0.2000 
 21 O       -8.8600     2.2450    -0.2970 O.3   1 <1>  -0.6800 
 22 H       -2.7930     4.1620     0.5020 H     1 <1>   0.1500 
 23 H       -3.1010     0.3870     2.4780 H     1 <1>   0.1500 
 24 H       -3.0240     2.8450     2.5880 H     1 <1>   0.1500 
 25 H       -5.3740    -0.0990     0.1090 H     1 <1>   0.0800 
 26 H       -4.8420    -3.6380    -0.9330 H     1 <1>   0.0800 
 27 H       -4.3440    -3.7800     0.7420 H     1 <1>   0.0800 
 28 H       -3.1490    -3.6340    -0.5250 H     1 <1>   0.0800 
 29 H       -6.6020    -2.8110     0.4890 H     1 <1>   0.0800 
 30 H       -6.5720    -1.4710     1.6170 H     1 <1>   0.0800 
 31 H       -5.4430    -0.3690    -2.2490 H     1 <1>   0.0800 
 32 H       -5.8100    -2.0720    -2.1110 H     1 <1>   0.0800 
 33 H       -8.6340    -1.9840    -0.1500 H     1 <1>   0.0800 
 34 H       -8.0020    -1.4240    -2.2690 H     1 <1>   0.0800 
 35 H       -7.6890     0.5570     1.0910 H     1 <1>   0.0800 
 36 H       -9.2860    -0.1750     1.1590 H     1 <1>   0.0800 
 37 H       -8.2090     0.8470    -2.7070 H     1 <1>   0.0800 
 38 H       -6.9580     1.2690    -1.5470 H     1 <1>   0.0800 
 39 H       -9.8550     0.6490    -1.0010 H     1 <1>   0.0800 
 40 H       -7.9690     2.5050    -0.0020 H     1 <1>   0.4000 
@<TRIPOS>BOND
  1   1   2  1   
  2   2   3  ar  
  3   2   4  ar  
  4   3   5  1   
  5   3   6  ar  
  6   4   7  1   
  7   4   8  ar  
  8   6   9  ar  
  9   6  22  1   
 10   7  10  2   
 11   7  11  am  
 12   8   9  ar  
 13   8  23  1   
 14   9  24  1   
 15  11  12  1   
 16  11  13  1   
 17  12  14  1   
 18  12  15  1   
 19  12  25  1   
 20  13  26  1   
 21  13  27  1   
 22  13  28  1   
 23  14  16  1   
 24  14  29  1   
 25  14  30  1   
 26  15  17  1   
 27  15  31  1   
 28  15  32  1   
 29  16  17  1   
 30  16  18  1   
 31  16  33  1   
 32  17  19  1   
 33  17  34  1   
 34  18  20  1   
 35  18  35  1   
 36  18  36  1   
 37  19  20  1   
 38  19  37  1   
 39  19  38  1   
 40  20  21  1   
 41  20  39  1   
 42  21  40  1   
@<TRIPOS>SUBSTRUCTURE
  1 ****  12 GROUP 4 **** **** 0

# MOE 2024.06 (io_trps.svl 2023.06)
