@<TRIPOS>MOLECULE
NONAME
57 61 1 0 0 
SMALL
USER_CHARGES


@<TRIPOS>ATOM
  1 O        2.0560     0.3660     0.3690 O.2   1 <1>  -0.5700 
  2 C        2.7040    -0.4240    -0.2810 C.2   1 <1>   0.5690 
  3 N        3.7550     0.0160    -1.0570 N.am  1 <1>  -0.6600 
  4 C        2.3500    -1.9190    -0.2030 C.3   1 <1>   0.1250 
  5 C        4.7110    -0.8420    -1.8320 C.3   1 <1>   0.1400 
  6 C        4.0520     1.4720    -1.1590 C.3   1 <1>   0.1400 
  7 C        0.9790    -2.2710     0.3480 C.ar  1 <1>  -0.1440 
  8 C        3.2990    -2.7090     0.7270 C.3   1 <1>  -0.1600 
  9 C        6.0770    -0.9750    -1.1380 C.3   1 <1>   0.1400 
 10 C        4.9330     1.9490     0.0030 C.3   1 <1>  -0.1600 
 11 C        1.0480    -3.3430     1.2050 C.ar  1 <1>  -0.1440 
 12 C       -0.2380    -1.6720     0.0740 C.ar  1 <1>  -0.1500 
 13 C        2.4640    -3.8340     1.3620 C.3   1 <1>  -0.0170 
 14 N        6.6820     0.3520    -0.8110 N.am  1 <1>  -0.6600 
 15 C        6.0850     1.0110     0.3870 C.3   1 <1>   0.1400 
 16 C       -0.0900    -3.8460     1.8070 C.ar  1 <1>  -0.1500 
 17 C       -1.3860    -2.1680     0.6730 C.ar  1 <1>  -0.1500 
 18 C        7.6970     0.8760    -1.5770 C.2   1 <1>   0.5690 
 19 C       -1.3130    -3.2520     1.5360 C.ar  1 <1>  -0.1500 
 20 O        8.0780     0.3080    -2.5750 O.2   1 <1>  -0.5700 
 21 C        8.3530     2.2080    -1.2300 C.3   1 <1>   0.0820 
 22 C        9.1850     2.1770     0.0460 C.2   1 <1>  -0.1810 
 23 C        9.5320     3.3270     0.7910 C.ar  1 <1>   0.0000 
 24 C        9.7200     1.1040     0.6780 C.2   1 <1>  -0.3020 
 25 C       10.2800     2.8810     1.8760 C.ar  1 <1>  -0.1520 
 26 C        9.2810     4.6960     0.6450 C.ar  1 <1>  -0.1500 
 27 N       10.3910     1.5170     1.7920 N.pl3 1 <1>   0.0330 
 28 C       10.7790     3.7780     2.8240 C.ar  1 <1>  -0.1500 
 29 C        9.7720     5.5790     1.5780 C.ar  1 <1>  -0.1500 
 30 C       10.5210     5.1200     2.6680 C.ar  1 <1>  -0.1500 
 31 H        2.3830    -2.3360    -1.1910 H     1 <1>   0.0800 
 32 H        4.8630    -0.4110    -2.8070 H     1 <1>   0.0800 
 33 H        4.3070    -1.8230    -1.9880 H     1 <1>   0.0800 
 34 H        3.1300     2.0310    -1.1630 H     1 <1>   0.0800 
 35 H        4.5520     1.6710    -2.0910 H     1 <1>   0.0800 
 36 H        3.6360    -2.0540     1.5120 H     1 <1>   0.0800 
 37 H        4.1500    -3.0980     0.2010 H     1 <1>   0.0800 
 38 H        6.7380    -1.5290    -1.7820 H     1 <1>   0.0800 
 39 H        5.9670    -1.5480    -0.2350 H     1 <1>   0.0800 
 40 H        4.3100     2.0880     0.8690 H     1 <1>   0.0800 
 41 H        5.3300     2.9150    -0.2450 H     1 <1>   0.0800 
 42 H       -0.2910    -0.8270    -0.5890 H     1 <1>   0.1500 
 43 H        2.7180    -3.9800     2.3970 H     1 <1>   0.0800 
 44 H        2.5850    -4.7550     0.8200 H     1 <1>   0.0800 
 45 H        5.7040     0.2520     1.0480 H     1 <1>   0.0800 
 46 H        6.8320     1.5560     0.9360 H     1 <1>   0.0800 
 47 H       -0.0290    -4.6850     2.4770 H     1 <1>   0.1500 
 48 H       -2.3360    -1.7070     0.4690 H     1 <1>   0.1500 
 49 H       -2.2070    -3.6310     1.9970 H     1 <1>   0.1500 
 50 H        7.5840     2.9500    -1.1390 H     1 <1>   0.0800 
 51 H        8.9900     2.5020    -2.0440 H     1 <1>   0.0800 
 52 H        9.6670     0.0660     0.3980 H     1 <1>   0.1500 
 53 H        8.7090     5.0410    -0.1960 H     1 <1>   0.1500 
 54 H       10.9040     0.9240     2.4520 H     1 <1>   0.2700 
 55 H       11.3550     3.4170     3.6570 H     1 <1>   0.1500 
 56 H        9.5870     6.6340     1.4780 H     1 <1>   0.1500 
 57 H       10.8940     5.8320     3.3840 H     1 <1>   0.1500 
@<TRIPOS>BOND
  1   1   2  2   
  2   2   3  am  
  3   2   4  1   
  4   3   5  1   
  5   3   6  1   
  6   4   7  1   
  7   4   8  1   
  8   4  31  1   
  9   5   9  1   
 10   5  32  1   
 11   5  33  1   
 12   6  10  1   
 13   6  34  1   
 14   6  35  1   
 15   7  11  ar  
 16   7  12  ar  
 17   8  13  1   
 18   8  36  1   
 19   8  37  1   
 20   9  14  1   
 21   9  38  1   
 22   9  39  1   
 23  10  15  1   
 24  10  40  1   
 25  10  41  1   
 26  11  13  1   
 27  11  16  ar  
 28  12  17  ar  
 29  12  42  1   
 30  13  43  1   
 31  13  44  1   
 32  14  15  1   
 33  14  18  am  
 34  15  45  1   
 35  15  46  1   
 36  16  19  ar  
 37  16  47  1   
 38  17  19  ar  
 39  17  48  1   
 40  18  20  2   
 41  18  21  1   
 42  19  49  1   
 43  21  22  1   
 44  21  50  1   
 45  21  51  1   
 46  22  23  1   
 47  22  24  2   
 48  23  25  ar  
 49  23  26  ar  
 50  24  27  1   
 51  24  52  1   
 52  25  27  1   
 53  25  28  ar  
 54  26  29  ar  
 55  26  53  1   
 56  27  54  1   
 57  28  30  ar  
 58  28  55  1   
 59  29  30  ar  
 60  29  56  1   
 61  30  57  1   
@<TRIPOS>SUBSTRUCTURE
  1 ****  15 GROUP 4 **** **** 0

# MOE 2024.06 (io_trps.svl 2023.06)
