@<TRIPOS>MOLECULE
NONAME
58 60 1 0 0 
SMALL
USER_CHARGES


@<TRIPOS>ATOM
  1 O       -0.4240     1.6590     2.1540 O.2   1 <1>  -0.5700 
  2 C       -1.4150     2.2800     1.8380 C.2   1 <1>   0.5690 
  3 N       -2.5890     1.6300     1.5120 N.am  1 <1>  -0.6600 
  4 C       -1.2850     3.8050     1.8440 C.3   1 <1>   0.1810 
  5 C       -3.8440     2.3580     1.1490 C.3   1 <1>   0.2200 
  6 C       -2.6120     0.1330     1.4720 C.3   1 <1>   0.0600 
  7 O       -1.6840     4.3860     0.6080 O.3   1 <1>  -0.3620 
  8 C       -5.1230     1.7890     1.7650 C.3   1 <1>  -0.1600 
  9 C       -4.1080     2.3450    -0.3550 C.3   1 <1>  -0.1600 
 10 C       -0.7590     5.1280    -0.0360 C.ar  1 <1>   0.0820 
 11 C       -6.2430     2.3440     0.8730 C.3   1 <1>  -0.0800 
 12 C       -5.6010     2.6760    -0.4790 C.3   1 <1>  -0.0800 
 13 C        0.2230     4.5370    -0.8310 C.ar  1 <1>  -0.1440 
 14 C       -0.8210     6.5030     0.1180 C.ar  1 <1>  -0.1500 
 15 C       -7.3890     1.3670     0.5640 C.3   1 <1>  -0.1600 
 16 C       -6.3730     1.8570    -1.5220 C.3   1 <1>  -0.1600 
 17 C        1.1720     5.3540    -1.4420 C.ar  1 <1>  -0.1440 
 18 C        0.2460     3.0200    -1.0190 C.3   1 <1>  -0.0970 
 19 C        0.1140     7.3060    -0.5030 C.ar  1 <1>  -0.1500 
 20 C       -7.7550     1.6170    -0.9040 C.3   1 <1>   0.4230 
 21 C        1.1070     6.7310    -1.2750 C.ar  1 <1>  -0.1500 
 22 C        2.2950     4.7850    -2.2990 C.3   1 <1>  -0.0970 
 23 N       -8.6150     2.8370    -1.0400 N.4   1 <1>  -0.9590 
 24 C       -9.9250     2.7080    -0.3240 C.3   1 <1>   0.2630 
 25 C       -8.8920     3.1920    -2.4700 C.3   1 <1>   0.2630 
 26 H       -0.2610     4.0730     2.0420 H     1 <1>   0.0800 
 27 H       -1.9030     4.2170     2.6180 H     1 <1>   0.0800 
 28 H       -3.7790     3.3840     1.4650 H     1 <1>   0.0800 
 29 H       -3.2080    -0.2170     0.6500 H     1 <1>   0.0800 
 30 H       -3.0170    -0.2450     2.3940 H     1 <1>   0.0800 
 31 H       -1.6170    -0.2600     1.3510 H     1 <1>   0.0800 
 32 H       -5.1210     0.7160     1.7250 H     1 <1>   0.0800 
 33 H       -5.2360     2.1060     2.7860 H     1 <1>   0.0800 
 34 H       -3.5010     3.0730    -0.8620 H     1 <1>   0.0800 
 35 H       -3.8960     1.3710    -0.7560 H     1 <1>   0.0800 
 36 H       -6.6300     3.2520     1.3070 H     1 <1>   0.0800 
 37 H       -5.7160     3.7310    -0.6710 H     1 <1>   0.0800 
 38 H       -1.5970     6.9360     0.7210 H     1 <1>   0.1500 
 39 H       -8.2030     1.4580     1.2570 H     1 <1>   0.0800 
 40 H       -7.0260     0.3560     0.6310 H     1 <1>   0.0800 
 41 H       -5.9050     0.8950    -1.6390 H     1 <1>   0.0800 
 42 H       -6.3810     2.3260    -2.4880 H     1 <1>   0.0800 
 43 H        0.6160     2.7510    -1.9900 H     1 <1>   0.0800 
 44 H       -0.7420     2.6080    -0.9330 H     1 <1>   0.0800 
 45 H        0.8730     2.5700    -0.2700 H     1 <1>   0.0800 
 46 H        0.0720     8.3750    -0.3860 H     1 <1>   0.1500 
 47 H       -8.2420     0.7600    -1.3420 H     1 <1>   0.0800 
 48 H        1.8320     7.3680    -1.7490 H     1 <1>   0.1500 
 49 H        3.0250     5.5400    -2.5300 H     1 <1>   0.0800 
 50 H        1.8950     4.4060    -3.2210 H     1 <1>   0.0800 
 51 H        2.7940     3.9900    -1.7750 H     1 <1>   0.0800 
 52 H       -8.0830     3.6080    -0.6120 H     1 <1>   0.4500 
 53 H      -10.4670     1.8500    -0.6860 H     1 <1>   0.0800 
 54 H      -10.5260     3.5880    -0.4850 H     1 <1>   0.0800 
 55 H       -9.7730     2.5990     0.7370 H     1 <1>   0.0800 
 56 H       -9.3660     2.3670    -2.9760 H     1 <1>   0.0800 
 57 H       -7.9790     3.4360    -2.9880 H     1 <1>   0.0800 
 58 H       -9.5440     4.0490    -2.5220 H     1 <1>   0.0800 
@<TRIPOS>BOND
  1   1   2  2   
  2   2   3  am  
  3   2   4  1   
  4   3   5  1   
  5   3   6  1   
  6   4   7  1   
  7   4  26  1   
  8   4  27  1   
  9   5   8  1   
 10   5   9  1   
 11   5  28  1   
 12   6  29  1   
 13   6  30  1   
 14   6  31  1   
 15   7  10  1   
 16   8  11  1   
 17   8  32  1   
 18   8  33  1   
 19   9  12  1   
 20   9  34  1   
 21   9  35  1   
 22  10  13  ar  
 23  10  14  ar  
 24  11  12  1   
 25  11  15  1   
 26  11  36  1   
 27  12  16  1   
 28  12  37  1   
 29  13  17  ar  
 30  13  18  1   
 31  14  19  ar  
 32  14  38  1   
 33  15  20  1   
 34  15  39  1   
 35  15  40  1   
 36  16  20  1   
 37  16  41  1   
 38  16  42  1   
 39  17  21  ar  
 40  17  22  1   
 41  18  43  1   
 42  18  44  1   
 43  18  45  1   
 44  19  21  ar  
 45  19  46  1   
 46  20  23  1   
 47  20  47  1   
 48  21  48  1   
 49  22  49  1   
 50  22  50  1   
 51  22  51  1   
 52  23  24  1   
 53  23  25  1   
 54  23  52  1   
 55  24  53  1   
 56  24  54  1   
 57  24  55  1   
 58  25  56  1   
 59  25  57  1   
 60  25  58  1   
@<TRIPOS>SUBSTRUCTURE
  1 ****   9 GROUP 4 **** **** 0

# MOE 2024.06 (io_trps.svl 2023.06)
