@<TRIPOS>MOLECULE
NONAME
49 51 1 0 0 
SMALL
USER_CHARGES


@<TRIPOS>ATOM
  1 S       -0.7780     1.5820     1.6230 S.3   1 <1>  -0.0800 
  2 C        0.1150     1.9190     0.1470 C.2   1 <1>  -0.0450 
  3 C       -2.2590     1.3140     0.7220 C.2   1 <1>  -0.1100 
  4 C       -0.6970     1.8210    -0.9230 C.2   1 <1>  -0.1500 
  5 C        1.5930     2.2540     0.2880 C.3   1 <1>   0.0850 
  6 C       -2.0480     1.4770    -0.5970 C.2   1 <1>  -0.1500 
  7 C        1.7850     3.6190     0.9630 C.2   1 <1>   0.6300 
  8 C        2.6150     1.1520     0.3940 C.3   1 <1>  -0.1900 
  9 C        2.5000     1.9240    -0.8790 C.3   1 <1>  -0.2000 
 10 O        2.0780     3.6920     2.1350 O.2   1 <1>  -0.5700 
 11 N        1.6220     4.7340     0.2000 N.am  1 <1>  -0.7300 
 12 C        3.8850     1.3400     1.2360 C.3   1 <1>  -0.1450 
 13 C        2.1590    -0.3150     0.3980 C.3   1 <1>  -0.1450 
 14 C        1.7760     6.1230     0.6750 C.3   1 <1>   0.1400 
 15 C        2.9930     6.7430    -0.0040 C.3   1 <1>  -0.1600 
 16 C        3.2000     8.1750     0.4770 C.3   1 <1>   0.2090 
 17 N        4.3540     8.7560    -0.2380 N.pl3 1 <1>  -0.8690 
 18 C        4.6470    10.1000    -0.1640 C.ar  1 <1>   0.4100 
 19 N        3.7620    10.8930     0.4250 N.ar  1 <1>  -0.6200 
 20 C        5.8480    10.5610    -0.6960 C.ar  1 <1>  -0.1500 
 21 C        4.0840    12.1740     0.4830 C.ar  1 <1>   0.1600 
 22 C        6.1690    11.8960    -0.6270 C.ar  1 <1>  -0.1500 
 23 C        5.2530    12.7290    -0.0150 C.ar  1 <1>  -0.1430 
 24 C        5.5390    14.2170     0.0970 C.3   1 <1>  -0.0970 
 25 H       -3.1400     1.0600     1.2840 H     1 <1>   0.1500 
 26 H       -0.4040     1.9770    -1.9460 H     1 <1>   0.1500 
 27 H       -2.7930     1.3700    -1.3660 H     1 <1>   0.1500 
 28 H        3.2850     2.6140    -1.1360 H     1 <1>   0.1000 
 29 H        2.0900     1.4300    -1.7420 H     1 <1>   0.1000 
 30 H        1.3490     4.6180    -0.7750 H     1 <1>   0.3700 
 31 H        4.2580     2.3470     1.1630 H     1 <1>   0.0800 
 32 H        4.6590     0.6710     0.9040 H     1 <1>   0.0800 
 33 H        3.6710     1.1370     2.2700 H     1 <1>   0.0800 
 34 H        1.3200    -0.4680    -0.2570 H     1 <1>   0.0800 
 35 H        1.8680    -0.6040     1.3930 H     1 <1>   0.0800 
 36 H        2.9590    -0.9560     0.0730 H     1 <1>   0.0800 
 37 H        1.9070     6.1320     1.7450 H     1 <1>   0.0800 
 38 H        0.8860     6.6800     0.4380 H     1 <1>   0.0800 
 39 H        2.8440     6.7520    -1.0690 H     1 <1>   0.0800 
 40 H        3.8650     6.1610     0.2360 H     1 <1>   0.0800 
 41 H        3.3880     8.1970     1.5380 H     1 <1>   0.0800 
 42 H        2.3190     8.7620     0.2720 H     1 <1>   0.0800 
 43 H        5.1650     8.1400    -0.2860 H     1 <1>   0.4000 
 44 H        6.5150     9.8640    -1.1640 H     1 <1>   0.1500 
 45 H        3.3670    12.8220     0.9580 H     1 <1>   0.1500 
 46 H        7.0910    12.2730    -1.0330 H     1 <1>   0.1500 
 47 H        4.7390    14.7260     0.6040 H     1 <1>   0.0800 
 48 H        5.6480    14.6430    -0.8850 H     1 <1>   0.0800 
 49 H        6.4490    14.3740     0.6470 H     1 <1>   0.0800 
@<TRIPOS>BOND
  1   1   2  1   
  2   1   3  1   
  3   2   4  2   
  4   2   5  1   
  5   3   6  2   
  6   3  25  1   
  7   4   6  1   
  8   4  26  1   
  9   5   7  1   
 10   5   8  1   
 11   5   9  1   
 12   6  27  1   
 13   7  10  2   
 14   7  11  am  
 15   8   9  1   
 16   8  12  1   
 17   8  13  1   
 18   9  28  1   
 19   9  29  1   
 20  11  14  1   
 21  11  30  1   
 22  12  31  1   
 23  12  32  1   
 24  12  33  1   
 25  13  34  1   
 26  13  35  1   
 27  13  36  1   
 28  14  15  1   
 29  14  37  1   
 30  14  38  1   
 31  15  16  1   
 32  15  39  1   
 33  15  40  1   
 34  16  17  1   
 35  16  41  1   
 36  16  42  1   
 37  17  18  1   
 38  17  43  1   
 39  18  19  ar  
 40  18  20  ar  
 41  19  21  ar  
 42  20  22  ar  
 43  20  44  1   
 44  21  23  ar  
 45  21  45  1   
 46  22  23  ar  
 47  22  46  1   
 48  23  24  1   
 49  24  47  1   
 50  24  48  1   
 51  24  49  1   
@<TRIPOS>SUBSTRUCTURE
  1 ****  14 GROUP 4 **** **** 0

# MOE 2024.06 (io_trps.svl 2023.06)
