@<TRIPOS>MOLECULE
NONAME
37 38 1 0 0 
SMALL
USER_CHARGES


@<TRIPOS>ATOM
  1 F        4.0510     0.5830    -1.9030 F     1 <1>  -0.1900 
  2 C        3.4530    -0.3150    -1.1660 C.ar  1 <1>   0.1900 
  3 C        2.9270     0.0250     0.0770 C.ar  1 <1>   0.0860 
  4 C        3.3730    -1.6010    -1.6700 C.ar  1 <1>   0.1600 
  5 C        2.9610     1.3450     0.6820 C.2   1 <1>   0.5440 
  6 C        2.3370    -1.0540     0.7310 C.ar  1 <1>  -0.1500 
  7 N        2.8030    -2.6120    -1.0330 N.ar  1 <1>  -0.6200 
  8 O        2.6690     1.4640     1.8570 O.2   1 <1>  -0.5700 
  9 N        3.3100     2.4560    -0.0400 N.am  1 <1>  -0.4930 
 10 C        2.3000    -2.3120     0.1550 C.ar  1 <1>   0.1600 
 11 C        3.4280     3.8110     0.3610 C.2   1 <1>   0.0630 
 12 C        2.5800     4.5950     1.1500 C.2   1 <1>   0.1080 
 13 C        4.4280     4.6450    -0.0010 C.2   1 <1>  -0.3320 
 14 N        3.0120     5.8110     1.2730 N.2   1 <1>  -0.7070 
 15 C        1.2880     4.1510     1.7990 C.3   1 <1>  -0.0590 
 16 N        4.1550     5.8470     0.5690 N.pl3 1 <1>   0.3140 
 17 C        5.6540     4.3630    -0.8600 C.3   1 <1>  -0.0600 
 18 C        4.9530     7.0880     0.4870 C.3   1 <1>   0.0960 
 19 C        4.5500     7.9220    -0.7390 C.3   1 <1>  -0.1600 
 20 C        5.3800     9.2070    -0.8380 C.3   1 <1>  -0.2400 
 21 H        3.7970    -1.8040    -2.6380 H     1 <1>   0.1500 
 22 H        1.9000    -0.9110     1.7050 H     1 <1>   0.1500 
 23 H        3.6570     2.2820    -0.9830 H     1 <1>   0.3700 
 24 H        1.8330    -3.1170     0.7000 H     1 <1>   0.1500 
 25 H        0.8040     3.4090     1.1930 H     1 <1>   0.0800 
 26 H        0.6310     4.9920     1.9150 H     1 <1>   0.0800 
 27 H        1.5010     3.7350     2.7660 H     1 <1>   0.0800 
 28 H        5.6670     3.3380    -1.1800 H     1 <1>   0.0800 
 29 H        6.5500     4.5490    -0.2960 H     1 <1>   0.0800 
 30 H        5.6500     4.9930    -1.7310 H     1 <1>   0.0800 
 31 H        5.9930     6.8290     0.4430 H     1 <1>   0.0800 
 32 H        4.7800     7.6520     1.3860 H     1 <1>   0.0800 
 33 H        3.5070     8.1790    -0.6590 H     1 <1>   0.0800 
 34 H        4.6880     7.3400    -1.6330 H     1 <1>   0.0800 
 35 H        5.2380     9.8150     0.0380 H     1 <1>   0.0800 
 36 H        5.0740     9.7750    -1.6990 H     1 <1>   0.0800 
 37 H        6.4260     8.9760    -0.9360 H     1 <1>   0.0800 
@<TRIPOS>BOND
  1   1   2  1   
  2   2   3  ar  
  3   2   4  ar  
  4   3   5  1   
  5   3   6  ar  
  6   4   7  ar  
  7   4  21  1   
  8   5   8  2   
  9   5   9  am  
 10   6  10  ar  
 11   6  22  1   
 12   7  10  ar  
 13   9  11  1   
 14   9  23  1   
 15  10  24  1   
 16  11  12  1   
 17  11  13  2   
 18  12  14  2   
 19  12  15  1   
 20  13  16  1   
 21  13  17  1   
 22  14  16  1   
 23  15  25  1   
 24  15  26  1   
 25  15  27  1   
 26  16  18  1   
 27  17  28  1   
 28  17  29  1   
 29  17  30  1   
 30  18  19  1   
 31  18  31  1   
 32  18  32  1   
 33  19  20  1   
 34  19  33  1   
 35  19  34  1   
 36  20  35  1   
 37  20  36  1   
 38  20  37  1   
@<TRIPOS>SUBSTRUCTURE
  1 ****   9 GROUP 4 **** **** 0

# MOE 2024.06 (io_trps.svl 2023.06)
