@<TRIPOS>MOLECULE
NONAME
52 55 1 0 0 
SMALL
USER_CHARGES


@<TRIPOS>ATOM
  1 O       -0.5130    -0.6250     0.1760 O.3   1 <1>  -0.2800 
  2 C       -0.4290    -1.9490     0.1800 C.2   1 <1>   0.0870 
  3 C        0.4710    -0.1390    -0.5490 C.2   1 <1>  -0.0400 
  4 C       -1.4040    -2.7310     0.9030 C.ar  1 <1>   0.0530 
  5 C        0.6470    -2.3170    -0.5680 C.2   1 <1>  -0.1500 
  6 C        1.2290    -1.1400    -1.0410 C.2   1 <1>  -0.1500 
  7 C        0.5880     1.3610    -0.7040 C.3   1 <1>  -0.0600 
  8 C       -1.6660    -4.0560     0.5600 C.ar  1 <1>  -0.1500 
  9 C       -2.1210    -2.1870     1.9660 C.ar  1 <1>  -0.1500 
 10 C       -2.6120    -4.8090     1.2390 C.ar  1 <1>  -0.1430 
 11 C       -3.0540    -2.9310     2.6620 C.ar  1 <1>  -0.1500 
 12 C       -3.3000    -4.2420     2.3020 C.ar  1 <1>  -0.1500 
 13 C       -2.9150    -6.2340     0.8140 C.3   1 <1>   0.4860 
 14 N       -3.6490    -6.2060    -0.4850 N.4   1 <1>  -0.9590 
 15 C       -4.9140    -5.4160    -0.3750 C.3   1 <1>   0.4230 
 16 C       -3.7980    -7.5890    -1.0420 C.3   1 <1>   0.2630 
 17 C       -6.0150    -6.0780     0.4510 C.3   1 <1>  -0.1600 
 18 C       -5.5710    -5.1370    -1.7220 C.3   1 <1>  -0.1600 
 19 C       -7.2840    -5.3240     0.0380 C.3   1 <1>  -0.0800 
 20 C       -7.0070    -4.7370    -1.3590 C.3   1 <1>  -0.0800 
 21 C       -7.6080    -4.1320     0.9500 C.3   1 <1>  -0.1600 
 22 C       -7.2100    -3.2180    -1.2400 C.3   1 <1>  -0.1600 
 23 C       -8.0720    -3.0410     0.0000 C.3   1 <1>   0.2000 
 24 O       -7.8610    -1.8000     0.5570 O.3   1 <1>  -0.6800 
 25 H        1.0130    -3.3060    -0.7710 H     1 <1>   0.1500 
 26 H        2.1030    -1.0760    -1.6650 H     1 <1>   0.1500 
 27 H        1.4310     1.6070    -1.3230 H     1 <1>   0.0800 
 28 H        0.7180     1.8160     0.2610 H     1 <1>   0.0800 
 29 H       -0.3060     1.7500    -1.1560 H     1 <1>   0.0800 
 30 H       -1.1130    -4.4840    -0.2560 H     1 <1>   0.1500 
 31 H       -1.9350    -1.1650     2.2510 H     1 <1>   0.1500 
 32 H       -3.5850    -2.4840     3.4860 H     1 <1>   0.1500 
 33 H       -4.0290    -4.8050     2.8610 H     1 <1>   0.1500 
 34 H       -3.5100    -6.7230     1.5680 H     1 <1>   0.0800 
 35 H       -1.9890    -6.7760     0.7070 H     1 <1>   0.0800 
 36 H       -3.0530    -5.6630    -1.1240 H     1 <1>   0.4500 
 37 H       -4.7010    -4.4570     0.0720 H     1 <1>   0.0800 
 38 H       -4.4030    -8.1960    -0.3870 H     1 <1>   0.0800 
 39 H       -2.8330    -8.0560    -1.1470 H     1 <1>   0.0800 
 40 H       -4.2660    -7.5580    -2.0120 H     1 <1>   0.0800 
 41 H       -6.1390    -7.1090     0.1760 H     1 <1>   0.0800 
 42 H       -5.8360    -6.0060     1.5080 H     1 <1>   0.0800 
 43 H       -5.0620    -4.3610    -2.2660 H     1 <1>   0.0800 
 44 H       -5.6160    -6.0250    -2.3240 H     1 <1>   0.0800 
 45 H       -8.1330    -5.9880     0.0010 H     1 <1>   0.0800 
 46 H       -7.7080    -5.1370    -2.0750 H     1 <1>   0.0800 
 47 H       -6.7280    -3.8020     1.4740 H     1 <1>   0.0800 
 48 H       -8.3790    -4.3770     1.6600 H     1 <1>   0.0800 
 49 H       -7.7010    -2.8180    -2.1100 H     1 <1>   0.0800 
 50 H       -6.2670    -2.7190    -1.1000 H     1 <1>   0.0800 
 51 H       -9.1200    -3.1470    -0.2330 H     1 <1>   0.0800 
 52 H       -6.9120    -1.6480     0.7170 H     1 <1>   0.4000 
@<TRIPOS>BOND
  1   1   2  1   
  2   1   3  1   
  3   2   4  1   
  4   2   5  2   
  5   3   6  2   
  6   3   7  1   
  7   4   8  ar  
  8   4   9  ar  
  9   5   6  1   
 10   5  25  1   
 11   6  26  1   
 12   7  27  1   
 13   7  28  1   
 14   7  29  1   
 15   8  10  ar  
 16   8  30  1   
 17   9  11  ar  
 18   9  31  1   
 19  10  12  ar  
 20  10  13  1   
 21  11  12  ar  
 22  11  32  1   
 23  12  33  1   
 24  13  14  1   
 25  13  34  1   
 26  13  35  1   
 27  14  15  1   
 28  14  16  1   
 29  14  36  1   
 30  15  17  1   
 31  15  18  1   
 32  15  37  1   
 33  16  38  1   
 34  16  39  1   
 35  16  40  1   
 36  17  19  1   
 37  17  41  1   
 38  17  42  1   
 39  18  20  1   
 40  18  43  1   
 41  18  44  1   
 42  19  20  1   
 43  19  21  1   
 44  19  45  1   
 45  20  22  1   
 46  20  46  1   
 47  21  23  1   
 48  21  47  1   
 49  21  48  1   
 50  22  23  1   
 51  22  49  1   
 52  22  50  1   
 53  23  24  1   
 54  23  51  1   
 55  24  52  1   
@<TRIPOS>SUBSTRUCTURE
  1 ****  10 GROUP 4 **** **** 0

# MOE 2024.06 (io_trps.svl 2023.06)
