@<TRIPOS>MOLECULE
NONAME
52 54 1 0 0 
SMALL
USER_CHARGES


@<TRIPOS>ATOM
  1 O       -0.4660     0.3170    -0.6010 O.co2 1 <1>  -0.9000 
  2 C       -0.7450     1.2950     0.0840 C.2   1 <1>   0.9060 
  3 O       -0.8820     1.2630     1.3120 O.co2 1 <1>  -0.9000 
  4 C       -0.8050     2.6290    -0.5880 C.3   1 <1>  -0.1860 
  5 C       -2.0270     3.4460    -0.1670 C.3   1 <1>   0.2000 
  6 C        0.5070     3.3030    -0.2270 C.3   1 <1>   0.3430 
  7 O       -1.9870     3.6220     1.2010 O.3   1 <1>  -0.6800 
  8 C       -2.0130     4.8330    -0.8240 C.3   1 <1>  -0.1600 
  9 N        0.4700     4.7940    -0.4040 N.4   1 <1>  -0.9590 
 10 C       -0.6200     5.2700    -1.3070 C.3   1 <1>   0.3430 
 11 C        0.4180     5.4580     0.9260 C.3   1 <1>   0.4860 
 12 C        0.6810     6.9420     0.7460 C.ar  1 <1>  -0.1440 
 13 C        1.8880     7.3920     0.2170 C.ar  1 <1>   0.0820 
 14 C       -0.2940     7.8550     1.1140 C.ar  1 <1>  -0.1500 
 15 O        2.8030     6.4490    -0.1370 O.3   1 <1>  -0.3620 
 16 C        2.1110     8.7580     0.0640 C.ar  1 <1>  -0.1500 
 17 C       -0.0680     9.2100     0.9590 C.ar  1 <1>  -0.1500 
 18 C        4.1410     6.7970    -0.4340 C.3   1 <1>   0.0400 
 19 C        1.1290     9.6690     0.4370 C.ar  1 <1>   0.0820 
 20 O        1.2570    11.0140     0.3250 O.3   1 <1>  -0.3620 
 21 C        2.4530    11.6170    -0.1200 C.3   1 <1>   0.2640 
 22 C        2.3010    13.1290    -0.0580 C.ar  1 <1>  -0.1440 
 23 C        2.0870    13.7560     1.1600 C.ar  1 <1>  -0.1500 
 24 C        2.3820    13.8960    -1.2110 C.ar  1 <1>  -0.1500 
 25 C        1.9600    15.1330     1.2270 C.ar  1 <1>  -0.1500 
 26 C        2.2540    15.2730    -1.1460 C.ar  1 <1>  -0.1500 
 27 C        2.0440    15.8920     0.0740 C.ar  1 <1>  -0.1500 
 28 H       -0.8390     2.4530    -1.6460 H     1 <1>   0.0800 
 29 H       -2.9370     2.9160    -0.3950 H     1 <1>   0.0800 
 30 H        1.2880     2.8730    -0.8330 H     1 <1>   0.0800 
 31 H        0.7340     3.0690     0.8030 H     1 <1>   0.0800 
 32 H       -1.7380     2.7280     1.5900 H     1 <1>   0.4000 
 33 H       -2.6530     4.8040    -1.6860 H     1 <1>   0.0800 
 34 H       -2.4250     5.5670    -0.1560 H     1 <1>   0.0800 
 35 H        1.3770     5.1050    -0.7830 H     1 <1>   0.4500 
 36 H       -0.5880     6.3430    -1.3990 H     1 <1>   0.0800 
 37 H       -0.4550     4.8510    -2.2870 H     1 <1>   0.0800 
 38 H       -0.5430     5.3090     1.3880 H     1 <1>   0.0800 
 39 H        1.1720     5.0410     1.5730 H     1 <1>   0.0800 
 40 H       -1.2320     7.5230     1.5280 H     1 <1>   0.1500 
 41 H        3.0360     9.1100    -0.3460 H     1 <1>   0.1500 
 42 H       -0.8200     9.9260     1.2440 H     1 <1>   0.1500 
 43 H        4.7030     5.8900    -0.5730 H     1 <1>   0.0800 
 44 H        4.5500     7.3540     0.3910 H     1 <1>   0.0800 
 45 H        4.1620     7.3780    -1.3390 H     1 <1>   0.0800 
 46 H        3.2540    11.3020     0.5250 H     1 <1>   0.0800 
 47 H        2.6400    11.2930    -1.1280 H     1 <1>   0.0800 
 48 H        2.0140    13.1710     2.0600 H     1 <1>   0.1500 
 49 H        2.5420    13.4290    -2.1670 H     1 <1>   0.1500 
 50 H        1.7930    15.6110     2.1760 H     1 <1>   0.1500 
 51 H        2.3170    15.8630    -2.0430 H     1 <1>   0.1500 
 52 H        1.9450    16.9620     0.1250 H     1 <1>   0.1500 
@<TRIPOS>BOND
  1   1   2  ar  
  2   2   3  ar  
  3   2   4  1   
  4   4   5  1   
  5   4   6  1   
  6   4  28  1   
  7   5   7  1   
  8   5   8  1   
  9   5  29  1   
 10   6   9  1   
 11   6  30  1   
 12   6  31  1   
 13   7  32  1   
 14   8  10  1   
 15   8  33  1   
 16   8  34  1   
 17   9  10  1   
 18   9  11  1   
 19   9  35  1   
 20  10  36  1   
 21  10  37  1   
 22  11  12  1   
 23  11  38  1   
 24  11  39  1   
 25  12  13  ar  
 26  12  14  ar  
 27  13  15  1   
 28  13  16  ar  
 29  14  17  ar  
 30  14  40  1   
 31  15  18  1   
 32  16  19  ar  
 33  16  41  1   
 34  17  19  ar  
 35  17  42  1   
 36  18  43  1   
 37  18  44  1   
 38  18  45  1   
 39  19  20  1   
 40  20  21  1   
 41  21  22  1   
 42  21  46  1   
 43  21  47  1   
 44  22  23  ar  
 45  22  24  ar  
 46  23  25  ar  
 47  23  48  1   
 48  24  26  ar  
 49  24  49  1   
 50  25  27  ar  
 51  25  50  1   
 52  26  27  ar  
 53  26  51  1   
 54  27  52  1   
@<TRIPOS>SUBSTRUCTURE
  1 ****  12 GROUP 4 **** **** 0

# MOE 2024.06 (io_trps.svl 2023.06)
