@<TRIPOS>MOLECULE
NONAME
47 49 1 0 0 
SMALL
USER_CHARGES


@<TRIPOS>ATOM
  1 O       -1.9560     1.1860    -2.9870 O.2   1 <1>  -0.5700 
  2 C       -1.9120     1.4040    -1.7910 C.2   1 <1>   0.5440 
  3 N       -2.3820     0.4370    -0.9570 N.am  1 <1>  -0.7300 
  4 C       -1.3690     2.6520    -1.2750 C.ar  1 <1>   0.0860 
  5 C       -2.7240    -0.9470    -1.3440 C.3   1 <1>   0.2200 
  6 C       -0.8670     2.8060     0.0290 C.ar  1 <1>   0.0820 
  7 C       -1.3260     3.7720    -2.1110 C.ar  1 <1>  -0.1500 
  8 C       -3.7810    -1.4780    -0.3930 C.3   1 <1>  -0.0800 
  9 C       -1.5400    -1.8660    -1.0510 C.3   1 <1>   0.1200 
 10 O       -0.8760     1.7550     0.8870 O.3   1 <1>  -0.3630 
 11 C       -0.3700     4.0370     0.4720 C.ar  1 <1>   0.0820 
 12 C       -0.8270     4.9850    -1.6840 C.ar  1 <1>  -0.1500 
 13 C       -2.9270    -1.9400     0.7910 C.3   1 <1>   0.1200 
 14 C       -4.5780    -2.6360    -1.0240 C.3   1 <1>  -0.0160 
 15 O       -1.6810    -2.3020     0.2720 O.3   1 <1>  -0.5600 
 16 C        0.3500     1.0900     1.0980 C.3   1 <1>   0.0400 
 17 O        0.0790     4.1260     1.7580 O.3   1 <1>  -0.3630 
 18 C       -0.3500     5.1230    -0.3940 C.ar  1 <1>  -0.1500 
 19 C       -5.6510    -3.1510    -0.0780 C.ar  1 <1>  -0.1430 
 20 C        0.4380     5.3620     2.3360 C.3   1 <1>   0.0400 
 21 C       -5.5180    -4.3440     0.6020 C.ar  1 <1>  -0.1500 
 22 C       -6.8170    -2.4470     0.1480 C.ar  1 <1>  -0.1500 
 23 C       -6.5260    -4.7620     1.4550 C.ar  1 <1>   0.1600 
 24 C       -7.7640    -2.9540     1.0220 C.ar  1 <1>   0.1600 
 25 N       -7.6460    -4.0940     1.6830 N.ar  1 <1>  -0.6200 
 26 H       -2.1690     0.5670     0.0390 H     1 <1>   0.3700 
 27 H       -3.0220    -0.9820    -2.3790 H     1 <1>   0.0800 
 28 H       -1.6960     3.6820    -3.1190 H     1 <1>   0.1500 
 29 H       -4.4660    -0.7030    -0.0980 H     1 <1>   0.0800 
 30 H       -0.5950    -1.3660    -1.1690 H     1 <1>   0.0800 
 31 H       -1.5710    -2.7350    -1.6840 H     1 <1>   0.0800 
 32 H       -0.8100     5.8260    -2.3570 H     1 <1>   0.1500 
 33 H       -3.3470    -2.7770     1.3200 H     1 <1>   0.0800 
 34 H       -2.7660    -1.1290     1.4800 H     1 <1>   0.0800 
 35 H       -3.9160    -3.4410    -1.2920 H     1 <1>   0.0800 
 36 H       -5.0520    -2.2920    -1.9270 H     1 <1>   0.0800 
 37 H        0.1690     0.2400     1.7310 H     1 <1>   0.0800 
 38 H        1.0390     1.7640     1.5760 H     1 <1>   0.0800 
 39 H        0.7400     0.7650     0.1490 H     1 <1>   0.0800 
 40 H        0.0320     6.0800    -0.0910 H     1 <1>   0.1500 
 41 H        0.6880     5.1860     3.3670 H     1 <1>   0.0800 
 42 H       -0.3990     6.0340     2.2730 H     1 <1>   0.0800 
 43 H        1.2930     5.7560     1.8160 H     1 <1>   0.0800 
 44 H       -4.6410    -4.9530     0.4790 H     1 <1>   0.1500 
 45 H       -6.9980    -1.5100    -0.3470 H     1 <1>   0.1500 
 46 H       -6.4050    -5.6950     1.9780 H     1 <1>   0.1500 
 47 H       -8.6670    -2.3910     1.1870 H     1 <1>   0.1500 
@<TRIPOS>BOND
  1   1   2  2   
  2   2   3  am  
  3   2   4  1   
  4   3   5  1   
  5   3  26  1   
  6   4   6  ar  
  7   4   7  ar  
  8   5   8  1   
  9   5   9  1   
 10   5  27  1   
 11   6  10  1   
 12   6  11  ar  
 13   7  12  ar  
 14   7  28  1   
 15   8  13  1   
 16   8  14  1   
 17   8  29  1   
 18   9  15  1   
 19   9  30  1   
 20   9  31  1   
 21  10  16  1   
 22  11  17  1   
 23  11  18  ar  
 24  12  18  ar  
 25  12  32  1   
 26  13  15  1   
 27  13  33  1   
 28  13  34  1   
 29  14  19  1   
 30  14  35  1   
 31  14  36  1   
 32  16  37  1   
 33  16  38  1   
 34  16  39  1   
 35  17  20  1   
 36  18  40  1   
 37  19  21  ar  
 38  19  22  ar  
 39  20  41  1   
 40  20  42  1   
 41  20  43  1   
 42  21  23  ar  
 43  21  44  1   
 44  22  24  ar  
 45  22  45  1   
 46  23  25  ar  
 47  23  46  1   
 48  24  25  ar  
 49  24  47  1   
@<TRIPOS>SUBSTRUCTURE
  1 ****   3 GROUP 4 **** **** 0

# MOE 2024.06 (io_trps.svl 2023.06)
