@<TRIPOS>MOLECULE
NONAME
54 57 1 0 0 
SMALL
USER_CHARGES


@<TRIPOS>ATOM
  1 O        3.8430    -2.5040    -1.0490 O.2   1 <1>  -0.5700 
  2 C        2.6530    -2.5420    -0.7790 C.2   1 <1>   0.5440 
  3 N        1.7880    -1.9800    -1.7030 N.am  1 <1>  -0.6600 
  4 C        2.2340    -3.1470     0.4900 C.ar  1 <1>   0.3960 
  5 C        0.3270    -1.7980    -1.5450 C.3   1 <1>   0.1400 
  6 C        2.2510    -1.4200    -2.9920 C.3   1 <1>   0.1400 
  7 N        1.0020    -3.6610     0.6450 N.ar  1 <1>  -0.6200 
  8 C        3.1640    -3.1760     1.5360 C.ar  1 <1>   0.1600 
  9 C       -0.0720    -0.8490    -2.6690 C.3   1 <1>  -0.1600 
 10 C        0.9760    -1.0790    -3.7540 C.3   1 <1>  -0.1600 
 11 C        0.7730    -4.1720     1.8430 C.ar  1 <1>   0.4100 
 12 N        2.9580    -3.6810     2.7450 N.ar  1 <1>  -0.6200 
 13 N       -0.4910    -4.6990     2.0600 N.pl3 1 <1>  -0.8380 
 14 C        1.7440    -4.1790     2.8560 C.ar  1 <1>   0.1600 
 15 C       -1.2360    -5.2880     0.9050 C.3   1 <1>   0.2090 
 16 C       -1.3590    -4.0330     3.0660 C.3   1 <1>   0.2090 
 17 C       -2.2870    -6.2930     1.3930 C.3   1 <1>   0.1000 
 18 C       -2.3880    -5.0390     3.5950 C.3   1 <1>  -0.1600 
 19 C       -3.0800    -6.8200     0.2100 C.2   1 <1>   0.2980 
 20 C       -3.2100    -5.6640     2.4560 C.3   1 <1>  -0.1600 
 21 O       -3.7670    -5.9760    -0.5210 O.3   1 <1>  -0.0190 
 22 N       -3.1420    -8.0370    -0.1590 N.2   1 <1>  -0.5650 
 23 N       -4.3080    -6.7200    -1.4350 N.2   1 <1>  -0.4100 
 24 C       -3.9360    -7.9170    -1.2130 C.2   1 <1>   0.3350 
 25 C       -4.3340    -9.1190    -2.0430 C.3   1 <1>   0.0210 
 26 C       -5.1960   -10.0710    -1.2190 C.3   1 <1>   0.1200 
 27 O       -5.5620   -11.1430    -2.0280 O.3   1 <1>  -0.5600 
 28 C       -6.3510   -12.0900    -1.3840 C.3   1 <1>   0.0400 
 29 H        0.0870    -1.3890    -0.5780 H     1 <1>   0.0800 
 30 H       -0.1600    -2.7510    -1.6680 H     1 <1>   0.0800 
 31 H        2.8550    -2.1360    -3.5240 H     1 <1>   0.0800 
 32 H        2.8290    -0.5330    -2.8000 H     1 <1>   0.0800 
 33 H        4.1370    -2.7530     1.3570 H     1 <1>   0.1500 
 34 H       -0.0100     0.1630    -2.3100 H     1 <1>   0.0800 
 35 H       -1.0720    -1.0390    -3.0160 H     1 <1>   0.0800 
 36 H        0.6960    -1.9240    -4.3590 H     1 <1>   0.0800 
 37 H        1.1070    -0.2210    -4.3890 H     1 <1>   0.0800 
 38 H        1.4740    -4.6300     3.7920 H     1 <1>   0.1500 
 39 H       -0.5450    -5.7880     0.2460 H     1 <1>   0.0800 
 40 H       -1.7100    -4.4940     0.3530 H     1 <1>   0.0800 
 41 H       -1.8630    -3.2010     2.6030 H     1 <1>   0.0800 
 42 H       -0.7660    -3.6560     3.8820 H     1 <1>   0.0800 
 43 H       -1.7640    -7.1220     1.8360 H     1 <1>   0.0800 
 44 H       -3.0460    -4.5410     4.2850 H     1 <1>   0.0800 
 45 H       -1.8690    -5.8100     4.1380 H     1 <1>   0.0800 
 46 H       -3.8680    -6.4180     2.8530 H     1 <1>   0.0800 
 47 H       -3.8160    -4.9000     2.0000 H     1 <1>   0.0800 
 48 H       -3.4460    -9.6270    -2.3690 H     1 <1>   0.0800 
 49 H       -4.8870    -8.7890    -2.9030 H     1 <1>   0.0800 
 50 H       -6.0870    -9.5700    -0.8790 H     1 <1>   0.0800 
 51 H       -4.6400   -10.4450    -0.3750 H     1 <1>   0.0800 
 52 H       -6.5790   -12.8700    -2.0900 H     1 <1>   0.0800 
 53 H       -7.2630   -11.6270    -1.0500 H     1 <1>   0.0800 
 54 H       -5.8060   -12.5020    -0.5520 H     1 <1>   0.0800 
@<TRIPOS>BOND
  1   1   2  2   
  2   2   3  am  
  3   2   4  1   
  4   3   5  1   
  5   3   6  1   
  6   4   7  ar  
  7   4   8  ar  
  8   5   9  1   
  9   5  29  1   
 10   5  30  1   
 11   6  10  1   
 12   6  31  1   
 13   6  32  1   
 14   7  11  ar  
 15   8  12  ar  
 16   8  33  1   
 17   9  10  1   
 18   9  34  1   
 19   9  35  1   
 20  10  36  1   
 21  10  37  1   
 22  11  13  1   
 23  11  14  ar  
 24  12  14  ar  
 25  13  15  1   
 26  13  16  1   
 27  14  38  1   
 28  15  17  1   
 29  15  39  1   
 30  15  40  1   
 31  16  18  1   
 32  16  41  1   
 33  16  42  1   
 34  17  19  1   
 35  17  20  1   
 36  17  43  1   
 37  18  20  1   
 38  18  44  1   
 39  18  45  1   
 40  19  21  1   
 41  19  22  2   
 42  20  46  1   
 43  20  47  1   
 44  21  23  1   
 45  22  24  1   
 46  23  24  2   
 47  24  25  1   
 48  25  26  1   
 49  25  48  1   
 50  25  49  1   
 51  26  27  1   
 52  26  50  1   
 53  26  51  1   
 54  27  28  1   
 55  28  52  1   
 56  28  53  1   
 57  28  54  1   
@<TRIPOS>SUBSTRUCTURE
  1 ****  15 GROUP 4 **** **** 0

# MOE 2024.06 (io_trps.svl 2023.06)
