@<TRIPOS>MOLECULE
NONAME
42 44 1 0 0 
SMALL
USER_CHARGES


@<TRIPOS>ATOM
  1 O        0.4090    -0.6910     1.8070 O.2   1 <1>  -0.5700 
  2 C        0.1280    -1.6930     1.1890 C.2   1 <1>   0.5690 
  3 N        1.0820    -2.4150     0.5080 N.am  1 <1>  -0.6600 
  4 C       -1.3450    -2.1260     1.1730 C.3   1 <1>   0.2010 
  5 C        0.7440    -3.6510    -0.2560 C.3   1 <1>   0.1400 
  6 C        2.5300    -2.0700     0.5640 C.3   1 <1>   0.0600 
  7 N       -1.6200    -3.4330     0.4680 N.am  1 <1>  -0.6600 
  8 C       -0.7260    -3.6650    -0.7020 C.3   1 <1>   0.1400 
  9 C       -2.4860    -4.3580     1.0060 C.2   1 <1>   0.5690 
 10 O       -3.0720    -4.1160     2.0390 O.2   1 <1>  -0.5700 
 11 C       -2.7340    -5.7110     0.3120 C.3   1 <1>   0.2610 
 12 O       -1.5660    -6.5210     0.3730 O.3   1 <1>  -0.5600 
 13 C       -3.9760    -6.4470     0.8910 C.3   1 <1>   0.3640 
 14 C       -1.6530    -7.7490    -0.3180 C.3   1 <1>   0.1810 
 15 N       -3.9750    -7.8920     0.5570 N.am  1 <1>  -0.7300 
 16 C       -5.2660    -5.8310     0.3510 C.ar  1 <1>  -0.1440 
 17 C       -2.9230    -8.5370     0.0090 C.2   1 <1>   0.5690 
 18 C       -5.7260    -6.1190    -0.9280 C.ar  1 <1>  -0.1500 
 19 C       -5.9950    -4.9560     1.1440 C.ar  1 <1>  -0.1500 
 20 O       -2.9880    -9.7110    -0.2510 O.2   1 <1>  -0.5700 
 21 C       -6.8920    -5.5450    -1.4030 C.ar  1 <1>  -0.1500 
 22 C       -7.1610    -4.3800     0.6700 C.ar  1 <1>  -0.1500 
 23 C       -7.6110    -4.6740    -0.6040 C.ar  1 <1>  -0.1500 
 24 H       -1.9120    -1.3510     0.6920 H     1 <1>   0.0800 
 25 H       -1.6740    -2.1790     2.1950 H     1 <1>   0.0800 
 26 H        1.3720    -3.7170    -1.1260 H     1 <1>   0.0800 
 27 H        0.9350    -4.5100     0.3630 H     1 <1>   0.0800 
 28 H        2.8930    -1.8560    -0.4260 H     1 <1>   0.0800 
 29 H        3.0850    -2.8930     0.9780 H     1 <1>   0.0800 
 30 H        2.6930    -1.2030     1.1820 H     1 <1>   0.0800 
 31 H       -0.9370    -4.6030    -1.1800 H     1 <1>   0.0800 
 32 H       -0.8840    -2.8860    -1.4270 H     1 <1>   0.0800 
 33 H       -2.9270    -5.5090    -0.7250 H     1 <1>   0.0800 
 34 H       -3.9650    -6.3660     1.9640 H     1 <1>   0.0800 
 35 H       -1.6210    -7.5490    -1.3730 H     1 <1>   0.0800 
 36 H       -0.7940    -8.3370    -0.0500 H     1 <1>   0.0800 
 37 H       -4.8270    -8.4170     0.7600 H     1 <1>   0.3700 
 38 H       -5.1830    -6.7970    -1.5650 H     1 <1>   0.1500 
 39 H       -5.6570    -4.7110     2.1380 H     1 <1>   0.1500 
 40 H       -7.2430    -5.7760    -2.3940 H     1 <1>   0.1500 
 41 H       -7.7170    -3.7020     1.2940 H     1 <1>   0.1500 
 42 H       -8.5180    -4.2270    -0.9720 H     1 <1>   0.1500 
@<TRIPOS>BOND
  1   1   2  2   
  2   2   3  am  
  3   2   4  1   
  4   3   5  1   
  5   3   6  1   
  6   4   7  1   
  7   4  24  1   
  8   4  25  1   
  9   5   8  1   
 10   5  26  1   
 11   5  27  1   
 12   6  28  1   
 13   6  29  1   
 14   6  30  1   
 15   7   8  1   
 16   7   9  am  
 17   8  31  1   
 18   8  32  1   
 19   9  10  2   
 20   9  11  1   
 21  11  12  1   
 22  11  13  1   
 23  11  33  1   
 24  12  14  1   
 25  13  15  1   
 26  13  16  1   
 27  13  34  1   
 28  14  17  1   
 29  14  35  1   
 30  14  36  1   
 31  15  17  am  
 32  15  37  1   
 33  16  18  ar  
 34  16  19  ar  
 35  17  20  2   
 36  18  21  ar  
 37  18  38  1   
 38  19  22  ar  
 39  19  39  1   
 40  21  23  ar  
 41  21  40  1   
 42  22  23  ar  
 43  22  41  1   
 44  23  42  1   
@<TRIPOS>SUBSTRUCTURE
  1 ****  11 GROUP 4 **** **** 0

# MOE 2024.06 (io_trps.svl 2023.06)
