@<TRIPOS>MOLECULE
NONAME
56 59 1 0 0 
SMALL
USER_CHARGES


@<TRIPOS>ATOM
  1 O        2.1580    -0.9910     2.4910 O.2   1 <1>  -0.5700 
  2 C        2.1690    -1.1860     1.2900 C.2   1 <1>   0.5440 
  3 N        2.4220    -0.1160     0.4450 N.am  1 <1>  -0.6600 
  4 C        1.9210    -2.5240     0.7880 C.ar  1 <1>   0.0860 
  5 C        2.7580     1.2210     1.0370 C.3   1 <1>   0.1400 
  6 C        2.6430    -0.3070    -1.0240 C.3   1 <1>   0.1400 
  7 C        0.6310    -2.9880     0.5020 C.ar  1 <1>  -0.1440 
  8 C        3.0010    -3.3770     0.5640 C.ar  1 <1>  -0.1500 
  9 C        4.2740     1.5490     1.0290 C.3   1 <1>   0.4230 
 10 C        4.0080     0.2000    -1.5400 C.3   1 <1>  -0.0800 
 11 C        0.4610    -4.2650    -0.0170 C.ar  1 <1>  -0.1500 
 12 C       -0.5630    -2.0680     0.7860 C.3   1 <1>   0.1270 
 13 C        2.8220    -4.6460     0.0500 C.ar  1 <1>  -0.1500 
 14 N        4.7290     2.2450    -0.2310 N.4   1 <1>  -0.9590 
 15 C        5.2000     0.3390     1.3320 C.3   1 <1>   0.1200 
 16 C        5.2520    -0.5110    -0.9600 C.3   1 <1>   0.1200 
 17 C        4.1000     1.7270    -1.4820 C.3   1 <1>   0.3430 
 18 C        1.5480    -5.0890    -0.2450 C.ar  1 <1>  -0.1500 
 19 C       -1.9200    -2.6510     0.4060 C.ar  1 <1>  -0.1430 
 20 C        4.5610     3.7280    -0.1320 C.3   1 <1>   0.2630 
 21 O        5.1600    -0.7250     0.4130 O.3   1 <1>  -0.5600 
 22 C       -2.6570    -3.3670     1.3350 C.ar  1 <1>  -0.1500 
 23 C       -2.4290    -2.4770    -0.8710 C.ar  1 <1>  -0.1500 
 24 C       -3.8880    -3.9000     0.9930 C.ar  1 <1>  -0.1500 
 25 C       -3.6600    -3.0090    -1.2130 C.ar  1 <1>  -0.1500 
 26 C       -4.3970    -3.7230    -0.2830 C.ar  1 <1>  -0.1430 
 27 C       -5.7460    -4.3080    -0.6590 C.3   1 <1>  -0.0970 
 28 H        2.2040     1.9880     0.5270 H     1 <1>   0.0800 
 29 H        2.4280     1.2520     2.0610 H     1 <1>   0.0800 
 30 H        2.5610    -1.3490    -1.2800 H     1 <1>   0.0800 
 31 H        1.8510     0.1990    -1.5490 H     1 <1>   0.0800 
 32 H        3.9930    -3.0330     0.8020 H     1 <1>   0.1500 
 33 H        4.4280     2.2400     1.8400 H     1 <1>   0.0800 
 34 H        4.0080    -0.0310    -2.5900 H     1 <1>   0.0800 
 35 H       -0.5200    -4.6450    -0.2480 H     1 <1>   0.1500 
 36 H       -0.5720    -1.8310     1.8360 H     1 <1>   0.0800 
 37 H       -0.4300    -1.1430     0.2550 H     1 <1>   0.0800 
 38 H        3.6700    -5.2880    -0.1170 H     1 <1>   0.1500 
 39 H        5.7360     2.0400    -0.3010 H     1 <1>   0.4500 
 40 H        4.9170    -0.0770     2.2840 H     1 <1>   0.0800 
 41 H        6.2220     0.6640     1.4130 H     1 <1>   0.0800 
 42 H        6.1640     0.0200    -1.1720 H     1 <1>   0.0800 
 43 H        5.3300    -1.4890    -1.4060 H     1 <1>   0.0800 
 44 H        3.1080     2.1350    -1.5870 H     1 <1>   0.0800 
 45 H        4.6800     2.0680    -2.3250 H     1 <1>   0.0800 
 46 H        1.3990    -6.0770    -0.6460 H     1 <1>   0.1500 
 47 H        3.5170     3.9830    -0.0480 H     1 <1>   0.0800 
 48 H        4.9630     4.2110    -1.0080 H     1 <1>   0.0800 
 49 H        5.0790     4.1080     0.7340 H     1 <1>   0.0800 
 50 H       -2.2750    -3.5170     2.3300 H     1 <1>   0.1500 
 51 H       -1.8690    -1.9280    -1.6080 H     1 <1>   0.1500 
 52 H       -4.4470    -4.4540     1.7260 H     1 <1>   0.1500 
 53 H       -4.0410    -2.8670    -2.2090 H     1 <1>   0.1500 
 54 H       -6.3890    -4.3540     0.2020 H     1 <1>   0.0800 
 55 H       -5.6150    -5.3010    -1.0490 H     1 <1>   0.0800 
 56 H       -6.2250    -3.7010    -1.4060 H     1 <1>   0.0800 
@<TRIPOS>BOND
  1   1   2  2   
  2   2   3  am  
  3   2   4  1   
  4   3   5  1   
  5   3   6  1   
  6   4   7  ar  
  7   4   8  ar  
  8   5   9  1   
  9   5  28  1   
 10   5  29  1   
 11   6  10  1   
 12   6  30  1   
 13   6  31  1   
 14   7  11  ar  
 15   7  12  1   
 16   8  13  ar  
 17   8  32  1   
 18   9  14  1   
 19   9  15  1   
 20   9  33  1   
 21  10  16  1   
 22  10  17  1   
 23  10  34  1   
 24  11  18  ar  
 25  11  35  1   
 26  12  19  1   
 27  12  36  1   
 28  12  37  1   
 29  13  18  ar  
 30  13  38  1   
 31  14  17  1   
 32  14  20  1   
 33  14  39  1   
 34  15  21  1   
 35  15  40  1   
 36  15  41  1   
 37  16  21  1   
 38  16  42  1   
 39  16  43  1   
 40  17  44  1   
 41  17  45  1   
 42  18  46  1   
 43  19  22  ar  
 44  19  23  ar  
 45  20  47  1   
 46  20  48  1   
 47  20  49  1   
 48  22  24  ar  
 49  22  50  1   
 50  23  25  ar  
 51  23  51  1   
 52  24  26  ar  
 53  24  52  1   
 54  25  26  ar  
 55  25  53  1   
 56  26  27  1   
 57  27  54  1   
 58  27  55  1   
 59  27  56  1   
@<TRIPOS>SUBSTRUCTURE
  1 ****   4 GROUP 4 **** **** 0

# MOE 2024.06 (io_trps.svl 2023.06)
