@<TRIPOS>MOLECULE
NONAME
48 50 1 0 0 
SMALL
USER_CHARGES


@<TRIPOS>ATOM
  1 S       -2.7320    -3.5030     3.0700 S.3   1 <1>  -0.0800 
  2 C       -3.1920    -3.8880     1.4220 C.2   1 <1>  -0.1100 
  3 C       -2.5350    -1.8080     2.6630 C.2   1 <1>  -0.1100 
  4 C       -3.1940    -2.7810     0.6540 C.2   1 <1>  -0.1810 
  5 C       -2.8120    -1.5930     1.3640 C.2   1 <1>  -0.1500 
  6 C       -3.5690    -2.7530    -0.8120 C.3   1 <1>   0.5240 
  7 N       -5.0390    -2.8860    -0.8870 N.4   1 <1>  -0.9590 
  8 C       -5.5410    -3.3500    -2.2140 C.3   1 <1>   0.3430 
  9 C       -5.8030    -1.7440    -0.3130 C.3   1 <1>   0.3430 
 10 C       -6.9270    -4.0200    -2.0830 C.3   1 <1>   0.1400 
 11 C       -6.8670    -2.2520     0.6700 C.3   1 <1>  -0.1600 
 12 N       -7.3110    -4.2830    -0.6570 N.am  1 <1>  -0.6600 
 13 C       -7.9500    -3.1520     0.0570 C.3   1 <1>   0.1400 
 14 C       -6.7950    -5.3570     0.0310 C.2   1 <1>   0.5440 
 15 O       -5.6360    -5.6400    -0.2200 O.2   1 <1>  -0.5700 
 16 C       -7.5050    -6.0370     1.0920 C.ar  1 <1>   0.0860 
 17 C       -8.8580    -6.3940     0.9870 C.ar  1 <1>   0.3930 
 18 C       -6.8530    -6.3630     2.2750 C.ar  1 <1>  -0.1500 
 19 O       -9.4980    -6.1230    -0.1680 O.3   1 <1>  -0.3630 
 20 N       -9.5630    -6.9900     1.9480 N.ar  1 <1>  -0.6200 
 21 C       -7.5710    -6.9890     3.2680 C.ar  1 <1>  -0.1500 
 22 C      -10.8460    -6.4850    -0.3840 C.3   1 <1>   0.1200 
 23 C       -8.9080    -7.2740     3.0580 C.ar  1 <1>   0.1600 
 24 C      -11.2410    -6.0200    -1.7820 C.3   1 <1>  -0.2400 
 25 H       -3.4190    -4.9200     1.2090 H     1 <1>   0.1500 
 26 H       -2.2220    -1.1460     3.4530 H     1 <1>   0.1500 
 27 H       -2.7520    -0.6320     0.8810 H     1 <1>   0.1500 
 28 H       -3.1010    -3.5880    -1.3080 H     1 <1>   0.0800 
 29 H       -3.2380    -1.8380    -1.2760 H     1 <1>   0.0800 
 30 H       -5.2540    -3.7030    -0.2810 H     1 <1>   0.4500 
 31 H       -4.8610    -4.0870    -2.6100 H     1 <1>   0.0800 
 32 H       -5.5870    -2.5330    -2.9150 H     1 <1>   0.0800 
 33 H       -6.2690    -1.1740    -1.1000 H     1 <1>   0.0800 
 34 H       -5.1330    -1.0890     0.2210 H     1 <1>   0.0800 
 35 H       -6.9120    -4.9550    -2.6190 H     1 <1>   0.0800 
 36 H       -7.6740    -3.4030    -2.5510 H     1 <1>   0.0800 
 37 H       -7.3560    -1.3970     1.1030 H     1 <1>   0.0800 
 38 H       -6.3840    -2.7700     1.4800 H     1 <1>   0.0800 
 39 H       -8.5650    -2.5910    -0.6270 H     1 <1>   0.0800 
 40 H       -8.5940    -3.5290     0.8350 H     1 <1>   0.0800 
 41 H       -5.8100    -6.1320     2.4090 H     1 <1>   0.1500 
 42 H       -7.1040    -7.2580     4.1990 H     1 <1>   0.1500 
 43 H      -11.4530    -6.0080     0.3670 H     1 <1>   0.0800 
 44 H      -10.9300    -7.5550    -0.2940 H     1 <1>   0.0800 
 45 H       -9.4630    -7.7620     3.8420 H     1 <1>   0.1500 
 46 H      -11.1420    -4.9530    -1.8610 H     1 <1>   0.0800 
 47 H      -12.2660    -6.2840    -1.9740 H     1 <1>   0.0800 
 48 H      -10.6220    -6.4990    -2.5190 H     1 <1>   0.0800 
@<TRIPOS>BOND
  1   1   2  1   
  2   1   3  1   
  3   2   4  2   
  4   2  25  1   
  5   3   5  2   
  6   3  26  1   
  7   4   5  1   
  8   4   6  1   
  9   5  27  1   
 10   6   7  1   
 11   6  28  1   
 12   6  29  1   
 13   7   8  1   
 14   7   9  1   
 15   7  30  1   
 16   8  10  1   
 17   8  31  1   
 18   8  32  1   
 19   9  11  1   
 20   9  33  1   
 21   9  34  1   
 22  10  12  1   
 23  10  35  1   
 24  10  36  1   
 25  11  13  1   
 26  11  37  1   
 27  11  38  1   
 28  12  13  1   
 29  12  14  am  
 30  13  39  1   
 31  13  40  1   
 32  14  15  2   
 33  14  16  1   
 34  16  17  ar  
 35  16  18  ar  
 36  17  19  1   
 37  17  20  ar  
 38  18  21  ar  
 39  18  41  1   
 40  19  22  1   
 41  20  23  ar  
 42  21  23  ar  
 43  21  42  1   
 44  22  24  1   
 45  22  43  1   
 46  22  44  1   
 47  23  45  1   
 48  24  46  1   
 49  24  47  1   
 50  24  48  1   
@<TRIPOS>SUBSTRUCTURE
  1 ****  14 GROUP 4 **** **** 0

# MOE 2024.06 (io_trps.svl 2023.06)
