@<TRIPOS>MOLECULE
NONAME
55 59 1 0 0 
SMALL
USER_CHARGES


@<TRIPOS>ATOM
  1 O        0.5540     1.8720    -1.1640 O.2   1 <1>  -0.5700 
  2 C       -0.3750     2.3580    -0.5590 C.2   1 <1>   0.5690 
  3 N       -1.6540     2.2840    -1.0580 N.am  1 <1>  -0.6600 
  4 C       -0.0830     3.0650     0.7720 C.3   1 <1>  -0.0190 
  5 C       -2.8310     3.0200    -0.4820 C.3   1 <1>   0.1400 
  6 C       -1.9130     1.4800    -2.2930 C.3   1 <1>   0.1400 
  7 C        0.2770     4.5450     0.5590 C.3   1 <1>  -0.1600 
  8 C        1.0480     2.3960     1.5750 C.3   1 <1>  -0.1600 
  9 C       -3.8450     3.4320    -1.5650 C.3   1 <1>   0.1440 
 10 C       -3.3720     1.0160    -2.3590 C.3   1 <1>  -0.1600 
 11 C        0.6180     5.2160     1.8940 C.3   1 <1>   0.1200 
 12 C        1.3470     3.1890     2.8520 C.3   1 <1>   0.1200 
 13 C       -4.9450     4.2420    -0.8970 C.ar  1 <1>   0.1660 
 14 C       -4.3930     2.1700    -2.2810 C.3   1 <1>  -0.1600 
 15 C       -3.2280     4.4600    -2.5610 C.3   1 <1>  -0.1600 
 16 O        1.6440     4.5110     2.5210 O.3   1 <1>  -0.5600 
 17 N       -5.8400     3.7630    -0.0670 N.ar  1 <1>  -0.6200 
 18 C       -4.8840     5.5580    -1.2340 C.ar  1 <1>  -0.1440 
 19 C       -3.7420     5.8560    -2.1700 C.3   1 <1>  -0.0170 
 20 C       -6.7220     4.6450     0.4210 C.ar  1 <1>   0.6200 
 21 C       -5.8180     6.4010    -0.6910 C.ar  1 <1>   0.1600 
 22 N       -6.7380     5.9550     0.1330 N.ar  1 <1>  -0.6200 
 23 C       -7.7390     4.1430     1.3380 C.ar  1 <1>   0.0000 
 24 C       -7.5290     2.9970     2.1120 C.ar  1 <1>  -0.1500 
 25 C       -8.9720     4.7840     1.4890 C.ar  1 <1>  -0.1500 
 26 C       -8.4910     2.5180     2.9830 C.ar  1 <1>  -0.1500 
 27 C       -9.9390     4.3120     2.3580 C.ar  1 <1>  -0.1500 
 28 C       -9.7000     3.1760     3.1090 C.ar  1 <1>  -0.1500 
 29 H       -0.9630     3.0100     1.3860 H     1 <1>   0.0800 
 30 H       -2.5060     3.9050     0.0330 H     1 <1>   0.0800 
 31 H       -3.3230     2.3820     0.2320 H     1 <1>   0.0800 
 32 H       -1.2650     0.6190    -2.3040 H     1 <1>   0.0800 
 33 H       -1.6780     2.0790    -3.1560 H     1 <1>   0.0800 
 34 H       -0.5390     5.0670     0.0940 H     1 <1>   0.0800 
 35 H        1.1290     4.6200    -0.0940 H     1 <1>   0.0800 
 36 H        1.9460     2.3480     0.9840 H     1 <1>   0.0800 
 37 H        0.7700     1.3890     1.8300 H     1 <1>   0.0800 
 38 H       -3.5380     0.3400    -1.5370 H     1 <1>   0.0800 
 39 H       -3.5290     0.4560    -3.2650 H     1 <1>   0.0800 
 40 H       -0.2330     5.2400     2.5530 H     1 <1>   0.0800 
 41 H        0.9660     6.2220     1.7330 H     1 <1>   0.0800 
 42 H        2.2030     2.7780     3.3580 H     1 <1>   0.0800 
 43 H        0.5060     3.1840     3.5240 H     1 <1>   0.0800 
 44 H       -4.7380     2.4230    -3.2670 H     1 <1>   0.0800 
 45 H       -5.2520     1.8010    -1.7460 H     1 <1>   0.0800 
 46 H       -3.5580     4.2520    -3.5630 H     1 <1>   0.0800 
 47 H       -2.1520     4.4380    -2.5600 H     1 <1>   0.0800 
 48 H       -4.0730     6.4090    -3.0320 H     1 <1>   0.0800 
 49 H       -2.9810     6.4110    -1.6510 H     1 <1>   0.0800 
 50 H       -5.8110     7.4510    -0.9300 H     1 <1>   0.1500 
 51 H       -6.5950     2.4690     2.0300 H     1 <1>   0.1500 
 52 H       -9.1790     5.6700     0.9130 H     1 <1>   0.1500 
 53 H       -8.2990     1.6330     3.5630 H     1 <1>   0.1500 
 54 H      -10.8780     4.8300     2.4500 H     1 <1>   0.1500 
 55 H      -10.4510     2.8070     3.7860 H     1 <1>   0.1500 
@<TRIPOS>BOND
  1   1   2  2   
  2   2   3  am  
  3   2   4  1   
  4   3   5  1   
  5   3   6  1   
  6   4   7  1   
  7   4   8  1   
  8   4  29  1   
  9   5   9  1   
 10   5  30  1   
 11   5  31  1   
 12   6  10  1   
 13   6  32  1   
 14   6  33  1   
 15   7  11  1   
 16   7  34  1   
 17   7  35  1   
 18   8  12  1   
 19   8  36  1   
 20   8  37  1   
 21   9  13  1   
 22   9  14  1   
 23   9  15  1   
 24  10  14  1   
 25  10  38  1   
 26  10  39  1   
 27  11  16  1   
 28  11  40  1   
 29  11  41  1   
 30  12  16  1   
 31  12  42  1   
 32  12  43  1   
 33  13  17  ar  
 34  13  18  ar  
 35  14  44  1   
 36  14  45  1   
 37  15  19  1   
 38  15  46  1   
 39  15  47  1   
 40  17  20  ar  
 41  18  19  1   
 42  18  21  ar  
 43  19  48  1   
 44  19  49  1   
 45  20  22  ar  
 46  20  23  1   
 47  21  22  ar  
 48  21  50  1   
 49  23  24  ar  
 50  23  25  ar  
 51  24  26  ar  
 52  24  51  1   
 53  25  27  ar  
 54  25  52  1   
 55  26  28  ar  
 56  26  53  1   
 57  27  28  ar  
 58  27  54  1   
 59  28  55  1   
@<TRIPOS>SUBSTRUCTURE
  1 ****   5 GROUP 4 **** **** 0

# MOE 2024.06 (io_trps.svl 2023.06)
