@<TRIPOS>MOLECULE
NONAME
45 47 1 0 0 
SMALL
USER_CHARGES


@<TRIPOS>ATOM
  1 F       -0.9590    -1.7470     0.9340 F     1 <1>  -0.3400 
  2 C       -1.7440    -1.6650    -0.1360 C.3   1 <1>   1.1640 
  3 F       -1.1220    -2.3590    -1.0880 F     1 <1>  -0.3400 
  4 F       -1.6990    -0.3970    -0.5350 F     1 <1>  -0.3400 
  5 C       -3.1960    -2.1610     0.1340 C.ar  1 <1>   0.1660 
  6 N       -3.9260    -1.5440     1.0740 N.ar  1 <1>  -0.6200 
  7 C       -3.7070    -3.2310    -0.5990 C.ar  1 <1>  -0.1500 
  8 C       -5.1520    -1.9990     1.2760 C.ar  1 <1>   0.1600 
  9 C       -4.9910    -3.6810    -0.3780 C.ar  1 <1>  -0.1500 
 10 C       -5.7560    -3.0430     0.5850 C.ar  1 <1>   0.0860 
 11 C       -7.1160    -3.4430     0.8710 C.2   1 <1>   0.5440 
 12 O       -7.3350    -4.6040     1.1540 O.2   1 <1>  -0.5700 
 13 N       -8.1620    -2.5440     0.8220 N.am  1 <1>  -0.6600 
 14 C       -9.5530    -2.9510     1.1890 C.3   1 <1>   0.1400 
 15 C       -8.0450    -1.1880     0.1990 C.3   1 <1>   0.1400 
 16 C      -10.4880    -3.0060    -0.0520 C.3   1 <1>   0.0000 
 17 C       -9.3700    -0.7310    -0.4320 C.3   1 <1>  -0.1600 
 18 C      -11.9480    -2.9330     0.4510 C.3   1 <1>   0.2000 
 19 C      -10.0960    -1.9120    -1.0890 C.3   1 <1>  -0.1600 
 20 C      -10.4300    -4.4070    -0.6840 C.3   1 <1>  -0.1600 
 21 O      -12.8190    -2.6710    -0.6140 O.3   1 <1>  -0.5600 
 22 C      -12.2470    -4.3450     0.9670 C.3   1 <1>  -0.1600 
 23 C      -11.3700    -5.2950     0.1410 C.3   1 <1>  -0.1600 
 24 C      -14.0330    -2.0890    -0.2590 C.3   1 <1>   0.0400 
 25 H       -3.1120    -3.7260    -1.3470 H     1 <1>   0.1500 
 26 H       -5.7290    -1.5130     2.0450 H     1 <1>   0.1500 
 27 H       -5.4040    -4.5100    -0.9300 H     1 <1>   0.1500 
 28 H       -9.5470    -3.8990     1.6980 H     1 <1>   0.0800 
 29 H       -9.9270    -2.2250     1.8890 H     1 <1>   0.0800 
 30 H       -7.7340    -0.4740     0.9410 H     1 <1>   0.0800 
 31 H       -7.2960    -1.2210    -0.5740 H     1 <1>   0.0800 
 32 H      -10.0000    -0.2900     0.3210 H     1 <1>   0.0800 
 33 H       -9.1670     0.0290    -1.1660 H     1 <1>   0.0800 
 34 H      -12.0750    -2.1740     1.2040 H     1 <1>   0.0800 
 35 H       -9.4270    -2.3430    -1.8130 H     1 <1>   0.0800 
 36 H      -10.9510    -1.5560    -1.6340 H     1 <1>   0.0800 
 37 H      -10.8080    -4.3570    -1.6910 H     1 <1>   0.0800 
 38 H       -9.4270    -4.8000    -0.7130 H     1 <1>   0.0800 
 39 H      -11.9560    -4.4100     2.0000 H     1 <1>   0.0800 
 40 H      -13.2890    -4.5980     0.8900 H     1 <1>   0.0800 
 41 H      -10.8030    -5.9400     0.7920 H     1 <1>   0.0800 
 42 H      -11.9730    -5.9020    -0.5130 H     1 <1>   0.0800 
 43 H      -14.6180    -1.9690    -1.1530 H     1 <1>   0.0800 
 44 H      -13.8470    -1.1260     0.1830 H     1 <1>   0.0800 
 45 H      -14.5530    -2.7290     0.4310 H     1 <1>   0.0800 
@<TRIPOS>BOND
  1   1   2  1   
  2   2   3  1   
  3   2   4  1   
  4   2   5  1   
  5   5   6  ar  
  6   5   7  ar  
  7   6   8  ar  
  8   7   9  ar  
  9   7  25  1   
 10   8  10  ar  
 11   8  26  1   
 12   9  10  ar  
 13   9  27  1   
 14  10  11  1   
 15  11  12  2   
 16  11  13  am  
 17  13  14  1   
 18  13  15  1   
 19  14  16  1   
 20  14  28  1   
 21  14  29  1   
 22  15  17  1   
 23  15  30  1   
 24  15  31  1   
 25  16  18  1   
 26  16  19  1   
 27  16  20  1   
 28  17  19  1   
 29  17  32  1   
 30  17  33  1   
 31  18  21  1   
 32  18  22  1   
 33  18  34  1   
 34  19  35  1   
 35  19  36  1   
 36  20  23  1   
 37  20  37  1   
 38  20  38  1   
 39  21  24  1   
 40  22  23  1   
 41  22  39  1   
 42  22  40  1   
 43  23  41  1   
 44  23  42  1   
 45  24  43  1   
 46  24  44  1   
 47  24  45  1   
@<TRIPOS>SUBSTRUCTURE
  1 ****  11 GROUP 4 **** **** 0

# MOE 2024.06 (io_trps.svl 2023.06)
