@<TRIPOS>MOLECULE
NONAME
44 47 1 0 0 
SMALL
USER_CHARGES


@<TRIPOS>ATOM
  1 F       -0.3670    -0.3650    -1.3790 F     1 <1>  -0.3400 
  2 C       -1.4850     0.2650    -1.0200 C.3   1 <1>   1.1640 
  3 F       -2.2330     0.3120    -2.1210 F     1 <1>  -0.3400 
  4 F       -2.1130    -0.5680    -0.1930 F     1 <1>  -0.3400 
  5 C       -1.2570     1.6680    -0.3850 C.ar  1 <1>   0.1660 
  6 N       -0.0140     2.0320    -0.1110 N.ar  1 <1>  -0.6200 
  7 C       -2.3160     2.5270    -0.1060 C.ar  1 <1>  -0.1440 
  8 C        0.1860     3.2330     0.4120 C.ar  1 <1>   0.7200 
  9 C       -1.9980     3.7560     0.4450 C.ar  1 <1>   0.1660 
 10 C       -3.7780     2.1620    -0.4010 C.3   1 <1>  -0.0170 
 11 N       -0.7670     4.1060     0.7070 N.ar  1 <1>  -0.6200 
 12 N        1.4940     3.6030     0.6610 N.pl3 1 <1>  -0.8380 
 13 C       -3.0520     4.7950     0.8040 C.3   1 <1>  -0.0170 
 14 C       -4.7870     3.0490     0.3340 C.3   1 <1>  -0.1600 
 15 C        1.8180     4.8940     1.3590 C.3   1 <1>   0.2090 
 16 C        2.6410     2.9790    -0.0810 C.3   1 <1>   0.2090 
 17 C       -4.4190     4.5230     0.1670 C.3   1 <1>  -0.1600 
 18 C        2.1930     6.0630     0.4060 C.3   1 <1>   0.2200 
 19 C        3.1510     3.8330    -1.2610 C.3   1 <1>  -0.0190 
 20 N        1.7350     5.8570    -0.9990 N.am  1 <1>  -0.7300 
 21 C        3.7110     6.3380     0.4230 C.3   1 <1>   0.1200 
 22 C        2.1150     4.8160    -1.7710 C.2   1 <1>   0.5690 
 23 C        4.4740     4.5570    -0.9610 C.3   1 <1>   0.1200 
 24 O        4.4770     5.1720     0.2940 O.3   1 <1>  -0.5600 
 25 O        1.6500     4.6770    -2.8750 O.2   1 <1>  -0.5700 
 26 H       -3.9450     2.2600    -1.4600 H     1 <1>   0.0800 
 27 H       -3.9810     1.1420    -0.1270 H     1 <1>   0.0800 
 28 H       -3.1530     4.8050     1.8750 H     1 <1>   0.0800 
 29 H       -2.7090     5.7680     0.4990 H     1 <1>   0.0800 
 30 H       -5.7740     2.8710    -0.0560 H     1 <1>   0.0800 
 31 H       -4.7940     2.7960     1.3810 H     1 <1>   0.0800 
 32 H        0.9860     5.2040     1.9660 H     1 <1>   0.0800 
 33 H        2.6270     4.7170     2.0470 H     1 <1>   0.0800 
 34 H        3.4440     2.8000     0.6140 H     1 <1>   0.0800 
 35 H        2.3560     2.0170    -0.4650 H     1 <1>   0.0800 
 36 H       -5.1640     5.1470     0.6300 H     1 <1>   0.0800 
 37 H       -4.3810     4.7680    -0.8810 H     1 <1>   0.0800 
 38 H        1.7120     6.9510     0.7750 H     1 <1>   0.0800 
 39 H        3.3580     3.1590    -2.0710 H     1 <1>   0.0800 
 40 H        0.8780     6.3300    -1.2860 H     1 <1>   0.3700 
 41 H        3.9760     6.7710     1.3710 H     1 <1>   0.0800 
 42 H        3.9860     7.0310    -0.3520 H     1 <1>   0.0800 
 43 H        4.6950     5.2930    -1.7160 H     1 <1>   0.0800 
 44 H        5.2740     3.8370    -0.9500 H     1 <1>   0.0800 
@<TRIPOS>BOND
  1   1   2  1   
  2   2   3  1   
  3   2   4  1   
  4   2   5  1   
  5   5   6  ar  
  6   5   7  ar  
  7   6   8  ar  
  8   7   9  ar  
  9   7  10  1   
 10   8  11  ar  
 11   8  12  1   
 12   9  11  ar  
 13   9  13  1   
 14  10  14  1   
 15  10  26  1   
 16  10  27  1   
 17  12  15  1   
 18  12  16  1   
 19  13  17  1   
 20  13  28  1   
 21  13  29  1   
 22  14  17  1   
 23  14  30  1   
 24  14  31  1   
 25  15  18  1   
 26  15  32  1   
 27  15  33  1   
 28  16  19  1   
 29  16  34  1   
 30  16  35  1   
 31  17  36  1   
 32  17  37  1   
 33  18  20  1   
 34  18  21  1   
 35  18  38  1   
 36  19  22  1   
 37  19  23  1   
 38  19  39  1   
 39  20  22  am  
 40  20  40  1   
 41  21  24  1   
 42  21  41  1   
 43  21  42  1   
 44  22  25  2   
 45  23  24  1   
 46  23  43  1   
 47  23  44  1   
@<TRIPOS>SUBSTRUCTURE
  1 ****   8 GROUP 4 **** **** 0

# MOE 2024.06 (io_trps.svl 2023.06)
