@<TRIPOS>MOLECULE
NONAME
39 41 1 0 0 
SMALL
USER_CHARGES


@<TRIPOS>ATOM
  1 O       -0.3750     0.3080     1.0750 O.2   1 <1>  -0.5700 
  2 C       -1.2550     0.8960     0.4480 C.2   1 <1>   0.5440 
  3 N       -2.2980     0.1000     0.0030 N.am  1 <1>  -0.6600 
  4 C       -1.2000     2.3360     0.3370 C.ar  1 <1>   0.0860 
  5 C       -3.5230     0.5850    -0.6710 C.3   1 <1>   0.1400 
  6 C       -2.3390    -1.3740     0.1390 C.3   1 <1>   0.1400 
  7 C       -1.5820     3.1390    -0.7670 C.ar  1 <1>  -0.1710 
  8 C       -0.7160     3.0680     1.4220 C.ar  1 <1>  -0.1500 
  9 C       -4.5480    -0.5070    -0.3820 C.3   1 <1>   0.2000 
 10 C       -3.7090    -1.7910    -0.4160 C.3   1 <1>  -0.0800 
 11 O       -1.9930     2.6630    -1.8540 O.3   1 <1>  -0.8290 
 12 C       -1.4780     4.5420    -0.6550 C.ar  1 <1>   0.1600 
 13 C       -0.6550     4.4410     1.4090 C.ar  1 <1>   0.1600 
 14 O       -5.0270    -0.3070     0.9050 O.3   1 <1>  -0.6800 
 15 C       -4.3340    -2.9970     0.3080 C.3   1 <1>   0.0210 
 16 N       -1.0390     5.2030     0.3850 N.ar  1 <1>  -0.6200 
 17 C       -3.4730    -4.2360     0.1590 C.2   1 <1>   0.1080 
 18 N       -3.4970    -4.9900    -0.8960 N.2   1 <1>  -0.7070 
 19 C       -2.5750    -4.7000     1.1150 C.2   1 <1>  -0.1500 
 20 N       -2.6040    -5.9640    -0.6390 N.pl3 1 <1>   0.3000 
 21 C       -2.0320    -5.8100     0.5740 C.2   1 <1>  -0.3320 
 22 C       -0.9860    -6.7460     1.1500 C.3   1 <1>  -0.0600 
 23 H       -3.8300     1.5520    -0.3130 H     1 <1>   0.0800 
 24 H       -3.3350     0.6430    -1.7300 H     1 <1>   0.0800 
 25 H       -1.5350    -1.8240    -0.4170 H     1 <1>   0.0800 
 26 H       -2.2430    -1.6300     1.1800 H     1 <1>   0.0800 
 27 H       -0.3830     2.5340     2.2910 H     1 <1>   0.1500 
 28 H       -5.3750    -0.5100    -1.0700 H     1 <1>   0.0800 
 29 H       -3.5640    -2.0590    -1.4480 H     1 <1>   0.0800 
 30 H       -1.7920     5.0950    -1.5200 H     1 <1>   0.1500 
 31 H       -0.2760     4.9590     2.2710 H     1 <1>   0.1500 
 32 H       -4.2660     0.0020     1.4410 H     1 <1>   0.4000 
 33 H       -5.3040    -3.1990    -0.1090 H     1 <1>   0.0800 
 34 H       -4.4620    -2.7840     1.3530 H     1 <1>   0.0800 
 35 H       -2.3770    -4.2460     2.0700 H     1 <1>   0.1500 
 36 H       -2.4100    -6.7160    -1.3090 H     1 <1>   0.2700 
 37 H       -0.6870    -6.4110     2.1270 H     1 <1>   0.0800 
 38 H       -0.1170    -6.7680     0.5160 H     1 <1>   0.0800 
 39 H       -1.3840    -7.7420     1.2360 H     1 <1>   0.0800 
@<TRIPOS>BOND
  1   1   2  2   
  2   2   3  am  
  3   2   4  1   
  4   3   5  1   
  5   3   6  1   
  6   4   7  ar  
  7   4   8  ar  
  8   5   9  1   
  9   5  23  1   
 10   5  24  1   
 11   6  10  1   
 12   6  25  1   
 13   6  26  1   
 14   7  11  1   
 15   7  12  ar  
 16   8  13  ar  
 17   8  27  1   
 18   9  10  1   
 19   9  14  1   
 20   9  28  1   
 21  10  15  1   
 22  10  29  1   
 23  12  16  ar  
 24  12  30  1   
 25  13  16  ar  
 26  13  31  1   
 27  14  32  1   
 28  15  17  1   
 29  15  33  1   
 30  15  34  1   
 31  17  18  2   
 32  17  19  1   
 33  18  20  1   
 34  19  21  2   
 35  19  35  1   
 36  20  21  1   
 37  20  36  1   
 38  21  22  1   
 39  22  37  1   
 40  22  38  1   
 41  22  39  1   
@<TRIPOS>SUBSTRUCTURE
  1 ****   3 GROUP 4 **** **** 0

# MOE 2024.06 (io_trps.svl 2023.06)
