@<TRIPOS>MOLECULE
NONAME
63 67 1 0 0 
SMALL
USER_CHARGES


@<TRIPOS>ATOM
  1 O       -0.9170     0.8860     2.1100 O.3   1 <1>  -0.5600 
  2 C       -0.1270     0.8690     0.9710 C.3   1 <1>   0.1200 
  3 C       -2.2570     0.9730     1.7210 C.3   1 <1>   0.1200 
  4 C       -0.7640     1.9690     0.1300 C.3   1 <1>   0.4230 
  5 C       -2.2430     1.6420     0.3320 C.3   1 <1>  -0.0800 
  6 N       -0.4940     3.2790     0.7970 N.4   1 <1>  -0.9060 
  7 C       -2.7880     0.7010    -0.7660 C.3   1 <1>  -0.0170 
  8 C        0.8850     3.8110     0.6910 C.3   1 <1>   0.4230 
  9 C       -4.2670     0.4060    -0.5390 C.ar  1 <1>  -0.1440 
 10 C        1.0650     4.9160     1.7300 C.3   1 <1>  -0.1600 
 11 C        1.1460     4.3570    -0.7150 C.3   1 <1>  -0.1600 
 12 C       -5.2860     1.3440    -0.8360 C.ar  1 <1>   0.0000 
 13 C       -4.6520    -0.7970    -0.0210 C.ar  1 <1>  -0.1500 
 14 C        2.4510     5.5540     1.6190 C.3   1 <1>   0.3430 
 15 C        2.5280     5.0090    -0.8020 C.3   1 <1>   0.3430 
 16 C       -6.6200     0.9860    -0.5220 C.ar  1 <1>   0.3100 
 17 C       -5.0650     2.6100    -1.4300 C.ar  1 <1>  -0.1500 
 18 C       -6.0040    -1.0580     0.2310 C.ar  1 <1>   0.1600 
 19 N        2.6670     6.0780     0.2360 N.4   1 <1>  -0.9590 
 20 N       -6.9590    -0.2140     0.0080 N.ar  1 <1>  -0.6200 
 21 C       -7.6490     1.9080    -0.7700 C.ar  1 <1>  -0.1500 
 22 C       -6.0920     3.4830    -1.6660 C.ar  1 <1>  -0.1500 
 23 C        3.9930     6.7660     0.1340 C.3   1 <1>   0.4230 
 24 C       -7.4000     3.1330    -1.3270 C.ar  1 <1>  -0.1500 
 25 C        4.0780     7.9800     1.0720 C.3   1 <1>  -0.1600 
 26 C        4.2370     7.3250    -1.2700 C.3   1 <1>  -0.1600 
 27 C        4.5760     9.1650     0.2360 C.3   1 <1>  -0.1600 
 28 C        5.1060     8.5590    -1.0560 C.3   1 <1>  -0.1600 
 29 H        0.8990     1.0490     1.2360 H     1 <1>   0.0800 
 30 H       -0.2160    -0.0990     0.5060 H     1 <1>   0.0800 
 31 H       -2.6650    -0.0240     1.7000 H     1 <1>   0.0800 
 32 H       -2.7910     1.5570     2.4530 H     1 <1>   0.0800 
 33 H       -0.4610     1.9610    -0.9050 H     1 <1>   0.0800 
 34 H       -2.8490     2.5300     0.3450 H     1 <1>   0.0800 
 35 H       -1.1920     3.9720     0.5070 H     1 <1>   0.4500 
 36 H       -0.6900     3.0660     1.7910 H     1 <1>   0.4500 
 37 H       -2.2400    -0.2260    -0.7670 H     1 <1>   0.0800 
 38 H       -2.6610     1.1370    -1.7420 H     1 <1>   0.0800 
 39 H        1.5920     3.0230     0.9030 H     1 <1>   0.0800 
 40 H        0.3200     5.6830     1.6100 H     1 <1>   0.0800 
 41 H        0.9660     4.5020     2.7190 H     1 <1>   0.0800 
 42 H        1.1110     3.5570    -1.4330 H     1 <1>   0.0800 
 43 H        0.4020     5.0850    -0.9860 H     1 <1>   0.0800 
 44 H       -3.9440    -1.5720     0.2130 H     1 <1>   0.1500 
 45 H        3.2100     4.8240     1.8540 H     1 <1>   0.0800 
 46 H        2.5310     6.3550     2.3380 H     1 <1>   0.0800 
 47 H        2.6580     5.4310    -1.7870 H     1 <1>   0.0800 
 48 H        3.2950     4.2640    -0.6580 H     1 <1>   0.0800 
 49 H       -4.0740     2.8980    -1.7170 H     1 <1>   0.1500 
 50 H       -6.2650    -2.0200     0.6400 H     1 <1>   0.1500 
 51 H        1.9790     6.8210     0.0460 H     1 <1>   0.4500 
 52 H       -8.6490     1.6140    -0.5080 H     1 <1>   0.1500 
 53 H       -5.9160     4.4440    -2.1180 H     1 <1>   0.1500 
 54 H        4.7930     6.0840     0.3780 H     1 <1>   0.0800 
 55 H       -8.2010     3.8280    -1.5120 H     1 <1>   0.1500 
 56 H        3.1350     8.2400     1.5190 H     1 <1>   0.0800 
 57 H        4.7930     7.7740     1.8500 H     1 <1>   0.0800 
 58 H        4.7370     6.6170    -1.9070 H     1 <1>   0.0800 
 59 H        3.3140     7.6410    -1.7240 H     1 <1>   0.0800 
 60 H        3.7520     9.8230     0.0090 H     1 <1>   0.0800 
 61 H        5.3350     9.7330     0.7490 H     1 <1>   0.0800 
 62 H        6.1350     8.2660    -0.9230 H     1 <1>   0.0800 
 63 H        5.0450     9.2510    -1.8810 H     1 <1>   0.0800 
@<TRIPOS>BOND
  1   1   2  1   
  2   1   3  1   
  3   2   4  1   
  4   2  29  1   
  5   2  30  1   
  6   3   5  1   
  7   3  31  1   
  8   3  32  1   
  9   4   5  1   
 10   4   6  1   
 11   4  33  1   
 12   5   7  1   
 13   5  34  1   
 14   6   8  1   
 15   6  35  1   
 16   6  36  1   
 17   7   9  1   
 18   7  37  1   
 19   7  38  1   
 20   8  10  1   
 21   8  11  1   
 22   8  39  1   
 23   9  12  ar  
 24   9  13  ar  
 25  10  14  1   
 26  10  40  1   
 27  10  41  1   
 28  11  15  1   
 29  11  42  1   
 30  11  43  1   
 31  12  16  ar  
 32  12  17  ar  
 33  13  18  ar  
 34  13  44  1   
 35  14  19  1   
 36  14  45  1   
 37  14  46  1   
 38  15  19  1   
 39  15  47  1   
 40  15  48  1   
 41  16  20  ar  
 42  16  21  ar  
 43  17  22  ar  
 44  17  49  1   
 45  18  20  ar  
 46  18  50  1   
 47  19  23  1   
 48  19  51  1   
 49  21  24  ar  
 50  21  52  1   
 51  22  24  ar  
 52  22  53  1   
 53  23  25  1   
 54  23  26  1   
 55  23  54  1   
 56  24  55  1   
 57  25  27  1   
 58  25  56  1   
 59  25  57  1   
 60  26  28  1   
 61  26  58  1   
 62  26  59  1   
 63  27  28  1   
 64  27  60  1   
 65  27  61  1   
 66  28  62  1   
 67  28  63  1   
@<TRIPOS>SUBSTRUCTURE
  1 ****   6 GROUP 4 **** **** 0

# MOE 2024.06 (io_trps.svl 2023.06)
