@<TRIPOS>MOLECULE
NONAME
44 45 1 0 0 
SMALL
USER_CHARGES


@<TRIPOS>ATOM
  1 F        0.5660    -2.7110    -1.5620 F     1 <1>  -0.1900 
  2 C       -0.6120    -2.3340    -1.1370 C.ar  1 <1>   0.1900 
  3 C       -1.2570    -3.0680    -0.1520 C.ar  1 <1>  -0.1440 
  4 C       -1.1570    -1.2020    -1.7100 C.ar  1 <1>  -0.1500 
  5 C       -2.5220    -2.6420     0.2730 C.ar  1 <1>   0.0860 
  6 C       -0.6230    -4.3150     0.4660 C.3   1 <1>  -0.0970 
  7 C       -2.4030    -0.7790    -1.2860 C.ar  1 <1>  -0.1500 
  8 C       -3.2800    -3.3560     1.2830 C.2   1 <1>   0.5440 
  9 C       -3.0690    -1.4960    -0.3070 C.ar  1 <1>  -0.1500 
 10 O       -3.3330    -2.9050     2.4120 O.2   1 <1>  -0.5700 
 11 N       -3.9500    -4.5210     0.9850 N.am  1 <1>  -0.6600 
 12 C       -4.1710    -5.0180    -0.4150 C.3   1 <1>   0.1400 
 13 C       -4.6150    -5.3650     2.0220 C.3   1 <1>   0.1400 
 14 C       -5.6810    -5.0520    -0.7210 C.3   1 <1>   0.2000 
 15 C       -6.1220    -5.4570     1.7380 C.3   1 <1>  -0.1600 
 16 O       -6.1240    -3.7370    -0.6150 O.3   1 <1>  -0.6800 
 17 C       -6.4240    -5.9670     0.2940 C.3   1 <1>  -0.1060 
 18 C       -5.8550    -7.3910     0.1010 C.2   1 <1>   0.9060 
 19 C       -7.9570    -6.0780     0.0340 C.3   1 <1>  -0.1600 
 20 O       -5.7800    -8.1580     1.0690 O.co2 1 <1>  -0.9000 
 21 O       -5.4750    -7.7450    -1.0230 O.co2 1 <1>  -0.9000 
 22 C       -8.8470    -4.8540     0.3270 C.3   1 <1>  -0.1600 
 23 C      -10.3210    -5.1840     0.0760 C.3   1 <1>  -0.2400 
 24 H       -0.6160    -0.6670    -2.4700 H     1 <1>   0.1500 
 25 H       -1.1380    -5.1960     0.1260 H     1 <1>   0.0800 
 26 H       -0.6910    -4.2730     1.5390 H     1 <1>   0.0800 
 27 H        0.4160    -4.4070     0.2060 H     1 <1>   0.0800 
 28 H       -2.8530     0.1000    -1.7150 H     1 <1>   0.1500 
 29 H       -4.0410    -1.1690     0.0220 H     1 <1>   0.1500 
 30 H       -3.6860    -4.3900    -1.1390 H     1 <1>   0.0800 
 31 H       -3.7460    -6.0020    -0.5120 H     1 <1>   0.0800 
 32 H       -4.1790    -6.3510     2.0040 H     1 <1>   0.0800 
 33 H       -4.4570    -4.9560     3.0050 H     1 <1>   0.0800 
 34 H       -5.8530    -5.3840    -1.7310 H     1 <1>   0.0800 
 35 H       -6.5640    -6.1300     2.4510 H     1 <1>   0.0800 
 36 H       -6.5510    -4.4880     1.9040 H     1 <1>   0.0800 
 37 H       -5.8940    -3.4520     0.2920 H     1 <1>   0.4000 
 38 H       -8.0960    -6.3670    -0.9940 H     1 <1>   0.0800 
 39 H       -8.3220    -6.8960     0.6330 H     1 <1>   0.0800 
 40 H       -8.7340    -4.5480     1.3510 H     1 <1>   0.0800 
 41 H       -8.5700    -4.0320    -0.3070 H     1 <1>   0.0800 
 42 H      -10.6380    -5.9890     0.7140 H     1 <1>   0.0800 
 43 H      -10.4670    -5.4750    -0.9500 H     1 <1>   0.0800 
 44 H      -10.9310    -4.3220     0.2790 H     1 <1>   0.0800 
@<TRIPOS>BOND
  1   1   2  1   
  2   2   3  ar  
  3   2   4  ar  
  4   3   5  ar  
  5   3   6  1   
  6   4   7  ar  
  7   4  24  1   
  8   5   8  1   
  9   5   9  ar  
 10   6  25  1   
 11   6  26  1   
 12   6  27  1   
 13   7   9  ar  
 14   7  28  1   
 15   8  10  2   
 16   8  11  am  
 17   9  29  1   
 18  11  12  1   
 19  11  13  1   
 20  12  14  1   
 21  12  30  1   
 22  12  31  1   
 23  13  15  1   
 24  13  32  1   
 25  13  33  1   
 26  14  16  1   
 27  14  17  1   
 28  14  34  1   
 29  15  17  1   
 30  15  35  1   
 31  15  36  1   
 32  16  37  1   
 33  17  18  1   
 34  17  19  1   
 35  18  20  ar  
 36  18  21  ar  
 37  19  22  1   
 38  19  38  1   
 39  19  39  1   
 40  22  23  1   
 41  22  40  1   
 42  22  41  1   
 43  23  42  1   
 44  23  43  1   
 45  23  44  1   
@<TRIPOS>SUBSTRUCTURE
  1 ****  12 GROUP 4 **** **** 0

# MOE 2024.06 (io_trps.svl 2023.06)
