@<TRIPOS>MOLECULE
NONAME
47 49 1 0 0 
SMALL
USER_CHARGES


@<TRIPOS>ATOM
  1 O       -1.2940     0.2220     0.9840 O.2   1 <1>  -0.5700 
  2 C       -2.1340     1.0890     0.8150 C.2   1 <1>   0.5440 
  3 N       -3.4580     0.7430     0.9710 N.am  1 <1>  -0.6600 
  4 C       -1.7450     2.4400     0.4430 C.ar  1 <1>   0.0860 
  5 C       -3.8390    -0.5760     1.5490 C.3   1 <1>   0.1400 
  6 C       -4.5460     1.3620     0.1630 C.3   1 <1>   0.1400 
  7 C       -0.9700     2.7310    -0.6880 C.ar  1 <1>  -0.1440 
  8 C       -2.1640     3.5080     1.2370 C.ar  1 <1>  -0.1500 
  9 C       -4.1140    -1.5530     0.3840 C.3   1 <1>   0.4230 
 10 C       -4.8970     0.4070    -0.9880 C.3   1 <1>  -0.1600 
 11 C       -0.6390     4.0420    -0.9910 C.ar  1 <1>  -0.1500 
 12 C       -0.4780     1.6200    -1.6080 C.3   1 <1>  -0.0960 
 13 C       -1.8340     4.8140     0.9300 C.ar  1 <1>  -0.1500 
 14 N       -4.3850    -2.9690     0.8080 N.4   1 <1>  -0.9590 
 15 C       -5.2760    -1.0170    -0.4830 C.3   1 <1>  -0.1060 
 16 C       -1.0680     5.0830    -0.1880 C.ar  1 <1>  -0.1500 
 17 C       -4.5180    -3.8800    -0.3560 C.3   1 <1>   0.3430 
 18 C       -3.4610    -3.5010     1.8440 C.3   1 <1>   0.2630 
 19 C       -6.5520    -0.9660     0.3820 C.2   1 <1>   0.9060 
 20 C       -5.4790    -1.9430    -1.7060 C.3   1 <1>  -0.1600 
 21 C       -5.6450    -3.4100    -1.2800 C.3   1 <1>  -0.1600 
 22 O       -6.7060    -1.8160     1.2750 O.co2 1 <1>  -0.9000 
 23 O       -7.3860    -0.0840     0.1820 O.co2 1 <1>  -0.9000 
 24 H       -3.0350    -0.9350     2.1660 H     1 <1>   0.0800 
 25 H       -4.7110    -0.4550     2.1690 H     1 <1>   0.0800 
 26 H       -5.4100     1.5270     0.7870 H     1 <1>   0.0800 
 27 H       -4.2400     2.3140    -0.2360 H     1 <1>   0.0800 
 28 H       -2.7600     3.3030     2.1090 H     1 <1>   0.1500 
 29 H       -3.2240    -1.5580    -0.2210 H     1 <1>   0.0800 
 30 H       -5.7220     0.8250    -1.5400 H     1 <1>   0.0800 
 31 H       -4.0560     0.3570    -1.6570 H     1 <1>   0.0800 
 32 H       -0.0410     4.2650    -1.8580 H     1 <1>   0.1500 
 33 H       -0.0340     2.0210    -2.5010 H     1 <1>   0.0800 
 34 H       -1.2950     0.9830    -1.8930 H     1 <1>   0.0800 
 35 H        0.2610     1.0270    -1.0970 H     1 <1>   0.0800 
 36 H       -2.1710     5.6190     1.5600 H     1 <1>   0.1500 
 37 H       -5.3530    -2.8670     1.2170 H     1 <1>   0.4500 
 38 H       -0.8050     6.0980    -0.4320 H     1 <1>   0.1500 
 39 H       -3.5900    -3.9020    -0.9040 H     1 <1>   0.0800 
 40 H       -4.7380    -4.8780    -0.0140 H     1 <1>   0.0800 
 41 H       -2.4460    -3.4890     1.4810 H     1 <1>   0.0800 
 42 H       -3.7320    -4.5120     2.0980 H     1 <1>   0.0800 
 43 H       -3.5200    -2.9020     2.7370 H     1 <1>   0.0800 
 44 H       -6.3540    -1.6270    -2.2500 H     1 <1>   0.0800 
 45 H       -4.6340    -1.8640    -2.3670 H     1 <1>   0.0800 
 46 H       -5.6690    -4.0350    -2.1550 H     1 <1>   0.0800 
 47 H       -6.5870    -3.5370    -0.7740 H     1 <1>   0.0800 
@<TRIPOS>BOND
  1   1   2  2   
  2   2   3  am  
  3   2   4  1   
  4   3   5  1   
  5   3   6  1   
  6   4   7  ar  
  7   4   8  ar  
  8   5   9  1   
  9   5  24  1   
 10   5  25  1   
 11   6  10  1   
 12   6  26  1   
 13   6  27  1   
 14   7  11  ar  
 15   7  12  1   
 16   8  13  ar  
 17   8  28  1   
 18   9  14  1   
 19   9  15  1   
 20   9  29  1   
 21  10  15  1   
 22  10  30  1   
 23  10  31  1   
 24  11  16  ar  
 25  11  32  1   
 26  12  33  1   
 27  12  34  1   
 28  12  35  1   
 29  13  16  ar  
 30  13  36  1   
 31  14  17  1   
 32  14  18  1   
 33  14  37  1   
 34  15  19  1   
 35  15  20  1   
 36  16  38  1   
 37  17  21  1   
 38  17  39  1   
 39  17  40  1   
 40  18  41  1   
 41  18  42  1   
 42  18  43  1   
 43  19  22  ar  
 44  19  23  ar  
 45  20  21  1   
 46  20  44  1   
 47  20  45  1   
 48  21  46  1   
 49  21  47  1   
@<TRIPOS>SUBSTRUCTURE
  1 ****   3 GROUP 4 **** **** 0

# MOE 2024.06 (io_trps.svl 2023.06)
