@<TRIPOS>MOLECULE
NONAME
56 59 1 0 0 
SMALL
USER_CHARGES


@<TRIPOS>ATOM
  1 O        4.7100     0.6790     1.6010 O.2   1 <1>  -0.5700 
  2 C        3.7920     0.1600     1.0050 C.2   1 <1>   0.6300 
  3 N        3.0920     0.8400     0.0420 N.am  1 <1>  -0.6600 
  4 C        3.4530    -1.2920     1.3250 C.3   1 <1>  -0.1000 
  5 C        3.3980     2.2680    -0.2310 C.3   1 <1>   0.1400 
  6 C        2.2750     0.2090    -1.0300 C.3   1 <1>   0.1400 
  7 C        2.1020    -1.6800     1.8580 C.3   1 <1>  -0.2000 
  8 C        3.3020    -1.7470     2.7490 C.3   1 <1>  -0.2000 
  9 C        4.2830     2.3240    -1.4820 C.3   1 <1>   0.2890 
 10 C        3.0200     0.3260    -2.3740 C.3   1 <1>  -0.1600 
 11 N        4.7290     3.7070    -1.7460 N.pl3 1 <1>  -0.8690 
 12 C        3.5090     1.7600    -2.6790 C.3   1 <1>  -0.1600 
 13 C        5.6850     4.3900    -1.0960 C.ar  1 <1>   0.4100 
 14 N        5.8820     5.6150    -1.5190 N.ar  1 <1>  -0.6200 
 15 C        6.4160     3.8390    -0.0260 C.ar  1 <1>  -0.1500 
 16 C        6.7970     6.3510    -0.9000 C.ar  1 <1>   0.7710 
 17 C        7.3500     4.5990     0.5900 C.ar  1 <1>   0.2180 
 18 N        7.5200     5.8590     0.1240 N.ar  1 <1>  -0.1790 
 19 N        7.0120     7.6310    -1.3080 N.pl3 1 <1>  -0.8380 
 20 C        8.1960     4.1080     1.7590 C.3   1 <1>  -0.0170 
 21 C        6.3530     8.1910    -2.5480 C.3   1 <1>   0.2090 
 22 C        7.8550     8.6820    -0.6360 C.3   1 <1>   0.2090 
 23 C        7.9330     4.9110     3.0400 C.3   1 <1>  -0.2400 
 24 C        5.6450     9.5240    -2.2480 C.3   1 <1>   0.1200 
 25 C        7.0600     9.9870    -0.4360 C.3   1 <1>   0.1200 
 26 O        6.5300    10.4270    -1.6500 O.3   1 <1>  -0.5600 
 27 H        3.9490    -1.9690     0.6540 H     1 <1>   0.1000 
 28 H        3.9010     2.7120     0.6090 H     1 <1>   0.0800 
 29 H        2.4820     2.8060    -0.3990 H     1 <1>   0.0800 
 30 H        1.3270     0.7180    -1.0910 H     1 <1>   0.0800 
 31 H        2.0800    -0.8270    -0.8120 H     1 <1>   0.0800 
 32 H        1.6550    -2.6010     1.5240 H     1 <1>   0.1000 
 33 H        1.3740    -0.9080     2.0400 H     1 <1>   0.1000 
 34 H        3.4140    -1.0160     3.5310 H     1 <1>   0.1000 
 35 H        3.6960    -2.7100     3.0250 H     1 <1>   0.1000 
 36 H        5.1510     1.7090    -1.3150 H     1 <1>   0.0800 
 37 H        2.3740    -0.0100    -3.1660 H     1 <1>   0.0800 
 38 H        3.8670    -0.3380    -2.3490 H     1 <1>   0.0800 
 39 H        4.2450     4.1880    -2.5100 H     1 <1>   0.4000 
 40 H        4.1440     1.7450    -3.5470 H     1 <1>   0.0800 
 41 H        2.6580     2.3870    -2.8830 H     1 <1>   0.0800 
 42 H        6.2230     2.8290     0.2900 H     1 <1>   0.1500 
 43 H        8.2130     6.4780     0.5190 H     1 <1>   0.4570 
 44 H        9.2400     4.1630     1.5010 H     1 <1>   0.0800 
 45 H        7.9690     3.0720     1.9510 H     1 <1>   0.0800 
 46 H        5.6320     7.5130    -2.9680 H     1 <1>   0.0800 
 47 H        7.1030     8.3630    -3.3000 H     1 <1>   0.0800 
 48 H        8.7130     8.8980    -1.2510 H     1 <1>   0.0800 
 49 H        8.2080     8.3550     0.3240 H     1 <1>   0.0800 
 50 H        8.2120     5.9430     2.9270 H     1 <1>   0.0800 
 51 H        8.5070     4.4960     3.8510 H     1 <1>   0.0800 
 52 H        6.8920     4.8570     3.3090 H     1 <1>   0.0800 
 53 H        4.8060     9.3710    -1.5910 H     1 <1>   0.0800 
 54 H        5.2910     9.9690    -3.1610 H     1 <1>   0.0800 
 55 H        7.7040    10.7640    -0.0640 H     1 <1>   0.0800 
 56 H        6.2520     9.8450     0.2610 H     1 <1>   0.0800 
@<TRIPOS>BOND
  1   1   2  2   
  2   2   3  am  
  3   2   4  1   
  4   3   5  1   
  5   3   6  1   
  6   4   7  1   
  7   4   8  1   
  8   4  27  1   
  9   5   9  1   
 10   5  28  1   
 11   5  29  1   
 12   6  10  1   
 13   6  30  1   
 14   6  31  1   
 15   7   8  1   
 16   7  32  1   
 17   7  33  1   
 18   8  34  1   
 19   8  35  1   
 20   9  11  1   
 21   9  12  1   
 22   9  36  1   
 23  10  12  1   
 24  10  37  1   
 25  10  38  1   
 26  11  13  1   
 27  11  39  1   
 28  12  40  1   
 29  12  41  1   
 30  13  14  ar  
 31  13  15  ar  
 32  14  16  ar  
 33  15  17  ar  
 34  15  42  1   
 35  16  18  ar  
 36  16  19  1   
 37  17  18  ar  
 38  17  20  1   
 39  18  43  1   
 40  19  21  1   
 41  19  22  1   
 42  20  23  1   
 43  20  44  1   
 44  20  45  1   
 45  21  24  1   
 46  21  46  1   
 47  21  47  1   
 48  22  25  1   
 49  22  48  1   
 50  22  49  1   
 51  23  50  1   
 52  23  51  1   
 53  23  52  1   
 54  24  26  1   
 55  24  53  1   
 56  24  54  1   
 57  25  26  1   
 58  25  55  1   
 59  25  56  1   
@<TRIPOS>SUBSTRUCTURE
  1 ****  13 GROUP 4 **** **** 0

# MOE 2024.06 (io_trps.svl 2023.06)
