@<TRIPOS>MOLECULE
NONAME
46 48 1 0 0 
SMALL
USER_CHARGES


@<TRIPOS>ATOM
  1 S        0.9620    -0.7220     2.7040 S.o2  1 <1>   1.4470 
  2 O        0.5310     0.1420     3.7770 O.2   1 <1>  -0.6500 
  3 O        1.9590    -1.7400     2.9500 O.2   1 <1>  -0.6500 
  4 N       -0.4250    -1.5330     2.2320 N.am  1 <1>  -0.9140 
  5 C        1.3640     0.2350     1.2180 C.ar  1 <1>  -0.0090 
  6 C       -0.1820    -2.7070     1.4050 C.3   1 <1>   0.2760 
  7 C        0.4170     1.0620     0.6280 C.ar  1 <1>  -0.1500 
  8 C        2.6140     0.1540     0.6190 C.ar  1 <1>  -0.1500 
  9 C       -1.4200    -3.0230     0.5790 C.3   1 <1>  -0.0800 
 10 C       -0.1140    -3.9570     2.2800 C.3   1 <1>   0.1200 
 11 C        0.6870     1.7790    -0.5260 C.ar  1 <1>  -0.1430 
 12 C        2.9000     0.8660    -0.5310 C.ar  1 <1>  -0.1500 
 13 C       -2.2850    -3.8310     1.5530 C.3   1 <1>   0.1200 
 14 C       -2.1290    -1.8060    -0.0460 C.3   1 <1>  -0.0170 
 15 O       -1.4420    -4.2510     2.5890 O.3   1 <1>  -0.5600 
 16 C        1.9420     1.6800    -1.1130 C.ar  1 <1>  -0.1430 
 17 C       -0.4030     2.6620    -1.1200 C.3   1 <1>  -0.0970 
 18 C       -3.2800    -2.2460    -0.9340 C.ar  1 <1>  -0.1430 
 19 C        2.2920     2.4480    -2.3800 C.3   1 <1>  -0.0970 
 20 C       -3.0750    -2.6610    -2.2340 C.ar  1 <1>  -0.1500 
 21 C       -4.5860    -2.2540    -0.4890 C.ar  1 <1>  -0.1500 
 22 C       -4.1560    -3.0580    -3.0030 C.ar  1 <1>   0.1600 
 23 C       -5.5960    -2.6710    -1.3400 C.ar  1 <1>   0.1600 
 24 N       -5.4110    -3.0750    -2.5860 N.ar  1 <1>  -0.6200 
 25 H       -0.8370    -1.8780     3.1000 H     1 <1>   0.4200 
 26 H        0.6910    -2.5820     0.7840 H     1 <1>   0.0800 
 27 H       -0.5530     1.1370     1.0910 H     1 <1>   0.1500 
 28 H        3.3730    -0.4730     1.0560 H     1 <1>   0.1500 
 29 H       -1.1270    -3.6860    -0.2160 H     1 <1>   0.0800 
 30 H        0.4480    -3.8160     3.1860 H     1 <1>   0.0800 
 31 H        0.2890    -4.7880     1.7280 H     1 <1>   0.0800 
 32 H        3.8790     0.7820    -0.9710 H     1 <1>   0.1500 
 33 H       -2.7200    -4.6950     1.0800 H     1 <1>   0.0800 
 34 H       -3.0600    -3.2260     1.9920 H     1 <1>   0.0800 
 35 H       -1.4240    -1.2420    -0.6320 H     1 <1>   0.0800 
 36 H       -2.5050    -1.1520     0.7220 H     1 <1>   0.0800 
 37 H       -1.3030     2.6150    -0.5330 H     1 <1>   0.0800 
 38 H       -0.6350     2.3400    -2.1190 H     1 <1>   0.0800 
 39 H       -0.0740     3.6840    -1.1480 H     1 <1>   0.0800 
 40 H        3.3020     2.2460    -2.6880 H     1 <1>   0.0800 
 41 H        2.1980     3.5050    -2.2070 H     1 <1>   0.0800 
 42 H        1.6320     2.1630    -3.1790 H     1 <1>   0.0800 
 43 H       -2.0870    -2.6790    -2.6570 H     1 <1>   0.1500 
 44 H       -4.8300    -1.9410     0.5100 H     1 <1>   0.1500 
 45 H       -3.9790    -3.3800    -4.0160 H     1 <1>   0.1500 
 46 H       -6.6100    -2.6720    -0.9770 H     1 <1>   0.1500 
@<TRIPOS>BOND
  1   1   2  2   
  2   1   3  2   
  3   1   4  am  
  4   1   5  1   
  5   4   6  1   
  6   4  25  1   
  7   5   7  ar  
  8   5   8  ar  
  9   6   9  1   
 10   6  10  1   
 11   6  26  1   
 12   7  11  ar  
 13   7  27  1   
 14   8  12  ar  
 15   8  28  1   
 16   9  13  1   
 17   9  14  1   
 18   9  29  1   
 19  10  15  1   
 20  10  30  1   
 21  10  31  1   
 22  11  16  ar  
 23  11  17  1   
 24  12  16  ar  
 25  12  32  1   
 26  13  15  1   
 27  13  33  1   
 28  13  34  1   
 29  14  18  1   
 30  14  35  1   
 31  14  36  1   
 32  16  19  1   
 33  17  37  1   
 34  17  38  1   
 35  17  39  1   
 36  18  20  ar  
 37  18  21  ar  
 38  19  40  1   
 39  19  41  1   
 40  19  42  1   
 41  20  22  ar  
 42  20  43  1   
 43  21  23  ar  
 44  21  44  1   
 45  22  24  ar  
 46  22  45  1   
 47  23  24  ar  
 48  23  46  1   
@<TRIPOS>SUBSTRUCTURE
  1 ****  14 GROUP 4 **** **** 0

# MOE 2024.06 (io_trps.svl 2023.06)
