@<TRIPOS>MOLECULE
NONAME
28 29 1 0 0 
SMALL
USER_CHARGES


@<TRIPOS>ATOM
  1 O       -1.1130     0.1220    -0.1720 O.3   1 <1>  -0.5600 
  2 C       -1.4370     0.4920     1.1270 C.3   1 <1>   0.1200 
  3 C       -0.5380     1.2170    -0.8240 C.3   1 <1>   0.1200 
  4 C       -1.9730     1.9210     1.0050 C.3   1 <1>   0.4230 
  5 C       -1.0960     2.4770    -0.1390 C.3   1 <1>   0.1900 
  6 N       -3.4570     1.9410     0.7040 N.4   1 <1>  -0.9590 
  7 N        0.0020     3.3320     0.3400 N.3   1 <1>  -0.9900 
  8 C       -3.8670     1.1990    -0.5200 C.3   1 <1>   0.3430 
  9 C       -4.0380     3.3000     0.5760 C.3   1 <1>   0.3430 
 10 C       -5.2680     1.7130    -0.8170 C.3   1 <1>  -0.1600 
 11 C       -5.3690     3.0790    -0.1310 C.3   1 <1>  -0.1600 
 12 H       -2.1510    -0.2010     1.5360 H     1 <1>   0.0800 
 13 H       -0.5320     0.4720     1.7090 H     1 <1>   0.0800 
 14 H        0.5320     1.1480    -0.7230 H     1 <1>   0.0800 
 15 H       -0.8080     1.1720    -1.8650 H     1 <1>   0.0800 
 16 H       -1.7870     2.4630     1.9160 H     1 <1>   0.0800 
 17 H       -1.6790     3.0420    -0.8450 H     1 <1>   0.0800 
 18 H       -3.9440     1.4840     1.4850 H     1 <1>   0.4500 
 19 H        0.6690     2.8270     0.9400 H     1 <1>   0.3600 
 20 H       -0.3170     4.1780     0.8300 H     1 <1>   0.3600 
 21 H       -3.2120     1.4450    -1.3400 H     1 <1>   0.0800 
 22 H       -3.8510     0.1310    -0.3670 H     1 <1>   0.0800 
 23 H       -4.1720     3.7720     1.5370 H     1 <1>   0.0800 
 24 H       -3.4050     3.9180    -0.0410 H     1 <1>   0.0800 
 25 H       -5.4230     1.7850    -1.8800 H     1 <1>   0.0800 
 26 H       -5.9970     1.0330    -0.4130 H     1 <1>   0.0800 
 27 H       -6.1710     3.0800     0.5880 H     1 <1>   0.0800 
 28 H       -5.5500     3.8680    -0.8400 H     1 <1>   0.0800 
@<TRIPOS>BOND
  1   1   2  1   
  2   1   3  1   
  3   2   4  1   
  4   2  12  1   
  5   2  13  1   
  6   3   5  1   
  7   3  14  1   
  8   3  15  1   
  9   4   5  1   
 10   4   6  1   
 11   4  16  1   
 12   5   7  1   
 13   5  17  1   
 14   6   8  1   
 15   6   9  1   
 16   6  18  1   
 17   7  19  1   
 18   7  20  1   
 19   8  10  1   
 20   8  21  1   
 21   8  22  1   
 22   9  11  1   
 23   9  23  1   
 24   9  24  1   
 25  10  11  1   
 26  10  25  1   
 27  10  26  1   
 28  11  27  1   
 29  11  28  1   
@<TRIPOS>SUBSTRUCTURE
  1 ****   4 GROUP 4 **** **** 0

# MOE 2024.06 (io_trps.svl 2023.06)
