@<TRIPOS>MOLECULE
NONAME
52 56 1 0 0 
SMALL
USER_CHARGES


@<TRIPOS>ATOM
  1 N        0.1060     0.2720     0.5720 N.ar  1 <1>  -0.6200 
  2 C       -0.9660     0.9630     0.9680 C.ar  1 <1>   0.7200 
  3 C        0.9410     0.9270    -0.1950 C.ar  1 <1>   0.1660 
  4 N       -1.2530     2.2280     0.6440 N.ar  1 <1>  -0.6200 
  5 N       -1.8580     0.3070     1.7930 N.pl3 1 <1>  -0.8380 
  6 C        0.7400     2.2170    -0.5810 C.ar  1 <1>  -0.1430 
  7 C        2.2340     0.3670    -0.7550 C.3   1 <1>   0.1430 
  8 C       -0.3940     2.8450    -0.1330 C.ar  1 <1>   0.1600 
  9 C       -2.8960     1.0370     2.5720 C.3   1 <1>   0.1290 
 10 C       -1.8190    -1.1680     1.9860 C.3   1 <1>   0.1290 
 11 C        1.8520     2.7210    -1.4650 C.3   1 <1>  -0.0160 
 12 C        3.0560    -0.2930     0.3680 C.3   1 <1>   0.2090 
 13 C        1.9330    -0.6650    -1.8670 C.3   1 <1>  -0.1600 
 14 C        2.9330     1.6360    -1.3170 C.3   1 <1>  -0.1600 
 15 N        4.2940    -0.9210    -0.1920 N.pl3 1 <1>  -0.8380 
 16 C        3.2050    -1.3930    -2.3500 C.3   1 <1>  -0.1600 
 17 C        5.4540    -0.9450     0.5490 C.ar  1 <1>   0.4100 
 18 C        4.0090    -1.9850    -1.1860 C.3   1 <1>   0.2090 
 19 N        5.3530    -0.8930     1.8620 N.ar  1 <1>  -0.6200 
 20 C        6.6910    -1.0180    -0.0600 C.ar  1 <1>  -0.1500 
 21 C        6.4900    -0.9250     2.5260 C.ar  1 <1>   0.4700 
 22 C        7.8040    -1.0400     0.7340 C.ar  1 <1>   0.2780 
 23 N        7.7190    -0.9990     2.0490 N.ar  1 <1>  -0.6200 
 24 C        9.1990    -1.1160     0.1340 C.3   1 <1>  -0.0680 
 25 C       10.0950     0.0840     0.1700 C.3   1 <1>  -0.2000 
 26 C        9.5620    -0.4100    -1.1400 C.3   1 <1>  -0.2000 
 27 H       -0.5980     3.8640    -0.4120 H     1 <1>   0.1500 
 28 H       -2.5730     2.0420     2.7830 H     1 <1>   0.0800 
 29 H       -3.0760     0.5380     3.5070 H     1 <1>   0.0800 
 30 H       -3.8090     1.0750     2.0050 H     1 <1>   0.0800 
 31 H       -1.4530    -1.6540     1.0980 H     1 <1>   0.0800 
 32 H       -2.8060    -1.5420     2.1930 H     1 <1>   0.0800 
 33 H       -1.1670    -1.4060     2.8080 H     1 <1>   0.0800 
 34 H        2.2120     3.6830    -1.1430 H     1 <1>   0.0800 
 35 H        1.5080     2.7780    -2.4830 H     1 <1>   0.0800 
 36 H        2.4660    -1.0520     0.8520 H     1 <1>   0.0800 
 37 H        3.3100     0.4460     1.1080 H     1 <1>   0.0800 
 38 H        1.4460    -0.1810    -2.6960 H     1 <1>   0.0800 
 39 H        1.2490    -1.3970    -1.4730 H     1 <1>   0.0800 
 40 H        3.4390     1.4560    -2.2470 H     1 <1>   0.0800 
 41 H        3.6650     1.9810    -0.6060 H     1 <1>   0.0800 
 42 H        3.8380    -0.7160    -2.8940 H     1 <1>   0.0800 
 43 H        2.9280    -2.1850    -3.0230 H     1 <1>   0.0800 
 44 H        3.4390    -2.7650    -0.7090 H     1 <1>   0.0800 
 45 H        4.9240    -2.4170    -1.5520 H     1 <1>   0.0800 
 46 H        6.7610    -1.0480    -1.1270 H     1 <1>   0.1500 
 47 H        6.4050    -0.8860     3.5990 H     1 <1>   0.1500 
 48 H        9.6610    -2.0680     0.3300 H     1 <1>   0.1000 
 49 H       11.1340    -0.0640     0.4060 H     1 <1>   0.1000 
 50 H        9.7020     0.9950     0.5890 H     1 <1>   0.1000 
 51 H        8.8340     0.2010    -1.6440 H     1 <1>   0.1000 
 52 H       10.2390    -0.8940    -1.8230 H     1 <1>   0.1000 
@<TRIPOS>BOND
  1   1   2  ar  
  2   1   3  ar  
  3   2   4  ar  
  4   2   5  1   
  5   3   6  ar  
  6   3   7  1   
  7   4   8  ar  
  8   5   9  1   
  9   5  10  1   
 10   6   8  ar  
 11   6  11  1   
 12   7  12  1   
 13   7  13  1   
 14   7  14  1   
 15   8  27  1   
 16   9  28  1   
 17   9  29  1   
 18   9  30  1   
 19  10  31  1   
 20  10  32  1   
 21  10  33  1   
 22  11  14  1   
 23  11  34  1   
 24  11  35  1   
 25  12  15  1   
 26  12  36  1   
 27  12  37  1   
 28  13  16  1   
 29  13  38  1   
 30  13  39  1   
 31  14  40  1   
 32  14  41  1   
 33  15  17  1   
 34  15  18  1   
 35  16  18  1   
 36  16  42  1   
 37  16  43  1   
 38  17  19  ar  
 39  17  20  ar  
 40  18  44  1   
 41  18  45  1   
 42  19  21  ar  
 43  20  22  ar  
 44  20  46  1   
 45  21  23  ar  
 46  21  47  1   
 47  22  23  ar  
 48  22  24  1   
 49  24  25  1   
 50  24  26  1   
 51  24  48  1   
 52  25  26  1   
 53  25  49  1   
 54  25  50  1   
 55  26  51  1   
 56  26  52  1   
@<TRIPOS>SUBSTRUCTURE
  1 ****  12 GROUP 4 **** **** 0

# MOE 2024.06 (io_trps.svl 2023.06)
