@<TRIPOS>MOLECULE
NONAME
39 42 1 0 0 
SMALL
USER_CHARGES


@<TRIPOS>ATOM
  1 O        0.7590    -0.2230    -1.8970 O.2   1 <1>  -0.5700 
  2 C        1.1630    -0.5010    -0.7870 C.2   1 <1>   0.6160 
  3 N        1.5270     0.5030     0.0450 N.am  1 <1>  -0.7300 
  4 C        1.2600    -1.8860    -0.3800 C.2   1 <1>   0.0140 
  5 C        1.9210     1.8480    -0.3960 C.3   1 <1>   0.4950 
  6 C        0.5550    -2.8500    -1.0620 C.2   1 <1>   0.2290 
  7 C        2.0850    -2.3050     0.7030 C.2   1 <1>  -0.1500 
  8 C        3.3520     2.0630     0.0930 C.2   1 <1>   0.0060 
  9 C        0.9760     2.9190     0.1880 C.3   1 <1>  -0.1950 
 10 N        0.6320    -4.1800    -0.7090 N.pl3 1 <1>  -0.6290 
 11 C        2.1550    -3.6300     1.0440 C.2   1 <1>  -0.1410 
 12 N        3.9250     1.4040     1.0480 N.2   1 <1>  -0.5650 
 13 N        4.1840     2.9720    -0.4330 N.pl3 1 <1>   0.3140 
 14 C        0.3790     2.8380     1.5610 C.3   1 <1>  -0.2000 
 15 C       -0.5000     2.7110     0.3470 C.3   1 <1>  -0.2000 
 16 C        1.4150    -4.5790     0.3210 C.cat 1 <1>   0.7910 
 17 C        0.0360    -5.3130    -1.2280 C.2   1 <1>   0.2000 
 18 C        5.1380     1.9690     1.0690 C.2   1 <1>   0.3660 
 19 N        5.3410     2.9050     0.2050 N.2   1 <1>  -0.7070 
 20 C        3.9730     3.9280    -1.5320 C.3   1 <1>   0.0160 
 21 N        1.3190    -5.9110     0.4510 N.pl3 1 <1>  -0.7000 
 22 C        0.4610    -6.3740    -0.5140 C.2   1 <1>   0.2000 
 23 H        1.9880     0.3020     0.9340 H     1 <1>   0.3700 
 24 H        1.8940     1.8990    -1.4710 H     1 <1>   0.0800 
 25 H       -0.0780    -2.5850    -1.8960 H     1 <1>   0.1500 
 26 H        2.6610    -1.5710     1.2450 H     1 <1>   0.1500 
 27 H        1.2720     3.9010    -0.1340 H     1 <1>   0.1000 
 28 H        2.7720    -3.9690     1.8560 H     1 <1>   0.1500 
 29 H        0.3210     3.7370     2.1510 H     1 <1>   0.1000 
 30 H        0.5470     1.9650     2.1670 H     1 <1>   0.1000 
 31 H       -0.9280     1.7500     0.1210 H     1 <1>   0.1000 
 32 H       -1.1680     3.5210     0.1070 H     1 <1>   0.1000 
 33 H       -0.6430    -5.2830    -2.0660 H     1 <1>   0.1500 
 34 H        5.8880     1.6460     1.7750 H     1 <1>   0.1500 
 35 H        3.5180     3.4280    -2.3660 H     1 <1>   0.0800 
 36 H        4.9230     4.3290    -1.8340 H     1 <1>   0.0800 
 37 H        3.3440     4.7290    -1.1890 H     1 <1>   0.0800 
 38 H        1.8110    -6.4730     1.1510 H     1 <1>   0.4500 
 39 H        0.2070    -7.4170    -0.6330 H     1 <1>   0.1500 
@<TRIPOS>BOND
  1   1   2  2   
  2   2   3  am  
  3   2   4  1   
  4   3   5  1   
  5   3  23  1   
  6   4   6  2   
  7   4   7  1   
  8   5   8  1   
  9   5   9  1   
 10   5  24  1   
 11   6  10  1   
 12   6  25  1   
 13   7  11  2   
 14   7  26  1   
 15   8  12  2   
 16   8  13  1   
 17   9  14  1   
 18   9  15  1   
 19   9  27  1   
 20  10  16  ar  
 21  10  17  1   
 22  11  16  1   
 23  11  28  1   
 24  12  18  1   
 25  13  19  1   
 26  13  20  1   
 27  14  15  1   
 28  14  29  1   
 29  14  30  1   
 30  15  31  1   
 31  15  32  1   
 32  16  21  ar  
 33  17  22  2   
 34  17  33  1   
 35  18  19  2   
 36  18  34  1   
 37  20  35  1   
 38  20  36  1   
 39  20  37  1   
 40  21  22  1   
 41  21  38  1   
 42  22  39  1   
@<TRIPOS>SUBSTRUCTURE
  1 ****   2 GROUP 4 **** **** 0

# MOE 2024.06 (io_trps.svl 2023.06)
