@<TRIPOS>MOLECULE
NONAME
42 44 1 0 0 
SMALL
USER_CHARGES


@<TRIPOS>ATOM
  1 O        0.0400    -3.8010     1.9380 O.2   1 <1>  -0.5700 
  2 C        0.9680    -3.2080     1.4260 C.2   1 <1>   0.6900 
  3 N        0.9420    -2.8190     0.0950 N.am  1 <1>  -0.4690 
  4 N        2.0730    -2.9280     2.1660 N.am  1 <1>  -0.4900 
  5 C        2.0430    -2.1880    -0.4750 C.2   1 <1>  -0.0410 
  6 C       -0.2660    -3.1190    -0.7370 C.3   1 <1>   0.2010 
  7 C        3.1670    -2.3010     1.6550 C.2   1 <1>   0.6160 
  8 C        3.1340    -1.9300     0.2810 C.2   1 <1>  -0.1360 
  9 C       -0.3070    -4.5660    -1.2210 C.2   1 <1>   0.5690 
 10 O        4.1140    -2.0890     2.3810 O.2   1 <1>  -0.5700 
 11 O       -0.3110    -4.7850    -2.4090 O.2   1 <1>  -0.5700 
 12 N       -0.3470    -5.5710    -0.3110 N.am  1 <1>  -0.7300 
 13 C       -0.2970    -7.0190    -0.6180 C.3   1 <1>   0.2200 
 14 C       -1.5400    -7.7360    -0.1100 C.3   1 <1>  -0.0800 
 15 C        0.7780    -7.6750     0.2390 C.3   1 <1>   0.1200 
 16 C       -1.2030    -8.0040     1.3590 C.3   1 <1>   0.1200 
 17 C       -2.8750    -7.0020    -0.3300 C.3   1 <1>  -0.0170 
 18 O        0.1860    -7.8970     1.4840 O.3   1 <1>  -0.5600 
 19 C       -4.0480    -7.8700     0.1010 C.ar  1 <1>  -0.1430 
 20 C       -4.5740    -8.8400    -0.7280 C.ar  1 <1>  -0.1500 
 21 C       -4.6460    -7.7370     1.3380 C.ar  1 <1>  -0.1500 
 22 C       -5.6380    -9.6110    -0.2920 C.ar  1 <1>   0.1600 
 23 C       -5.7070    -8.5610     1.6780 C.ar  1 <1>   0.1600 
 24 N       -6.2170    -9.4960     0.8930 N.ar  1 <1>  -0.6200 
 25 H        2.0910    -3.2170     3.1370 H     1 <1>   0.3700 
 26 H        1.9870    -1.9250    -1.5200 H     1 <1>   0.1500 
 27 H       -1.1530    -2.9240    -0.1620 H     1 <1>   0.0800 
 28 H       -0.2820    -2.4690    -1.5940 H     1 <1>   0.0800 
 29 H        4.0120    -1.4450    -0.1040 H     1 <1>   0.1500 
 30 H       -0.2980    -5.3410     0.6930 H     1 <1>   0.3700 
 31 H       -0.1280    -7.1790    -1.6700 H     1 <1>   0.0800 
 32 H       -1.5940    -8.6890    -0.6060 H     1 <1>   0.0800 
 33 H        1.6510    -7.0580     0.3570 H     1 <1>   0.0800 
 34 H        1.0560    -8.6320    -0.1660 H     1 <1>   0.0800 
 35 H       -1.5110    -8.9870     1.6690 H     1 <1>   0.0800 
 36 H       -1.6410    -7.2640     2.0070 H     1 <1>   0.0800 
 37 H       -2.9790    -6.7560    -1.3720 H     1 <1>   0.0800 
 38 H       -2.8920    -6.0790     0.2230 H     1 <1>   0.0800 
 39 H       -4.1670    -9.0030    -1.7090 H     1 <1>   0.1500 
 40 H       -4.2980    -7.0030     2.0420 H     1 <1>   0.1500 
 41 H       -6.0350   -10.3620    -0.9530 H     1 <1>   0.1500 
 42 H       -6.1600    -8.4430     2.6470 H     1 <1>   0.1500 
@<TRIPOS>BOND
  1   1   2  2   
  2   2   3  am  
  3   2   4  am  
  4   3   5  1   
  5   3   6  1   
  6   4   7  am  
  7   4  25  1   
  8   5   8  2   
  9   5  26  1   
 10   6   9  1   
 11   6  27  1   
 12   6  28  1   
 13   7   8  1   
 14   7  10  2   
 15   8  29  1   
 16   9  11  2   
 17   9  12  am  
 18  12  13  1   
 19  12  30  1   
 20  13  14  1   
 21  13  15  1   
 22  13  31  1   
 23  14  16  1   
 24  14  17  1   
 25  14  32  1   
 26  15  18  1   
 27  15  33  1   
 28  15  34  1   
 29  16  18  1   
 30  16  35  1   
 31  16  36  1   
 32  17  19  1   
 33  17  37  1   
 34  17  38  1   
 35  19  20  ar  
 36  19  21  ar  
 37  20  22  ar  
 38  20  39  1   
 39  21  23  ar  
 40  21  40  1   
 41  22  24  ar  
 42  22  41  1   
 43  23  24  ar  
 44  23  42  1   
@<TRIPOS>SUBSTRUCTURE
  1 ****  12 GROUP 4 **** **** 0

# MOE 2024.06 (io_trps.svl 2023.06)
