@<TRIPOS>MOLECULE
NONAME
39 40 1 0 0 
SMALL
USER_CHARGES


@<TRIPOS>ATOM
  1 O       -0.9630     2.3620     0.9990 O.3   1 <1>  -0.5600 
  2 C       -0.2990     2.8860    -0.0940 C.3   1 <1>   0.1200 
  3 C       -2.1240     1.6600     0.6850 C.3   1 <1>   0.0400 
  4 C        0.9380     3.5940     0.4530 C.3   1 <1>  -0.1600 
  5 C        1.7530     4.2150    -0.6770 C.3   1 <1>   0.3430 
  6 N        2.9080     4.9760    -0.1230 N.4   1 <1>  -0.9590 
  7 C        3.4800     5.9070    -1.1390 C.3   1 <1>   0.4860 
  8 C        3.9660     4.0780     0.4490 C.3   1 <1>   0.2630 
  9 C        4.4440     6.8500    -0.4470 C.ar  1 <1>  -0.1440 
 10 C        3.9560     7.9050     0.3610 C.ar  1 <1>   0.0000 
 11 C        5.7950     6.6620    -0.6040 C.ar  1 <1>  -0.1500 
 12 C        4.8780     8.7260     1.0370 C.ar  1 <1>   0.0000 
 13 C        2.5980     8.2360     0.5610 C.ar  1 <1>  -0.1500 
 14 C        6.7070     7.4920     0.0520 C.ar  1 <1>  -0.1500 
 15 C        4.3780     9.7530     1.8680 C.ar  1 <1>   0.1600 
 16 C        6.2560     8.4970     0.8590 C.ar  1 <1>  -0.1500 
 17 C        2.2430     9.2640     1.3870 C.ar  1 <1>   0.1600 
 18 N        3.1230    10.0250     2.0550 N.ar  1 <1>  -0.6200 
 19 H       -0.9570     3.5740    -0.5980 H     1 <1>   0.0800 
 20 H       -0.0290     2.0760    -0.7520 H     1 <1>   0.0800 
 21 H       -2.5570     1.3010     1.6030 H     1 <1>   0.0800 
 22 H       -1.8770     0.8240     0.0530 H     1 <1>   0.0800 
 23 H       -2.8190     2.3170     0.1920 H     1 <1>   0.0800 
 24 H        1.5260     2.8680     0.9840 H     1 <1>   0.0800 
 25 H        0.6140     4.3610     1.1340 H     1 <1>   0.0800 
 26 H        1.1140     4.8820    -1.2350 H     1 <1>   0.0800 
 27 H        2.1020     3.4440    -1.3460 H     1 <1>   0.0800 
 28 H        2.5710     5.5700     0.6490 H     1 <1>   0.4500 
 29 H        2.6970     6.4810    -1.6070 H     1 <1>   0.0800 
 30 H        3.9960     5.3500    -1.9040 H     1 <1>   0.0800 
 31 H        4.3720     3.4370    -0.3160 H     1 <1>   0.0800 
 32 H        3.5550     3.4630     1.2330 H     1 <1>   0.0800 
 33 H        4.7670     4.6650     0.8700 H     1 <1>   0.0800 
 34 H        6.1920     5.8790    -1.2280 H     1 <1>   0.1500 
 35 H        1.8240     7.6920     0.0580 H     1 <1>   0.1500 
 36 H        7.7640     7.3300    -0.0850 H     1 <1>   0.1500 
 37 H        5.1010    10.3600     2.3870 H     1 <1>   0.1500 
 38 H        6.9550     9.1360     1.3710 H     1 <1>   0.1500 
 39 H        1.2040     9.5130     1.5350 H     1 <1>   0.1500 
@<TRIPOS>BOND
  1   1   2  1   
  2   1   3  1   
  3   2   4  1   
  4   2  19  1   
  5   2  20  1   
  6   3  21  1   
  7   3  22  1   
  8   3  23  1   
  9   4   5  1   
 10   4  24  1   
 11   4  25  1   
 12   5   6  1   
 13   5  26  1   
 14   5  27  1   
 15   6   7  1   
 16   6   8  1   
 17   6  28  1   
 18   7   9  1   
 19   7  29  1   
 20   7  30  1   
 21   8  31  1   
 22   8  32  1   
 23   8  33  1   
 24   9  10  ar  
 25   9  11  ar  
 26  10  12  ar  
 27  10  13  ar  
 28  11  14  ar  
 29  11  34  1   
 30  12  15  ar  
 31  12  16  ar  
 32  13  17  ar  
 33  13  35  1   
 34  14  16  ar  
 35  14  36  1   
 36  15  18  ar  
 37  15  37  1   
 38  16  38  1   
 39  17  18  ar  
 40  17  39  1   
@<TRIPOS>SUBSTRUCTURE
  1 ****   6 GROUP 4 **** **** 0

# MOE 2024.06 (io_trps.svl 2023.06)
