@<TRIPOS>MOLECULE
NONAME
41 42 1 0 0 
SMALL
USER_CHARGES


@<TRIPOS>ATOM
  1 S        0.3390     0.2840    -1.2440 S.o2  1 <1>   1.3330 
  2 O        0.6320    -1.0120    -1.8130 O.2   1 <1>  -0.6500 
  3 O       -0.5490     1.1890    -1.9380 O.2   1 <1>  -0.6500 
  4 N       -0.3110     0.0360     0.3070 N.am  1 <1>  -0.8490 
  5 C        1.8980     1.1130    -0.9240 C.3   1 <1>  -0.0550 
  6 C       -1.0100     1.2110     0.8390 C.3   1 <1>   0.1160 
  7 C       -1.1990    -1.1290     0.3530 C.3   1 <1>   0.1160 
  8 C        2.9610     0.2240    -0.2430 C.3   1 <1>  -0.0800 
  9 C        4.3420     0.8520    -0.1300 C.3   1 <1>   0.2200 
 10 C        2.6520    -0.1780     1.2060 C.3   1 <1>   0.1200 
 11 N        4.2440     2.2660     0.3050 N.am  1 <1>  -0.7300 
 12 C        4.9230     0.0330     1.0130 C.3   1 <1>   0.1200 
 13 O        3.8630    -0.1250     1.9060 O.3   1 <1>  -0.5600 
 14 C        4.3740     3.3550    -0.5070 C.2   1 <1>   0.5440 
 15 O        4.5220     3.1620    -1.6960 O.2   1 <1>  -0.5700 
 16 C        4.3250     4.7060     0.0280 C.ar  1 <1>   0.0860 
 17 C        3.7690     4.9910     1.2800 C.ar  1 <1>  -0.1500 
 18 C        4.8330     5.7820    -0.7060 C.ar  1 <1>  -0.1500 
 19 C        3.7420     6.2890     1.7540 C.ar  1 <1>   0.1900 
 20 C        4.7870     7.0660    -0.1960 C.ar  1 <1>   0.1900 
 21 F        3.2150     6.5150     2.9260 F     1 <1>  -0.1900 
 22 C        4.2450     7.3560     1.0390 C.ar  1 <1>  -0.1500 
 23 F        5.2740     8.0440    -0.9090 F     1 <1>  -0.1900 
 24 H        2.2990     1.4450    -1.8630 H     1 <1>   0.0800 
 25 H        1.7180     1.9870    -0.3300 H     1 <1>   0.0800 
 26 H       -1.3190     1.0300     1.8540 H     1 <1>   0.0800 
 27 H       -1.8810     1.4340     0.2420 H     1 <1>   0.0800 
 28 H       -0.3590     2.0680     0.8290 H     1 <1>   0.0800 
 29 H       -1.5870    -1.2660     1.3480 H     1 <1>   0.0800 
 30 H       -0.6570    -2.0190     0.0800 H     1 <1>   0.0800 
 31 H       -2.0200    -1.0020    -0.3330 H     1 <1>   0.0800 
 32 H        3.0600    -0.6820    -0.8160 H     1 <1>   0.0800 
 33 H        4.9200     0.7650    -1.0360 H     1 <1>   0.0800 
 34 H        2.2530    -1.1760     1.2670 H     1 <1>   0.0800 
 35 H        1.9760     0.5120     1.6790 H     1 <1>   0.0800 
 36 H        4.1440     2.3680     1.3180 H     1 <1>   0.3700 
 37 H        5.7460     0.5210     1.5040 H     1 <1>   0.0800 
 38 H        5.2220    -0.9440     0.6740 H     1 <1>   0.0800 
 39 H        3.3500     4.2120     1.8900 H     1 <1>   0.1500 
 40 H        5.2660     5.6140    -1.6780 H     1 <1>   0.1500 
 41 H        4.2170     8.3590     1.4220 H     1 <1>   0.1500 
@<TRIPOS>BOND
  1   1   2  2   
  2   1   3  2   
  3   1   4  am  
  4   1   5  1   
  5   4   6  1   
  6   4   7  1   
  7   5   8  1   
  8   5  24  1   
  9   5  25  1   
 10   6  26  1   
 11   6  27  1   
 12   6  28  1   
 13   7  29  1   
 14   7  30  1   
 15   7  31  1   
 16   8   9  1   
 17   8  10  1   
 18   8  32  1   
 19   9  11  1   
 20   9  12  1   
 21   9  33  1   
 22  10  13  1   
 23  10  34  1   
 24  10  35  1   
 25  11  14  am  
 26  11  36  1   
 27  12  13  1   
 28  12  37  1   
 29  12  38  1   
 30  14  15  2   
 31  14  16  1   
 32  16  17  ar  
 33  16  18  ar  
 34  17  19  ar  
 35  17  39  1   
 36  18  20  ar  
 37  18  40  1   
 38  19  21  1   
 39  19  22  ar  
 40  20  22  ar  
 41  20  23  1   
 42  22  41  1   
@<TRIPOS>SUBSTRUCTURE
  1 ****  11 GROUP 4 **** **** 0

# MOE 2024.06 (io_trps.svl 2023.06)
