@<TRIPOS>MOLECULE
NONAME
38 39 1 0 0 
SMALL
USER_CHARGES


@<TRIPOS>ATOM
  1 F       -0.2240    -4.1990    -4.1960 F     1 <1>  -0.3400 
  2 C        0.5230    -3.9820    -3.1150 C.3   1 <1>   1.1640 
  3 F        1.7410    -4.4150    -3.4320 F     1 <1>  -0.3400 
  4 F        0.6140    -2.6600    -3.0060 F     1 <1>  -0.3400 
  5 C       -0.0400    -4.6640    -1.8320 C.ar  1 <1>   0.1660 
  6 N        0.5640    -4.4350    -0.6590 N.ar  1 <1>  -0.6200 
  7 C       -1.1530    -5.4970    -1.9260 C.ar  1 <1>  -0.1500 
  8 C        0.0560    -5.0340     0.4070 C.ar  1 <1>   0.1600 
  9 C       -1.6620    -6.1140    -0.8050 C.ar  1 <1>  -0.1500 
 10 C       -1.0350    -5.8950     0.4120 C.ar  1 <1>   0.0860 
 11 C       -1.4680    -6.5070     1.6500 C.2   1 <1>   0.5440 
 12 O       -1.7220    -5.7930     2.5990 O.2   1 <1>  -0.5700 
 13 N       -1.5960    -7.8710     1.7990 N.am  1 <1>  -0.6600 
 14 C       -0.9070    -8.8310     0.8930 C.3   1 <1>   0.3200 
 15 C       -2.1460    -8.4690     3.0630 C.3   1 <1>   0.1400 
 16 C       -1.8470    -9.2650    -0.2100 C.2   1 <1>  -0.3320 
 17 C       -3.6120    -8.0870     3.3350 C.3   1 <1>   0.1200 
 18 N       -3.1460    -9.5630    -0.0230 N.pl3 1 <1>   0.0330 
 19 C       -1.6110    -9.4240    -1.5310 C.2   1 <1>   0.0770 
 20 O       -4.3660    -8.1810     2.1720 O.3   1 <1>  -0.6800 
 21 C       -3.6200    -9.8730    -1.2470 C.2   1 <1>   0.0060 
 22 N       -2.7280    -9.8010    -2.1790 N.2   1 <1>  -0.5650 
 23 C       -5.0640   -10.2570    -1.4850 C.3   1 <1>  -0.0600 
 24 H       -1.6360    -5.6750    -2.8730 H     1 <1>   0.1500 
 25 H        0.5350    -4.8330     1.3520 H     1 <1>   0.1500 
 26 H       -2.5270    -6.7520    -0.8730 H     1 <1>   0.1500 
 27 H       -0.5800    -9.6920     1.4490 H     1 <1>   0.0800 
 28 H       -0.0310    -8.3730     0.4640 H     1 <1>   0.0800 
 29 H       -1.5430    -8.1450     3.8950 H     1 <1>   0.0800 
 30 H       -2.0840    -9.5420     3.0200 H     1 <1>   0.0800 
 31 H       -3.6790    -7.0750     3.6990 H     1 <1>   0.0800 
 32 H       -4.0400    -8.7450     4.0700 H     1 <1>   0.0800 
 33 H       -3.6790    -9.4980     0.8570 H     1 <1>   0.2700 
 34 H       -0.6850    -9.2820    -2.0640 H     1 <1>   0.1500 
 35 H       -4.0950    -7.4450     1.5830 H     1 <1>   0.4000 
 36 H       -5.7160    -9.4700    -1.1540 H     1 <1>   0.0800 
 37 H       -5.2970   -11.1600    -0.9510 H     1 <1>   0.0800 
 38 H       -5.2280   -10.4260    -2.5350 H     1 <1>   0.0800 
@<TRIPOS>BOND
  1   1   2  1   
  2   2   3  1   
  3   2   4  1   
  4   2   5  1   
  5   5   6  ar  
  6   5   7  ar  
  7   6   8  ar  
  8   7   9  ar  
  9   7  24  1   
 10   8  10  ar  
 11   8  25  1   
 12   9  10  ar  
 13   9  26  1   
 14  10  11  1   
 15  11  12  2   
 16  11  13  am  
 17  13  14  1   
 18  13  15  1   
 19  14  16  1   
 20  14  27  1   
 21  14  28  1   
 22  15  17  1   
 23  15  29  1   
 24  15  30  1   
 25  16  18  1   
 26  16  19  2   
 27  17  20  1   
 28  17  31  1   
 29  17  32  1   
 30  18  21  1   
 31  18  33  1   
 32  19  22  1   
 33  19  34  1   
 34  20  35  1   
 35  21  22  2   
 36  21  23  1   
 37  23  36  1   
 38  23  37  1   
 39  23  38  1   
@<TRIPOS>SUBSTRUCTURE
  1 ****   9 GROUP 4 **** **** 0

# MOE 2024.06 (io_trps.svl 2023.06)
