@<TRIPOS>MOLECULE
NONAME
37 39 1 0 0 
SMALL
USER_CHARGES


@<TRIPOS>ATOM
  1 S       -2.1770     0.3740    -0.5870 S.3   1 <1>  -0.0800 
  2 C       -1.6980     1.0930     0.9330 C.2   1 <1>   0.4620 
  3 C       -1.9050    -1.2230     0.0860 C.2   1 <1>  -0.0450 
  4 N       -1.3720     0.2460     1.8370 N.2   1 <1>  -0.5650 
  5 N       -1.7000     2.4360     1.0540 N.pl3 1 <1>  -0.8840 
  6 C       -2.1410    -2.3890    -0.7130 C.2   1 <1>   0.7150 
  7 C       -1.4880    -1.0330     1.3600 C.2   1 <1>   0.0770 
  8 O       -2.4900    -2.3130    -1.8760 O.2   1 <1>  -0.5700 
  9 N       -1.9940    -3.6310    -0.1690 N.am  1 <1>  -0.7300 
 10 C       -2.1980    -4.9140    -0.8840 C.3   1 <1>   0.2200 
 11 C       -3.5340    -5.5470    -0.5150 C.3   1 <1>  -0.0800 
 12 C       -1.2380    -5.9460    -0.3120 C.3   1 <1>   0.1200 
 13 C       -3.2160    -6.2910     0.7870 C.3   1 <1>   0.1200 
 14 C       -4.7360    -4.5890    -0.4230 C.3   1 <1>  -0.0170 
 15 O       -1.8220    -6.3490     0.8890 O.3   1 <1>  -0.5600 
 16 C       -6.0150    -5.3510    -0.1130 C.ar  1 <1>  -0.1430 
 17 C       -6.5480    -5.4020     1.1590 C.ar  1 <1>  -0.1500 
 18 C       -6.7080    -6.0340    -1.0920 C.ar  1 <1>  -0.1500 
 19 C       -7.7120    -6.1180     1.3860 C.ar  1 <1>   0.1600 
 20 C       -7.8650    -6.7200    -0.7600 C.ar  1 <1>   0.1600 
 21 N       -8.3810    -6.7800     0.4570 N.ar  1 <1>  -0.6200 
 22 H       -1.9620     3.0610     0.2920 H     1 <1>   0.4000 
 23 H       -1.4160     2.8730     1.9320 H     1 <1>   0.4000 
 24 H       -1.2360    -1.8310     2.0370 H     1 <1>   0.1500 
 25 H       -1.7530    -3.7440     0.8160 H     1 <1>   0.3700 
 26 H       -2.0750    -4.7860    -1.9470 H     1 <1>   0.0800 
 27 H       -3.7590    -6.2910    -1.2600 H     1 <1>   0.0800 
 28 H       -0.2550    -5.5490    -0.1250 H     1 <1>   0.0800 
 29 H       -1.1710    -6.8080    -0.9540 H     1 <1>   0.0800 
 30 H       -3.6090    -7.2940     0.7790 H     1 <1>   0.0800 
 31 H       -3.5840    -5.7640     1.6500 H     1 <1>   0.0800 
 32 H       -4.8500    -4.0670    -1.3580 H     1 <1>   0.0800 
 33 H       -4.5730    -3.8490     0.3400 H     1 <1>   0.0800 
 34 H       -6.0730    -4.8910     1.9770 H     1 <1>   0.1500 
 35 H       -6.3620    -6.0380    -2.1090 H     1 <1>   0.1500 
 36 H       -8.1140    -6.1470     2.3840 H     1 <1>   0.1500 
 37 H       -8.3920    -7.2470    -1.5360 H     1 <1>   0.1500 
@<TRIPOS>BOND
  1   1   2  1   
  2   1   3  1   
  3   2   4  2   
  4   2   5  1   
  5   3   6  1   
  6   3   7  2   
  7   4   7  1   
  8   5  22  1   
  9   5  23  1   
 10   6   8  2   
 11   6   9  am  
 12   7  24  1   
 13   9  10  1   
 14   9  25  1   
 15  10  11  1   
 16  10  12  1   
 17  10  26  1   
 18  11  13  1   
 19  11  14  1   
 20  11  27  1   
 21  12  15  1   
 22  12  28  1   
 23  12  29  1   
 24  13  15  1   
 25  13  30  1   
 26  13  31  1   
 27  14  16  1   
 28  14  32  1   
 29  14  33  1   
 30  16  17  ar  
 31  16  18  ar  
 32  17  19  ar  
 33  17  34  1   
 34  18  20  ar  
 35  18  35  1   
 36  19  21  ar  
 37  19  36  1   
 38  20  21  ar  
 39  20  37  1   
@<TRIPOS>SUBSTRUCTURE
  1 ****  14 GROUP 4 **** **** 0

# MOE 2024.06 (io_trps.svl 2023.06)
