@<TRIPOS>MOLECULE
NONAME
45 48 1 0 0 
SMALL
USER_CHARGES


@<TRIPOS>ATOM
  1 O       -0.5290    -0.2230    -0.0230 O.3   1 <1>  -0.5320 
  2 C       -1.8130     0.1560     0.0630 C.ar  1 <1>   0.0820 
  3 C       -2.8210    -0.7920     0.0930 C.ar  1 <1>  -0.1500 
  4 C       -2.1200     1.5000     0.1260 C.ar  1 <1>  -0.1500 
  5 C       -4.1470    -0.3970     0.1790 C.ar  1 <1>  -0.1430 
  6 C       -3.4420     1.8960     0.2110 C.ar  1 <1>  -0.1500 
  7 C       -4.4710     0.9600     0.2220 C.ar  1 <1>  -0.1430 
  8 C       -5.2150    -1.4830     0.2220 C.3   1 <1>  -0.0170 
  9 C       -5.9350     1.4150     0.3280 C.3   1 <1>   0.0630 
 10 C       -6.5790    -0.9510     0.6710 C.3   1 <1>  -0.1600 
 11 C       -6.9150     0.3410    -0.1000 C.3   1 <1>  -0.0800 
 12 C       -6.3080     2.5620    -0.5810 C.3   1 <1>  -0.1600 
 13 C       -8.4020     0.7870     0.0570 C.3   1 <1>  -0.0800 
 14 C       -7.7170     3.0570    -0.2380 C.3   1 <1>  -0.1600 
 15 C       -9.0940     2.2500    -0.0530 C.3   1 <1>   0.0000 
 16 C       -9.1790    -0.1350    -0.8910 C.3   1 <1>  -0.1600 
 17 C      -10.5290     1.5290     0.0970 C.3   1 <1>   0.2000 
 18 C       -9.8670     3.6640    -0.1050 C.3   1 <1>  -0.2400 
 19 C      -10.5950     0.1260    -0.5260 C.3   1 <1>   0.2000 
 20 O      -10.8920     1.4820     1.4570 O.3   1 <1>  -0.6800 
 21 O      -11.0050    -0.8260     0.3970 O.3   1 <1>  -0.6800 
 22 H       -0.4220    -1.1890    -0.0610 H     1 <1>   0.4500 
 23 H       -2.5760    -1.8360     0.0510 H     1 <1>   0.1500 
 24 H       -1.3270     2.2250     0.1110 H     1 <1>   0.1500 
 25 H       -3.6510     2.9470     0.2750 H     1 <1>   0.1500 
 26 H       -5.3080    -1.9040    -0.7630 H     1 <1>   0.0800 
 27 H       -4.9070    -2.2690     0.8900 H     1 <1>   0.0800 
 28 H       -6.1200     1.6890     1.3530 H     1 <1>   0.0800 
 29 H       -6.5500    -0.7450     1.7280 H     1 <1>   0.0800 
 30 H       -7.3130    -1.7180     0.5100 H     1 <1>   0.0800 
 31 H       -6.7330     0.1390    -1.1440 H     1 <1>   0.0800 
 32 H       -5.6300     3.3840    -0.4490 H     1 <1>   0.0800 
 33 H       -6.2490     2.2670    -1.6160 H     1 <1>   0.0800 
 34 H       -8.6050     0.4690     1.0680 H     1 <1>   0.0800 
 35 H       -7.8270     3.7860    -1.0290 H     1 <1>   0.0800 
 36 H       -7.5600     3.5900     0.6880 H     1 <1>   0.0800 
 37 H       -8.9490    -1.1820    -0.8100 H     1 <1>   0.0800 
 38 H       -9.0090     0.1790    -1.9060 H     1 <1>   0.0800 
 39 H      -11.3330     2.0390    -0.4120 H     1 <1>   0.0800 
 40 H       -9.3380     4.5640     0.1740 H     1 <1>   0.0800 
 41 H      -10.7120     3.7530     0.5610 H     1 <1>   0.0800 
 42 H      -10.2270     3.8320    -1.1070 H     1 <1>   0.0800 
 43 H      -11.2410     0.0850    -1.3860 H     1 <1>   0.0800 
 44 H      -10.1600     1.0820     1.9660 H     1 <1>   0.4000 
 45 H      -11.5340    -0.3530     1.0760 H     1 <1>   0.4000 
@<TRIPOS>BOND
  1   1   2  1   
  2   1  22  1   
  3   2   3  ar  
  4   2   4  ar  
  5   3   5  ar  
  6   3  23  1   
  7   4   6  ar  
  8   4  24  1   
  9   5   7  ar  
 10   5   8  1   
 11   6   7  ar  
 12   6  25  1   
 13   7   9  1   
 14   8  10  1   
 15   8  26  1   
 16   8  27  1   
 17   9  11  1   
 18   9  12  1   
 19   9  28  1   
 20  10  11  1   
 21  10  29  1   
 22  10  30  1   
 23  11  13  1   
 24  11  31  1   
 25  12  14  1   
 26  12  32  1   
 27  12  33  1   
 28  13  15  1   
 29  13  16  1   
 30  13  34  1   
 31  14  15  1   
 32  14  35  1   
 33  14  36  1   
 34  15  17  1   
 35  15  18  1   
 36  16  19  1   
 37  16  37  1   
 38  16  38  1   
 39  17  19  1   
 40  17  20  1   
 41  17  39  1   
 42  18  40  1   
 43  18  41  1   
 44  18  42  1   
 45  19  21  1   
 46  19  43  1   
 47  20  44  1   
 48  21  45  1   
@<TRIPOS>SUBSTRUCTURE
  1 ****  11 GROUP 4 **** **** 0

# MOE 2024.06 (io_trps.svl 2023.06)
