@<TRIPOS>MOLECULE
NONAME
51 53 1 0 0 
SMALL
USER_CHARGES


@<TRIPOS>ATOM
  1 O        1.1460     1.3390     0.7920 O.3   1 <1>  -0.0190 
  2 N        2.1420     0.5260     0.9760 N.2   1 <1>  -0.4100 
  3 C        1.1720     1.8800    -0.3960 C.2   1 <1>  -0.0400 
  4 C        2.8110     0.5250    -0.1210 C.2   1 <1>   0.1080 
  5 C        2.2350     1.3870    -1.0500 C.2   1 <1>  -0.1500 
  6 C        0.1120     2.8910    -0.7870 C.3   1 <1>   0.0200 
  7 C        4.0540    -0.3060    -0.3570 C.3   1 <1>  -0.0590 
  8 C       -0.1150     3.9210     0.3370 C.3   1 <1>  -0.0800 
  9 C       -0.9410     5.1160    -0.1420 C.3   1 <1>   0.2000 
 10 C        1.2100     4.5270     0.8340 C.3   1 <1>   0.3430 
 11 O       -1.6410     5.6190     0.9480 O.3   1 <1>  -0.6800 
 12 C        0.1220     6.1470    -0.5220 C.3   1 <1>   0.3430 
 13 N        1.1520     5.9900     0.5420 N.4   1 <1>  -0.9590 
 14 C        2.4780     6.6020     0.2660 C.3   1 <1>   0.3430 
 15 C        2.3630     8.1270     0.2340 C.3   1 <1>  -0.1600 
 16 C        3.7450     8.7640     0.0280 C.3   1 <1>  -0.1600 
 17 C        3.6710    10.2920     0.0040 C.3   1 <1>   0.1200 
 18 O        4.9760    10.7760    -0.2000 O.3   1 <1>  -0.3630 
 19 C        5.2330    12.1060    -0.2690 C.ar  1 <1>   0.0820 
 20 C        6.5530    12.4740    -0.4780 C.ar  1 <1>  -0.1500 
 21 C        4.2590    13.0930    -0.1420 C.ar  1 <1>  -0.1500 
 22 C        6.9040    13.8090    -0.5610 C.ar  1 <1>  -0.1500 
 23 C        4.6130    14.4290    -0.2250 C.ar  1 <1>  -0.1500 
 24 C        5.9330    14.7880    -0.4350 C.ar  1 <1>  -0.1500 
 25 H        2.5940     1.5780    -2.0450 H     1 <1>   0.1500 
 26 H        0.4190     3.3750    -1.6980 H     1 <1>   0.0800 
 27 H       -0.8070     2.3670    -0.9830 H     1 <1>   0.0800 
 28 H        4.8810     0.3310    -0.6080 H     1 <1>   0.0800 
 29 H        3.8820    -0.9980    -1.1610 H     1 <1>   0.0800 
 30 H        4.2990    -0.8610     0.5310 H     1 <1>   0.0800 
 31 H       -0.6060     3.4160     1.1530 H     1 <1>   0.0800 
 32 H       -1.6340     4.9010    -0.9390 H     1 <1>   0.0800 
 33 H        2.0410     4.0740     0.3180 H     1 <1>   0.0800 
 34 H        1.3290     4.3570     1.8930 H     1 <1>   0.0800 
 35 H       -2.4150     5.0570     1.1680 H     1 <1>   0.4000 
 36 H       -0.2910     7.1420    -0.5450 H     1 <1>   0.0800 
 37 H        0.5420     5.9020    -1.4830 H     1 <1>   0.0800 
 38 H        0.7340     6.4280     1.3780 H     1 <1>   0.4500 
 39 H        3.1720     6.3210     1.0430 H     1 <1>   0.0800 
 40 H        2.8640     6.2430    -0.6740 H     1 <1>   0.0800 
 41 H        1.7180     8.4340    -0.5710 H     1 <1>   0.0800 
 42 H        1.9530     8.4770     1.1650 H     1 <1>   0.0800 
 43 H        4.1660     8.4280    -0.9050 H     1 <1>   0.0800 
 44 H        4.4050     8.4690     0.8270 H     1 <1>   0.0800 
 45 H        3.3110    10.6770     0.9430 H     1 <1>   0.0800 
 46 H        3.0530    10.6380    -0.8060 H     1 <1>   0.0800 
 47 H        7.3010    11.7080    -0.5750 H     1 <1>   0.1500 
 48 H        3.2280    12.8460     0.0220 H     1 <1>   0.1500 
 49 H        7.9310    14.0860    -0.7240 H     1 <1>   0.1500 
 50 H        3.8610    15.1930    -0.1270 H     1 <1>   0.1500 
 51 H        6.2060    15.8270    -0.4990 H     1 <1>   0.1500 
@<TRIPOS>BOND
  1   1   2  1   
  2   1   3  1   
  3   2   4  2   
  4   3   5  2   
  5   3   6  1   
  6   4   5  1   
  7   4   7  1   
  8   5  25  1   
  9   6   8  1   
 10   6  26  1   
 11   6  27  1   
 12   7  28  1   
 13   7  29  1   
 14   7  30  1   
 15   8   9  1   
 16   8  10  1   
 17   8  31  1   
 18   9  11  1   
 19   9  12  1   
 20   9  32  1   
 21  10  13  1   
 22  10  33  1   
 23  10  34  1   
 24  11  35  1   
 25  12  13  1   
 26  12  36  1   
 27  12  37  1   
 28  13  14  1   
 29  13  38  1   
 30  14  15  1   
 31  14  39  1   
 32  14  40  1   
 33  15  16  1   
 34  15  41  1   
 35  15  42  1   
 36  16  17  1   
 37  16  43  1   
 38  16  44  1   
 39  17  18  1   
 40  17  45  1   
 41  17  46  1   
 42  18  19  1   
 43  19  20  ar  
 44  19  21  ar  
 45  20  22  ar  
 46  20  47  1   
 47  21  23  ar  
 48  21  48  1   
 49  22  24  ar  
 50  22  49  1   
 51  23  24  ar  
 52  23  50  1   
 53  24  51  1   
@<TRIPOS>SUBSTRUCTURE
  1 ****  14 GROUP 4 **** **** 0

# MOE 2024.06 (io_trps.svl 2023.06)
