@<TRIPOS>MOLECULE
NONAME
53 55 1 0 0 
SMALL
USER_CHARGES


@<TRIPOS>ATOM
  1 O       -0.2640     1.3570     1.6810 O.2   1 <1>  -0.5700 
  2 C       -0.2400     2.3970     1.0740 C.2   1 <1>   0.5690 
  3 N       -0.9540     3.4620     1.4970 N.am  1 <1>  -0.7300 
  4 C        0.5790     2.5190    -0.2130 C.3   1 <1>   0.1810 
  5 C       -1.0290     4.7520     0.7680 C.3   1 <1>   0.3640 
  6 O        0.8470     3.8610    -0.5560 O.3   1 <1>  -0.5600 
  7 C       -2.5020     5.1200     0.6200 C.ar  1 <1>  -0.1440 
  8 C       -0.3040     4.7000    -0.6040 C.3   1 <1>   0.2610 
  9 C       -2.9310     6.3930     0.9610 C.ar  1 <1>  -0.1500 
 10 C       -3.4330     4.2050     0.1430 C.ar  1 <1>  -0.1500 
 11 C        0.0920     6.1170    -1.0360 C.2   1 <1>   0.5690 
 12 C       -4.2600     6.7530     0.8250 C.ar  1 <1>   0.0830 
 13 C       -4.7670     4.5540     0.0120 C.ar  1 <1>  -0.1500 
 14 O       -0.7630     6.9290    -1.2940 O.2   1 <1>  -0.5700 
 15 N        1.4110     6.4400    -1.1070 N.am  1 <1>  -0.7300 
 16 O       -4.6010     8.0160     1.1750 O.3   1 <1>  -0.3630 
 17 C       -5.2000     5.8310     0.3550 C.ar  1 <1>   0.0830 
 18 C        1.9660     7.7440    -1.5460 C.3   1 <1>   0.1400 
 19 C       -4.9020     8.8900     0.1110 C.3   1 <1>   0.0400 
 20 O       -6.5040     6.2180     0.2560 O.3   1 <1>  -0.3630 
 21 C        2.4610     8.5640    -0.3430 C.3   1 <1>   0.0000 
 22 C       -7.5230     5.3020    -0.0760 C.3   1 <1>   0.0400 
 23 C        3.3720     9.7490    -0.7840 C.3   1 <1>   0.0000 
 24 C        3.7010     7.9290     0.3550 C.3   1 <1>   0.0000 
 25 C        1.2920     8.9540     0.5940 C.3   1 <1>   0.1200 
 26 C        4.4120     9.3060     0.2790 C.3   1 <1>   0.0000 
 27 O        1.7070     9.7360     1.6640 O.3   1 <1>  -0.6800 
 28 H       -1.5340     3.3660     2.3330 H     1 <1>   0.3700 
 29 H        0.0470     2.0570    -1.0240 H     1 <1>   0.0800 
 30 H        1.5210     2.0170    -0.0840 H     1 <1>   0.0800 
 31 H       -0.5450     5.4980     1.3760 H     1 <1>   0.0800 
 32 H       -0.9690     4.3010    -1.3490 H     1 <1>   0.0800 
 33 H       -2.2410     7.1310     1.3290 H     1 <1>   0.1500 
 34 H       -3.1260     3.2090    -0.1270 H     1 <1>   0.1500 
 35 H       -5.4510     3.8150    -0.3580 H     1 <1>   0.1500 
 36 H        2.0840     5.6910    -0.9080 H     1 <1>   0.3700 
 37 H        2.7750     7.5620    -2.2330 H     1 <1>   0.0800 
 38 H        1.2080     8.3020    -2.0710 H     1 <1>   0.0800 
 39 H       -5.0530     9.8740     0.5170 H     1 <1>   0.0800 
 40 H       -5.7980     8.5540    -0.3800 H     1 <1>   0.0800 
 41 H       -4.0760     8.8950    -0.5780 H     1 <1>   0.0800 
 42 H       -8.4630     5.8220    -0.0370 H     1 <1>   0.0800 
 43 H       -7.5180     4.5010     0.6420 H     1 <1>   0.0800 
 44 H       -7.3500     4.9330    -1.0710 H     1 <1>   0.0800 
 45 H        3.7570     9.6410    -1.7840 H     1 <1>   0.0000 
 46 H        2.9570    10.7240    -0.5990 H     1 <1>   0.0000 
 47 H        3.5180     7.5940     1.3610 H     1 <1>   0.0000 
 48 H        4.1960     7.1900    -0.2510 H     1 <1>   0.0000 
 49 H        0.8220     8.0730     0.9960 H     1 <1>   0.0800 
 50 H        0.5520     9.5150     0.0490 H     1 <1>   0.0800 
 51 H        4.3390     9.8650     1.1950 H     1 <1>   0.0000 
 52 H        5.4160     9.2480    -0.1020 H     1 <1>   0.0000 
 53 H        2.4080     9.2820     2.1690 H     1 <1>   0.4000 
@<TRIPOS>BOND
  1   1   2  2   
  2   2   3  am  
  3   2   4  1   
  4   3   5  1   
  5   3  28  1   
  6   4   6  1   
  7   4  29  1   
  8   4  30  1   
  9   5   7  1   
 10   5   8  1   
 11   5  31  1   
 12   6   8  1   
 13   7   9  ar  
 14   7  10  ar  
 15   8  11  1   
 16   8  32  1   
 17   9  12  ar  
 18   9  33  1   
 19  10  13  ar  
 20  10  34  1   
 21  11  14  2   
 22  11  15  am  
 23  12  16  1   
 24  12  17  ar  
 25  13  17  ar  
 26  13  35  1   
 27  15  18  1   
 28  15  36  1   
 29  16  19  1   
 30  17  20  1   
 31  18  21  1   
 32  18  37  1   
 33  18  38  1   
 34  19  39  1   
 35  19  40  1   
 36  19  41  1   
 37  20  22  1   
 38  21  23  1   
 39  21  24  1   
 40  21  25  1   
 41  22  42  1   
 42  22  43  1   
 43  22  44  1   
 44  23  26  1   
 45  23  45  1   
 46  23  46  1   
 47  24  26  1   
 48  24  47  1   
 49  24  48  1   
 50  25  27  1   
 51  25  49  1   
 52  25  50  1   
 53  26  51  1   
 54  26  52  1   
 55  27  53  1   
@<TRIPOS>SUBSTRUCTURE
  1 ****   5 GROUP 4 **** **** 0

# MOE 2024.06 (io_trps.svl 2023.06)
