@<TRIPOS>MOLECULE
NONAME
53 54 1 0 0 
SMALL
USER_CHARGES


@<TRIPOS>ATOM
  1 O        0.7420    -0.5940     2.2130 O.2   1 <1>  -0.5700 
  2 C        1.0690    -0.5620     1.0490 C.2   1 <1>   0.5690 
  3 N        1.5950     0.5500     0.4780 N.am  1 <1>  -0.7300 
  4 C        0.8540    -1.8350     0.2140 C.3   1 <1>   0.4040 
  5 C        2.0050     1.7690     1.2000 C.3   1 <1>   0.2840 
  6 N       -0.2600    -2.7200     0.7470 N.4   1 <1>  -0.9590 
  7 C        3.4780     2.0010     0.9090 C.ar  1 <1>  -0.1430 
  8 C       -0.2830    -4.1030     0.1650 C.3   1 <1>   0.4230 
  9 C       -1.5660    -1.9980     0.5860 C.3   1 <1>   0.2630 
 10 C        3.9170     2.2750    -0.3850 C.ar  1 <1>   0.0820 
 11 C        4.3960     1.9380     1.9460 C.ar  1 <1>  -0.1500 
 12 C       -1.3320    -4.9980     0.8530 C.3   1 <1>  -0.0170 
 13 C        1.1060    -4.7470     0.2800 C.3   1 <1>  -0.2400 
 14 O        2.9880     2.3150    -1.3790 O.3   1 <1>  -0.3620 
 15 C        5.2740     2.4880    -0.6200 C.ar  1 <1>  -0.1500 
 16 C        5.7420     2.1500     1.7050 C.ar  1 <1>  -0.1500 
 17 C       -1.5840    -6.2260     0.0040 C.ar  1 <1>   0.1670 
 18 C        3.2880     2.8940    -2.6320 C.3   1 <1>   0.0400 
 19 C        6.1800     2.4260     0.4230 C.ar  1 <1>  -0.1500 
 20 N       -1.9160    -5.9800    -1.2530 N.ar  1 <1>  -0.6200 
 21 C       -1.4590    -7.4960     0.5480 C.ar  1 <1>  -0.1500 
 22 C       -2.1400    -7.0520    -2.0000 C.ar  1 <1>   0.1600 
 23 C       -1.6880    -8.6030    -0.2420 C.ar  1 <1>  -0.1430 
 24 C       -2.0400    -8.3580    -1.5530 C.ar  1 <1>  -0.1500 
 25 C       -1.5670   -10.0150     0.3010 C.3   1 <1>  -0.0970 
 26 H        1.9370     0.5820    -0.4900 H     1 <1>   0.3700 
 27 H        1.7870    -2.3690     0.2300 H     1 <1>   0.0800 
 28 H        0.6450    -1.5560    -0.8030 H     1 <1>   0.0800 
 29 H        1.8370     1.6580     2.2580 H     1 <1>   0.0800 
 30 H        1.4300     2.6080     0.8480 H     1 <1>   0.0800 
 31 H       -0.0730    -2.7840     1.7620 H     1 <1>   0.4500 
 32 H       -0.5420    -4.0340    -0.8800 H     1 <1>   0.0800 
 33 H       -1.8340    -1.9320    -0.4560 H     1 <1>   0.0800 
 34 H       -1.4950    -1.0000     0.9910 H     1 <1>   0.0800 
 35 H       -2.3540    -2.5090     1.1130 H     1 <1>   0.0800 
 36 H        4.0710     1.7230     2.9500 H     1 <1>   0.1500 
 37 H       -2.2780    -4.5010     0.9430 H     1 <1>   0.0800 
 38 H       -1.0000    -5.2810     1.8360 H     1 <1>   0.0800 
 39 H        1.4680    -4.7160     1.2920 H     1 <1>   0.0800 
 40 H        1.8130    -4.2790    -0.3790 H     1 <1>   0.0800 
 41 H        1.0570    -5.7790    -0.0230 H     1 <1>   0.0800 
 42 H        5.6450     2.6980    -1.6040 H     1 <1>   0.1500 
 43 H        6.4480     2.1000     2.5160 H     1 <1>   0.1500 
 44 H        2.3810     2.9420    -3.2070 H     1 <1>   0.0800 
 45 H        4.0100     2.2800    -3.1400 H     1 <1>   0.0800 
 46 H        3.6720     3.8870    -2.4750 H     1 <1>   0.0800 
 47 H        7.2270     2.5910     0.2380 H     1 <1>   0.1500 
 48 H       -1.1890    -7.6260     1.5800 H     1 <1>   0.1500 
 49 H       -2.4190    -6.8830    -3.0260 H     1 <1>   0.1500 
 50 H       -2.2390    -9.1700    -2.2280 H     1 <1>   0.1500 
 51 H       -0.8270   -10.0580     1.0800 H     1 <1>   0.0800 
 52 H       -1.2770   -10.6950    -0.4800 H     1 <1>   0.0800 
 53 H       -2.5130   -10.3330     0.7030 H     1 <1>   0.0800 
@<TRIPOS>BOND
  1   1   2  2   
  2   2   3  am  
  3   2   4  1   
  4   3   5  1   
  5   3  26  1   
  6   4   6  1   
  7   4  27  1   
  8   4  28  1   
  9   5   7  1   
 10   5  29  1   
 11   5  30  1   
 12   6   8  1   
 13   6   9  1   
 14   6  31  1   
 15   7  10  ar  
 16   7  11  ar  
 17   8  12  1   
 18   8  13  1   
 19   8  32  1   
 20   9  33  1   
 21   9  34  1   
 22   9  35  1   
 23  10  14  1   
 24  10  15  ar  
 25  11  16  ar  
 26  11  36  1   
 27  12  17  1   
 28  12  37  1   
 29  12  38  1   
 30  13  39  1   
 31  13  40  1   
 32  13  41  1   
 33  14  18  1   
 34  15  19  ar  
 35  15  42  1   
 36  16  19  ar  
 37  16  43  1   
 38  17  20  ar  
 39  17  21  ar  
 40  18  44  1   
 41  18  45  1   
 42  18  46  1   
 43  19  47  1   
 44  20  22  ar  
 45  21  23  ar  
 46  21  48  1   
 47  22  24  ar  
 48  22  49  1   
 49  23  24  ar  
 50  23  25  1   
 51  24  50  1   
 52  25  51  1   
 53  25  52  1   
 54  25  53  1   
@<TRIPOS>SUBSTRUCTURE
  1 ****   4 GROUP 4 **** **** 0

# MOE 2024.06 (io_trps.svl 2023.06)
