@<TRIPOS>MOLECULE
NONAME
51 53 1 0 0 
SMALL
USER_CHARGES


@<TRIPOS>ATOM
  1 O       -0.5750     0.1460     0.1590 O.2   1 <1>  -0.5700 
  2 C       -1.5400     0.7830    -0.2180 C.2   1 <1>   0.5440 
  3 N       -2.6670     0.1030    -0.6270 N.am  1 <1>  -0.6600 
  4 C       -1.4830     2.2320    -0.2080 C.ar  1 <1>   0.0860 
  5 C       -4.0490     0.6690    -0.5420 C.3   1 <1>   0.1400 
  6 C       -2.6590    -1.3740    -0.8700 C.3   1 <1>   0.1400 
  7 C       -1.9360     3.0140    -1.2600 C.ar  1 <1>  -0.1500 
  8 C       -0.9620     2.9390     0.8640 C.ar  1 <1>  -0.1500 
  9 C       -4.9310    -0.1720     0.4010 C.3   1 <1>   0.2950 
 10 C       -3.6230    -2.1000     0.0940 C.3   1 <1>   0.2000 
 11 C       -1.8750     4.3930    -1.1860 C.ar  1 <1>   0.1660 
 12 C       -0.9410     4.3210     0.8500 C.ar  1 <1>   0.1660 
 13 O       -4.8940    -1.5190     0.0270 O.3   1 <1>  -0.5600 
 14 C       -6.3940     0.2800     0.3540 C.3   1 <1>  -0.1950 
 15 C       -3.8010    -3.5880    -0.2370 C.3   1 <1>  -0.1600 
 16 N       -1.3950     5.0550    -0.1500 N.ar  1 <1>  -0.6200 
 17 C       -2.3740     5.2430    -2.3340 C.3   1 <1>  -0.0970 
 18 C       -0.3740     5.0880     2.0250 C.3   1 <1>  -0.0970 
 19 C       -6.8810     1.4100     1.2070 C.3   1 <1>  -0.2000 
 20 C       -7.3270     0.0030     1.4900 C.3   1 <1>  -0.2000 
 21 C       -2.5090    -4.4030    -0.0610 C.3   1 <1>  -0.1600 
 22 C       -2.7630    -5.8940    -0.3100 C.3   1 <1>  -0.1600 
 23 C       -1.4780    -6.7080    -0.1380 C.3   1 <1>  -0.2400 
 24 H       -4.0280     1.6790    -0.1750 H     1 <1>   0.0800 
 25 H       -4.4880     0.6780    -1.5230 H     1 <1>   0.0800 
 26 H       -2.9630    -1.5640    -1.8830 H     1 <1>   0.0800 
 27 H       -1.6660    -1.7670    -0.7490 H     1 <1>   0.0800 
 28 H       -2.3310     2.5340    -2.1360 H     1 <1>   0.1500 
 29 H       -0.5720     2.3940     1.7050 H     1 <1>   0.1500 
 30 H       -4.5620    -0.0940     1.4090 H     1 <1>   0.0800 
 31 H       -3.2620    -2.0030     1.1040 H     1 <1>   0.0800 
 32 H       -6.8030     0.2060    -0.6390 H     1 <1>   0.1000 
 33 H       -4.5530    -3.9880     0.4210 H     1 <1>   0.0800 
 34 H       -4.1530    -3.6850    -1.2480 H     1 <1>   0.0800 
 35 H       -2.7500     4.6360    -3.1360 H     1 <1>   0.0800 
 36 H       -1.5690     5.8500    -2.7050 H     1 <1>   0.0800 
 37 H       -3.1600     5.8890    -1.9870 H     1 <1>   0.0800 
 38 H       -0.0220     4.4230     2.7910 H     1 <1>   0.0800 
 39 H       -1.1350     5.7250     2.4380 H     1 <1>   0.0800 
 40 H        0.4440     5.6990     1.6910 H     1 <1>   0.0800 
 41 H       -6.2110     1.8800     1.9060 H     1 <1>   0.1000 
 42 H       -7.5970     2.1010     0.7950 H     1 <1>   0.1000 
 43 H       -8.3380    -0.2840     1.2600 H     1 <1>   0.1000 
 44 H       -6.9430    -0.5060     2.3580 H     1 <1>   0.1000 
 45 H       -1.7570    -4.0580    -0.7490 H     1 <1>   0.0800 
 46 H       -2.1340    -4.2690     0.9400 H     1 <1>   0.0800 
 47 H       -3.5050    -6.2560     0.3810 H     1 <1>   0.0800 
 48 H       -3.1410    -6.0350    -1.3090 H     1 <1>   0.0800 
 49 H       -1.0940    -6.5990     0.8610 H     1 <1>   0.0800 
 50 H       -0.7270    -6.3800    -0.8360 H     1 <1>   0.0800 
 51 H       -1.6760    -7.7510    -0.3160 H     1 <1>   0.0800 
@<TRIPOS>BOND
  1   1   2  2   
  2   2   3  am  
  3   2   4  1   
  4   3   5  1   
  5   3   6  1   
  6   4   7  ar  
  7   4   8  ar  
  8   5   9  1   
  9   5  24  1   
 10   5  25  1   
 11   6  10  1   
 12   6  26  1   
 13   6  27  1   
 14   7  11  ar  
 15   7  28  1   
 16   8  12  ar  
 17   8  29  1   
 18   9  13  1   
 19   9  14  1   
 20   9  30  1   
 21  10  13  1   
 22  10  15  1   
 23  10  31  1   
 24  11  16  ar  
 25  11  17  1   
 26  12  16  ar  
 27  12  18  1   
 28  14  19  1   
 29  14  20  1   
 30  14  32  1   
 31  15  21  1   
 32  15  33  1   
 33  15  34  1   
 34  17  35  1   
 35  17  36  1   
 36  17  37  1   
 37  18  38  1   
 38  18  39  1   
 39  18  40  1   
 40  19  20  1   
 41  19  41  1   
 42  19  42  1   
 43  20  43  1   
 44  20  44  1   
 45  21  22  1   
 46  21  45  1   
 47  21  46  1   
 48  22  23  1   
 49  22  47  1   
 50  22  48  1   
 51  23  49  1   
 52  23  50  1   
 53  23  51  1   
@<TRIPOS>SUBSTRUCTURE
  1 ****   3 GROUP 4 **** **** 0

# MOE 2024.06 (io_trps.svl 2023.06)
