@<TRIPOS>MOLECULE
NONAME
54 57 1 0 0 
SMALL
USER_CHARGES


@<TRIPOS>ATOM
  1 CL      -1.6940    -0.8130    -2.1000 Cl    1 <1>  -0.1770 
  2 C       -2.2460     0.2610    -0.8360 C.ar  1 <1>   0.1770 
  3 C       -2.7930    -0.2770     0.3310 C.ar  1 <1>  -0.1440 
  4 C       -2.1360     1.6270    -1.0410 C.ar  1 <1>  -0.1500 
  5 C       -3.2460     0.5830     1.3290 C.ar  1 <1>  -0.1500 
  6 C       -2.8950    -1.7780     0.5180 C.3   1 <1>   0.4870 
  7 C       -2.5980     2.4510    -0.0350 C.ar  1 <1>   0.0830 
  8 C       -3.1370     1.9430     1.1120 C.ar  1 <1>   0.0830 
  9 N       -3.8950    -2.3350    -0.4350 N.4   1 <1>  -0.9590 
 10 O       -2.6070     3.7860     0.0060 O.3   1 <1>  -0.3630 
 11 O       -3.5100     2.9360     1.9240 O.3   1 <1>  -0.3620 
 12 C       -3.9790    -3.8270    -0.3120 C.3   1 <1>   0.5660 
 13 C       -5.2500    -1.7030    -0.2990 C.3   1 <1>   0.3430 
 14 C       -3.1720     4.1570     1.2630 C.3   1 <1>   0.4000 
 15 C       -2.6240    -4.4110    -0.6900 C.ar  1 <1>  -0.1430 
 16 C       -5.1240    -4.4510    -1.1540 C.3   1 <1>   0.2000 
 17 C       -6.2750    -2.3750    -1.2290 C.3   1 <1>   0.1200 
 18 C       -1.9100    -5.1150     0.2700 C.ar  1 <1>  -0.1500 
 19 C       -2.0820    -4.2560    -1.9610 C.ar  1 <1>  -0.1500 
 20 O       -6.3300    -3.7460    -0.9720 O.3   1 <1>  -0.5600 
 21 C       -5.3510    -5.9160    -0.7480 C.3   1 <1>   0.1200 
 22 C       -0.6670    -5.6480    -0.0200 C.ar  1 <1>   0.0830 
 23 C       -0.8340    -4.7780    -2.2550 C.ar  1 <1>  -0.1500 
 24 O       -5.4050    -6.0260     0.6400 O.3   1 <1>  -0.6800 
 25 O       -0.0480    -6.3360     0.9690 O.3   1 <1>  -0.3630 
 26 C       -0.1120    -5.4590    -1.2900 C.ar  1 <1>   0.0830 
 27 C        0.2080    -7.7050     0.7330 C.3   1 <1>   0.0400 
 28 O        1.1160    -5.9110    -1.6370 O.3   1 <1>  -0.3630 
 29 C        2.2180    -5.3170    -0.9850 C.3   1 <1>   0.0400 
 30 H       -1.7110     2.0360    -1.9400 H     1 <1>   0.1500 
 31 H       -3.6700     0.2320     2.2540 H     1 <1>   0.1500 
 32 H       -3.1860    -2.0000     1.5320 H     1 <1>   0.0800 
 33 H       -1.9270    -2.2220     0.3410 H     1 <1>   0.0800 
 34 H       -3.5290    -2.1400    -1.3740 H     1 <1>   0.4500 
 35 H       -4.1770    -4.0740     0.7190 H     1 <1>   0.0800 
 36 H       -5.5990    -1.7980     0.7160 H     1 <1>   0.0800 
 37 H       -5.1930    -0.6530    -0.5340 H     1 <1>   0.0800 
 38 H       -2.4410     4.6920     1.8430 H     1 <1>   0.0800 
 39 H       -4.0600     4.7420     1.1030 H     1 <1>   0.0800 
 40 H       -4.8860    -4.4140    -2.2020 H     1 <1>   0.0800 
 41 H       -6.0270    -2.2210    -2.2650 H     1 <1>   0.0800 
 42 H       -7.2570    -1.9710    -1.0480 H     1 <1>   0.0800 
 43 H       -2.3080    -5.2730     1.2580 H     1 <1>   0.1500 
 44 H       -2.6070    -3.7300    -2.7390 H     1 <1>   0.1500 
 45 H       -4.5420    -6.5360    -1.0950 H     1 <1>   0.0800 
 46 H       -6.2770    -6.2780    -1.1630 H     1 <1>   0.0800 
 47 H       -0.4060    -4.6580    -3.2350 H     1 <1>   0.1500 
 48 H       -5.7740    -6.8960     0.9030 H     1 <1>   0.4000 
 49 H        0.5650    -8.1420     1.6480 H     1 <1>   0.0800 
 50 H        0.9550    -7.8040    -0.0330 H     1 <1>   0.0800 
 51 H       -0.7060    -8.1840     0.4290 H     1 <1>   0.0800 
 52 H        3.1180    -5.7240    -1.4080 H     1 <1>   0.0800 
 53 H        2.1750    -5.5380     0.0660 H     1 <1>   0.0800 
 54 H        2.1850    -4.2540    -1.1460 H     1 <1>   0.0800 
@<TRIPOS>BOND
  1   1   2  1   
  2   2   3  ar  
  3   2   4  ar  
  4   3   5  ar  
  5   3   6  1   
  6   4   7  ar  
  7   4  30  1   
  8   5   8  ar  
  9   5  31  1   
 10   6   9  1   
 11   6  32  1   
 12   6  33  1   
 13   7   8  ar  
 14   7  10  1   
 15   8  11  1   
 16   9  12  1   
 17   9  13  1   
 18   9  34  1   
 19  10  14  1   
 20  11  14  1   
 21  12  15  1   
 22  12  16  1   
 23  12  35  1   
 24  13  17  1   
 25  13  36  1   
 26  13  37  1   
 27  14  38  1   
 28  14  39  1   
 29  15  18  ar  
 30  15  19  ar  
 31  16  20  1   
 32  16  21  1   
 33  16  40  1   
 34  17  20  1   
 35  17  41  1   
 36  17  42  1   
 37  18  22  ar  
 38  18  43  1   
 39  19  23  ar  
 40  19  44  1   
 41  21  24  1   
 42  21  45  1   
 43  21  46  1   
 44  22  25  1   
 45  22  26  ar  
 46  23  26  ar  
 47  23  47  1   
 48  24  48  1   
 49  25  27  1   
 50  26  28  1   
 51  27  49  1   
 52  27  50  1   
 53  27  51  1   
 54  28  29  1   
 55  29  52  1   
 56  29  53  1   
 57  29  54  1   
@<TRIPOS>SUBSTRUCTURE
  1 ****   6 GROUP 4 **** **** 0

# MOE 2024.06 (io_trps.svl 2023.06)
