@<TRIPOS>MOLECULE
NONAME
47 50 1 0 0 
SMALL
USER_CHARGES


@<TRIPOS>ATOM
  1 S       -0.5540     0.0910    -1.2500 S.o2  1 <1>   1.5000 
  2 O       -1.2090    -1.0110    -1.9230 O.2   1 <1>  -0.6500 
  3 O       -0.2980     1.3120    -1.9820 O.2   1 <1>  -0.6500 
  4 N       -1.5200     0.4910     0.0840 N.am  1 <1>  -0.8490 
  5 C        0.9900    -0.4940    -0.5070 C.2   1 <1>  -0.0220 
  6 C       -2.6710     1.3230    -0.3160 C.3   1 <1>   0.1960 
  7 C       -1.9730    -0.6930     0.8220 C.3   1 <1>   0.1960 
  8 S        1.6750     0.4300     0.8300 S.3   1 <1>  -0.0800 
  9 C        1.7940    -1.5440    -0.7800 C.2   1 <1>  -0.1500 
 10 C       -3.4480     1.8410     0.9100 C.3   1 <1>   0.1440 
 11 C       -2.7060    -0.2710     2.1010 C.3   1 <1>  -0.1600 
 12 C        3.0380    -0.6640     0.9720 C.2   1 <1>  -0.1100 
 13 C        2.9510    -1.6440     0.0560 C.2   1 <1>  -0.1500 
 14 C       -4.6180     2.6700     0.4200 C.ar  1 <1>   0.1670 
 15 C       -3.8950     0.6500     1.7830 C.3   1 <1>  -0.1600 
 16 C       -2.6150     2.8760     1.7150 C.3   1 <1>  -0.1600 
 17 N       -5.7010     2.1940    -0.1410 N.ar  1 <1>  -0.6200 
 18 C       -4.4050     4.0010     0.6130 C.ar  1 <1>  -0.1430 
 19 C       -3.0680     4.2720     1.2540 C.3   1 <1>  -0.0170 
 20 C       -6.6040     3.1080    -0.5050 C.ar  1 <1>   0.7200 
 21 C       -5.3880     4.8680     0.2070 C.ar  1 <1>   0.1600 
 22 N       -6.4920     4.4320    -0.3510 N.ar  1 <1>  -0.6200 
 23 N       -7.7600     2.6410    -1.0980 N.pl3 1 <1>  -0.8380 
 24 C       -7.8780     1.2520    -1.6210 C.3   1 <1>   0.1290 
 25 C       -8.9590     3.5060    -1.2800 C.3   1 <1>   0.1290 
 26 H       -3.3320     0.7510    -0.9460 H     1 <1>   0.0800 
 27 H       -2.3300     2.1720    -0.8850 H     1 <1>   0.0800 
 28 H       -1.1260    -1.3030     1.0900 H     1 <1>   0.0800 
 29 H       -2.6300    -1.2840     0.2030 H     1 <1>   0.0800 
 30 H        1.6130    -2.2670    -1.5570 H     1 <1>   0.1500 
 31 H       -2.0120     0.2290     2.7520 H     1 <1>   0.0800 
 32 H       -3.0600    -1.1490     2.6120 H     1 <1>   0.0800 
 33 H        3.7680    -0.4530     1.7340 H     1 <1>   0.1500 
 34 H        3.6600    -2.4450    -0.0720 H     1 <1>   0.1500 
 35 H       -4.6360     0.0830     1.2450 H     1 <1>   0.0800 
 36 H       -4.3560     1.0000     2.6900 H     1 <1>   0.0800 
 37 H       -1.5560     2.7400     1.5850 H     1 <1>   0.0800 
 38 H       -2.8390     2.7810     2.7630 H     1 <1>   0.0800 
 39 H       -2.3870     4.6670     0.5190 H     1 <1>   0.0800 
 40 H       -3.1520     4.9550     2.0820 H     1 <1>   0.0800 
 41 H       -5.2660     5.9290     0.3380 H     1 <1>   0.1500 
 42 H       -6.9130     0.8780    -1.9200 H     1 <1>   0.0800 
 43 H       -8.5270     1.2320    -2.4780 H     1 <1>   0.0800 
 44 H       -8.2780     0.6130    -0.8540 H     1 <1>   0.0800 
 45 H       -9.0080     4.2500    -0.5030 H     1 <1>   0.0800 
 46 H       -9.8540     2.9120    -1.2350 H     1 <1>   0.0800 
 47 H       -8.9040     3.9990    -2.2340 H     1 <1>   0.0800 
@<TRIPOS>BOND
  1   1   2  2   
  2   1   3  2   
  3   1   4  am  
  4   1   5  1   
  5   4   6  1   
  6   4   7  1   
  7   5   8  1   
  8   5   9  2   
  9   6  10  1   
 10   6  26  1   
 11   6  27  1   
 12   7  11  1   
 13   7  28  1   
 14   7  29  1   
 15   8  12  1   
 16   9  13  1   
 17   9  30  1   
 18  10  14  1   
 19  10  15  1   
 20  10  16  1   
 21  11  15  1   
 22  11  31  1   
 23  11  32  1   
 24  12  13  2   
 25  12  33  1   
 26  13  34  1   
 27  14  17  ar  
 28  14  18  ar  
 29  15  35  1   
 30  15  36  1   
 31  16  19  1   
 32  16  37  1   
 33  16  38  1   
 34  17  20  ar  
 35  18  19  1   
 36  18  21  ar  
 37  19  39  1   
 38  19  40  1   
 39  20  22  ar  
 40  20  23  1   
 41  21  22  ar  
 42  21  41  1   
 43  23  24  1   
 44  23  25  1   
 45  24  42  1   
 46  24  43  1   
 47  24  44  1   
 48  25  45  1   
 49  25  46  1   
 50  25  47  1   
@<TRIPOS>SUBSTRUCTURE
  1 ****   6 GROUP 4 **** **** 0

# MOE 2024.06 (io_trps.svl 2023.06)
