@<TRIPOS>MOLECULE
NONAME
44 45 1 0 0 
SMALL
USER_CHARGES


@<TRIPOS>ATOM
  1 S       -0.4990     0.7460     1.1740 S.o2  1 <1>   1.4470 
  2 O       -0.2230    -0.3970     2.0190 O.2   1 <1>  -0.6500 
  3 O       -1.1550     1.8920     1.7720 O.2   1 <1>  -0.6500 
  4 N       -1.4310     0.2100    -0.1370 N.am  1 <1>  -0.8490 
  5 C        1.0640     1.2630     0.4170 C.ar  1 <1>  -0.0090 
  6 C       -0.9270    -1.0210    -0.8020 C.3   1 <1>   0.1960 
  7 C       -2.8730     0.1750     0.1170 C.3   1 <1>   0.1960 
  8 C        1.1330     2.3290    -0.4740 C.ar  1 <1>   0.0820 
  9 C        2.2440     0.5880     0.7080 C.ar  1 <1>  -0.1500 
 10 C       -1.8280    -2.2730    -0.6770 C.3   1 <1>   0.2000 
 11 C       -3.2870    -1.0140     1.0020 C.3   1 <1>  -0.1600 
 12 O        0.0210     3.0170    -0.8070 O.3   1 <1>  -0.3630 
 13 C        2.3330     2.6970    -1.0610 C.ar  1 <1>  -0.1500 
 14 C        3.4570     0.9520     0.1310 C.ar  1 <1>   0.0820 
 15 O       -2.7950    -2.2560    -1.6730 O.3   1 <1>  -0.6800 
 16 C       -2.5290    -2.3290     0.6830 C.3   1 <1>  -0.1860 
 17 C       -0.1450     4.2740    -0.1910 C.3   1 <1>   0.0400 
 18 C        3.5000     2.0160    -0.7630 C.ar  1 <1>  -0.1440 
 19 O        4.6240     0.3050     0.4000 O.3   1 <1>  -0.3630 
 20 C       -3.4040    -3.5650     0.7690 C.2   1 <1>   0.9060 
 21 C        4.8110     2.4330    -1.4150 C.3   1 <1>  -0.0960 
 22 C        4.6890    -0.7470     1.3390 C.3   1 <1>   0.0400 
 23 O       -3.1930    -4.3900     1.6600 O.co2 1 <1>  -0.9000 
 24 O       -4.2830    -3.7220    -0.0910 O.co2 1 <1>  -0.9000 
 25 H       -0.7810    -0.8140    -1.8480 H     1 <1>   0.0800 
 26 H        0.0360    -1.2750    -0.3950 H     1 <1>   0.0800 
 27 H       -3.1970     1.0990     0.5650 H     1 <1>   0.0800 
 28 H       -3.3790     0.0920    -0.8310 H     1 <1>   0.0800 
 29 H        2.1950    -0.2330     1.3980 H     1 <1>   0.1500 
 30 H       -1.2450    -3.1650    -0.8260 H     1 <1>   0.0800 
 31 H       -3.1380    -0.7640     2.0370 H     1 <1>   0.0800 
 32 H       -4.3430    -1.1700     0.8650 H     1 <1>   0.0800 
 33 H        2.3410     3.5160    -1.7560 H     1 <1>   0.1500 
 34 H       -3.5400    -2.8390    -1.3350 H     1 <1>   0.4000 
 35 H       -1.7630    -2.4510     1.4260 H     1 <1>   0.0800 
 36 H       -1.0900     4.6790    -0.5050 H     1 <1>   0.0800 
 37 H        0.6560     4.9240    -0.4940 H     1 <1>   0.0800 
 38 H       -0.1400     4.1440     0.8770 H     1 <1>   0.0800 
 39 H        4.6710     3.2690    -2.0740 H     1 <1>   0.0800 
 40 H        5.2120     1.6110    -1.9810 H     1 <1>   0.0800 
 41 H        5.5230     2.7070    -0.6570 H     1 <1>   0.0800 
 42 H        5.7100    -1.0790     1.3970 H     1 <1>   0.0800 
 43 H        4.0610    -1.5540     1.0040 H     1 <1>   0.0800 
 44 H        4.3690    -0.3800     2.2980 H     1 <1>   0.0800 
@<TRIPOS>BOND
  1   1   2  2   
  2   1   3  2   
  3   1   4  am  
  4   1   5  1   
  5   4   6  1   
  6   4   7  1   
  7   5   8  ar  
  8   5   9  ar  
  9   6  10  1   
 10   6  25  1   
 11   6  26  1   
 12   7  11  1   
 13   7  27  1   
 14   7  28  1   
 15   8  12  1   
 16   8  13  ar  
 17   9  14  ar  
 18   9  29  1   
 19  10  15  1   
 20  10  16  1   
 21  10  30  1   
 22  11  16  1   
 23  11  31  1   
 24  11  32  1   
 25  12  17  1   
 26  13  18  ar  
 27  13  33  1   
 28  14  18  ar  
 29  14  19  1   
 30  15  34  1   
 31  16  20  1   
 32  16  35  1   
 33  17  36  1   
 34  17  37  1   
 35  17  38  1   
 36  18  21  1   
 37  19  22  1   
 38  20  23  ar  
 39  20  24  ar  
 40  21  39  1   
 41  21  40  1   
 42  21  41  1   
 43  22  42  1   
 44  22  43  1   
 45  22  44  1   
@<TRIPOS>SUBSTRUCTURE
  1 ****   1 GROUP 4 **** **** 0

# MOE 2024.06 (io_trps.svl 2023.06)
