@<TRIPOS>MOLECULE
NONAME
46 48 1 0 0 
SMALL
USER_CHARGES


@<TRIPOS>ATOM
  1 O       -2.4300     0.0040    -2.7780 O.2   1 <1>  -0.5700 
  2 C       -2.4110    -0.5470    -1.7120 C.2   1 <1>   0.5690 
  3 N       -2.2020     0.1580    -0.5870 N.am  1 <1>  -0.7300 
  4 C       -2.6640    -2.0280    -1.6330 C.3   1 <1>  -0.0190 
  5 C       -2.1610    -0.3970     0.7850 C.3   1 <1>   0.2200 
  6 C       -1.4560    -2.7850    -1.0380 C.3   1 <1>   0.1200 
  7 C       -4.0220    -2.2540    -0.9550 C.3   1 <1>   0.3430 
  8 C       -1.0300    -1.4480     0.9080 C.3   1 <1>   0.1200 
  9 C       -3.5600    -0.9360     1.1980 C.3   1 <1>   0.3430 
 10 O       -1.3780    -2.6940     0.3610 O.3   1 <1>  -0.5600 
 11 N       -3.9750    -2.2310     0.5480 N.4   1 <1>  -0.9590 
 12 C       -5.1970    -2.8150     1.1680 C.3   1 <1>   0.4860 
 13 C       -5.4150    -4.2150     0.6180 C.ar  1 <1>  -0.1430 
 14 C       -6.4650    -4.4530    -0.2680 C.ar  1 <1>  -0.1430 
 15 C       -4.5600    -5.2580     0.9760 C.ar  1 <1>  -0.1430 
 16 C       -6.6320    -5.7190    -0.8050 C.ar  1 <1>  -0.1500 
 17 C       -7.4610    -3.3710    -0.6740 C.3   1 <1>  -0.0970 
 18 C       -4.7490    -6.5130     0.4210 C.ar  1 <1>  -0.1500 
 19 C       -3.4080    -5.1080     1.9650 C.3   1 <1>  -0.0970 
 20 C       -5.7780    -6.7510    -0.4690 C.ar  1 <1>  -0.1430 
 21 C       -5.9720    -8.1330    -1.0670 C.3   1 <1>  -0.0970 
 22 H       -1.9820     1.1530    -0.7150 H     1 <1>   0.3700 
 23 H       -2.7660    -2.3610    -2.6500 H     1 <1>   0.0800 
 24 H       -1.9170     0.4190     1.4430 H     1 <1>   0.0800 
 25 H       -0.5310    -2.4270    -1.4610 H     1 <1>   0.0800 
 26 H       -1.5430    -3.8320    -1.2740 H     1 <1>   0.0800 
 27 H       -4.3780    -3.2200    -1.2760 H     1 <1>   0.0800 
 28 H       -4.7240    -1.5170    -1.3120 H     1 <1>   0.0800 
 29 H       -0.8180    -1.6190     1.9490 H     1 <1>   0.0800 
 30 H       -0.1240    -1.0980     0.4400 H     1 <1>   0.0800 
 31 H       -4.2940    -0.1750     0.9900 H     1 <1>   0.0800 
 32 H       -3.5440    -1.0850     2.2650 H     1 <1>   0.0800 
 33 H       -3.2030    -2.8950     0.7550 H     1 <1>   0.4500 
 34 H       -5.0810    -2.8720     2.2370 H     1 <1>   0.0800 
 35 H       -6.0490    -2.1920     0.9570 H     1 <1>   0.0800 
 36 H       -7.4380    -5.9140    -1.4920 H     1 <1>   0.1500 
 37 H       -8.1890    -3.7600    -1.3640 H     1 <1>   0.0800 
 38 H       -6.9630    -2.5490    -1.1540 H     1 <1>   0.0800 
 39 H       -7.9920    -3.0130     0.1900 H     1 <1>   0.0800 
 40 H       -4.0890    -7.3220     0.6850 H     1 <1>   0.1500 
 41 H       -3.2380    -6.0400     2.4750 H     1 <1>   0.0800 
 42 H       -3.6140    -4.3700     2.7170 H     1 <1>   0.0800 
 43 H       -2.5040    -4.8490     1.4440 H     1 <1>   0.0800 
 44 H       -7.0130    -8.3170    -1.2610 H     1 <1>   0.0800 
 45 H       -5.6170    -8.8900    -0.3910 H     1 <1>   0.0800 
 46 H       -5.4270    -8.2110    -1.9910 H     1 <1>   0.0800 
@<TRIPOS>BOND
  1   1   2  2   
  2   2   3  am  
  3   2   4  1   
  4   3   5  1   
  5   3  22  1   
  6   4   6  1   
  7   4   7  1   
  8   4  23  1   
  9   5   8  1   
 10   5   9  1   
 11   5  24  1   
 12   6  10  1   
 13   6  25  1   
 14   6  26  1   
 15   7  11  1   
 16   7  27  1   
 17   7  28  1   
 18   8  10  1   
 19   8  29  1   
 20   8  30  1   
 21   9  11  1   
 22   9  31  1   
 23   9  32  1   
 24  11  12  1   
 25  11  33  1   
 26  12  13  1   
 27  12  34  1   
 28  12  35  1   
 29  13  14  ar  
 30  13  15  ar  
 31  14  16  ar  
 32  14  17  1   
 33  15  18  ar  
 34  15  19  1   
 35  16  20  ar  
 36  16  36  1   
 37  17  37  1   
 38  17  38  1   
 39  17  39  1   
 40  18  20  ar  
 41  18  40  1   
 42  19  41  1   
 43  19  42  1   
 44  19  43  1   
 45  20  21  1   
 46  21  44  1   
 47  21  45  1   
 48  21  46  1   
@<TRIPOS>SUBSTRUCTURE
  1 ****  11 GROUP 4 **** **** 0

# MOE 2024.06 (io_trps.svl 2023.06)
