@<TRIPOS>MOLECULE
NONAME
55 59 1 0 0 
SMALL
USER_CHARGES


@<TRIPOS>ATOM
  1 N        0.1610     0.4450     0.4750 N.ar  1 <1>  -0.6200 
  2 C       -1.0620     0.9620     0.6740 C.ar  1 <1>   0.6200 
  3 C        0.8620     1.0110    -0.4760 C.ar  1 <1>   0.1660 
  4 N       -1.5770     1.9990    -0.0010 N.ar  1 <1>  -0.6200 
  5 C       -1.8940     0.3500     1.7000 C.ar  1 <1>   0.0000 
  6 C        0.4200     2.0660    -1.2090 C.ar  1 <1>  -0.1430 
  7 C        2.2520     0.5840    -0.8860 C.3   1 <1>   0.1440 
  8 C       -0.8350     2.5460    -0.9370 C.ar  1 <1>   0.1600 
  9 C       -1.3420    -0.2290     2.8470 C.ar  1 <1>  -0.1500 
 10 C       -3.2870     0.3120     1.5840 C.ar  1 <1>  -0.1500 
 11 C        1.4470     2.5170    -2.2180 C.3   1 <1>  -0.0160 
 12 C        3.1050     0.3990     0.3810 C.3   1 <1>   0.3430 
 13 C        2.1880    -0.7340    -1.6860 C.3   1 <1>  -0.1600 
 14 C        2.7210     1.7760    -1.7650 C.3   1 <1>  -0.1600 
 15 C       -2.1330    -0.8140     3.8200 C.ar  1 <1>  -0.1500 
 16 C       -4.0840    -0.2700     2.5520 C.ar  1 <1>  -0.1500 
 17 N        4.4600    -0.1550     0.0600 N.4   1 <1>  -0.9590 
 18 C        3.5870    -1.3300    -1.9310 C.3   1 <1>  -0.1600 
 19 C       -3.5080    -0.8360     3.6750 C.ar  1 <1>  -0.1500 
 20 C        4.3920    -1.4720    -0.6360 C.3   1 <1>   0.3430 
 21 C        5.3760    -0.1960     1.2340 C.3   1 <1>   0.5230 
 22 C        6.8060    -0.1000     0.7260 C.2   1 <1>   0.0060 
 23 N        7.1100     0.2620    -0.4750 N.2   1 <1>  -0.3380 
 24 N        7.9030    -0.3630     1.4430 N.pl3 1 <1>   0.0330 
 25 N        8.4360     0.2340    -0.5670 N.2   1 <1>  -0.3380 
 26 C        8.8920    -0.1360     0.5790 C.2   1 <1>   0.0060 
 27 C       10.3660    -0.2970     0.9100 C.3   1 <1>   0.0200 
 28 C       10.8100     0.6870     1.9980 C.3   1 <1>  -0.2400 
 29 H       -1.2360     3.3800    -1.4870 H     1 <1>   0.1500 
 30 H       -0.2760    -0.2200     2.9810 H     1 <1>   0.1500 
 31 H       -3.7530     0.7480     0.7170 H     1 <1>   0.1500 
 32 H        1.5810     3.5860    -2.2030 H     1 <1>   0.0800 
 33 H        1.1490     2.2010    -3.2030 H     1 <1>   0.0800 
 34 H        2.5860    -0.2750     1.0430 H     1 <1>   0.0800 
 35 H        3.1970     1.3500     0.8810 H     1 <1>   0.0800 
 36 H        1.6870    -0.5740    -2.6260 H     1 <1>   0.0800 
 37 H        1.6010    -1.4490    -1.1330 H     1 <1>   0.0800 
 38 H        3.3110     1.4720    -2.6110 H     1 <1>   0.0800 
 39 H        3.3060     2.4570    -1.1720 H     1 <1>   0.0800 
 40 H       -1.6810    -1.2520     4.6930 H     1 <1>   0.1500 
 41 H       -5.1530    -0.2820     2.4330 H     1 <1>   0.1500 
 42 H        4.9460     0.4790    -0.5990 H     1 <1>   0.4500 
 43 H        4.1410    -0.7230    -2.6250 H     1 <1>   0.0800 
 44 H        3.4820    -2.3030    -2.3810 H     1 <1>   0.0800 
 45 H       -4.1260    -1.2890     4.4300 H     1 <1>   0.1500 
 46 H        3.9180    -2.2010     0.0020 H     1 <1>   0.0800 
 47 H        5.3870    -1.8170    -0.8720 H     1 <1>   0.0800 
 48 H        5.2300    -1.1070     1.7910 H     1 <1>   0.0800 
 49 H        5.1830     0.6440     1.8810 H     1 <1>   0.0800 
 50 H        8.0080    -0.6610     2.4160 H     1 <1>   0.2700 
 51 H       10.9430    -0.1200     0.0190 H     1 <1>   0.0800 
 52 H       10.5570    -1.3070     1.2270 H     1 <1>   0.0800 
 53 H       10.6160     1.6970     1.6810 H     1 <1>   0.0800 
 54 H       11.8670     0.5840     2.1740 H     1 <1>   0.0800 
 55 H       10.2910     0.5030     2.9200 H     1 <1>   0.0800 
@<TRIPOS>BOND
  1   1   2  ar  
  2   1   3  ar  
  3   2   4  ar  
  4   2   5  1   
  5   3   6  ar  
  6   3   7  1   
  7   4   8  ar  
  8   5   9  ar  
  9   5  10  ar  
 10   6   8  ar  
 11   6  11  1   
 12   7  12  1   
 13   7  13  1   
 14   7  14  1   
 15   8  29  1   
 16   9  15  ar  
 17   9  30  1   
 18  10  16  ar  
 19  10  31  1   
 20  11  14  1   
 21  11  32  1   
 22  11  33  1   
 23  12  17  1   
 24  12  34  1   
 25  12  35  1   
 26  13  18  1   
 27  13  36  1   
 28  13  37  1   
 29  14  38  1   
 30  14  39  1   
 31  15  19  ar  
 32  15  40  1   
 33  16  19  ar  
 34  16  41  1   
 35  17  20  1   
 36  17  21  1   
 37  17  42  1   
 38  18  20  1   
 39  18  43  1   
 40  18  44  1   
 41  19  45  1   
 42  20  46  1   
 43  20  47  1   
 44  21  22  1   
 45  21  48  1   
 46  21  49  1   
 47  22  23  2   
 48  22  24  1   
 49  23  25  1   
 50  24  26  1   
 51  24  50  1   
 52  25  26  2   
 53  26  27  1   
 54  27  28  1   
 55  27  51  1   
 56  27  52  1   
 57  28  53  1   
 58  28  54  1   
 59  28  55  1   
@<TRIPOS>SUBSTRUCTURE
  1 ****  12 GROUP 4 **** **** 0

# MOE 2024.06 (io_trps.svl 2023.06)
