@<TRIPOS>MOLECULE
NONAME
55 58 1 0 0 
SMALL
USER_CHARGES


@<TRIPOS>ATOM
  1 O       -2.4200    -0.2580    -2.6380 O.2   1 <1>  -0.5700 
  2 C       -2.8830    -0.4020    -1.5290 C.2   1 <1>   0.5690 
  3 N       -3.0740    -1.6550    -0.9920 N.am  1 <1>  -0.6600 
  4 C       -3.2560     0.8760    -0.7790 C.3   1 <1>   0.1810 
  5 C       -3.6860    -1.8960     0.3650 C.3   1 <1>   0.2200 
  6 C       -2.6180    -2.8420    -1.7770 C.3   1 <1>   0.1400 
  7 O       -2.5820     0.9640     0.4690 O.3   1 <1>  -0.3630 
  8 C       -2.5950    -2.1910     1.4150 C.3   1 <1>   0.1200 
  9 C       -4.8560    -2.9140     0.3980 C.3   1 <1>   0.1100 
 10 C       -2.3800    -4.1160    -0.9470 C.3   1 <1>  -0.0800 
 11 C       -2.8030     1.9980     1.3170 C.ar  1 <1>   0.0820 
 12 O       -2.1260    -3.5070     1.3880 O.3   1 <1>  -0.5600 
 13 N       -4.8640    -3.9910    -0.6250 N.3   1 <1>  -0.8100 
 14 C       -1.4310    -3.8760     0.2410 C.3   1 <1>   0.1200 
 15 C       -3.6790    -4.8540    -0.5580 C.3   1 <1>   0.1100 
 16 C       -3.6650     3.0570     1.0430 C.ar  1 <1>  -0.1500 
 17 C       -2.1170     1.9710     2.5210 C.ar  1 <1>  -0.1500 
 18 C       -6.1470    -4.7300    -0.6200 C.3   1 <1>   0.2900 
 19 C       -3.8330     4.0700     1.9720 C.ar  1 <1>  -0.1500 
 20 C       -2.2860     2.9850     3.4480 C.ar  1 <1>  -0.1500 
 21 C       -6.5260    -5.3340     0.7320 C.2   1 <1>   0.0070 
 22 C       -3.1460     4.0340     3.1730 C.ar  1 <1>  -0.1500 
 23 N       -7.1740    -4.7030     1.6500 N.2   1 <1>  -0.5650 
 24 N       -6.2590    -6.5940     1.1120 N.pl3 1 <1>   0.3140 
 25 C       -7.2720    -5.6350     2.6030 C.2   1 <1>   0.3660 
 26 N       -6.7450    -6.7810     2.3310 N.2   1 <1>  -0.7070 
 27 C       -5.6010    -7.6980     0.3800 C.3   1 <1>   0.0960 
 28 C       -6.5960    -8.4380    -0.5230 C.3   1 <1>  -0.2400 
 29 H       -4.3150     0.8900    -0.6030 H     1 <1>   0.0800 
 30 H       -2.9750     1.7290    -1.3700 H     1 <1>   0.0800 
 31 H       -4.1290    -0.9770     0.6970 H     1 <1>   0.0800 
 32 H       -3.3460    -3.0440    -2.5440 H     1 <1>   0.0800 
 33 H       -1.6970    -2.5880    -2.2730 H     1 <1>   0.0800 
 34 H       -3.0080    -2.0370     2.3960 H     1 <1>   0.0800 
 35 H       -1.7630    -1.5200     1.2950 H     1 <1>   0.0800 
 36 H       -5.7660    -2.3510     0.2890 H     1 <1>   0.0800 
 37 H       -4.8860    -3.3550     1.3800 H     1 <1>   0.0800 
 38 H       -1.8480    -4.7820    -1.6000 H     1 <1>   0.0800 
 39 H       -0.6930    -3.1250     0.0140 H     1 <1>   0.0800 
 40 H       -0.9210    -4.7930     0.4780 H     1 <1>   0.0800 
 41 H       -3.5920    -5.2870     0.4250 H     1 <1>   0.0800 
 42 H       -3.8110    -5.6550    -1.2640 H     1 <1>   0.0800 
 43 H       -4.2090     3.1150     0.1200 H     1 <1>   0.1500 
 44 H       -1.4490     1.1550     2.7270 H     1 <1>   0.1500 
 45 H       -6.9270    -4.0430    -0.9000 H     1 <1>   0.0800 
 46 H       -6.1220    -5.4940    -1.3750 H     1 <1>   0.0800 
 47 H       -4.4980     4.8890     1.7610 H     1 <1>   0.1500 
 48 H       -1.7500     2.9570     4.3810 H     1 <1>   0.1500 
 49 H       -3.2780     4.8240     3.8930 H     1 <1>   0.1500 
 50 H       -7.7700    -5.4210     3.5350 H     1 <1>   0.1500 
 51 H       -4.7910    -7.3060    -0.2010 H     1 <1>   0.0800 
 52 H       -5.1940    -8.3800     1.1050 H     1 <1>   0.0800 
 53 H       -7.0060    -7.7760    -1.2650 H     1 <1>   0.0800 
 54 H       -7.3970    -8.8440     0.0700 H     1 <1>   0.0800 
 55 H       -6.1000    -9.2490    -1.0240 H     1 <1>   0.0800 
@<TRIPOS>BOND
  1   1   2  2   
  2   2   3  am  
  3   2   4  1   
  4   3   5  1   
  5   3   6  1   
  6   4   7  1   
  7   4  29  1   
  8   4  30  1   
  9   5   8  1   
 10   5   9  1   
 11   5  31  1   
 12   6  10  1   
 13   6  32  1   
 14   6  33  1   
 15   7  11  1   
 16   8  12  1   
 17   8  34  1   
 18   8  35  1   
 19   9  13  1   
 20   9  36  1   
 21   9  37  1   
 22  10  14  1   
 23  10  15  1   
 24  10  38  1   
 25  11  16  ar  
 26  11  17  ar  
 27  12  14  1   
 28  13  15  1   
 29  13  18  1   
 30  14  39  1   
 31  14  40  1   
 32  15  41  1   
 33  15  42  1   
 34  16  19  ar  
 35  16  43  1   
 36  17  20  ar  
 37  17  44  1   
 38  18  21  1   
 39  18  45  1   
 40  18  46  1   
 41  19  22  ar  
 42  19  47  1   
 43  20  22  ar  
 44  20  48  1   
 45  21  23  2   
 46  21  24  1   
 47  22  49  1   
 48  23  25  1   
 49  24  26  1   
 50  24  27  1   
 51  25  26  2   
 52  25  50  1   
 53  27  28  1   
 54  27  51  1   
 55  27  52  1   
 56  28  53  1   
 57  28  54  1   
 58  28  55  1   
@<TRIPOS>SUBSTRUCTURE
  1 ****   5 GROUP 4 **** **** 0

# MOE 2024.06 (io_trps.svl 2023.06)
