@<TRIPOS>MOLECULE
NONAME
47 48 1 0 0 
SMALL
USER_CHARGES


@<TRIPOS>ATOM
  1 S        0.3740     0.1720    -0.9490 S.o2  1 <1>   1.3330 
  2 O       -0.7070     0.9290    -1.5390 O.2   1 <1>  -0.6500 
  3 O        0.6640    -1.1600    -1.4300 O.2   1 <1>  -0.6500 
  4 N        0.0610     0.0670     0.7190 N.am  1 <1>  -0.8490 
  5 C        1.8850     1.1360    -1.0380 C.3   1 <1>  -0.0550 
  6 C       -0.6240     1.2480     1.2570 C.3   1 <1>   0.1160 
  7 C       -0.6930    -1.1420     1.0640 C.3   1 <1>   0.1160 
  8 C        3.1310     0.4140    -0.4810 C.3   1 <1>  -0.0800 
  9 C        4.4480     1.1340    -0.7290 C.3   1 <1>   0.2200 
 10 C        3.1430     0.2010     1.0390 C.3   1 <1>   0.1200 
 11 N        4.3130     2.5870    -0.4710 N.am  1 <1>  -0.7300 
 12 C        5.3070     0.5250     0.3690 C.3   1 <1>   0.1200 
 13 O        4.4560     0.4270     1.4680 O.3   1 <1>  -0.5600 
 14 C        4.2740     3.5460    -1.4250 C.2   1 <1>   0.5690 
 15 O        4.2480     3.2740    -2.5980 O.2   1 <1>  -0.5700 
 16 C        4.2490     5.0000    -0.9960 C.3   1 <1>  -0.0990 
 17 C        5.5660     5.4270    -0.3260 C.3   1 <1>  -0.1600 
 18 C        5.5510     6.9100     0.0690 C.3   1 <1>   0.0210 
 19 C        6.8270     7.3260     0.7820 C.2   1 <1>  -0.1810 
 20 C        7.0610     8.5800     1.3400 C.2   1 <1>   0.1390 
 21 C        7.9600     6.6310     1.0280 C.2   1 <1>  -0.3020 
 22 N        8.2340     8.6670     1.8890 N.2   1 <1>  -0.7070 
 23 N        8.7900     7.4580     1.6940 N.pl3 1 <1>   0.3000 
 24 H        2.0730     1.3690    -2.0690 H     1 <1>   0.0800 
 25 H        1.7430     2.0660    -0.5250 H     1 <1>   0.0800 
 26 H       -0.7140     1.1670     2.3270 H     1 <1>   0.0800 
 27 H       -1.6090     1.3400     0.8290 H     1 <1>   0.0800 
 28 H       -0.0650     2.1390     1.0290 H     1 <1>   0.0800 
 29 H       -0.8660    -1.1840     2.1260 H     1 <1>   0.0800 
 30 H       -0.1360    -2.0190     0.7800 H     1 <1>   0.0800 
 31 H       -1.6400    -1.1520     0.5490 H     1 <1>   0.0800 
 32 H        3.1970    -0.5550    -0.9450 H     1 <1>   0.0800 
 33 H        4.8460     0.9540    -1.7150 H     1 <1>   0.0800 
 34 H        2.8550    -0.8020     1.3030 H     1 <1>   0.0800 
 35 H        2.5100     0.9060     1.5490 H     1 <1>   0.0800 
 36 H        4.3280     2.8310     0.5220 H     1 <1>   0.3700 
 37 H        6.1610     1.1300     0.6190 H     1 <1>   0.0800 
 38 H        5.6230    -0.4690     0.1030 H     1 <1>   0.0800 
 39 H        4.0740     5.6060    -1.8670 H     1 <1>   0.0800 
 40 H        3.4250     5.1440    -0.3210 H     1 <1>   0.0800 
 41 H        5.7330     4.8310     0.5540 H     1 <1>   0.0800 
 42 H        6.3810     5.2520    -1.0080 H     1 <1>   0.0800 
 43 H        4.7170     7.1000     0.7220 H     1 <1>   0.0800 
 44 H        5.4320     7.5180    -0.8110 H     1 <1>   0.0800 
 45 H        6.3570     9.3950     1.3250 H     1 <1>   0.1500 
 46 H        8.2230     5.6210     0.7740 H     1 <1>   0.1500 
 47 H        9.7350     7.2310     2.0270 H     1 <1>   0.2700 
@<TRIPOS>BOND
  1   1   2  2   
  2   1   3  2   
  3   1   4  am  
  4   1   5  1   
  5   4   6  1   
  6   4   7  1   
  7   5   8  1   
  8   5  24  1   
  9   5  25  1   
 10   6  26  1   
 11   6  27  1   
 12   6  28  1   
 13   7  29  1   
 14   7  30  1   
 15   7  31  1   
 16   8   9  1   
 17   8  10  1   
 18   8  32  1   
 19   9  11  1   
 20   9  12  1   
 21   9  33  1   
 22  10  13  1   
 23  10  34  1   
 24  10  35  1   
 25  11  14  am  
 26  11  36  1   
 27  12  13  1   
 28  12  37  1   
 29  12  38  1   
 30  14  15  2   
 31  14  16  1   
 32  16  17  1   
 33  16  39  1   
 34  16  40  1   
 35  17  18  1   
 36  17  41  1   
 37  17  42  1   
 38  18  19  1   
 39  18  43  1   
 40  18  44  1   
 41  19  20  1   
 42  19  21  2   
 43  20  22  2   
 44  20  45  1   
 45  21  23  1   
 46  21  46  1   
 47  22  23  1   
 48  23  47  1   
@<TRIPOS>SUBSTRUCTURE
  1 ****  11 GROUP 4 **** **** 0

# MOE 2024.06 (io_trps.svl 2023.06)
