@<TRIPOS>MOLECULE
NONAME
44 47 1 0 0 
SMALL
USER_CHARGES


@<TRIPOS>ATOM
  1 O        0.5770     1.0180     1.4900 O.3   1 <1>  -0.5160 
  2 C        1.0580     1.7480     0.3830 C.3   1 <1>   0.2580 
  3 C       -0.3170     0.2510     0.6850 C.3   1 <1>   0.2580 
  4 C        2.4000     1.1780    -0.0860 C.3   1 <1>  -0.1600 
  5 C        1.1390     3.2290     0.7460 C.3   1 <1>  -0.1600 
  6 C       -0.1900     1.3200    -0.4080 C.3   1 <1>   0.0000 
  7 C        2.9580     2.0220    -1.2280 C.3   1 <1>   0.3430 
  8 C        1.7190     4.0240    -0.4180 C.3   1 <1>   0.3430 
  9 N        3.0450     3.4530    -0.8090 N.4   1 <1>  -0.9590 
 10 C        3.7170     4.2850    -1.8490 C.3   1 <1>   0.4860 
 11 C        4.0190     5.6460    -1.2560 C.ar  1 <1>  -0.1440 
 12 C        5.0570     5.8010    -0.3030 C.ar  1 <1>   0.0000 
 13 C        3.2640     6.7220    -1.6430 C.ar  1 <1>  -0.1500 
 14 C        5.2570     7.0740     0.2900 C.ar  1 <1>   0.3100 
 15 C        5.9210     4.7570     0.0960 C.ar  1 <1>  -0.1500 
 16 C        3.4830     7.9800    -1.0810 C.ar  1 <1>  -0.1500 
 17 N        6.1980     7.2840     1.2500 N.ar  1 <1>  -0.6200 
 18 C        4.4520     8.1570    -0.1300 C.ar  1 <1>  -0.1440 
 19 C        6.8620     5.0110     1.0460 C.ar  1 <1>  -0.1500 
 20 C        6.9560     6.2930     1.5970 C.ar  1 <1>   0.1600 
 21 C        4.6640     9.5410     0.4750 C.3   1 <1>  -0.0970 
 22 H       -1.2840     0.1910     1.1510 H     1 <1>   0.0000 
 23 H        0.1300    -0.6970     0.4410 H     1 <1>   0.0000 
 24 H        2.2850     0.1630    -0.4200 H     1 <1>   0.0800 
 25 H        3.0980     1.1820     0.7330 H     1 <1>   0.0800 
 26 H        1.7650     3.3560     1.6100 H     1 <1>   0.0800 
 27 H        0.1610     3.6070     0.9870 H     1 <1>   0.0800 
 28 H        0.0100     0.9240    -1.3880 H     1 <1>   0.0000 
 29 H       -0.9940     2.0350    -0.3910 H     1 <1>   0.0000 
 30 H        2.3130     1.9320    -2.0870 H     1 <1>   0.0800 
 31 H        3.9350     1.6540    -1.4970 H     1 <1>   0.0800 
 32 H        1.8320     5.0550    -0.1170 H     1 <1>   0.0800 
 33 H        1.0400     3.9880    -1.2550 H     1 <1>   0.0800 
 34 H        3.6390     3.5140     0.0300 H     1 <1>   0.4500 
 35 H        3.0770     4.3920    -2.7090 H     1 <1>   0.0800 
 36 H        4.6370     3.8220    -2.1660 H     1 <1>   0.0800 
 37 H        2.4830     6.6360    -2.3810 H     1 <1>   0.1500 
 38 H        5.8630     3.7780    -0.3390 H     1 <1>   0.1500 
 39 H        2.8740     8.8060    -1.4080 H     1 <1>   0.1500 
 40 H        7.5460     4.2540     1.3870 H     1 <1>   0.1500 
 41 H        7.7040     6.4680     2.3520 H     1 <1>   0.1500 
 42 H        5.6710     9.8700     0.2890 H     1 <1>   0.0800 
 43 H        4.5100     9.5040     1.5390 H     1 <1>   0.0800 
 44 H        3.9870    10.2630     0.0570 H     1 <1>   0.0800 
@<TRIPOS>BOND
  1   1   2  1   
  2   1   3  1   
  3   2   4  1   
  4   2   5  1   
  5   2   6  1   
  6   3   6  1   
  7   3  22  1   
  8   3  23  1   
  9   4   7  1   
 10   4  24  1   
 11   4  25  1   
 12   5   8  1   
 13   5  26  1   
 14   5  27  1   
 15   6  28  1   
 16   6  29  1   
 17   7   9  1   
 18   7  30  1   
 19   7  31  1   
 20   8   9  1   
 21   8  32  1   
 22   8  33  1   
 23   9  10  1   
 24   9  34  1   
 25  10  11  1   
 26  10  35  1   
 27  10  36  1   
 28  11  12  ar  
 29  11  13  ar  
 30  12  14  ar  
 31  12  15  ar  
 32  13  16  ar  
 33  13  37  1   
 34  14  17  ar  
 35  14  18  ar  
 36  15  19  ar  
 37  15  38  1   
 38  16  18  ar  
 39  16  39  1   
 40  17  20  ar  
 41  18  21  1   
 42  19  20  ar  
 43  19  40  1   
 44  20  41  1   
 45  21  42  1   
 46  21  43  1   
 47  21  44  1   
@<TRIPOS>SUBSTRUCTURE
  1 ****   9 GROUP 4 **** **** 0

# MOE 2024.06 (io_trps.svl 2023.06)
