@<TRIPOS>MOLECULE
NONAME
48 50 1 0 0 
SMALL
USER_CHARGES


@<TRIPOS>ATOM
  1 O        1.6280     0.8570    -1.6700 O.2   1 <1>  -0.5700 
  2 C        1.8110    -0.0940    -0.9450 C.2   1 <1>   0.5690 
  3 N        2.6110     0.0410     0.1680 N.am  1 <1>  -0.6600 
  4 C        1.1790    -1.4220    -1.3630 C.3   1 <1>   0.1810 
  5 C        2.8150     1.3910     0.7900 C.3   1 <1>   0.1400 
  6 C        3.2950    -1.0880     0.8670 C.3   1 <1>   0.1400 
  7 O        0.6660    -2.1320    -0.2470 O.3   1 <1>  -0.3620 
  8 C        4.2780     1.9140     0.7860 C.3   1 <1>   0.4230 
  9 C        4.8310    -0.9600     0.7660 C.3   1 <1>  -0.0800 
 10 C        0.3080    -3.4340    -0.3650 C.ar  1 <1>   0.0820 
 11 N        5.1690     1.3750    -0.3180 N.4   1 <1>  -0.9590 
 12 C        4.9430     1.7620     2.1710 C.3   1 <1>   0.1200 
 13 C        5.5030    -0.5460     2.0850 C.3   1 <1>   0.1200 
 14 C        5.2780    -0.1230    -0.4450 C.3   1 <1>   0.3430 
 15 C        0.2240    -4.1690     0.8050 C.ar  1 <1>  -0.1500 
 16 C        0.0360    -4.0480    -1.5840 C.ar  1 <1>  -0.1500 
 17 C        4.7350     1.9450    -1.6340 C.3   1 <1>   0.2630 
 18 O        4.8040     0.4820     2.7030 O.3   1 <1>  -0.5600 
 19 C       -0.1120    -5.5120     0.7740 C.ar  1 <1>   0.0820 
 20 C       -0.3020    -5.3900    -1.6200 C.ar  1 <1>  -0.1500 
 21 O       -0.1610    -6.1560     1.9670 O.3   1 <1>  -0.3630 
 22 C       -0.3750    -6.1240    -0.4480 C.ar  1 <1>  -0.1500 
 23 C       -0.5320    -7.5140     2.0520 C.3   1 <1>   0.0400 
 24 H        1.9170    -2.0330    -1.8470 H     1 <1>   0.0800 
 25 H        0.3630    -1.2330    -2.0370 H     1 <1>   0.0800 
 26 H        2.2040     2.1160     0.2810 H     1 <1>   0.0800 
 27 H        2.4500     1.3590     1.8020 H     1 <1>   0.0800 
 28 H        2.9770    -1.1210     1.8960 H     1 <1>   0.0800 
 29 H        3.0080    -2.0240     0.4210 H     1 <1>   0.0800 
 30 H        4.2060     2.9790     0.6370 H     1 <1>   0.0800 
 31 H        5.1910    -1.9550     0.5730 H     1 <1>   0.0800 
 32 H        6.1140     1.7270    -0.1230 H     1 <1>   0.4500 
 33 H        4.4550     2.4270     2.8630 H     1 <1>   0.0800 
 34 H        5.9860     2.0230     2.1440 H     1 <1>   0.0800 
 35 H        6.5310    -0.2520     1.9480 H     1 <1>   0.0800 
 36 H        5.4830    -1.3780     2.7690 H     1 <1>   0.0800 
 37 H        4.6840    -0.4420    -1.2860 H     1 <1>   0.0800 
 38 H        6.3010    -0.3730    -0.6730 H     1 <1>   0.0800 
 39 H        0.4200    -3.6970     1.7490 H     1 <1>   0.1500 
 40 H        0.0740    -3.5030    -2.5080 H     1 <1>   0.1500 
 41 H        3.7460     1.6000    -1.8840 H     1 <1>   0.0800 
 42 H        5.4100     1.6410    -2.4180 H     1 <1>   0.0800 
 43 H        4.7200     3.0220    -1.5940 H     1 <1>   0.0800 
 44 H       -0.5130    -5.8660    -2.5630 H     1 <1>   0.1500 
 45 H       -0.6380    -7.1630    -0.5070 H     1 <1>   0.1500 
 46 H       -0.5170    -7.8000     3.0890 H     1 <1>   0.0800 
 47 H        0.1760    -8.1060     1.5000 H     1 <1>   0.0800 
 48 H       -1.5260    -7.6300     1.6570 H     1 <1>   0.0800 
@<TRIPOS>BOND
  1   1   2  2   
  2   2   3  am  
  3   2   4  1   
  4   3   5  1   
  5   3   6  1   
  6   4   7  1   
  7   4  24  1   
  8   4  25  1   
  9   5   8  1   
 10   5  26  1   
 11   5  27  1   
 12   6   9  1   
 13   6  28  1   
 14   6  29  1   
 15   7  10  1   
 16   8  11  1   
 17   8  12  1   
 18   8  30  1   
 19   9  13  1   
 20   9  14  1   
 21   9  31  1   
 22  10  15  ar  
 23  10  16  ar  
 24  11  14  1   
 25  11  17  1   
 26  11  32  1   
 27  12  18  1   
 28  12  33  1   
 29  12  34  1   
 30  13  18  1   
 31  13  35  1   
 32  13  36  1   
 33  14  37  1   
 34  14  38  1   
 35  15  19  ar  
 36  15  39  1   
 37  16  20  ar  
 38  16  40  1   
 39  17  41  1   
 40  17  42  1   
 41  17  43  1   
 42  19  21  1   
 43  19  22  ar  
 44  20  22  ar  
 45  20  44  1   
 46  21  23  1   
 47  22  45  1   
 48  23  46  1   
 49  23  47  1   
 50  23  48  1   
@<TRIPOS>SUBSTRUCTURE
  1 ****   6 GROUP 4 **** **** 0

# MOE 2024.06 (io_trps.svl 2023.06)
