@<TRIPOS>MOLECULE
NONAME
57 61 1 0 0 
SMALL
USER_CHARGES


@<TRIPOS>ATOM
  1 O        0.8300    -0.6080     1.3770 O.3   1 <1>  -0.5600 
  2 C        1.8760    -0.7700     0.4480 C.3   1 <1>   0.4600 
  3 C       -0.4630    -1.0410     1.0120 C.3   1 <1>   0.1200 
  4 C        1.7220    -2.0920    -0.2890 C.2   1 <1>  -0.3320 
  5 C        3.1610    -0.7620     1.2730 C.3   1 <1>  -0.1600 
  6 C        1.8570     0.4240    -0.5060 C.3   1 <1>  -0.1600 
  7 C       -0.4940    -2.5570     0.7620 C.3   1 <1>   0.0210 
  8 N        2.6010    -2.6560    -1.1760 N.pl3 1 <1>   0.0330 
  9 C        0.6570    -2.9060    -0.1460 C.2   1 <1>  -0.1810 
 10 C        3.2710     0.5420     2.0570 C.3   1 <1>   0.3430 
 11 C        1.9890     1.7270     0.2810 C.3   1 <1>   0.3430 
 12 C        2.0740    -3.8530    -1.5920 C.ar  1 <1>  -0.1520 
 13 C        0.8490    -4.0410    -0.9590 C.ar  1 <1>   0.0000 
 14 N        3.2120     1.7110     1.1360 N.4   1 <1>  -0.9590 
 15 C        2.5720    -4.8070    -2.4840 C.ar  1 <1>  -0.1500 
 16 C        0.1060    -5.1980    -1.2150 C.ar  1 <1>  -0.1500 
 17 C        4.4620     1.9380     0.3630 C.3   1 <1>   0.5230 
 18 C        1.8310    -5.9400    -2.7280 C.ar  1 <1>  -0.1500 
 19 C        0.5980    -6.1360    -2.0930 C.ar  1 <1>  -0.1500 
 20 C        4.5740     3.4300     0.0930 C.2   1 <1>   0.0060 
 21 N        3.9570     4.3180     0.8150 N.2   1 <1>  -0.5650 
 22 N        5.3230     3.9610    -0.9080 N.pl3 1 <1>   0.0480 
 23 C        4.3220     5.4890     0.2640 C.2   1 <1>   0.0770 
 24 C        5.1490     5.2890    -0.7830 C.2   1 <1>  -0.3020 
 25 C        6.1300     3.3120    -1.9720 C.3   1 <1>   0.0960 
 26 C        7.3860     2.6300    -1.4230 C.3   1 <1>   0.1200 
 27 O        7.0250     1.5130    -0.6670 O.3   1 <1>  -0.5600 
 28 C        8.1220     0.8220    -0.1510 C.3   1 <1>   0.0400 
 29 H       -0.7640    -0.5140     0.1240 H     1 <1>   0.0800 
 30 H       -1.1360    -0.7840     1.8110 H     1 <1>   0.0800 
 31 H        4.0180    -0.8910     0.6400 H     1 <1>   0.0800 
 32 H        3.1360    -1.5920     1.9570 H     1 <1>   0.0800 
 33 H        0.9380     0.4270    -1.0620 H     1 <1>   0.0800 
 34 H        2.6530     0.3380    -1.2210 H     1 <1>   0.0800 
 35 H       -1.4260    -2.8300     0.3020 H     1 <1>   0.0800 
 36 H       -0.4000    -3.0880     1.6920 H     1 <1>   0.0800 
 37 H        3.5050    -2.2910    -1.4870 H     1 <1>   0.2700 
 38 H        4.1870     0.5590     2.6250 H     1 <1>   0.0800 
 39 H        2.4460     0.5950     2.7510 H     1 <1>   0.0800 
 40 H        1.1210     1.8360     0.9110 H     1 <1>   0.0800 
 41 H        2.0200     2.5700    -0.3920 H     1 <1>   0.0800 
 42 H        3.1690     2.5880     1.6910 H     1 <1>   0.4500 
 43 H        3.5190    -4.6530    -2.9690 H     1 <1>   0.1500 
 44 H       -0.8370    -5.3360    -0.7200 H     1 <1>   0.1500 
 45 H        4.4560     1.3820    -0.5580 H     1 <1>   0.0800 
 46 H        5.3160     1.6340     0.9440 H     1 <1>   0.0800 
 47 H        2.1920    -6.6890    -3.4100 H     1 <1>   0.1500 
 48 H        0.0390    -7.0310    -2.3010 H     1 <1>   0.1500 
 49 H        3.9670     6.4300     0.6540 H     1 <1>   0.1500 
 50 H        5.6090     6.0160    -1.4290 H     1 <1>   0.1500 
 51 H        6.4280     4.0700    -2.6730 H     1 <1>   0.0800 
 52 H        5.5240     2.5980    -2.4980 H     1 <1>   0.0800 
 53 H        7.9470     3.3130    -0.8060 H     1 <1>   0.0800 
 54 H        8.0050     2.2990    -2.2410 H     1 <1>   0.0800 
 55 H        7.7610    -0.0200     0.4120 H     1 <1>   0.0800 
 56 H        8.6850     1.4750     0.4950 H     1 <1>   0.0800 
 57 H        8.7400     0.4740    -0.9620 H     1 <1>   0.0800 
@<TRIPOS>BOND
  1   1   2  1   
  2   1   3  1   
  3   2   4  1   
  4   2   5  1   
  5   2   6  1   
  6   3   7  1   
  7   3  29  1   
  8   3  30  1   
  9   4   8  1   
 10   4   9  2   
 11   5  10  1   
 12   5  31  1   
 13   5  32  1   
 14   6  11  1   
 15   6  33  1   
 16   6  34  1   
 17   7   9  1   
 18   7  35  1   
 19   7  36  1   
 20   8  12  1   
 21   8  37  1   
 22   9  13  1   
 23  10  14  1   
 24  10  38  1   
 25  10  39  1   
 26  11  14  1   
 27  11  40  1   
 28  11  41  1   
 29  12  13  ar  
 30  12  15  ar  
 31  13  16  ar  
 32  14  17  1   
 33  14  42  1   
 34  15  18  ar  
 35  15  43  1   
 36  16  19  ar  
 37  16  44  1   
 38  17  20  1   
 39  17  45  1   
 40  17  46  1   
 41  18  19  ar  
 42  18  47  1   
 43  19  48  1   
 44  20  21  2   
 45  20  22  1   
 46  21  23  1   
 47  22  24  1   
 48  22  25  1   
 49  23  24  2   
 50  23  49  1   
 51  24  50  1   
 52  25  26  1   
 53  25  51  1   
 54  25  52  1   
 55  26  27  1   
 56  26  53  1   
 57  26  54  1   
 58  27  28  1   
 59  28  55  1   
 60  28  56  1   
 61  28  57  1   
@<TRIPOS>SUBSTRUCTURE
  1 ****   6 GROUP 4 **** **** 0

# MOE 2024.06 (io_trps.svl 2023.06)
