@<TRIPOS>MOLECULE
NONAME
50 52 1 0 0 
SMALL
USER_CHARGES


@<TRIPOS>ATOM
  1 F       -0.4350     0.6180    -0.3690 F     1 <1>  -0.1900 
  2 C       -1.7150     0.8850    -0.3220 C.ar  1 <1>   0.1900 
  3 C       -2.2730     1.6730     0.6910 C.ar  1 <1>   0.0820 
  4 C       -2.4920     0.3470    -1.3300 C.ar  1 <1>  -0.1500 
  5 O       -1.6160     2.2570     1.7340 O.3   1 <1>  -0.3630 
  6 C       -3.6400     1.8940     0.6540 C.ar  1 <1>  -0.1500 
  7 C       -3.8540     0.5870    -1.3380 C.ar  1 <1>  -0.1500 
  8 C       -0.2210     2.1620     1.9140 C.3   1 <1>   0.0400 
  9 C       -4.4580     1.3590    -0.3430 C.ar  1 <1>   0.0530 
 10 C       -5.8780     1.6010    -0.3340 C.2   1 <1>   0.0870 
 11 O       -6.3600     2.7440     0.0830 O.3   1 <1>  -0.0190 
 12 C       -6.9430     0.8280    -0.6680 C.2   1 <1>  -0.0860 
 13 N       -7.6660     2.7920     0.0410 N.2   1 <1>  -0.4100 
 14 C       -8.0440     1.6540    -0.4260 C.2   1 <1>   0.3720 
 15 C       -7.0160    -0.5280    -1.0990 C.2   1 <1>   0.7160 
 16 N       -9.3860     1.2910    -0.6480 N.pl3 1 <1>  -0.8210 
 17 O       -6.7800    -0.8100    -2.2580 O.2   1 <1>  -0.5700 
 18 N       -7.3980    -1.5410    -0.2390 N.am  1 <1>  -0.6600 
 19 C       -9.7080     1.2500    -2.1060 C.3   1 <1>   0.1290 
 20 C      -10.3750     2.1580     0.0650 C.3   1 <1>   0.1290 
 21 C       -7.6490    -2.9270    -0.7400 C.3   1 <1>   0.1400 
 22 C       -8.0200    -1.2740     1.0940 C.3   1 <1>   0.1400 
 23 C       -9.1710    -3.1820    -0.8290 C.3   1 <1>   0.4230 
 24 C       -9.5390    -1.5230     1.0110 C.3   1 <1>   0.3430 
 25 N       -9.8540    -2.8930     0.4670 N.4   1 <1>  -0.9060 
 26 C       -9.4780    -4.6270    -1.2000 C.3   1 <1>  -0.2400 
 27 H       -2.0340    -0.2500    -2.0980 H     1 <1>   0.1500 
 28 H       -4.0780     2.5010     1.4260 H     1 <1>   0.1500 
 29 H       -4.4500     0.1760    -2.1340 H     1 <1>   0.1500 
 30 H        0.0420     2.7220     2.7930 H     1 <1>   0.0800 
 31 H        0.2730     2.5810     1.0550 H     1 <1>   0.0800 
 32 H        0.0460     1.1290     2.0470 H     1 <1>   0.0800 
 33 H      -10.7320     0.9510    -2.2550 H     1 <1>   0.0800 
 34 H       -9.0690     0.5500    -2.6160 H     1 <1>   0.0800 
 35 H       -9.5630     2.2250    -2.5420 H     1 <1>   0.0800 
 36 H      -11.3670     1.7530    -0.0310 H     1 <1>   0.0800 
 37 H      -10.3620     3.1540    -0.3480 H     1 <1>   0.0800 
 38 H      -10.1260     2.2210     1.1110 H     1 <1>   0.0800 
 39 H       -7.2050    -3.0700    -1.7110 H     1 <1>   0.0800 
 40 H       -7.1890    -3.6350    -0.0730 H     1 <1>   0.0800 
 41 H       -7.5790    -1.9240     1.8300 H     1 <1>   0.0800 
 42 H       -7.8400    -0.2640     1.4160 H     1 <1>   0.0800 
 43 H       -9.5680    -2.5330    -1.5940 H     1 <1>   0.0800 
 44 H       -9.9700    -0.7730     0.3690 H     1 <1>   0.0800 
 45 H       -9.9730    -1.4040     1.9900 H     1 <1>   0.0800 
 46 H      -10.8670    -2.9880     0.3360 H     1 <1>   0.4500 
 47 H       -9.5690    -3.6050     1.1480 H     1 <1>   0.4500 
 48 H       -9.0860    -5.3120    -0.4690 H     1 <1>   0.0800 
 49 H       -9.0250    -4.8580    -2.1490 H     1 <1>   0.0800 
 50 H      -10.5390    -4.7780    -1.3030 H     1 <1>   0.0800 
@<TRIPOS>BOND
  1   1   2  1   
  2   2   3  ar  
  3   2   4  ar  
  4   3   5  1   
  5   3   6  ar  
  6   4   7  ar  
  7   4  27  1   
  8   5   8  1   
  9   6   9  ar  
 10   6  28  1   
 11   7   9  ar  
 12   7  29  1   
 13   8  30  1   
 14   8  31  1   
 15   8  32  1   
 16   9  10  1   
 17  10  11  1   
 18  10  12  2   
 19  11  13  1   
 20  12  14  1   
 21  12  15  1   
 22  13  14  2   
 23  14  16  1   
 24  15  17  2   
 25  15  18  am  
 26  16  19  1   
 27  16  20  1   
 28  18  21  1   
 29  18  22  1   
 30  19  33  1   
 31  19  34  1   
 32  19  35  1   
 33  20  36  1   
 34  20  37  1   
 35  20  38  1   
 36  21  23  1   
 37  21  39  1   
 38  21  40  1   
 39  22  24  1   
 40  22  41  1   
 41  22  42  1   
 42  23  25  1   
 43  23  26  1   
 44  23  43  1   
 45  24  25  1   
 46  24  44  1   
 47  24  45  1   
 48  25  46  1   
 49  25  47  1   
 50  26  48  1   
 51  26  49  1   
 52  26  50  1   
@<TRIPOS>SUBSTRUCTURE
  1 ****  12 GROUP 4 **** **** 0

# MOE 2024.06 (io_trps.svl 2023.06)
