@<TRIPOS>MOLECULE
NONAME
53 56 1 0 0 
SMALL
USER_CHARGES


@<TRIPOS>ATOM
  1 S       -0.5260     0.1880     0.0770 S.3   1 <1>  -0.1570 
  2 C        1.1490    -0.4680    -0.0220 C.ar  1 <1>   0.1020 
  3 C       -1.5900    -1.1750     0.5760 C.2   1 <1>   0.1960 
  4 C        1.6240    -1.3480     0.9350 C.ar  1 <1>  -0.1500 
  5 C        1.9520    -0.0530    -1.0680 C.ar  1 <1>  -0.1500 
  6 O       -1.1360    -2.4070     0.5000 O.3   1 <1>  -0.2800 
  7 C       -2.8610    -1.1300     1.0190 C.2   1 <1>  -0.1500 
  8 C        2.9170    -1.8320     0.8290 C.ar  1 <1>  -0.1500 
  9 C        3.2440    -0.5420    -1.1670 C.ar  1 <1>  -0.1500 
 10 C       -2.1150    -3.2010     0.8930 C.2   1 <1>  -0.0400 
 11 C       -3.2090    -2.4720     1.2320 C.2   1 <1>  -0.1500 
 12 C        3.7290    -1.4350    -0.2230 C.ar  1 <1>  -0.1430 
 13 C       -1.8340    -4.6940     0.8820 C.3   1 <1>   0.5230 
 14 C        5.1460    -1.9690    -0.3340 C.3   1 <1>  -0.0960 
 15 N       -3.1010    -5.4670     0.7790 N.4   1 <1>  -0.9590 
 16 C       -3.8550    -5.2380    -0.4820 C.3   1 <1>   0.3430 
 17 C       -2.9190    -6.9420     0.8770 C.3   1 <1>   0.3430 
 18 C       -4.8380    -6.4070    -0.5180 C.3   1 <1>   0.2000 
 19 C       -4.0010    -7.5840    -0.0110 C.3   1 <1>  -0.0800 
 20 O       -5.8320    -6.1500     0.4200 O.3   1 <1>  -0.6800 
 21 C       -3.3750    -8.3730    -1.1770 C.3   1 <1>   0.0210 
 22 C       -2.5050    -9.5080    -0.6730 C.2   1 <1>   0.1080 
 23 N       -1.3640    -9.3120    -0.0880 N.2   1 <1>  -0.7070 
 24 C       -2.8190   -10.8580    -0.7790 C.2   1 <1>  -0.1500 
 25 N       -0.9060   -10.5530     0.1860 N.pl3 1 <1>   0.3000 
 26 C       -1.7750   -11.5020    -0.2190 C.2   1 <1>  -0.3320 
 27 C       -1.5460   -12.9940    -0.0490 C.3   1 <1>  -0.0600 
 28 H        1.0000    -1.6450     1.7570 H     1 <1>   0.1500 
 29 H        1.5720     0.6410    -1.7950 H     1 <1>   0.1500 
 30 H       -3.4840    -0.2680     1.1780 H     1 <1>   0.1500 
 31 H        3.2920    -2.5160     1.5710 H     1 <1>   0.1500 
 32 H        3.8700    -0.2220    -1.9820 H     1 <1>   0.1500 
 33 H       -4.1700    -2.7940     1.5950 H     1 <1>   0.1500 
 34 H       -1.3030    -4.9600     1.7810 H     1 <1>   0.0800 
 35 H       -1.2030    -4.9230     0.0390 H     1 <1>   0.0800 
 36 H        5.1960    -2.9780     0.0350 H     1 <1>   0.0800 
 37 H        5.8120    -1.3540     0.2430 H     1 <1>   0.0800 
 38 H        5.4710    -1.9670    -1.3590 H     1 <1>   0.0800 
 39 H       -3.7380    -5.1880     1.5380 H     1 <1>   0.4500 
 40 H       -4.3700    -4.2910    -0.4840 H     1 <1>   0.0800 
 41 H       -3.1900    -5.2930    -1.3280 H     1 <1>   0.0800 
 42 H       -1.9390    -7.2100     0.5190 H     1 <1>   0.0800 
 43 H       -3.0180    -7.2740     1.8970 H     1 <1>   0.0800 
 44 H       -5.2920    -6.5530    -1.4840 H     1 <1>   0.0800 
 45 H       -4.5970    -8.2660     0.5700 H     1 <1>   0.0800 
 46 H       -6.5590    -6.8050     0.3590 H     1 <1>   0.4000 
 47 H       -2.7670    -7.7320    -1.7910 H     1 <1>   0.0800 
 48 H       -4.1520    -8.7850    -1.7970 H     1 <1>   0.0800 
 49 H       -3.7050   -11.2800    -1.2210 H     1 <1>   0.1500 
 50 H        0.0000   -10.7240     0.6410 H     1 <1>   0.2700 
 51 H       -2.3770   -13.5450    -0.4530 H     1 <1>   0.0800 
 52 H       -1.4480   -13.2410     0.9930 H     1 <1>   0.0800 
 53 H       -0.6530   -13.2960    -0.5670 H     1 <1>   0.0800 
@<TRIPOS>BOND
  1   1   2  1   
  2   1   3  1   
  3   2   4  ar  
  4   2   5  ar  
  5   3   6  1   
  6   3   7  2   
  7   4   8  ar  
  8   4  28  1   
  9   5   9  ar  
 10   5  29  1   
 11   6  10  1   
 12   7  11  1   
 13   7  30  1   
 14   8  12  ar  
 15   8  31  1   
 16   9  12  ar  
 17   9  32  1   
 18  10  11  2   
 19  10  13  1   
 20  11  33  1   
 21  12  14  1   
 22  13  15  1   
 23  13  34  1   
 24  13  35  1   
 25  14  36  1   
 26  14  37  1   
 27  14  38  1   
 28  15  16  1   
 29  15  17  1   
 30  15  39  1   
 31  16  18  1   
 32  16  40  1   
 33  16  41  1   
 34  17  19  1   
 35  17  42  1   
 36  17  43  1   
 37  18  19  1   
 38  18  20  1   
 39  18  44  1   
 40  19  21  1   
 41  19  45  1   
 42  20  46  1   
 43  21  22  1   
 44  21  47  1   
 45  21  48  1   
 46  22  23  2   
 47  22  24  1   
 48  23  25  1   
 49  24  26  2   
 50  24  49  1   
 51  25  26  1   
 52  25  50  1   
 53  26  27  1   
 54  27  51  1   
 55  27  52  1   
 56  27  53  1   
@<TRIPOS>SUBSTRUCTURE
  1 ****  13 GROUP 4 **** **** 0

# MOE 2024.06 (io_trps.svl 2023.06)
