@<TRIPOS>MOLECULE
NONAME
50 52 1 0 0 
SMALL
USER_CHARGES


@<TRIPOS>ATOM
  1 F        0.2950     0.5890    -1.9700 F     1 <1>  -0.1900 
  2 C        1.2540     1.0310    -1.1960 C.ar  1 <1>   0.1900 
  3 C        2.1630     0.1230    -0.6650 C.ar  1 <1>   0.0860 
  4 C        1.3180     2.3810    -0.8990 C.ar  1 <1>   0.1900 
  5 C        3.1360     0.6410     0.1990 C.ar  1 <1>   0.0830 
  6 C        2.0890    -1.2790    -0.9810 C.2   1 <1>   0.5440 
  7 F        0.4450     3.2110    -1.4110 F     1 <1>  -0.1900 
  8 C        2.2870     2.8820    -0.0500 C.ar  1 <1>  -0.1500 
  9 O        4.0260    -0.1790     0.7870 O.3   1 <1>  -0.3630 
 10 C        3.1960     1.9960     0.5040 C.ar  1 <1>  -0.1500 
 11 O        2.5430    -1.6790    -2.0340 O.2   1 <1>  -0.5700 
 12 N        1.4970    -2.1950    -0.1340 N.am  1 <1>  -0.6600 
 13 C        5.1770    -0.5120     0.0390 C.3   1 <1>   0.0400 
 14 C        0.6670    -1.8240     1.0510 C.3   1 <1>   0.1400 
 15 C        1.5090    -3.6590    -0.4280 C.3   1 <1>   0.1400 
 16 C       -0.7780    -2.3540     0.9020 C.3   1 <1>   0.4230 
 17 C        0.0720    -4.1740    -0.6050 C.3   1 <1>   0.3430 
 18 N       -0.8140    -3.8400     0.5780 N.4   1 <1>  -0.9590 
 19 C       -1.5530    -1.5420    -0.1620 C.3   1 <1>   0.1200 
 20 C       -2.2460    -4.2670     0.3880 C.3   1 <1>   0.4230 
 21 O       -2.8630    -2.0200    -0.2710 O.3   1 <1>  -0.5600 
 22 C       -2.9740    -3.3650    -0.6400 C.3   1 <1>   0.1200 
 23 C       -2.3240    -5.7610     0.0340 C.3   1 <1>  -0.1600 
 24 C       -3.7420    -6.3290     0.2000 C.3   1 <1>  -0.1600 
 25 C       -3.7620    -7.8340    -0.0790 C.3   1 <1>  -0.2400 
 26 H        2.3220     3.9350     0.1720 H     1 <1>   0.1500 
 27 H        3.9580     2.3520     1.1770 H     1 <1>   0.1500 
 28 H        5.8010    -1.1440     0.6450 H     1 <1>   0.0800 
 29 H        5.7040     0.3920    -0.2120 H     1 <1>   0.0800 
 30 H        4.8840    -1.0340    -0.8540 H     1 <1>   0.0800 
 31 H        1.1150    -2.2440     1.9350 H     1 <1>   0.0800 
 32 H        0.6430    -0.7570     1.1850 H     1 <1>   0.0800 
 33 H        2.0700    -3.8680    -1.3230 H     1 <1>   0.0800 
 34 H        1.9920    -4.1810     0.3800 H     1 <1>   0.0800 
 35 H       -1.2810    -2.1890     1.8410 H     1 <1>   0.0800 
 36 H        0.1040    -5.2410    -0.7520 H     1 <1>   0.0800 
 37 H       -0.3330    -3.7320    -1.5010 H     1 <1>   0.0800 
 38 H       -0.4460    -4.3420     1.3940 H     1 <1>   0.4500 
 39 H       -1.0800    -1.6000    -1.1280 H     1 <1>   0.0800 
 40 H       -1.6100    -0.5070     0.1250 H     1 <1>   0.0800 
 41 H       -2.7590    -4.1370     1.3270 H     1 <1>   0.0800 
 42 H       -4.0230    -3.6000    -0.6680 H     1 <1>   0.0800 
 43 H       -2.5720    -3.4880    -1.6310 H     1 <1>   0.0800 
 44 H       -2.0100    -5.9220    -0.9820 H     1 <1>   0.0800 
 45 H       -1.6690    -6.3120     0.6880 H     1 <1>   0.0800 
 46 H       -4.0950    -6.1590     1.2050 H     1 <1>   0.0800 
 47 H       -4.4260    -5.8480    -0.4790 H     1 <1>   0.0800 
 48 H       -3.1200    -8.3610     0.6050 H     1 <1>   0.0800 
 49 H       -3.4410    -8.0410    -1.0850 H     1 <1>   0.0800 
 50 H       -4.7620    -8.2160     0.0390 H     1 <1>   0.0800 
@<TRIPOS>BOND
  1   1   2  1   
  2   2   3  ar  
  3   2   4  ar  
  4   3   5  ar  
  5   3   6  1   
  6   4   7  1   
  7   4   8  ar  
  8   5   9  1   
  9   5  10  ar  
 10   6  11  2   
 11   6  12  am  
 12   8  10  ar  
 13   8  26  1   
 14   9  13  1   
 15  10  27  1   
 16  12  14  1   
 17  12  15  1   
 18  13  28  1   
 19  13  29  1   
 20  13  30  1   
 21  14  16  1   
 22  14  31  1   
 23  14  32  1   
 24  15  17  1   
 25  15  33  1   
 26  15  34  1   
 27  16  18  1   
 28  16  19  1   
 29  16  35  1   
 30  17  18  1   
 31  17  36  1   
 32  17  37  1   
 33  18  20  1   
 34  18  38  1   
 35  19  21  1   
 36  19  39  1   
 37  19  40  1   
 38  20  22  1   
 39  20  23  1   
 40  20  41  1   
 41  21  22  1   
 42  22  42  1   
 43  22  43  1   
 44  23  24  1   
 45  23  44  1   
 46  23  45  1   
 47  24  25  1   
 48  24  46  1   
 49  24  47  1   
 50  25  48  1   
 51  25  49  1   
 52  25  50  1   
@<TRIPOS>SUBSTRUCTURE
  1 ****  12 GROUP 4 **** **** 0

# MOE 2024.06 (io_trps.svl 2023.06)
