@<TRIPOS>MOLECULE
NONAME
56 58 1 0 0 
SMALL
USER_CHARGES


@<TRIPOS>ATOM
  1 O       -0.0020     0.9990    -0.1820 O.2   1 <1>  -0.5700 
  2 C       -0.2030     2.1900    -0.2370 C.2   1 <1>   0.5690 
  3 N       -1.2750     2.7840     0.3720 N.am  1 <1>  -0.6600 
  4 C        0.7670     3.0500    -1.0430 C.3   1 <1>   0.1810 
  5 C       -1.5350     4.2560     0.2370 C.3   1 <1>   0.3640 
  6 C       -2.2320     2.0230     1.2270 C.3   1 <1>   0.0600 
  7 O        0.7890     4.3850    -0.6050 O.3   1 <1>  -0.5600 
  8 C       -2.9670     4.5090    -0.2700 C.ar  1 <1>  -0.1440 
  9 C       -0.4810     5.0280    -0.6060 C.3   1 <1>   0.2610 
 10 C       -3.5240     3.9320    -1.4170 C.ar  1 <1>  -0.1440 
 11 C       -3.7480     5.3760     0.4850 C.ar  1 <1>  -0.1500 
 12 C       -0.3380     6.4590    -0.0680 C.2   1 <1>   0.5690 
 13 C       -4.8340     4.2320    -1.7640 C.ar  1 <1>  -0.1500 
 14 C       -2.7760     2.9670    -2.3300 C.3   1 <1>  -0.0960 
 15 C       -5.0500     5.6680     0.1290 C.ar  1 <1>  -0.1500 
 16 O       -1.2820     7.2110    -0.0990 O.2   1 <1>  -0.5700 
 17 N        0.8600     6.8520     0.4450 N.am  1 <1>  -0.7300 
 18 C       -5.5970     5.0930    -0.9990 C.ar  1 <1>  -0.1500 
 19 C        1.1850     8.1880     0.9820 C.3   1 <1>   0.1400 
 20 C        2.4260     8.7250     0.2700 C.3   1 <1>  -0.1600 
 21 C        2.7860    10.1290     0.7670 C.3   1 <1>  -0.0170 
 22 C        4.0340    10.6380     0.0650 C.ar  1 <1>  -0.1440 
 23 C        3.9340    11.2760    -1.1620 C.ar  1 <1>  -0.1500 
 24 C        5.2830    10.4690     0.6420 C.ar  1 <1>  -0.1500 
 25 C        5.0650    11.7440    -1.8120 C.ar  1 <1>  -0.1440 
 26 C        6.4170    10.9360    -0.0010 C.ar  1 <1>  -0.1500 
 27 C        6.3070    11.5720    -1.2240 C.ar  1 <1>  -0.1500 
 28 C        4.9380    12.4410    -3.1540 C.3   1 <1>  -0.0970 
 29 H        0.4980     3.0310    -2.0830 H     1 <1>   0.0800 
 30 H        1.7610     2.6560    -0.9350 H     1 <1>   0.0800 
 31 H       -1.4690     4.6550     1.2340 H     1 <1>   0.0800 
 32 H       -2.3170     2.4940     2.1900 H     1 <1>   0.0800 
 33 H       -1.8940     1.0110     1.3680 H     1 <1>   0.0800 
 34 H       -3.2010     1.9990     0.7590 H     1 <1>   0.0800 
 35 H       -0.8120     5.0990    -1.6250 H     1 <1>   0.0800 
 36 H       -3.3440     5.8480     1.3650 H     1 <1>   0.1500 
 37 H       -5.2780     3.7930    -2.6400 H     1 <1>   0.1500 
 38 H       -3.3180     2.8030    -3.2430 H     1 <1>   0.0800 
 39 H       -2.6570     2.0160    -1.8420 H     1 <1>   0.0800 
 40 H       -1.8120     3.3540    -2.5930 H     1 <1>   0.0800 
 41 H       -5.6340     6.3460     0.7270 H     1 <1>   0.1500 
 42 H        1.6250     6.1710     0.4010 H     1 <1>   0.3700 
 43 H       -6.6100     5.3160    -1.2830 H     1 <1>   0.1500 
 44 H        0.3530     8.8560     0.8260 H     1 <1>   0.0800 
 45 H        1.3660     8.1100     2.0400 H     1 <1>   0.0800 
 46 H        3.2580     8.0660     0.4470 H     1 <1>   0.0800 
 47 H        2.2390     8.7650    -0.7890 H     1 <1>   0.0800 
 48 H        2.9550    10.1110     1.8300 H     1 <1>   0.0800 
 49 H        1.9700    10.8050     0.5770 H     1 <1>   0.0800 
 50 H        2.9680    11.4100    -1.6150 H     1 <1>   0.1500 
 51 H        5.3800     9.9740     1.5920 H     1 <1>   0.1500 
 52 H        7.3840    10.8040     0.4510 H     1 <1>   0.1500 
 53 H        7.1930    11.9320    -1.7160 H     1 <1>   0.1500 
 54 H        5.8550    12.3640    -3.7090 H     1 <1>   0.0800 
 55 H        4.7090    13.4800    -3.0030 H     1 <1>   0.0800 
 56 H        4.1520    11.9920    -3.7340 H     1 <1>   0.0800 
@<TRIPOS>BOND
  1   1   2  2   
  2   2   3  am  
  3   2   4  1   
  4   3   5  1   
  5   3   6  1   
  6   4   7  1   
  7   4  29  1   
  8   4  30  1   
  9   5   8  1   
 10   5   9  1   
 11   5  31  1   
 12   6  32  1   
 13   6  33  1   
 14   6  34  1   
 15   7   9  1   
 16   8  10  ar  
 17   8  11  ar  
 18   9  12  1   
 19   9  35  1   
 20  10  13  ar  
 21  10  14  1   
 22  11  15  ar  
 23  11  36  1   
 24  12  16  2   
 25  12  17  am  
 26  13  18  ar  
 27  13  37  1   
 28  14  38  1   
 29  14  39  1   
 30  14  40  1   
 31  15  18  ar  
 32  15  41  1   
 33  17  19  1   
 34  17  42  1   
 35  18  43  1   
 36  19  20  1   
 37  19  44  1   
 38  19  45  1   
 39  20  21  1   
 40  20  46  1   
 41  20  47  1   
 42  21  22  1   
 43  21  48  1   
 44  21  49  1   
 45  22  23  ar  
 46  22  24  ar  
 47  23  25  ar  
 48  23  50  1   
 49  24  26  ar  
 50  24  51  1   
 51  25  27  ar  
 52  25  28  1   
 53  26  27  ar  
 54  26  52  1   
 55  27  53  1   
 56  28  54  1   
 57  28  55  1   
 58  28  56  1   
@<TRIPOS>SUBSTRUCTURE
  1 ****  12 GROUP 4 **** **** 0

# MOE 2024.06 (io_trps.svl 2023.06)
