@<TRIPOS>MOLECULE
NONAME
52 56 1 0 0 
SMALL
USER_CHARGES


@<TRIPOS>ATOM
  1 O        1.0520    -0.5140     1.0510 O.3   1 <1>  -0.5600 
  2 C        1.9770    -1.2460     0.2740 C.3   1 <1>   0.4600 
  3 C       -0.3150    -0.6200     0.7330 C.3   1 <1>   0.1200 
  4 C        1.3990    -2.6260    -0.0220 C.2   1 <1>  -0.3320 
  5 C        2.2690    -0.4830    -1.0240 C.3   1 <1>  -0.1600 
  6 C        3.2430    -1.3750     1.1260 C.3   1 <1>  -0.1600 
  7 C       -0.8240    -2.0560     0.9460 C.3   1 <1>   0.0210 
  8 N        2.0500    -3.6660    -0.6260 N.pl3 1 <1>   0.0330 
  9 C        0.1420    -3.0040     0.2810 C.2   1 <1>  -0.1810 
 10 C        2.9390     0.8600    -0.7440 C.3   1 <1>   0.2090 
 11 C        3.8830    -0.0120     1.3730 C.3   1 <1>   0.2090 
 12 C        1.1800    -4.7270    -0.6970 C.ar  1 <1>  -0.1520 
 13 C       -0.0320    -4.3420    -0.1300 C.ar  1 <1>   0.0000 
 14 N        4.1680     0.6220     0.0600 N.pl3 1 <1>  -0.8380 
 15 C        1.3510    -6.0130    -1.2160 C.ar  1 <1>  -0.1500 
 16 C       -1.0920    -5.2530    -0.0770 C.ar  1 <1>  -0.1500 
 17 C        5.2490     1.4730    -0.0630 C.ar  1 <1>   0.4100 
 18 C        0.2990    -6.8990    -1.1580 C.ar  1 <1>  -0.1500 
 19 C       -0.9220    -6.5190    -0.5890 C.ar  1 <1>  -0.1500 
 20 N        5.0300     2.6950    -0.4990 N.ar  1 <1>  -0.6200 
 21 C        6.5190     1.0550     0.2600 C.ar  1 <1>  -0.1500 
 22 C        6.0900     3.4750    -0.5930 C.ar  1 <1>   0.7030 
 23 C        7.5420     1.9500     0.1240 C.ar  1 <1>   0.3930 
 24 O        5.8210     4.7160    -1.0420 O.3   1 <1>  -0.3630 
 25 N        7.3520     3.1830    -0.3040 N.ar  1 <1>  -0.6200 
 26 O        8.7870     1.5430     0.4420 O.3   1 <1>  -0.3630 
 27 C        6.8320     5.6910    -1.2040 C.3   1 <1>   0.0400 
 28 C        9.8940     2.4140     0.3160 C.3   1 <1>   0.0400 
 29 H       -0.4520    -0.3230    -0.2920 H     1 <1>   0.0800 
 30 H       -0.8530     0.0630     1.3650 H     1 <1>   0.0800 
 31 H        1.3660    -0.3370    -1.5830 H     1 <1>   0.0800 
 32 H        2.9320    -1.0640    -1.6360 H     1 <1>   0.0800 
 33 H        3.9580    -2.0010     0.6270 H     1 <1>   0.0800 
 34 H        2.9920    -1.8400     2.0620 H     1 <1>   0.0800 
 35 H       -1.8030    -2.1610     0.5170 H     1 <1>   0.0800 
 36 H       -0.8810    -2.2730     1.9970 H     1 <1>   0.0800 
 37 H        3.0160    -3.6690    -0.9660 H     1 <1>   0.2700 
 38 H        2.2730     1.5080    -0.1980 H     1 <1>   0.0800 
 39 H        3.1920     1.3390    -1.6750 H     1 <1>   0.0800 
 40 H        4.7880    -0.1280     1.9440 H     1 <1>   0.0800 
 41 H        3.2100     0.6170     1.9330 H     1 <1>   0.0800 
 42 H        2.2920    -6.2980    -1.6510 H     1 <1>   0.1500 
 43 H       -2.0230    -4.9470     0.3640 H     1 <1>   0.1500 
 44 H        0.4060    -7.8950    -1.5510 H     1 <1>   0.1500 
 45 H       -1.7280    -7.2300    -0.5550 H     1 <1>   0.1500 
 46 H        6.7020     0.0570     0.6000 H     1 <1>   0.1500 
 47 H        6.3750     6.5920    -1.5700 H     1 <1>   0.0800 
 48 H        7.5550     5.3280    -1.9130 H     1 <1>   0.0800 
 49 H        7.2960     5.8720    -0.2500 H     1 <1>   0.0800 
 50 H       10.7780     1.8830     0.6190 H     1 <1>   0.0800 
 51 H        9.7390     3.2680     0.9500 H     1 <1>   0.0800 
 52 H        9.9810     2.7190    -0.7120 H     1 <1>   0.0800 
@<TRIPOS>BOND
  1   1   2  1   
  2   1   3  1   
  3   2   4  1   
  4   2   5  1   
  5   2   6  1   
  6   3   7  1   
  7   3  29  1   
  8   3  30  1   
  9   4   8  1   
 10   4   9  2   
 11   5  10  1   
 12   5  31  1   
 13   5  32  1   
 14   6  11  1   
 15   6  33  1   
 16   6  34  1   
 17   7   9  1   
 18   7  35  1   
 19   7  36  1   
 20   8  12  1   
 21   8  37  1   
 22   9  13  1   
 23  10  14  1   
 24  10  38  1   
 25  10  39  1   
 26  11  14  1   
 27  11  40  1   
 28  11  41  1   
 29  12  13  ar  
 30  12  15  ar  
 31  13  16  ar  
 32  14  17  1   
 33  15  18  ar  
 34  15  42  1   
 35  16  19  ar  
 36  16  43  1   
 37  17  20  ar  
 38  17  21  ar  
 39  18  19  ar  
 40  18  44  1   
 41  19  45  1   
 42  20  22  ar  
 43  21  23  ar  
 44  21  46  1   
 45  22  24  1   
 46  22  25  ar  
 47  23  25  ar  
 48  23  26  1   
 49  24  27  1   
 50  26  28  1   
 51  27  47  1   
 52  27  48  1   
 53  27  49  1   
 54  28  50  1   
 55  28  51  1   
 56  28  52  1   
@<TRIPOS>SUBSTRUCTURE
  1 ****   5 GROUP 4 **** **** 0

# MOE 2024.06 (io_trps.svl 2023.06)
