@<TRIPOS>MOLECULE
NONAME
54 56 1 0 0 
SMALL
USER_CHARGES


@<TRIPOS>ATOM
  1 O       -1.3210     0.1190    -0.8290 O.2   1 <1>  -0.5700 
  2 C       -2.1220     1.0310    -0.7320 C.2   1 <1>   0.5440 
  3 N       -3.4440     0.7360    -0.9940 N.am  1 <1>  -0.6600 
  4 C       -1.6910     2.3540    -0.3110 C.ar  1 <1>   0.0860 
  5 C       -3.7690    -0.5060    -1.7380 C.3   1 <1>   0.1400 
  6 C       -4.5170     1.1640    -0.0570 C.3   1 <1>   0.1400 
  7 C       -2.2840     3.5110    -0.8130 C.ar  1 <1>  -0.1500 
  8 C       -0.6610     2.5120     0.6120 C.ar  1 <1>  -0.1500 
  9 C       -3.9250    -1.6550    -0.7180 C.3   1 <1>   0.4230 
 10 C       -4.7260     0.0420     0.9730 C.3   1 <1>  -0.1600 
 11 C       -1.8820     4.7710    -0.4060 C.ar  1 <1>   0.0820 
 12 C       -0.2450     3.7630     1.0340 C.ar  1 <1>   0.0820 
 13 N       -4.0270    -3.0370    -1.3490 N.4   1 <1>  -0.9590 
 14 C       -5.0310    -1.3500     0.3390 C.3   1 <1>   0.0000 
 15 O       -2.5370     5.8210    -0.9600 O.3   1 <1>  -0.3620 
 16 C       -0.8570     4.9020     0.5250 C.ar  1 <1>  -0.1500 
 17 O        0.7620     3.7900     1.9420 O.3   1 <1>  -0.3630 
 18 C       -4.5780    -4.0880    -0.4330 C.3   1 <1>   0.3430 
 19 C       -4.7210    -3.0940    -2.6770 C.3   1 <1>   0.2630 
 20 C       -4.9790    -2.4320     1.4600 C.3   1 <1>  -0.1600 
 21 C       -6.4300    -1.3360    -0.3390 C.3   1 <1>   0.1200 
 22 C       -2.1750     7.1540    -0.6720 C.3   1 <1>   0.0400 
 23 C        1.3100     5.0040     2.4040 C.3   1 <1>   0.0400 
 24 C       -4.2940    -3.7430     1.0290 C.3   1 <1>  -0.1600 
 25 O       -7.4180    -0.8980     0.5270 O.3   1 <1>  -0.6800 
 26 H       -4.6670    -0.3480    -2.3070 H     1 <1>   0.0800 
 27 H       -2.9670    -0.7290    -2.4210 H     1 <1>   0.0800 
 28 H       -4.2380     2.0720     0.4510 H     1 <1>   0.0800 
 29 H       -5.4250     1.3570    -0.6030 H     1 <1>   0.0800 
 30 H       -3.0720     3.4340    -1.5390 H     1 <1>   0.1500 
 31 H       -0.1700     1.6420     1.0100 H     1 <1>   0.1500 
 32 H       -3.0000    -1.6500    -0.1630 H     1 <1>   0.0800 
 33 H       -3.8260    -0.0150     1.5620 H     1 <1>   0.0800 
 34 H       -5.5120     0.3350     1.6470 H     1 <1>   0.0800 
 35 H       -3.0430    -3.2970    -1.5180 H     1 <1>   0.4500 
 36 H       -0.5420     5.8730     0.8470 H     1 <1>   0.1500 
 37 H       -5.6450    -4.1630    -0.5640 H     1 <1>   0.0800 
 38 H       -4.1450    -5.0460    -0.6730 H     1 <1>   0.0800 
 39 H       -5.7490    -2.7870    -2.5800 H     1 <1>   0.0800 
 40 H       -4.6990    -4.1000    -3.0650 H     1 <1>   0.0800 
 41 H       -4.2320    -2.4490    -3.3880 H     1 <1>   0.0800 
 42 H       -4.4440    -2.0610     2.3190 H     1 <1>   0.0800 
 43 H       -5.9730    -2.6560     1.8050 H     1 <1>   0.0800 
 44 H       -6.7140    -2.3160    -0.6780 H     1 <1>   0.0800 
 45 H       -6.4520    -0.6670    -1.1800 H     1 <1>   0.0800 
 46 H       -2.8130     7.8040    -1.2430 H     1 <1>   0.0800 
 47 H       -1.1490     7.3070    -0.9560 H     1 <1>   0.0800 
 48 H       -2.3170     7.3360     0.3790 H     1 <1>   0.0800 
 49 H        2.1020     4.7710     3.0930 H     1 <1>   0.0800 
 50 H        0.5430     5.5660     2.9070 H     1 <1>   0.0800 
 51 H        1.7050     5.5510     1.5660 H     1 <1>   0.0800 
 52 H       -4.6440    -4.5450     1.6560 H     1 <1>   0.0800 
 53 H       -3.2300    -3.6720     1.1740 H     1 <1>   0.0800 
 54 H       -7.5220    -1.4870     1.3010 H     1 <1>   0.4000 
@<TRIPOS>BOND
  1   1   2  2   
  2   2   3  am  
  3   2   4  1   
  4   3   5  1   
  5   3   6  1   
  6   4   7  ar  
  7   4   8  ar  
  8   5   9  1   
  9   5  26  1   
 10   5  27  1   
 11   6  10  1   
 12   6  28  1   
 13   6  29  1   
 14   7  11  ar  
 15   7  30  1   
 16   8  12  ar  
 17   8  31  1   
 18   9  13  1   
 19   9  14  1   
 20   9  32  1   
 21  10  14  1   
 22  10  33  1   
 23  10  34  1   
 24  11  15  1   
 25  11  16  ar  
 26  12  16  ar  
 27  12  17  1   
 28  13  18  1   
 29  13  19  1   
 30  13  35  1   
 31  14  20  1   
 32  14  21  1   
 33  15  22  1   
 34  16  36  1   
 35  17  23  1   
 36  18  24  1   
 37  18  37  1   
 38  18  38  1   
 39  19  39  1   
 40  19  40  1   
 41  19  41  1   
 42  20  24  1   
 43  20  42  1   
 44  20  43  1   
 45  21  25  1   
 46  21  44  1   
 47  21  45  1   
 48  22  46  1   
 49  22  47  1   
 50  22  48  1   
 51  23  49  1   
 52  23  50  1   
 53  23  51  1   
 54  24  52  1   
 55  24  53  1   
 56  25  54  1   
@<TRIPOS>SUBSTRUCTURE
  1 ****   3 GROUP 4 **** **** 0

# MOE 2024.06 (io_trps.svl 2023.06)
