@<TRIPOS>MOLECULE
NONAME
39 39 1 0 0 
SMALL
USER_CHARGES


@<TRIPOS>ATOM
  1 S       -0.0170     0.6690     0.5350 S.o2  1 <1>   1.3330 
  2 O       -0.9060     0.4250    -0.5720 O.2   1 <1>  -0.6500 
  3 O       -0.3690     1.5870     1.5920 O.2   1 <1>  -0.6500 
  4 N        1.3840     1.2300    -0.1880 N.am  1 <1>  -0.9140 
  5 C        0.4990    -0.8760     1.2490 C.3   1 <1>  -0.1350 
  6 C        1.3590     2.6690    -0.3960 C.3   1 <1>   0.1960 
  7 C        2.6600     3.0980    -1.0610 C.3   1 <1>  -0.0990 
  8 C        2.6550     4.5960    -1.2460 C.2   1 <1>   0.5690 
  9 O        2.1190     5.0390    -2.2310 O.2   1 <1>  -0.5700 
 10 N        3.2490     5.3630    -0.2830 N.am  1 <1>  -0.4940 
 11 C        3.4290     6.7650    -0.1800 C.2   1 <1>  -0.0880 
 12 N        2.6110     7.7570    -0.6390 N.pl3 1 <1>   0.3140 
 13 C        4.4690     7.3850     0.4280 C.2   1 <1>  -0.1810 
 14 N        3.1060     8.9780    -0.3410 N.2   1 <1>  -0.7070 
 15 C        1.2980     7.6530    -1.2880 C.3   1 <1>   0.0160 
 16 C        4.2130     8.7460     0.2860 C.2   1 <1>   0.1080 
 17 C        5.6690     6.7560     1.1150 C.3   1 <1>   0.0210 
 18 C        5.0880     9.8720     0.7900 C.3   1 <1>  -0.0590 
 19 C        6.7880     6.5020     0.1030 C.3   1 <1>  -0.2400 
 20 H        1.3480     0.8060    -1.1160 H     1 <1>   0.4200 
 21 H       -0.3310    -1.3510     1.7340 H     1 <1>   0.0800 
 22 H        1.2700    -0.7070     1.9750 H     1 <1>   0.0800 
 23 H        0.8750    -1.5310     0.4890 H     1 <1>   0.0800 
 24 H        1.2590     3.1720     0.5530 H     1 <1>   0.0800 
 25 H        0.5170     2.9390    -1.0150 H     1 <1>   0.0800 
 26 H        2.7490     2.6350    -2.0270 H     1 <1>   0.0800 
 27 H        3.4990     2.8070    -0.4560 H     1 <1>   0.0800 
 28 H        3.7370     4.8400     0.4420 H     1 <1>   0.3700 
 29 H        0.7570     6.8250    -0.8710 H     1 <1>   0.0800 
 30 H        1.4410     7.5040    -2.3420 H     1 <1>   0.0800 
 31 H        0.7510     8.5610    -1.1240 H     1 <1>   0.0800 
 32 H        5.3790     5.8270     1.5710 H     1 <1>   0.0800 
 33 H        6.0230     7.4050     1.8960 H     1 <1>   0.0800 
 34 H        6.1160     9.6780     0.5490 H     1 <1>   0.0800 
 35 H        4.9790     9.9660     1.8540 H     1 <1>   0.0800 
 36 H        4.7930    10.7960     0.3270 H     1 <1>   0.0800 
 37 H        6.4410     5.8450    -0.6750 H     1 <1>   0.0800 
 38 H        7.6350     6.0520     0.5890 H     1 <1>   0.0800 
 39 H        7.0970     7.4280    -0.3470 H     1 <1>   0.0800 
@<TRIPOS>BOND
  1   1   2  2   
  2   1   3  2   
  3   1   4  am  
  4   1   5  1   
  5   4   6  1   
  6   4  20  1   
  7   5  21  1   
  8   5  22  1   
  9   5  23  1   
 10   6   7  1   
 11   6  24  1   
 12   6  25  1   
 13   7   8  1   
 14   7  26  1   
 15   7  27  1   
 16   8   9  2   
 17   8  10  am  
 18  10  11  1   
 19  10  28  1   
 20  11  12  1   
 21  11  13  2   
 22  12  14  1   
 23  12  15  1   
 24  13  16  1   
 25  13  17  1   
 26  14  16  2   
 27  15  29  1   
 28  15  30  1   
 29  15  31  1   
 30  16  18  1   
 31  17  19  1   
 32  17  32  1   
 33  17  33  1   
 34  18  34  1   
 35  18  35  1   
 36  18  36  1   
 37  19  37  1   
 38  19  38  1   
 39  19  39  1   
@<TRIPOS>SUBSTRUCTURE
  1 ****  10 GROUP 4 **** **** 0

# MOE 2024.06 (io_trps.svl 2023.06)
