@<TRIPOS>MOLECULE
NONAME
52 53 1 0 0 
SMALL
USER_CHARGES


@<TRIPOS>ATOM
  1 S       -0.2780    -1.4590     1.5440 S.3   1 <1>  -0.4600 
  2 C       -1.0970     0.1430     1.3400 C.3   1 <1>   0.1500 
  3 C        0.1480    -1.9560    -0.1650 C.3   1 <1>   0.1310 
  4 C       -0.5380     1.0670     2.4180 C.3   1 <1>  -0.2400 
  5 C       -2.5980    -0.0890     1.4980 C.3   1 <1>  -0.2400 
  6 C       -1.0570    -1.8820    -1.1040 C.2   1 <1>   0.5690 
  7 O       -1.0710    -0.9660    -1.8940 O.2   1 <1>  -0.5700 
  8 N       -2.0810    -2.7960    -1.0720 N.am  1 <1>  -0.6600 
  9 C       -2.1300    -3.9330    -0.0840 C.3   1 <1>   0.3640 
 10 C       -3.2470    -2.5960    -1.9860 C.3   1 <1>   0.1400 
 11 C       -1.0760    -4.9770    -0.4630 C.ar  1 <1>  -0.1430 
 12 C       -3.5140    -4.6380     0.0860 C.3   1 <1>   0.2000 
 13 C       -4.2360    -3.7620    -1.9650 C.3   1 <1>   0.1200 
 14 C       -0.3140    -5.5670     0.5330 C.ar  1 <1>  -0.1500 
 15 C       -0.8580    -5.3580    -1.7790 C.ar  1 <1>  -0.1500 
 16 O       -4.5590    -4.0530    -0.6460 O.3   1 <1>  -0.5600 
 17 C       -3.9740    -4.6650     1.5500 C.3   1 <1>   0.1200 
 18 C        0.6470    -6.5190     0.2410 C.ar  1 <1>   0.0830 
 19 C        0.0940    -6.3140    -2.0900 C.ar  1 <1>  -0.1500 
 20 O       -3.0590    -5.3480     2.3460 O.3   1 <1>  -0.6800 
 21 O        1.3230    -7.0080     1.3170 O.3   1 <1>  -0.3630 
 22 C        0.8530    -6.9150    -1.0890 C.ar  1 <1>   0.0830 
 23 C        2.7060    -7.2700     1.2310 C.3   1 <1>   0.0400 
 24 O        1.7720    -7.8840    -1.3750 O.3   1 <1>  -0.3630 
 25 C        1.9020    -8.4360    -2.6660 C.3   1 <1>   0.0400 
 26 H       -0.8590     0.5160     0.3580 H     1 <1>   0.0800 
 27 H        0.9110    -1.2780    -0.4990 H     1 <1>   0.0800 
 28 H        0.5550    -2.9470    -0.1230 H     1 <1>   0.0800 
 29 H       -0.7330     0.6640     3.3960 H     1 <1>   0.0800 
 30 H       -0.9930     2.0380     2.3450 H     1 <1>   0.0800 
 31 H        0.5250     1.1760     2.2920 H     1 <1>   0.0800 
 32 H       -2.8120    -0.5170     2.4610 H     1 <1>   0.0800 
 33 H       -2.9560    -0.7550     0.7350 H     1 <1>   0.0800 
 34 H       -3.1250     0.8430     1.4080 H     1 <1>   0.0800 
 35 H       -1.8610    -3.5370     0.8790 H     1 <1>   0.0800 
 36 H       -3.7630    -1.6990    -1.6920 H     1 <1>   0.0800 
 37 H       -2.8900    -2.4510    -2.9910 H     1 <1>   0.0800 
 38 H       -3.4370    -5.6540    -0.2580 H     1 <1>   0.0800 
 39 H       -3.8250    -4.6390    -2.4340 H     1 <1>   0.0800 
 40 H       -5.1420    -3.4870    -2.4750 H     1 <1>   0.0800 
 41 H       -0.4560    -5.2870     1.5640 H     1 <1>   0.1500 
 42 H       -1.4250    -4.9100    -2.5750 H     1 <1>   0.1500 
 43 H       -4.9270    -5.1570     1.6380 H     1 <1>   0.0800 
 44 H       -4.0520    -3.6610     1.9310 H     1 <1>   0.0800 
 45 H        0.2250    -6.5730    -3.1230 H     1 <1>   0.1500 
 46 H       -3.0500    -6.3040     2.1370 H     1 <1>   0.4000 
 47 H        3.1140    -7.2420     2.2250 H     1 <1>   0.0800 
 48 H        3.1710    -6.5180     0.6190 H     1 <1>   0.0800 
 49 H        2.8490    -8.2480     0.8080 H     1 <1>   0.0800 
 50 H        2.6340    -9.2220    -2.6200 H     1 <1>   0.0800 
 51 H        2.2340    -7.6690    -3.3430 H     1 <1>   0.0800 
 52 H        0.9530    -8.8400    -2.9720 H     1 <1>   0.0800 
@<TRIPOS>BOND
  1   1   2  1   
  2   1   3  1   
  3   2   4  1   
  4   2   5  1   
  5   2  26  1   
  6   3   6  1   
  7   3  27  1   
  8   3  28  1   
  9   4  29  1   
 10   4  30  1   
 11   4  31  1   
 12   5  32  1   
 13   5  33  1   
 14   5  34  1   
 15   6   7  2   
 16   6   8  am  
 17   8   9  1   
 18   8  10  1   
 19   9  11  1   
 20   9  12  1   
 21   9  35  1   
 22  10  13  1   
 23  10  36  1   
 24  10  37  1   
 25  11  14  ar  
 26  11  15  ar  
 27  12  16  1   
 28  12  17  1   
 29  12  38  1   
 30  13  16  1   
 31  13  39  1   
 32  13  40  1   
 33  14  18  ar  
 34  14  41  1   
 35  15  19  ar  
 36  15  42  1   
 37  17  20  1   
 38  17  43  1   
 39  17  44  1   
 40  18  21  1   
 41  18  22  ar  
 42  19  22  ar  
 43  19  45  1   
 44  20  46  1   
 45  21  23  1   
 46  22  24  1   
 47  23  47  1   
 48  23  48  1   
 49  23  49  1   
 50  24  25  1   
 51  25  50  1   
 52  25  51  1   
 53  25  52  1   
@<TRIPOS>SUBSTRUCTURE
  1 ****  11 GROUP 4 **** **** 0

# MOE 2024.06 (io_trps.svl 2023.06)
