@<TRIPOS>MOLECULE
NONAME
58 60 1 0 0 
SMALL
USER_CHARGES


@<TRIPOS>ATOM
  1 O       -0.7180     0.7550     2.2140 O.2   1 <1>  -0.5700 
  2 C       -1.1200     0.9840     1.0980 C.2   1 <1>   0.5690 
  3 N       -1.5600    -0.0140     0.2750 N.am  1 <1>  -0.6600 
  4 C       -1.1180     2.4200     0.6060 C.3   1 <1>  -0.0990 
  5 C       -1.5400    -1.4450     0.7270 C.3   1 <1>   0.3640 
  6 C       -2.2210     0.2290    -1.0500 C.3   1 <1>   0.1400 
  7 C       -0.7340     3.4210     1.7030 C.3   1 <1>   0.0960 
  8 C       -0.3950    -2.2460     0.0730 C.ar  1 <1>  -0.1440 
  9 C       -2.9460    -2.0690     0.4840 C.3   1 <1>   0.2000 
 10 C       -2.7400    -1.0670    -1.6990 C.3   1 <1>   0.1200 
 11 N       -0.6690     4.7870     1.1470 N.pl3 1 <1>   0.3140 
 12 C       -0.2890    -3.6090     0.3300 C.ar  1 <1>  -0.1500 
 13 C        0.5610    -1.6610    -0.7550 C.ar  1 <1>  -0.1500 
 14 O       -3.5100    -1.8080    -0.7950 O.3   1 <1>  -0.5600 
 15 C       -3.9430    -1.5610     1.5380 C.3   1 <1>   0.1200 
 16 N       -1.7590     5.3690     0.6130 N.2   1 <1>  -0.7070 
 17 C        0.4110     5.5990     1.0630 C.2   1 <1>  -0.3320 
 18 C        0.7110    -4.3770    -0.2420 C.ar  1 <1>   0.0830 
 19 C        1.5760    -2.4150    -1.3180 C.ar  1 <1>  -0.1500 
 20 O       -5.2100    -2.0330     1.2340 O.3   1 <1>  -0.6800 
 21 C       -1.3560     6.5310     0.2110 C.2   1 <1>   0.1080 
 22 C       -0.0060     6.7350     0.4640 C.2   1 <1>  -0.1500 
 23 C        1.8070     5.2640     1.5600 C.3   1 <1>  -0.0600 
 24 O        0.7060    -5.7050     0.0270 O.3   1 <1>  -0.3630 
 25 C        1.6680    -3.7700    -1.0600 C.ar  1 <1>   0.0830 
 26 C       -2.2810     7.5240    -0.4520 C.3   1 <1>  -0.0590 
 27 C        0.4640    -6.5650    -1.0650 C.3   1 <1>   0.0400 
 28 O        2.7030    -4.4460    -1.6160 O.3   1 <1>  -0.3630 
 29 C        3.6680    -4.9550    -0.7210 C.3   1 <1>   0.0400 
 30 H       -0.4200     2.5000    -0.2050 H     1 <1>   0.0800 
 31 H       -2.1010     2.6680     0.2510 H     1 <1>   0.0800 
 32 H       -1.3560    -1.4830     1.7860 H     1 <1>   0.0800 
 33 H       -3.0560     0.8950    -0.9130 H     1 <1>   0.0800 
 34 H       -1.5230     0.7020    -1.7180 H     1 <1>   0.0800 
 35 H        0.2190     3.1640     2.1250 H     1 <1>   0.0800 
 36 H       -1.4700     3.4110     2.4870 H     1 <1>   0.0800 
 37 H       -2.8880    -3.1360     0.5860 H     1 <1>   0.0800 
 38 H       -1.9270    -1.6820    -2.0410 H     1 <1>   0.0800 
 39 H       -3.3630    -0.8340    -2.5450 H     1 <1>   0.0800 
 40 H       -0.9830    -4.1100     0.9800 H     1 <1>   0.1500 
 41 H        0.5400    -0.6080    -0.9690 H     1 <1>   0.1500 
 42 H       -3.9760    -0.4850     1.5370 H     1 <1>   0.0800 
 43 H       -3.6810    -1.9030     2.5240 H     1 <1>   0.0800 
 44 H        2.3090    -1.9530    -1.9540 H     1 <1>   0.1500 
 45 H       -5.3020    -2.0080     0.2550 H     1 <1>   0.4000 
 46 H        0.5580     7.6170     0.2220 H     1 <1>   0.1500 
 47 H        2.4760     6.0830     1.3640 H     1 <1>   0.0800 
 48 H        2.1820     4.3900     1.0580 H     1 <1>   0.0800 
 49 H        1.7910     5.0830     2.6200 H     1 <1>   0.0800 
 50 H       -1.7460     8.4170    -0.7150 H     1 <1>   0.0800 
 51 H       -3.0780     7.7750     0.2230 H     1 <1>   0.0800 
 52 H       -2.6990     7.0860    -1.3390 H     1 <1>   0.0800 
 53 H        0.3760    -7.5680    -0.6900 H     1 <1>   0.0800 
 54 H        1.2850    -6.5040    -1.7570 H     1 <1>   0.0800 
 55 H       -0.4510    -6.2680    -1.5450 H     1 <1>   0.0800 
 56 H        4.4720    -5.3750    -1.2970 H     1 <1>   0.0800 
 57 H        3.2200    -5.7160    -0.1080 H     1 <1>   0.0800 
 58 H        4.0330    -4.1490    -0.1090 H     1 <1>   0.0800 
@<TRIPOS>BOND
  1   1   2  2   
  2   2   3  am  
  3   2   4  1   
  4   3   5  1   
  5   3   6  1   
  6   4   7  1   
  7   4  30  1   
  8   4  31  1   
  9   5   8  1   
 10   5   9  1   
 11   5  32  1   
 12   6  10  1   
 13   6  33  1   
 14   6  34  1   
 15   7  11  1   
 16   7  35  1   
 17   7  36  1   
 18   8  12  ar  
 19   8  13  ar  
 20   9  14  1   
 21   9  15  1   
 22   9  37  1   
 23  10  14  1   
 24  10  38  1   
 25  10  39  1   
 26  11  16  1   
 27  11  17  1   
 28  12  18  ar  
 29  12  40  1   
 30  13  19  ar  
 31  13  41  1   
 32  15  20  1   
 33  15  42  1   
 34  15  43  1   
 35  16  21  2   
 36  17  22  2   
 37  17  23  1   
 38  18  24  1   
 39  18  25  ar  
 40  19  25  ar  
 41  19  44  1   
 42  20  45  1   
 43  21  22  1   
 44  21  26  1   
 45  22  46  1   
 46  23  47  1   
 47  23  48  1   
 48  23  49  1   
 49  24  27  1   
 50  25  28  1   
 51  26  50  1   
 52  26  51  1   
 53  26  52  1   
 54  27  53  1   
 55  27  54  1   
 56  27  55  1   
 57  28  29  1   
 58  29  56  1   
 59  29  57  1   
 60  29  58  1   
@<TRIPOS>SUBSTRUCTURE
  1 ****   3 GROUP 4 **** **** 0

# MOE 2024.06 (io_trps.svl 2023.06)
