@<TRIPOS>MOLECULE
NONAME
41 42 1 0 0 
SMALL
USER_CHARGES


@<TRIPOS>ATOM
  1 S        0.4400     0.4060    -1.5140 S.o2  1 <1>   1.3330 
  2 O        0.6630    -0.8920    -2.1110 O.2   1 <1>  -0.6500 
  3 O       -0.4300     1.3540    -2.1720 O.2   1 <1>  -0.6500 
  4 N       -0.1850     0.1560     0.0470 N.am  1 <1>  -0.8490 
  5 C        2.0390     1.1670    -1.2240 C.3   1 <1>  -0.0550 
  6 C       -0.7460     1.3720     0.6490 C.3   1 <1>   0.1160 
  7 C       -1.1860    -0.9140     0.0720 C.3   1 <1>   0.1160 
  8 C        3.0850     0.2270    -0.5860 C.3   1 <1>  -0.0800 
  9 C        4.4830     0.8140    -0.4700 C.3   1 <1>   0.2200 
 10 C        2.7820    -0.2030     0.8530 C.3   1 <1>   0.1200 
 11 N        4.4250     2.2190    -0.0110 N.am  1 <1>  -0.7300 
 12 C        5.0650    -0.0530     0.6380 C.3   1 <1>   0.1200 
 13 O        4.0090    -0.2940     1.5180 O.3   1 <1>  -0.5600 
 14 C        4.5840     3.3360    -0.7760 C.2   1 <1>   0.7160 
 15 O        4.8040     3.1940    -1.9660 O.2   1 <1>  -0.5700 
 16 C        4.4570     4.6470    -0.1630 C.2   1 <1>   0.1410 
 17 N        4.1090     4.8310     1.1480 N.2   1 <1>  -0.5650 
 18 C        4.6410     5.8700    -0.7380 C.2   1 <1>  -0.3020 
 19 C        4.1010     6.1120     1.3080 C.2   1 <1>   0.0360 
 20 N        4.4170     6.8050     0.1920 N.pl3 1 <1>   0.0480 
 21 C        4.5020     8.2660     0.0350 C.3   1 <1>   0.0160 
 22 H        2.4270     1.5000    -2.1680 H     1 <1>   0.0800 
 23 H        1.9080     2.0370    -0.6120 H     1 <1>   0.0800 
 24 H       -1.0520     1.1750     1.6620 H     1 <1>   0.0800 
 25 H       -1.5990     1.7140     0.0860 H     1 <1>   0.0800 
 26 H       -0.0080     2.1550     0.6660 H     1 <1>   0.0800 
 27 H       -1.5530    -1.0600     1.0730 H     1 <1>   0.0800 
 28 H       -0.7460    -1.8390    -0.2620 H     1 <1>   0.0800 
 29 H       -2.0110    -0.6700    -0.5770 H     1 <1>   0.0800 
 30 H        3.1510    -0.6660    -1.1840 H     1 <1>   0.0800 
 31 H        5.0460     0.7360    -1.3860 H     1 <1>   0.0800 
 32 H        2.2870    -1.1590     0.8920 H     1 <1>   0.0800 
 33 H        2.1910     0.5330     1.3710 H     1 <1>   0.0800 
 34 H        4.2330     2.3660     0.9860 H     1 <1>   0.3700 
 35 H        5.8740     0.4250     1.1620 H     1 <1>   0.0800 
 36 H        5.3890    -1.0020     0.2480 H     1 <1>   0.0800 
 37 H        4.9170     6.0860    -1.7540 H     1 <1>   0.1500 
 38 H        3.8680     6.6050     2.2350 H     1 <1>   0.1500 
 39 H        4.6350     8.5090    -1.0040 H     1 <1>   0.0800 
 40 H        5.3390     8.6350     0.5990 H     1 <1>   0.0800 
 41 H        3.5960     8.7170     0.3940 H     1 <1>   0.0800 
@<TRIPOS>BOND
  1   1   2  2   
  2   1   3  2   
  3   1   4  am  
  4   1   5  1   
  5   4   6  1   
  6   4   7  1   
  7   5   8  1   
  8   5  22  1   
  9   5  23  1   
 10   6  24  1   
 11   6  25  1   
 12   6  26  1   
 13   7  27  1   
 14   7  28  1   
 15   7  29  1   
 16   8   9  1   
 17   8  10  1   
 18   8  30  1   
 19   9  11  1   
 20   9  12  1   
 21   9  31  1   
 22  10  13  1   
 23  10  32  1   
 24  10  33  1   
 25  11  14  am  
 26  11  34  1   
 27  12  13  1   
 28  12  35  1   
 29  12  36  1   
 30  14  15  2   
 31  14  16  1   
 32  16  17  1   
 33  16  18  2   
 34  17  19  2   
 35  18  20  1   
 36  18  37  1   
 37  19  20  1   
 38  19  38  1   
 39  20  21  1   
 40  21  39  1   
 41  21  40  1   
 42  21  41  1   
@<TRIPOS>SUBSTRUCTURE
  1 ****  11 GROUP 4 **** **** 0

# MOE 2024.06 (io_trps.svl 2023.06)
