@<TRIPOS>MOLECULE
NONAME
50 52 1 0 0 
SMALL
USER_CHARGES


@<TRIPOS>ATOM
  1 O       -0.4370    -0.2660    -2.3490 O.2   1 <1>  -0.5700 
  2 C       -0.2720     0.7810    -1.7670 C.2   1 <1>   0.5690 
  3 N       -1.3050     1.3950    -1.0970 N.am  1 <1>  -0.6600 
  4 C        1.1250     1.3940    -1.8300 C.3   1 <1>   0.0440 
  5 C       -1.1620     2.6860    -0.3580 C.3   1 <1>   0.1400 
  6 C       -2.6310     0.7170    -0.9970 C.3   1 <1>   0.1400 
  7 C        1.7690     1.6490    -0.4620 C.ar  1 <1>  -0.1440 
  8 C       -2.4950     3.4330    -0.3610 C.3   1 <1>  -0.1600 
  9 C       -3.3470     1.1280     0.2910 C.3   1 <1>  -0.1600 
 10 C        2.4680     2.8190    -0.1660 C.ar  1 <1>  -0.1430 
 11 C        1.6490     0.6670     0.5120 C.ar  1 <1>  -0.1500 
 12 C       -3.6160     2.6480     0.3670 C.3   1 <1>   0.2800 
 13 C        3.0100     2.9880     1.1000 C.ar  1 <1>  -0.1500 
 14 C        2.6700     3.9300    -1.1870 C.3   1 <1>  -0.0970 
 15 C        2.1940     0.8430     1.7700 C.ar  1 <1>  -0.1500 
 16 O       -3.5830     2.9420     1.7390 O.3   1 <1>  -0.5600 
 17 C       -5.0250     2.9640    -0.1920 C.3   1 <1>  -0.1600 
 18 C        2.8750     2.0080     2.0660 C.ar  1 <1>  -0.1500 
 19 C       -4.0010     4.1970     2.2000 C.3   1 <1>   0.1200 
 20 C       -5.5960     4.3150     0.2420 C.3   1 <1>   0.2800 
 21 C       -5.4340     4.4810     1.7510 C.3   1 <1>  -0.1600 
 22 O       -4.8950     5.3170    -0.3820 O.3   1 <1>  -0.6800 
 23 C       -7.0510     4.4810    -0.1900 C.3   1 <1>  -0.2400 
 24 H        1.0450     2.2940    -2.4060 H     1 <1>   0.0800 
 25 H        1.7630     0.7250    -2.3780 H     1 <1>   0.0800 
 26 H       -0.4140     3.3010    -0.8240 H     1 <1>   0.0800 
 27 H       -0.8530     2.4850     0.6550 H     1 <1>   0.0800 
 28 H       -2.4940    -0.3520    -1.0010 H     1 <1>   0.0800 
 29 H       -3.2260     0.9810    -1.8540 H     1 <1>   0.0800 
 30 H       -2.7700     3.5830    -1.3900 H     1 <1>   0.0800 
 31 H       -2.3420     4.4030     0.0660 H     1 <1>   0.0800 
 32 H       -2.7210     0.8290     1.1140 H     1 <1>   0.0800 
 33 H       -4.2600     0.5690     0.3770 H     1 <1>   0.0800 
 34 H        1.1230    -0.2490     0.2990 H     1 <1>   0.1500 
 35 H        3.5470     3.8870     1.3460 H     1 <1>   0.1500 
 36 H        3.1040     3.5310    -2.0860 H     1 <1>   0.0800 
 37 H        3.3320     4.6870    -0.8080 H     1 <1>   0.0800 
 38 H        1.7300     4.3940    -1.4230 H     1 <1>   0.0800 
 39 H        2.0890     0.0740     2.5150 H     1 <1>   0.1500 
 40 H       -5.7030     2.2110     0.1660 H     1 <1>   0.0800 
 41 H       -5.0280     2.8910    -1.2650 H     1 <1>   0.0800 
 42 H        3.3000     2.1500     3.0440 H     1 <1>   0.1500 
 43 H       -3.3220     4.9530     1.8520 H     1 <1>   0.0800 
 44 H       -3.9510     4.1750     3.2750 H     1 <1>   0.0800 
 45 H       -5.7240     5.4740     2.0470 H     1 <1>   0.0800 
 46 H       -6.0850     3.7910     2.2580 H     1 <1>   0.0800 
 47 H       -3.9530     5.2270    -0.1600 H     1 <1>   0.4000 
 48 H       -7.6660     3.7300     0.2710 H     1 <1>   0.0800 
 49 H       -7.1360     4.3830    -1.2570 H     1 <1>   0.0800 
 50 H       -7.4190     5.4480     0.1040 H     1 <1>   0.0800 
@<TRIPOS>BOND
  1   1   2  2   
  2   2   3  am  
  3   2   4  1   
  4   3   5  1   
  5   3   6  1   
  6   4   7  1   
  7   4  24  1   
  8   4  25  1   
  9   5   8  1   
 10   5  26  1   
 11   5  27  1   
 12   6   9  1   
 13   6  28  1   
 14   6  29  1   
 15   7  10  ar  
 16   7  11  ar  
 17   8  12  1   
 18   8  30  1   
 19   8  31  1   
 20   9  12  1   
 21   9  32  1   
 22   9  33  1   
 23  10  13  ar  
 24  10  14  1   
 25  11  15  ar  
 26  11  34  1   
 27  12  16  1   
 28  12  17  1   
 29  13  18  ar  
 30  13  35  1   
 31  14  36  1   
 32  14  37  1   
 33  14  38  1   
 34  15  18  ar  
 35  15  39  1   
 36  16  19  1   
 37  17  20  1   
 38  17  40  1   
 39  17  41  1   
 40  18  42  1   
 41  19  21  1   
 42  19  43  1   
 43  19  44  1   
 44  20  21  1   
 45  20  22  1   
 46  20  23  1   
 47  21  45  1   
 48  21  46  1   
 49  22  47  1   
 50  23  48  1   
 51  23  49  1   
 52  23  50  1   
@<TRIPOS>SUBSTRUCTURE
  1 ****   5 GROUP 4 **** **** 0

# MOE 2024.06 (io_trps.svl 2023.06)
