@<TRIPOS>MOLECULE
NONAME
45 48 1 0 0 
SMALL
USER_CHARGES


@<TRIPOS>ATOM
  1 O       -0.0170     0.9310    -0.2650 O.2   1 <1>  -0.5700 
  2 C       -0.0090     2.1110    -0.0190 C.2   1 <1>   0.5690 
  3 N       -1.1530     2.7550     0.3000 N.am  1 <1>  -0.7300 
  4 C        1.2990     2.9060    -0.1010 C.3   1 <1>   0.1810 
  5 C       -1.2160     4.2000     0.6290 C.3   1 <1>   0.3640 
  6 O        1.2350     4.1520     0.5600 O.3   1 <1>  -0.5600 
  7 C       -2.4110     4.8190    -0.0930 C.ar  1 <1>  -0.1440 
  8 C        0.0940     4.9330     0.2450 C.3   1 <1>   0.2610 
  9 C       -2.6890     4.5230    -1.4220 C.ar  1 <1>  -0.1500 
 10 C       -3.2350     5.7080     0.5830 C.ar  1 <1>  -0.1500 
 11 C        0.1780     6.3110     0.9140 C.2   1 <1>   0.5690 
 12 C       -3.7700     5.1040    -2.0610 C.ar  1 <1>  -0.1500 
 13 C       -4.3160     6.2900    -0.0540 C.ar  1 <1>  -0.1500 
 14 O       -0.3960     6.5250     1.9590 O.2   1 <1>  -0.5700 
 15 N        0.8970     7.2900     0.3130 N.am  1 <1>  -0.7300 
 16 C       -4.5850     5.9880    -1.3770 C.ar  1 <1>  -0.1500 
 17 C        1.1190     8.6410     0.8570 C.3   1 <1>   0.3210 
 18 C        2.3360     9.2550     0.1730 C.2   1 <1>   0.1080 
 19 N        2.7440     8.9260    -1.0220 N.2   1 <1>  -0.7070 
 20 C        3.1460    10.2300     0.7490 C.2   1 <1>  -0.1500 
 21 N        3.8300     9.6970    -1.2320 N.pl3 1 <1>   0.3000 
 22 C        4.0930    10.4920    -0.1760 C.2   1 <1>  -0.2370 
 23 C        5.2570    11.4600    -0.1330 C.3   1 <1>  -0.0150 
 24 C        5.1370    12.7480     0.6160 C.3   1 <1>  -0.2000 
 25 C        5.1670    12.7490    -0.8840 C.3   1 <1>  -0.2000 
 26 H       -2.0250     2.2270     0.3510 H     1 <1>   0.3700 
 27 H        1.5460     3.0820    -1.1320 H     1 <1>   0.0800 
 28 H        2.0900     2.3360     0.3520 H     1 <1>   0.0800 
 29 H       -1.3640     4.2840     1.6920 H     1 <1>   0.0800 
 30 H        0.1000     5.0900    -0.8180 H     1 <1>   0.0800 
 31 H       -2.0670     3.8360    -1.9710 H     1 <1>   0.1500 
 32 H       -3.0350     5.9600     1.6120 H     1 <1>   0.1500 
 33 H       -3.9780     4.8680    -3.0900 H     1 <1>   0.1500 
 34 H       -4.9470     6.9790     0.4800 H     1 <1>   0.1500 
 35 H        1.4770     7.1310    -0.5190 H     1 <1>   0.3700 
 36 H       -5.4260     6.4410    -1.8730 H     1 <1>   0.1500 
 37 H        0.2530     9.2480     0.6640 H     1 <1>   0.0800 
 38 H        1.2790     8.5830     1.9200 H     1 <1>   0.0800 
 39 H        3.0260    10.6660     1.7240 H     1 <1>   0.1500 
 40 H        4.3720     9.6670    -2.1040 H     1 <1>   0.2700 
 41 H        6.2120    10.9630    -0.1010 H     1 <1>   0.1000 
 42 H        4.2100    12.9810     1.1100 H     1 <1>   0.1000 
 43 H        5.9950    13.1120     1.1540 H     1 <1>   0.1000 
 44 H        6.0450    13.1210    -1.3830 H     1 <1>   0.1000 
 45 H        4.2590    12.9820    -1.4120 H     1 <1>   0.1000 
@<TRIPOS>BOND
  1   1   2  2   
  2   2   3  am  
  3   2   4  1   
  4   3   5  1   
  5   3  26  1   
  6   4   6  1   
  7   4  27  1   
  8   4  28  1   
  9   5   7  1   
 10   5   8  1   
 11   5  29  1   
 12   6   8  1   
 13   7   9  ar  
 14   7  10  ar  
 15   8  11  1   
 16   8  30  1   
 17   9  12  ar  
 18   9  31  1   
 19  10  13  ar  
 20  10  32  1   
 21  11  14  2   
 22  11  15  am  
 23  12  16  ar  
 24  12  33  1   
 25  13  16  ar  
 26  13  34  1   
 27  15  17  1   
 28  15  35  1   
 29  16  36  1   
 30  17  18  1   
 31  17  37  1   
 32  17  38  1   
 33  18  19  2   
 34  18  20  1   
 35  19  21  1   
 36  20  22  2   
 37  20  39  1   
 38  21  22  1   
 39  21  40  1   
 40  22  23  1   
 41  23  24  1   
 42  23  25  1   
 43  23  41  1   
 44  24  25  1   
 45  24  42  1   
 46  24  43  1   
 47  25  44  1   
 48  25  45  1   
@<TRIPOS>SUBSTRUCTURE
  1 ****  15 GROUP 4 **** **** 0

# MOE 2024.06 (io_trps.svl 2023.06)
