@<TRIPOS>MOLECULE
NONAME
47 49 1 0 0 
SMALL
USER_CHARGES


@<TRIPOS>ATOM
  1 CL       0.8180     0.6350    -1.3610 Cl    1 <1>  -0.1770 
  2 C        1.8650     1.3800    -0.1740 C.ar  1 <1>   0.1770 
  3 C        1.9330     2.7620    -0.0620 C.ar  1 <1>  -0.1440 
  4 C        2.6140     0.5420     0.6290 C.ar  1 <1>  -0.1500 
  5 C        2.8040     3.3230     0.8820 C.ar  1 <1>   0.0860 
  6 C        1.0620     3.6390    -0.9630 C.3   1 <1>  -0.0970 
  7 C        3.4590     1.0900     1.5750 C.ar  1 <1>  -0.1500 
  8 C        2.9790     4.7540     1.0430 C.2   1 <1>   0.5440 
  9 C        3.5460     2.4640     1.6940 C.ar  1 <1>  -0.1500 
 10 O        2.4600     5.3160     1.9880 O.2   1 <1>  -0.5700 
 11 N        3.7470     5.4870     0.1640 N.am  1 <1>  -0.6600 
 12 C        4.5470     4.8890    -0.9510 C.3   1 <1>   0.1400 
 13 C        3.9300     6.9530     0.3300 C.3   1 <1>   0.1400 
 14 C        6.0270     4.7250    -0.5770 C.3   1 <1>   0.1400 
 15 C        5.0280     7.2680     1.3560 C.3   1 <1>  -0.1600 
 16 N        6.6360     6.0090    -0.1010 N.am  1 <1>  -0.6600 
 17 C        6.2670     6.3620     1.3000 C.3   1 <1>   0.1400 
 18 C        7.4180     6.7650    -0.9410 C.2   1 <1>   0.5690 
 19 O        7.5800     6.4360    -2.0930 O.2   1 <1>  -0.5700 
 20 C        8.1090     8.0360    -0.4420 C.3   1 <1>  -0.0190 
 21 C        8.4100     9.1070    -1.5170 C.3   1 <1>  -0.0220 
 22 C        9.4500     7.7520     0.2660 C.3   1 <1>  -0.0220 
 23 C        9.7090     9.7020    -1.0310 C.2   1 <1>  -0.2880 
 24 C       10.2690     8.9730    -0.0740 C.2   1 <1>  -0.2880 
 25 H        2.5310    -0.5240     0.5140 H     1 <1>   0.1500 
 26 H        0.0590     3.2520    -1.0030 H     1 <1>   0.0800 
 27 H        1.4650     3.6540    -1.9600 H     1 <1>   0.0800 
 28 H        0.9980     4.6500    -0.6040 H     1 <1>   0.0800 
 29 H        4.0430     0.4500     2.2150 H     1 <1>   0.1500 
 30 H        4.1990     2.8930     2.4350 H     1 <1>   0.1500 
 31 H        4.4760     5.5190    -1.8210 H     1 <1>   0.0800 
 32 H        4.1500     3.9280    -1.2250 H     1 <1>   0.0800 
 33 H        3.0020     7.4000     0.6460 H     1 <1>   0.0800 
 34 H        4.1930     7.3880    -0.6190 H     1 <1>   0.0800 
 35 H        6.5620     4.3610    -1.4370 H     1 <1>   0.0800 
 36 H        6.1190     3.9760     0.1900 H     1 <1>   0.0800 
 37 H        4.6010     7.1910     2.3400 H     1 <1>   0.0800 
 38 H        5.3240     8.2920     1.2310 H     1 <1>   0.0800 
 39 H        6.0530     5.4570     1.8420 H     1 <1>   0.0800 
 40 H        7.0930     6.8370     1.7990 H     1 <1>   0.0800 
 41 H        7.4720     8.5210     0.2710 H     1 <1>   0.0800 
 42 H        7.6270     9.8420    -1.5610 H     1 <1>   0.0800 
 43 H        8.5620     8.6810    -2.4940 H     1 <1>   0.0800 
 44 H        9.9260     6.8730    -0.1350 H     1 <1>   0.0800 
 45 H        9.3170     7.6470     1.3280 H     1 <1>   0.0800 
 46 H       10.0670    10.6100    -1.4860 H     1 <1>   0.1500 
 47 H       11.1980     9.1380     0.4450 H     1 <1>   0.1500 
@<TRIPOS>BOND
  1   1   2  1   
  2   2   3  ar  
  3   2   4  ar  
  4   3   5  ar  
  5   3   6  1   
  6   4   7  ar  
  7   4  25  1   
  8   5   8  1   
  9   5   9  ar  
 10   6  26  1   
 11   6  27  1   
 12   6  28  1   
 13   7   9  ar  
 14   7  29  1   
 15   8  10  2   
 16   8  11  am  
 17   9  30  1   
 18  11  12  1   
 19  11  13  1   
 20  12  14  1   
 21  12  31  1   
 22  12  32  1   
 23  13  15  1   
 24  13  33  1   
 25  13  34  1   
 26  14  16  1   
 27  14  35  1   
 28  14  36  1   
 29  15  17  1   
 30  15  37  1   
 31  15  38  1   
 32  16  17  1   
 33  16  18  am  
 34  17  39  1   
 35  17  40  1   
 36  18  19  2   
 37  18  20  1   
 38  20  21  1   
 39  20  22  1   
 40  20  41  1   
 41  21  23  1   
 42  21  42  1   
 43  21  43  1   
 44  22  24  1   
 45  22  44  1   
 46  22  45  1   
 47  23  24  2   
 48  23  46  1   
 49  24  47  1   
@<TRIPOS>SUBSTRUCTURE
  1 ****  12 GROUP 4 **** **** 0

# MOE 2024.06 (io_trps.svl 2023.06)
