@<TRIPOS>MOLECULE
NONAME
47 49 1 0 0 
SMALL
USER_CHARGES


@<TRIPOS>ATOM
  1 O        3.2390     0.0310    -2.3810 O.co2 1 <1>  -0.9000 
  2 C        2.5270     0.0800    -1.3620 C.2   1 <1>   0.9790 
  3 O        1.3590    -0.3400    -1.4270 O.co2 1 <1>  -0.9000 
  4 C        3.0470     0.6720    -0.1490 C.ar  1 <1>  -0.1790 
  5 C        3.4590    -0.0150     1.0080 C.ar  1 <1>   0.0830 
  6 C        3.1590     2.0610    -0.1460 C.ar  1 <1>  -0.1500 
  7 O        3.4660    -1.3620     1.1960 O.3   1 <1>  -0.3630 
  8 C        3.9320     0.7040     2.0970 C.ar  1 <1>  -0.1500 
  9 C        3.6640     2.7730     0.9280 C.ar  1 <1>  -0.1430 
 10 C        3.1530    -2.2970     0.1870 C.3   1 <1>   0.0400 
 11 C        4.0370     2.0810     2.0670 C.ar  1 <1>  -0.1500 
 12 C        3.7920     4.2890     0.8380 C.3   1 <1>   0.2540 
 13 N        5.0820     4.7330     0.2490 N.3   1 <1>  -0.8100 
 14 C        6.2310     4.3320     1.0960 C.3   1 <1>   0.1100 
 15 C        5.2410     4.2150    -1.1280 C.3   1 <1>   0.1100 
 16 C        7.6000     4.9780     0.7260 C.3   1 <1>   0.4230 
 17 C        6.3730     4.9260    -1.8940 C.3   1 <1>  -0.0800 
 18 N        7.5190     6.2980    -0.0190 N.4   1 <1>  -0.9590 
 19 C        8.5530     3.9870     0.0230 C.3   1 <1>   0.1200 
 20 C        7.6020     4.0410    -2.1600 C.3   1 <1>   0.1200 
 21 C        6.7060     6.2940    -1.2880 C.3   1 <1>   0.3430 
 22 C        6.9630     7.3480     0.8850 C.3   1 <1>   0.2630 
 23 O        7.9650     3.3090    -1.0380 O.3   1 <1>  -0.5600 
 24 H        2.8410     2.5790    -1.0340 H     1 <1>   0.1500 
 25 H        4.2250     0.1610     2.9760 H     1 <1>   0.1500 
 26 H        3.3660    -3.2790     0.5620 H     1 <1>   0.0800 
 27 H        3.7580    -2.0990    -0.6810 H     1 <1>   0.0800 
 28 H        2.1060    -2.2190    -0.0480 H     1 <1>   0.0800 
 29 H        4.4090     2.6030     2.9290 H     1 <1>   0.1500 
 30 H        3.6820     4.7140     1.8200 H     1 <1>   0.0800 
 31 H        2.9830     4.6710     0.2380 H     1 <1>   0.0800 
 32 H        6.0130     4.6050     2.1130 H     1 <1>   0.0800 
 33 H        6.3330     3.2590     1.0800 H     1 <1>   0.0800 
 34 H        5.4100     3.1490    -1.1160 H     1 <1>   0.0800 
 35 H        4.3200     4.3810    -1.6630 H     1 <1>   0.0800 
 36 H        8.0820     5.1850     1.6660 H     1 <1>   0.0800 
 37 H        5.9700     5.1360    -2.8680 H     1 <1>   0.0800 
 38 H        8.4780     6.5550    -0.2750 H     1 <1>   0.4500 
 39 H        8.8440     3.2310     0.7320 H     1 <1>   0.0800 
 40 H        9.4460     4.4750    -0.3250 H     1 <1>   0.0800 
 41 H        8.4480     4.6110    -2.5030 H     1 <1>   0.0800 
 42 H        7.3540     3.3190    -2.9200 H     1 <1>   0.0800 
 43 H        5.7630     6.7810    -1.0960 H     1 <1>   0.0800 
 44 H        7.2200     6.8820    -2.0300 H     1 <1>   0.0800 
 45 H        5.9490     7.0980     1.1540 H     1 <1>   0.0800 
 46 H        6.9610     8.3060     0.3920 H     1 <1>   0.0800 
 47 H        7.5520     7.4230     1.7840 H     1 <1>   0.0800 
@<TRIPOS>BOND
  1   1   2  ar  
  2   2   3  ar  
  3   2   4  1   
  4   4   5  ar  
  5   4   6  ar  
  6   5   7  1   
  7   5   8  ar  
  8   6   9  ar  
  9   6  24  1   
 10   7  10  1   
 11   8  11  ar  
 12   8  25  1   
 13   9  11  ar  
 14   9  12  1   
 15  10  26  1   
 16  10  27  1   
 17  10  28  1   
 18  11  29  1   
 19  12  13  1   
 20  12  30  1   
 21  12  31  1   
 22  13  14  1   
 23  13  15  1   
 24  14  16  1   
 25  14  32  1   
 26  14  33  1   
 27  15  17  1   
 28  15  34  1   
 29  15  35  1   
 30  16  18  1   
 31  16  19  1   
 32  16  36  1   
 33  17  20  1   
 34  17  21  1   
 35  17  37  1   
 36  18  21  1   
 37  18  22  1   
 38  18  38  1   
 39  19  23  1   
 40  19  39  1   
 41  19  40  1   
 42  20  23  1   
 43  20  41  1   
 44  20  42  1   
 45  21  43  1   
 46  21  44  1   
 47  22  45  1   
 48  22  46  1   
 49  22  47  1   
@<TRIPOS>SUBSTRUCTURE
  1 ****   9 GROUP 4 **** **** 0

# MOE 2024.06 (io_trps.svl 2023.06)
