@<TRIPOS>MOLECULE
NONAME
49 52 1 0 0 
SMALL
USER_CHARGES


@<TRIPOS>ATOM
  1 F       -1.4150     0.2090    -0.8670 F     1 <1>  -0.1900 
  2 C       -1.0340     1.3830    -0.4290 C.ar  1 <1>   0.1900 
  3 C       -2.0030     2.2600     0.0680 C.ar  1 <1>   0.1000 
  4 C        0.3040     1.6970    -0.4800 C.ar  1 <1>  -0.1500 
  5 N       -3.3570     1.9370     0.1150 N.pl3 1 <1>  -0.6000 
  6 C       -1.5840     3.5130     0.5370 C.ar  1 <1>   0.0860 
  7 C        0.7140     2.9410    -0.0170 C.ar  1 <1>  -0.1500 
  8 C       -4.3410     2.7850     0.6000 C.2   1 <1>   0.1140 
  9 C       -2.5810     4.4140     1.0550 C.2   1 <1>   0.4690 
 10 C       -0.2180     3.8290     0.4820 C.ar  1 <1>  -0.1500 
 11 C       -5.7250     2.3240     0.5940 C.2   1 <1>   0.6160 
 12 C       -3.9330     3.9960     1.0760 C.2   1 <1>  -0.1360 
 13 O       -2.2850     5.5280     1.4670 O.2   1 <1>  -0.5700 
 14 O       -5.9440     1.1400     0.7810 O.2   1 <1>  -0.5700 
 15 N       -6.7900     3.1720     0.3680 N.am  1 <1>  -0.6600 
 16 C       -8.1820     2.8030     0.7780 C.3   1 <1>   0.1400 
 17 C       -6.7080     4.4210    -0.4400 C.3   1 <1>   0.1400 
 18 C       -9.1160     2.6550    -0.4490 C.3   1 <1>   0.0000 
 19 C       -7.6150     4.3140    -1.6710 C.3   1 <1>  -0.1600 
 20 C      -10.5560     2.3260    -0.0160 C.3   1 <1>   0.2000 
 21 C       -9.0600     3.9460    -1.2930 C.3   1 <1>  -0.1600 
 22 C       -8.7460     1.4050    -1.2650 C.3   1 <1>  -0.1600 
 23 O      -10.9300     3.0580     1.1140 O.3   1 <1>  -0.5600 
 24 C      -10.5720     0.8190     0.2620 C.3   1 <1>  -0.1600 
 25 C       -9.3960     0.2290    -0.5290 C.3   1 <1>  -0.1600 
 26 C      -12.2950     3.0520     1.3910 C.3   1 <1>   0.0400 
 27 H        1.0160     0.9910    -0.8710 H     1 <1>   0.1500 
 28 H       -3.6530     0.9860    -0.1560 H     1 <1>   0.4000 
 29 H        1.7580     3.2070    -0.0480 H     1 <1>   0.1500 
 30 H        0.1020     4.7930     0.8420 H     1 <1>   0.1500 
 31 H       -4.6330     4.6910     1.4980 H     1 <1>   0.1500 
 32 H       -8.1750     1.8930     1.3520 H     1 <1>   0.0800 
 33 H       -8.5560     3.5800     1.4210 H     1 <1>   0.0800 
 34 H       -7.0200     5.2520     0.1700 H     1 <1>   0.0800 
 35 H       -5.7010     4.5990    -0.7700 H     1 <1>   0.0800 
 36 H       -7.6110     5.2540    -2.1930 H     1 <1>   0.0800 
 37 H       -7.2110     3.5730    -2.3370 H     1 <1>   0.0800 
 38 H      -11.2290     2.5570    -0.8240 H     1 <1>   0.0800 
 39 H       -9.6490     3.8330    -2.1870 H     1 <1>   0.0800 
 40 H       -9.4870     4.7520    -0.7210 H     1 <1>   0.0800 
 41 H       -9.1730     1.4750    -2.2500 H     1 <1>   0.0800 
 42 H       -7.6840     1.2680    -1.3640 H     1 <1>   0.0800 
 43 H      -10.4260     0.6310     1.3120 H     1 <1>   0.0800 
 44 H      -11.5020     0.3870    -0.0580 H     1 <1>   0.0800 
 45 H       -8.6830    -0.2050     0.1520 H     1 <1>   0.0800 
 46 H       -9.7200    -0.5290    -1.2210 H     1 <1>   0.0800 
 47 H      -12.4610     3.6610     2.2630 H     1 <1>   0.0800 
 48 H      -12.6180     2.0450     1.5880 H     1 <1>   0.0800 
 49 H      -12.8300     3.4670     0.5540 H     1 <1>   0.0800 
@<TRIPOS>BOND
  1   1   2  1   
  2   2   3  ar  
  3   2   4  ar  
  4   3   5  1   
  5   3   6  ar  
  6   4   7  ar  
  7   4  27  1   
  8   5   8  1   
  9   5  28  1   
 10   6   9  1   
 11   6  10  ar  
 12   7  10  ar  
 13   7  29  1   
 14   8  11  1   
 15   8  12  2   
 16   9  12  1   
 17   9  13  2   
 18  10  30  1   
 19  11  14  2   
 20  11  15  am  
 21  12  31  1   
 22  15  16  1   
 23  15  17  1   
 24  16  18  1   
 25  16  32  1   
 26  16  33  1   
 27  17  19  1   
 28  17  34  1   
 29  17  35  1   
 30  18  20  1   
 31  18  21  1   
 32  18  22  1   
 33  19  21  1   
 34  19  36  1   
 35  19  37  1   
 36  20  23  1   
 37  20  24  1   
 38  20  38  1   
 39  21  39  1   
 40  21  40  1   
 41  22  25  1   
 42  22  41  1   
 43  22  42  1   
 44  23  26  1   
 45  24  25  1   
 46  24  43  1   
 47  24  44  1   
 48  25  45  1   
 49  25  46  1   
 50  26  47  1   
 51  26  48  1   
 52  26  49  1   
@<TRIPOS>SUBSTRUCTURE
  1 ****  11 GROUP 4 **** **** 0

# MOE 2024.06 (io_trps.svl 2023.06)
