@<TRIPOS>MOLECULE
NONAME
46 48 1 0 0 
SMALL
USER_CHARGES


@<TRIPOS>ATOM
  1 CL       0.1090    -0.2840    -1.7280 Cl    1 <1>  -0.1770 
  2 C       -0.0070    -1.9710    -1.2910 C.ar  1 <1>   0.1770 
  3 C        0.6210    -2.4460    -0.1490 C.ar  1 <1>  -0.1440 
  4 C       -0.7350    -2.8130    -2.1100 C.ar  1 <1>  -0.1500 
  5 C        0.5000    -3.7920     0.1600 C.ar  1 <1>  -0.1500 
  6 C        1.4300    -1.5210     0.7480 C.3   1 <1>  -0.0960 
  7 C       -0.8430    -4.1530    -1.7840 C.ar  1 <1>  -0.1500 
  8 C       -0.2370    -4.6700    -0.6370 C.ar  1 <1>   0.0860 
  9 C       -0.3540    -6.0720    -0.2780 C.2   1 <1>   0.5440 
 10 O        0.6420    -6.6980     0.0360 O.2   1 <1>  -0.5700 
 11 N       -1.5680    -6.7170    -0.2650 N.am  1 <1>  -0.6600 
 12 C       -2.8890    -6.0490    -0.2420 C.3   1 <1>   0.1400 
 13 C       -1.7030    -8.1520     0.0680 C.3   1 <1>   0.1400 
 14 C       -3.8100    -7.0090     0.5240 C.3   1 <1>  -0.0800 
 15 C       -3.2010    -8.4010     0.2690 C.3   1 <1>  -0.0800 
 16 C       -5.3350    -6.8890     0.2200 C.3   1 <1>   0.2800 
 17 C       -3.8550    -9.0720    -0.9480 C.3   1 <1>  -0.1600 
 18 O       -5.5350    -6.3930    -1.0560 O.3   1 <1>  -0.6800 
 19 C       -5.9940    -8.2810     0.2540 C.3   1 <1>  -0.1600 
 20 C       -6.0650    -5.9360     1.1920 C.3   1 <1>  -0.1600 
 21 C       -5.3650    -9.2870    -0.7350 C.3   1 <1>  -0.1600 
 22 C       -5.5660    -4.4810     1.2000 C.3   1 <1>  -0.2400 
 23 H       -1.2070    -2.4200    -2.9920 H     1 <1>   0.1500 
 24 H        0.9820    -4.1920     1.0360 H     1 <1>   0.1500 
 25 H        1.8510    -2.0590     1.5790 H     1 <1>   0.0800 
 26 H        0.8010    -0.7380     1.1310 H     1 <1>   0.0800 
 27 H        2.2340    -1.0770     0.1880 H     1 <1>   0.0800 
 28 H       -1.4000    -4.8150    -2.4240 H     1 <1>   0.1500 
 29 H       -2.8330    -5.0890     0.2370 H     1 <1>   0.0800 
 30 H       -3.2130    -5.9230    -1.2600 H     1 <1>   0.0800 
 31 H       -1.2950    -8.7570    -0.7230 H     1 <1>   0.0800 
 32 H       -1.1640    -8.3510     0.9780 H     1 <1>   0.0800 
 33 H       -3.6650    -6.8110     1.5710 H     1 <1>   0.0800 
 34 H       -3.3400    -9.0380     1.1260 H     1 <1>   0.0800 
 35 H       -3.7100    -8.4410    -1.8090 H     1 <1>   0.0800 
 36 H       -3.3820   -10.0170    -1.1550 H     1 <1>   0.0800 
 37 H       -6.4870    -6.4020    -1.2570 H     1 <1>   0.4000 
 38 H       -5.8810    -8.6740     1.2490 H     1 <1>   0.0800 
 39 H       -7.0510    -8.2050     0.0690 H     1 <1>   0.0800 
 40 H       -7.1150    -5.9350     0.9560 H     1 <1>   0.0800 
 41 H       -5.9740    -6.3280     2.1900 H     1 <1>   0.0800 
 42 H       -5.5390   -10.2840    -0.3680 H     1 <1>   0.0800 
 43 H       -5.8560    -9.2050    -1.6900 H     1 <1>   0.0800 
 44 H       -5.5880    -4.0630     0.2080 H     1 <1>   0.0800 
 45 H       -4.5620    -4.4210     1.5800 H     1 <1>   0.0800 
 46 H       -6.1970    -3.8820     1.8330 H     1 <1>   0.0800 
@<TRIPOS>BOND
  1   1   2  1   
  2   2   3  ar  
  3   2   4  ar  
  4   3   5  ar  
  5   3   6  1   
  6   4   7  ar  
  7   4  23  1   
  8   5   8  ar  
  9   5  24  1   
 10   6  25  1   
 11   6  26  1   
 12   6  27  1   
 13   7   8  ar  
 14   7  28  1   
 15   8   9  1   
 16   9  10  2   
 17   9  11  am  
 18  11  12  1   
 19  11  13  1   
 20  12  14  1   
 21  12  29  1   
 22  12  30  1   
 23  13  15  1   
 24  13  31  1   
 25  13  32  1   
 26  14  15  1   
 27  14  16  1   
 28  14  33  1   
 29  15  17  1   
 30  15  34  1   
 31  16  18  1   
 32  16  19  1   
 33  16  20  1   
 34  17  21  1   
 35  17  35  1   
 36  17  36  1   
 37  18  37  1   
 38  19  21  1   
 39  19  38  1   
 40  19  39  1   
 41  20  22  1   
 42  20  40  1   
 43  20  41  1   
 44  21  42  1   
 45  21  43  1   
 46  22  44  1   
 47  22  45  1   
 48  22  46  1   
@<TRIPOS>SUBSTRUCTURE
  1 ****  12 GROUP 4 **** **** 0

# MOE 2024.06 (io_trps.svl 2023.06)
