@<TRIPOS>MOLECULE
NONAME
53 56 1 0 0 
SMALL
USER_CHARGES


@<TRIPOS>ATOM
  1 F        1.6760     3.6120    -3.1160 F     1 <1>  -0.1900 
  2 C        2.0680     3.2530    -1.9240 C.ar  1 <1>   0.1900 
  3 C        1.8520     1.9520    -1.5170 C.ar  1 <1>  -0.1500 
  4 C        2.6880     4.1930    -1.1180 C.ar  1 <1>  -0.1500 
  5 C        2.2890     1.6180    -0.2510 C.ar  1 <1>   0.1900 
  6 C        3.1210     3.8290     0.1520 C.ar  1 <1>  -0.1440 
  7 F        2.1070     0.3970     0.1740 F     1 <1>  -0.1900 
  8 C        2.9150     2.5250     0.5880 C.ar  1 <1>  -0.1500 
  9 C        3.8120     4.8500     1.0440 C.3   1 <1>   0.2540 
 10 N        5.0340     5.3580     0.3920 N.3   1 <1>  -0.8100 
 11 C        5.6140     6.5000     1.1400 C.3   1 <1>   0.1100 
 12 C        6.0530     4.2980     0.1840 C.3   1 <1>   0.1100 
 13 C        6.9220     7.0290     0.5000 C.3   1 <1>   0.3430 
 14 C        7.2990     4.8230    -0.5710 C.3   1 <1>   0.3430 
 15 N        7.2260     6.3050    -0.7810 N.4   1 <1>  -0.9590 
 16 C        8.3580     6.8730    -1.5600 C.3   1 <1>   0.4860 
 17 C        8.0980     8.3500    -1.7680 C.ar  1 <1>  -0.1430 
 18 C        8.7240     9.3060    -0.9550 C.ar  1 <1>  -0.1520 
 19 C        7.2110     8.7780    -2.7340 C.ar  1 <1>  -0.1500 
 20 N        9.6620     9.1920     0.0450 N.pl3 1 <1>   0.0330 
 21 C        8.4140    10.6560    -1.0870 C.ar  1 <1>   0.0000 
 22 C        6.9190    10.1370    -2.8850 C.ar  1 <1>  -0.1500 
 23 C        9.9140    10.4320     0.5540 C.2   1 <1>  -0.3320 
 24 C        9.1680    11.3460    -0.1130 C.2   1 <1>  -0.1810 
 25 C        7.5070    11.0710    -2.0670 C.ar  1 <1>  -0.1500 
 26 C       10.9120    10.6250     1.6850 C.3   1 <1>  -0.0600 
 27 C        9.0940    12.8510     0.0680 C.3   1 <1>  -0.0590 
 28 H        1.3680     1.2350    -2.1530 H     1 <1>   0.1500 
 29 H        2.8320     5.1940    -1.4830 H     1 <1>   0.1500 
 30 H        3.2300     2.2030     1.5650 H     1 <1>   0.1500 
 31 H        4.0560     4.4110     1.9980 H     1 <1>   0.0800 
 32 H        3.1310     5.6670     1.2170 H     1 <1>   0.0800 
 33 H        5.8150     6.2120     2.1580 H     1 <1>   0.0800 
 34 H        4.8980     7.3050     1.1680 H     1 <1>   0.0800 
 35 H        5.6300     3.4890    -0.3870 H     1 <1>   0.0800 
 36 H        6.3570     3.8940     1.1350 H     1 <1>   0.0800 
 37 H        7.7340     6.9070     1.1960 H     1 <1>   0.0800 
 38 H        6.8080     8.0860     0.3130 H     1 <1>   0.0800 
 39 H        7.3590     4.3230    -1.5230 H     1 <1>   0.0800 
 40 H        8.1830     4.5690    -0.0100 H     1 <1>   0.0800 
 41 H        6.3630     6.4460    -1.3270 H     1 <1>   0.4500 
 42 H        8.4310     6.3850    -2.5180 H     1 <1>   0.0800 
 43 H        9.2860     6.7340    -1.0320 H     1 <1>   0.0800 
 44 H        6.7190     8.0820    -3.3910 H     1 <1>   0.1500 
 45 H       10.1610     8.3450     0.3300 H     1 <1>   0.2700 
 46 H        6.2250    10.4480    -3.6470 H     1 <1>   0.1500 
 47 H        7.2880    12.1180    -2.1680 H     1 <1>   0.1500 
 48 H       10.5990    10.0760     2.5550 H     1 <1>   0.0800 
 49 H       10.9950    11.6610     1.9540 H     1 <1>   0.0800 
 50 H       11.8840    10.2780     1.3830 H     1 <1>   0.0800 
 51 H        9.3990    13.3410    -0.8380 H     1 <1>   0.0800 
 52 H        9.7320    13.1800     0.8660 H     1 <1>   0.0800 
 53 H        8.0840    13.1400     0.2970 H     1 <1>   0.0800 
@<TRIPOS>BOND
  1   1   2  1   
  2   2   3  ar  
  3   2   4  ar  
  4   3   5  ar  
  5   3  28  1   
  6   4   6  ar  
  7   4  29  1   
  8   5   7  1   
  9   5   8  ar  
 10   6   8  ar  
 11   6   9  1   
 12   8  30  1   
 13   9  10  1   
 14   9  31  1   
 15   9  32  1   
 16  10  11  1   
 17  10  12  1   
 18  11  13  1   
 19  11  33  1   
 20  11  34  1   
 21  12  14  1   
 22  12  35  1   
 23  12  36  1   
 24  13  15  1   
 25  13  37  1   
 26  13  38  1   
 27  14  15  1   
 28  14  39  1   
 29  14  40  1   
 30  15  16  1   
 31  15  41  1   
 32  16  17  1   
 33  16  42  1   
 34  16  43  1   
 35  17  18  ar  
 36  17  19  ar  
 37  18  20  1   
 38  18  21  ar  
 39  19  22  ar  
 40  19  44  1   
 41  20  23  1   
 42  20  45  1   
 43  21  24  1   
 44  21  25  ar  
 45  22  25  ar  
 46  22  46  1   
 47  23  24  2   
 48  23  26  1   
 49  24  27  1   
 50  25  47  1   
 51  26  48  1   
 52  26  49  1   
 53  26  50  1   
 54  27  51  1   
 55  27  52  1   
 56  27  53  1   
@<TRIPOS>SUBSTRUCTURE
  1 ****  15 GROUP 4 **** **** 0

# MOE 2024.06 (io_trps.svl 2023.06)
