@<TRIPOS>MOLECULE
NONAME
52 54 1 0 0 
SMALL
USER_CHARGES


@<TRIPOS>ATOM
  1 O       -0.0650     1.3980    -0.4470 O.2   1 <1>  -0.5700 
  2 C        1.0570     1.1480    -0.0440 C.2   1 <1>   0.5440 
  3 N        1.5630     1.8680     1.0050 N.am  1 <1>  -0.7300 
  4 C        1.8590     0.1370    -0.6810 C.ar  1 <1>   0.0860 
  5 C        0.8510     2.9500     1.7330 C.3   1 <1>   0.0600 
  6 C        1.4960    -1.2230    -0.6500 C.ar  1 <1>   0.4100 
  7 C        3.0230     0.4770    -1.3530 C.ar  1 <1>  -0.1500 
  8 N        2.1740    -2.2010    -1.2570 N.ar  1 <1>  -0.6200 
  9 N        0.3680    -1.6630     0.0130 N.pl3 1 <1>  -0.8380 
 10 C        3.7390    -0.5280    -1.9620 C.ar  1 <1>  -0.1500 
 11 C        3.2760    -1.8290    -1.8870 C.ar  1 <1>   0.1600 
 12 C        0.4430    -2.8520     0.9220 C.3   1 <1>   0.2090 
 13 C       -0.9460    -1.5100    -0.6850 C.3   1 <1>   0.2090 
 14 C        0.0650    -4.2050     0.2070 C.3   1 <1>   0.5030 
 15 C       -1.3420    -2.8260    -1.3930 C.3   1 <1>   0.3430 
 16 N       -0.2700    -3.8870    -1.2420 N.4   1 <1>  -0.9590 
 17 C       -1.1280    -4.8500     0.9450 C.3   1 <1>  -0.1600 
 18 C        1.2880    -5.1470     0.2930 C.3   1 <1>  -0.1600 
 19 C       -0.3890    -4.9290    -2.3030 C.3   1 <1>   0.2630 
 20 C       -1.3780    -6.3100     0.5810 C.3   1 <1>   0.3430 
 21 C        1.0120    -6.6230     0.0060 C.3   1 <1>   0.3430 
 22 N       -0.1400    -7.1040     0.8160 N.4   1 <1>  -0.9590 
 23 C       -0.3900    -8.5630     0.5660 C.3   1 <1>   0.2630 
 24 H        2.5010     1.6510     1.3470 H     1 <1>   0.3700 
 25 H       -0.1240     3.1160     1.3060 H     1 <1>   0.0800 
 26 H        1.4160     3.8640     1.6690 H     1 <1>   0.0800 
 27 H        0.7340     2.6770     2.7670 H     1 <1>   0.0800 
 28 H        3.3470     1.5030    -1.4020 H     1 <1>   0.1500 
 29 H        4.6470    -0.3070    -2.4950 H     1 <1>   0.1500 
 30 H        3.8520    -2.5970    -2.3770 H     1 <1>   0.1500 
 31 H       -0.2090    -2.6730     1.7600 H     1 <1>   0.0800 
 32 H        1.4390    -2.9030     1.3280 H     1 <1>   0.0800 
 33 H       -0.8850    -0.7260    -1.4220 H     1 <1>   0.0800 
 34 H       -1.7030    -1.2200     0.0240 H     1 <1>   0.0800 
 35 H       -1.4910    -2.6050    -2.4380 H     1 <1>   0.0800 
 36 H       -2.2820    -3.1750    -1.0030 H     1 <1>   0.0800 
 37 H        0.5760    -3.3090    -1.4750 H     1 <1>   0.4500 
 38 H       -2.0260    -4.2830     0.7860 H     1 <1>   0.0800 
 39 H       -0.9410    -4.8200     2.0050 H     1 <1>   0.0800 
 40 H        1.6920    -5.1040     1.2900 H     1 <1>   0.0800 
 41 H        2.0660    -4.7950    -0.3600 H     1 <1>   0.0800 
 42 H       -1.2260    -5.5780    -2.1110 H     1 <1>   0.0800 
 43 H        0.5140    -5.5120    -2.3630 H     1 <1>   0.0800 
 44 H       -0.5380    -4.4590    -3.2630 H     1 <1>   0.0800 
 45 H       -1.6760    -6.3900    -0.4510 H     1 <1>   0.0800 
 46 H       -2.1810    -6.6970     1.1900 H     1 <1>   0.0800 
 47 H        1.8930    -7.2010     0.2450 H     1 <1>   0.0800 
 48 H        0.8040    -6.7670    -1.0410 H     1 <1>   0.0800 
 49 H        0.1130    -7.0210     1.8150 H     1 <1>   0.4500 
 50 H       -0.6600    -8.7310    -0.4640 H     1 <1>   0.0800 
 51 H       -1.1900    -8.9210     1.1940 H     1 <1>   0.0800 
 52 H        0.4950    -9.1390     0.7860 H     1 <1>   0.0800 
@<TRIPOS>BOND
  1   1   2  2   
  2   2   3  am  
  3   2   4  1   
  4   3   5  1   
  5   3  24  1   
  6   4   6  ar  
  7   4   7  ar  
  8   5  25  1   
  9   5  26  1   
 10   5  27  1   
 11   6   8  ar  
 12   6   9  1   
 13   7  10  ar  
 14   7  28  1   
 15   8  11  ar  
 16   9  12  1   
 17   9  13  1   
 18  10  11  ar  
 19  10  29  1   
 20  11  30  1   
 21  12  14  1   
 22  12  31  1   
 23  12  32  1   
 24  13  15  1   
 25  13  33  1   
 26  13  34  1   
 27  14  16  1   
 28  14  17  1   
 29  14  18  1   
 30  15  16  1   
 31  15  35  1   
 32  15  36  1   
 33  16  19  1   
 34  16  37  1   
 35  17  20  1   
 36  17  38  1   
 37  17  39  1   
 38  18  21  1   
 39  18  40  1   
 40  18  41  1   
 41  19  42  1   
 42  19  43  1   
 43  19  44  1   
 44  20  22  1   
 45  20  45  1   
 46  20  46  1   
 47  21  22  1   
 48  21  47  1   
 49  21  48  1   
 50  22  23  1   
 51  22  49  1   
 52  23  50  1   
 53  23  51  1   
 54  23  52  1   
@<TRIPOS>SUBSTRUCTURE
  1 ****   9 GROUP 4 **** **** 0

# MOE 2024.06 (io_trps.svl 2023.06)
