@<TRIPOS>MOLECULE
NONAME
44 46 1 0 0 
SMALL
USER_CHARGES


@<TRIPOS>ATOM
  1 S        2.2930    -1.4970    -0.4820 S.3   1 <1>  -0.0800 
  2 C        2.1940     0.2000    -0.9210 C.2   1 <1>  -0.1400 
  3 C        2.0870    -1.1160     1.2190 C.2   1 <1>  -0.1100 
  4 C        2.0120     0.9600     0.1770 C.2   1 <1>  -0.1500 
  5 C        2.3240     0.5400    -2.3990 C.3   1 <1>   0.0810 
  6 C        1.9530     0.2110     1.3950 C.2   1 <1>  -0.1500 
  7 C        2.6690     2.0050    -2.6370 C.2   1 <1>   0.5690 
  8 O        1.8020     2.7000    -3.1160 O.2   1 <1>  -0.5700 
  9 N        3.9090     2.5160    -2.3210 N.am  1 <1>  -0.6600 
 10 C        5.0120     1.7390    -1.6660 C.3   1 <1>   0.1400 
 11 C        4.2110     3.9560    -2.5590 C.3   1 <1>   0.1400 
 12 C        5.3560     2.2820    -0.2720 C.3   1 <1>   0.1400 
 13 C        4.0320     4.7440    -1.2570 C.3   1 <1>  -0.1600 
 14 N        6.1030     3.5720    -0.3680 N.am  1 <1>  -0.6600 
 15 C        5.2960     4.8270    -0.3880 C.3   1 <1>   0.1400 
 16 C        7.4890     3.5680    -0.4470 C.2   1 <1>   0.5440 
 17 O        8.0280     2.5100    -0.7380 O.2   1 <1>  -0.5700 
 18 C        8.3270     4.7560    -0.2350 C.ar  1 <1>   0.3960 
 19 N        8.0010     5.6540     0.7110 N.ar  1 <1>  -0.6200 
 20 C        9.4610     4.9180    -1.0330 C.ar  1 <1>  -0.1500 
 21 C        8.7910     6.6970     0.8380 C.ar  1 <1>   0.4100 
 22 C       10.2840     6.0150    -0.8900 C.ar  1 <1>  -0.1500 
 23 N        8.4130     7.5640     1.8080 N.pl3 1 <1>  -0.9000 
 24 C        9.9280     6.9240     0.0740 C.ar  1 <1>  -0.1500 
 25 H        2.0870    -1.9370     1.9130 H     1 <1>   0.1500 
 26 H        1.9130     2.0320     0.1840 H     1 <1>   0.1500 
 27 H        1.3950     0.3150    -2.8880 H     1 <1>   0.0800 
 28 H        3.0820    -0.0690    -2.8520 H     1 <1>   0.0800 
 29 H        1.8110     0.7050     2.3400 H     1 <1>   0.1500 
 30 H        5.8910     1.7710    -2.2850 H     1 <1>   0.0800 
 31 H        4.7380     0.7070    -1.5590 H     1 <1>   0.0800 
 32 H        3.5370     4.3470    -3.3030 H     1 <1>   0.0800 
 33 H        5.2120     4.0660    -2.9400 H     1 <1>   0.0800 
 34 H        5.9720     1.5590     0.2340 H     1 <1>   0.0800 
 35 H        4.4630     2.4070     0.3120 H     1 <1>   0.0800 
 36 H        3.2170     4.3310    -0.6900 H     1 <1>   0.0800 
 37 H        3.7500     5.7500    -1.5080 H     1 <1>   0.0800 
 38 H        5.0270     5.0890     0.6210 H     1 <1>   0.0800 
 39 H        5.9020     5.6260    -0.7790 H     1 <1>   0.0800 
 40 H        9.6930     4.1690    -1.7700 H     1 <1>   0.1500 
 41 H       11.1590     6.1480    -1.5030 H     1 <1>   0.1500 
 42 H        9.1540     8.0190     2.3390 H     1 <1>   0.4000 
 43 H        7.6730     7.1870     2.4030 H     1 <1>   0.4000 
 44 H       10.5120     7.8080     0.2440 H     1 <1>   0.1500 
@<TRIPOS>BOND
  1   1   2  1   
  2   1   3  1   
  3   2   4  2   
  4   2   5  1   
  5   3   6  2   
  6   3  25  1   
  7   4   6  1   
  8   4  26  1   
  9   5   7  1   
 10   5  27  1   
 11   5  28  1   
 12   6  29  1   
 13   7   8  2   
 14   7   9  am  
 15   9  10  1   
 16   9  11  1   
 17  10  12  1   
 18  10  30  1   
 19  10  31  1   
 20  11  13  1   
 21  11  32  1   
 22  11  33  1   
 23  12  14  1   
 24  12  34  1   
 25  12  35  1   
 26  13  15  1   
 27  13  36  1   
 28  13  37  1   
 29  14  15  1   
 30  14  16  am  
 31  15  38  1   
 32  15  39  1   
 33  16  17  2   
 34  16  18  1   
 35  18  19  ar  
 36  18  20  ar  
 37  19  21  ar  
 38  20  22  ar  
 39  20  40  1   
 40  21  23  1   
 41  21  24  ar  
 42  22  24  ar  
 43  22  41  1   
 44  23  42  1   
 45  23  43  1   
 46  24  44  1   
@<TRIPOS>SUBSTRUCTURE
  1 ****  14 GROUP 4 **** **** 0

# MOE 2024.06 (io_trps.svl 2023.06)
