@<TRIPOS>MOLECULE
NONAME
50 53 1 0 0 
SMALL
USER_CHARGES


@<TRIPOS>ATOM
  1 S       -0.4160     0.3500     1.3450 S.o2  1 <1>   1.4470 
  2 O       -1.0140     1.3310     2.2200 O.2   1 <1>  -0.6500 
  3 O       -0.2680    -1.0130     1.8170 O.2   1 <1>  -0.6500 
  4 N       -1.3770     0.2420    -0.0590 N.am  1 <1>  -0.8490 
  5 C        1.1700     0.9540     0.7140 C.ar  1 <1>  -0.0090 
  6 C       -1.3750    -1.0790    -0.7040 C.3   1 <1>   0.1960 
  7 C       -2.7230     0.8220     0.0440 C.3   1 <1>   0.1960 
  8 C        1.2280     1.8740    -0.3160 C.ar  1 <1>  -0.1500 
  9 C        2.3780     0.4980     1.2750 C.ar  1 <1>  -0.1500 
 10 C       -2.3190    -2.0870     0.0170 C.3   1 <1>   0.4230 
 11 C       -3.6630    -0.1250     0.8030 C.3   1 <1>  -0.1600 
 12 C        2.4560     2.3170    -0.7950 C.ar  1 <1>   0.2270 
 13 C        3.6020     0.9320     0.8170 C.ar  1 <1>  -0.1500 
 14 N       -2.2480    -3.5110    -0.5190 N.4   1 <1>  -0.9590 
 15 C       -3.7650    -1.5340     0.1520 C.3   1 <1>   0.0000 
 16 N        2.7240     3.1950    -1.7990 N.2   1 <1>  -0.5650 
 17 C        3.6270     1.8500    -0.2320 C.ar  1 <1>  -0.1520 
 18 C       -3.4100    -4.3720    -0.1180 C.3   1 <1>   0.3430 
 19 C       -1.9950    -3.6420    -1.9910 C.3   1 <1>   0.2630 
 20 C       -4.5850    -2.4640     1.0940 C.3   1 <1>  -0.1600 
 21 C       -4.4400    -1.4450    -1.2460 C.3   1 <1>   0.1200 
 22 C        4.0100     3.2530    -1.8320 C.2   1 <1>   0.0360 
 23 N        4.6240     2.4670    -0.9130 N.pl3 1 <1>   0.0330 
 24 C       -4.0200    -3.8940     1.1980 C.3   1 <1>  -0.1600 
 25 O       -5.6260    -0.7330    -1.1970 O.3   1 <1>  -0.6800 
 26 H       -1.6810    -0.9480    -1.7260 H     1 <1>   0.0800 
 27 H       -0.3690    -1.4640    -0.7090 H     1 <1>   0.0800 
 28 H       -2.6840     1.7810     0.5370 H     1 <1>   0.0800 
 29 H       -3.1110     1.0010    -0.9460 H     1 <1>   0.0800 
 30 H        0.3380     2.2690    -0.7720 H     1 <1>   0.1500 
 31 H        2.3350    -0.2090     2.0870 H     1 <1>   0.1500 
 32 H       -1.9600    -2.1450     1.0300 H     1 <1>   0.0800 
 33 H       -3.3060    -0.2060     1.8150 H     1 <1>   0.0800 
 34 H       -4.6340     0.3350     0.8650 H     1 <1>   0.0800 
 35 H        4.5210     0.5770     1.2530 H     1 <1>   0.1500 
 36 H       -1.4280    -3.9140    -0.0380 H     1 <1>   0.4500 
 37 H       -4.1710    -4.3350    -0.8800 H     1 <1>   0.0800 
 38 H       -3.0890    -5.3980    -0.0210 H     1 <1>   0.0800 
 39 H       -2.7990    -3.1980    -2.5550 H     1 <1>   0.0800 
 40 H       -1.9190    -4.6820    -2.2660 H     1 <1>   0.0800 
 41 H       -1.0720    -3.1550    -2.2630 H     1 <1>   0.0800 
 42 H       -4.6170    -2.0590     2.0930 H     1 <1>   0.0800 
 43 H       -5.6080    -2.5150     0.7630 H     1 <1>   0.0800 
 44 H       -4.6680    -2.4200    -1.6380 H     1 <1>   0.0800 
 45 H       -3.8140    -0.9330    -1.9550 H     1 <1>   0.0800 
 46 H        4.5710     3.8640    -2.5190 H     1 <1>   0.1500 
 47 H        5.6300     2.3610    -0.7600 H     1 <1>   0.2700 
 48 H       -4.8110    -4.5640     1.4880 H     1 <1>   0.0800 
 49 H       -3.2710    -3.9400     1.9710 H     1 <1>   0.0800 
 50 H       -6.2920    -1.1580    -0.6200 H     1 <1>   0.4000 
@<TRIPOS>BOND
  1   1   2  2   
  2   1   3  2   
  3   1   4  am  
  4   1   5  1   
  5   4   6  1   
  6   4   7  1   
  7   5   8  ar  
  8   5   9  ar  
  9   6  10  1   
 10   6  26  1   
 11   6  27  1   
 12   7  11  1   
 13   7  28  1   
 14   7  29  1   
 15   8  12  ar  
 16   8  30  1   
 17   9  13  ar  
 18   9  31  1   
 19  10  14  1   
 20  10  15  1   
 21  10  32  1   
 22  11  15  1   
 23  11  33  1   
 24  11  34  1   
 25  12  16  1   
 26  12  17  ar  
 27  13  17  ar  
 28  13  35  1   
 29  14  18  1   
 30  14  19  1   
 31  14  36  1   
 32  15  20  1   
 33  15  21  1   
 34  16  22  2   
 35  17  23  1   
 36  18  24  1   
 37  18  37  1   
 38  18  38  1   
 39  19  39  1   
 40  19  40  1   
 41  19  41  1   
 42  20  24  1   
 43  20  42  1   
 44  20  43  1   
 45  21  25  1   
 46  21  44  1   
 47  21  45  1   
 48  22  23  1   
 49  22  46  1   
 50  23  47  1   
 51  24  48  1   
 52  24  49  1   
 53  25  50  1   
@<TRIPOS>SUBSTRUCTURE
  1 ****   4 GROUP 4 **** **** 0

# MOE 2024.06 (io_trps.svl 2023.06)
