@<TRIPOS>MOLECULE
NONAME
56 59 1 0 0 
SMALL
USER_CHARGES


@<TRIPOS>ATOM
  1 O        2.0770     0.4530     2.1260 O.co2 1 <1>  -0.9000 
  2 C        1.8120     1.1040     1.1020 C.2   1 <1>   0.9060 
  3 O        1.1960     2.1660     1.1530 O.co2 1 <1>  -0.9000 
  4 C        2.2860     0.5650    -0.2620 C.3   1 <1>  -0.1060 
  5 C        3.5930    -0.2290    -0.0570 C.3   1 <1>   0.4230 
  6 C        2.5830     1.7340    -1.2390 C.3   1 <1>  -0.1600 
  7 C        1.2120    -0.3520    -0.8940 C.3   1 <1>  -0.1600 
  8 N        3.3290    -1.4390     0.8010 N.4   1 <1>  -0.9590 
  9 C        4.7170     0.7090     0.4650 C.3   1 <1>   0.2090 
 10 C        3.6890     2.6570    -0.7130 C.3   1 <1>   0.2090 
 11 C        1.0230    -1.6400    -0.0790 C.3   1 <1>  -0.1600 
 12 C        2.3450    -2.3650     0.1820 C.3   1 <1>   0.3430 
 13 C        4.5160    -2.1520     1.3420 C.3   1 <1>   0.2630 
 14 N        4.9370     1.8590    -0.4760 N.pl3 1 <1>  -0.8380 
 15 C        6.1690     2.3730    -0.7600 C.ar  1 <1>   0.4100 
 16 N        6.2800     3.6990    -0.7660 N.ar  1 <1>  -0.6200 
 17 C        7.2600     1.5590    -1.0360 C.ar  1 <1>  -0.1500 
 18 C        7.4570     4.2160    -1.0100 C.ar  1 <1>   0.7710 
 19 C        8.4780     2.1260    -1.3130 C.ar  1 <1>   0.4610 
 20 N        8.5370     3.4670    -1.2870 N.ar  1 <1>  -0.1790 
 21 N        7.6200     5.5610    -1.0020 N.pl3 1 <1>  -0.8380 
 22 N        9.5920     1.4100    -1.6110 N.pl3 1 <1>  -0.9000 
 23 C        8.5150     6.2460    -0.0090 C.3   1 <1>   0.2090 
 24 C        6.4910     6.4550    -1.4380 C.3   1 <1>   0.2090 
 25 C        7.6920     6.8950     1.1220 C.3   1 <1>   0.1200 
 26 C        5.7830     7.0850    -0.2260 C.3   1 <1>   0.1200 
 27 O        6.7130     7.7390     0.5920 O.3   1 <1>  -0.5600 
 28 H        3.9140    -0.5780    -1.0230 H     1 <1>   0.0800 
 29 H        1.6910     2.3210    -1.3750 H     1 <1>   0.0800 
 30 H        2.8750     1.3620    -2.2040 H     1 <1>   0.0800 
 31 H        0.2750     0.1800    -0.9440 H     1 <1>   0.0800 
 32 H        1.4970    -0.6100    -1.9000 H     1 <1>   0.0800 
 33 H        2.8190    -0.9880     1.6110 H     1 <1>   0.4500 
 34 H        5.6290     0.1580     0.5780 H     1 <1>   0.0800 
 35 H        4.4440     1.1040     1.4300 H     1 <1>   0.0800 
 36 H        3.3800     3.1300     0.2070 H     1 <1>   0.0800 
 37 H        3.8660     3.4330    -1.4380 H     1 <1>   0.0800 
 38 H        0.3560    -2.3000    -0.6040 H     1 <1>   0.0800 
 39 H        0.5600    -1.4070     0.8650 H     1 <1>   0.0800 
 40 H        2.7380    -2.7430    -0.7480 H     1 <1>   0.0800 
 41 H        2.1630    -3.1980     0.8410 H     1 <1>   0.0800 
 42 H        5.1130    -2.5500     0.5380 H     1 <1>   0.0800 
 43 H        4.1990    -2.9620     1.9770 H     1 <1>   0.0800 
 44 H        5.1170    -1.4790     1.9310 H     1 <1>   0.0800 
 45 H        7.1430     0.4960    -1.0500 H     1 <1>   0.1500 
 46 H        9.3670     3.9750    -1.5500 H     1 <1>   0.4570 
 47 H       10.5190     1.7880    -1.8380 H     1 <1>   0.4000 
 48 H        9.5800     0.3830    -1.6630 H     1 <1>   0.4000 
 49 H        9.2090     5.5490     0.4260 H     1 <1>   0.0800 
 50 H        9.0820     7.0150    -0.5080 H     1 <1>   0.0800 
 51 H        6.8790     7.2430    -2.0620 H     1 <1>   0.0800 
 52 H        5.7720     5.9040    -2.0210 H     1 <1>   0.0800 
 53 H        8.3280     7.4900     1.7530 H     1 <1>   0.0800 
 54 H        7.2090     6.1450     1.7250 H     1 <1>   0.0800 
 55 H        5.2760     6.3320     0.3540 H     1 <1>   0.0800 
 56 H        5.0620     7.8140    -0.5510 H     1 <1>   0.0800 
@<TRIPOS>BOND
  1   1   2  ar  
  2   2   3  ar  
  3   2   4  1   
  4   4   5  1   
  5   4   6  1   
  6   4   7  1   
  7   5   8  1   
  8   5   9  1   
  9   5  28  1   
 10   6  10  1   
 11   6  29  1   
 12   6  30  1   
 13   7  11  1   
 14   7  31  1   
 15   7  32  1   
 16   8  12  1   
 17   8  13  1   
 18   8  33  1   
 19   9  14  1   
 20   9  34  1   
 21   9  35  1   
 22  10  14  1   
 23  10  36  1   
 24  10  37  1   
 25  11  12  1   
 26  11  38  1   
 27  11  39  1   
 28  12  40  1   
 29  12  41  1   
 30  13  42  1   
 31  13  43  1   
 32  13  44  1   
 33  14  15  1   
 34  15  16  ar  
 35  15  17  ar  
 36  16  18  ar  
 37  17  19  ar  
 38  17  45  1   
 39  18  20  ar  
 40  18  21  1   
 41  19  20  ar  
 42  19  22  1   
 43  20  46  1   
 44  21  23  1   
 45  21  24  1   
 46  22  47  1   
 47  22  48  1   
 48  23  25  1   
 49  23  49  1   
 50  23  50  1   
 51  24  26  1   
 52  24  51  1   
 53  24  52  1   
 54  25  27  1   
 55  25  53  1   
 56  25  54  1   
 57  26  27  1   
 58  26  55  1   
 59  26  56  1   
@<TRIPOS>SUBSTRUCTURE
  1 ****  14 GROUP 4 **** **** 0

# MOE 2024.06 (io_trps.svl 2023.06)
