@<TRIPOS>MOLECULE
NONAME
54 57 1 0 0 
SMALL
USER_CHARGES


@<TRIPOS>ATOM
  1 O        0.1800     0.8980    -0.0690 O.2   1 <1>  -0.5700 
  2 C       -0.0090     2.0840    -0.2080 C.2   1 <1>   0.5690 
  3 N       -0.8560     2.7910     0.6040 N.am  1 <1>  -0.6600 
  4 C        0.7160     2.8020    -1.3470 C.3   1 <1>   0.1810 
  5 C       -1.0970     4.2550     0.3870 C.3   1 <1>   0.3640 
  6 C       -1.5360     2.1770     1.7820 C.3   1 <1>   0.0600 
  7 O        0.8640     4.1800    -1.1090 O.3   1 <1>  -0.5600 
  8 C       -2.5970     4.5840     0.3420 C.ar  1 <1>  -0.1430 
  9 C       -0.3570     4.8490    -0.8390 C.3   1 <1>   0.2610 
 10 C       -3.5340     3.9310    -0.4670 C.ar  1 <1>  -0.1430 
 11 C       -3.0310     5.6140     1.1690 C.ar  1 <1>  -0.1500 
 12 C       -0.1570     6.3600    -0.6420 C.2   1 <1>   0.5690 
 13 C       -4.8660     4.3180    -0.4170 C.ar  1 <1>  -0.1500 
 14 C       -3.1840     2.7900    -1.4170 C.3   1 <1>  -0.0960 
 15 C       -4.3590     5.9920     1.2080 C.ar  1 <1>  -0.1500 
 16 O       -0.8500     7.0820    -1.3220 O.2   1 <1>  -0.5700 
 17 N        0.7390     6.8960     0.2660 N.am  1 <1>  -0.6600 
 18 C       -5.2800     5.3410     0.4140 C.ar  1 <1>  -0.1500 
 19 C        1.7350     6.1240     1.0630 C.3   1 <1>   0.1400 
 20 C        0.9250     8.3710     0.3690 C.3   1 <1>   0.1400 
 21 C        3.1400     6.4570     0.5590 C.3   1 <1>  -0.1600 
 22 C        2.3280     8.7420    -0.1220 C.3   1 <1>  -0.1600 
 23 C        3.4170     7.9670     0.6330 C.3   1 <1>   0.1000 
 24 C        4.7930     8.3140     0.0790 C.2   1 <1>  -0.3320 
 25 N        5.3780     9.5190     0.2570 N.pl3 1 <1>   0.3000 
 26 C        5.6650     7.5770    -0.6470 C.2   1 <1>  -0.1500 
 27 N        6.5900     9.5820    -0.3240 N.2   1 <1>  -0.7070 
 28 C        6.7530     8.4140    -0.8640 C.2   1 <1>   0.1390 
 29 H        0.1740     2.6680    -2.2650 H     1 <1>   0.0800 
 30 H        1.6990     2.3840    -1.4610 H     1 <1>   0.0800 
 31 H       -0.6930     4.7440     1.2550 H     1 <1>   0.0800 
 32 H       -1.2960     2.7310     2.6720 H     1 <1>   0.0800 
 33 H       -1.2190     1.1570     1.9160 H     1 <1>   0.0800 
 34 H       -2.6020     2.1870     1.6380 H     1 <1>   0.0800 
 35 H       -0.9750     4.7320    -1.7090 H     1 <1>   0.0800 
 36 H       -2.3340     6.1440     1.7950 H     1 <1>   0.1500 
 37 H       -5.5980     3.8230    -1.0290 H     1 <1>   0.1500 
 38 H       -3.9940     2.5940    -2.0970 H     1 <1>   0.0800 
 39 H       -2.9950     1.8900    -0.8600 H     1 <1>   0.0800 
 40 H       -2.3210     3.0260    -2.0070 H     1 <1>   0.0800 
 41 H       -4.6760     6.7930     1.8530 H     1 <1>   0.1500 
 42 H       -6.3160     5.6300     0.4390 H     1 <1>   0.1500 
 43 H        1.6440     6.4000     2.0990 H     1 <1>   0.0800 
 44 H        1.5700     5.0650     0.9930 H     1 <1>   0.0800 
 45 H        0.1890     8.8960    -0.2170 H     1 <1>   0.0800 
 46 H        0.8010     8.6700     1.3960 H     1 <1>   0.0800 
 47 H        3.8660     5.9290     1.1500 H     1 <1>   0.0800 
 48 H        3.2260     6.1150    -0.4580 H     1 <1>   0.0800 
 49 H        2.3940     8.5240    -1.1740 H     1 <1>   0.0800 
 50 H        2.4740     9.7990     0.0020 H     1 <1>   0.0800 
 51 H        3.3900     8.2570     1.6700 H     1 <1>   0.0800 
 52 H        4.9810    10.3180     0.7660 H     1 <1>   0.2700 
 53 H        5.5770     6.5660    -1.0010 H     1 <1>   0.1500 
 54 H        7.6350     8.1350    -1.4160 H     1 <1>   0.1500 
@<TRIPOS>BOND
  1   1   2  2   
  2   2   3  am  
  3   2   4  1   
  4   3   5  1   
  5   3   6  1   
  6   4   7  1   
  7   4  29  1   
  8   4  30  1   
  9   5   8  1   
 10   5   9  1   
 11   5  31  1   
 12   6  32  1   
 13   6  33  1   
 14   6  34  1   
 15   7   9  1   
 16   8  10  ar  
 17   8  11  ar  
 18   9  12  1   
 19   9  35  1   
 20  10  13  ar  
 21  10  14  1   
 22  11  15  ar  
 23  11  36  1   
 24  12  16  2   
 25  12  17  am  
 26  13  18  ar  
 27  13  37  1   
 28  14  38  1   
 29  14  39  1   
 30  14  40  1   
 31  15  18  ar  
 32  15  41  1   
 33  17  19  1   
 34  17  20  1   
 35  18  42  1   
 36  19  21  1   
 37  19  43  1   
 38  19  44  1   
 39  20  22  1   
 40  20  45  1   
 41  20  46  1   
 42  21  23  1   
 43  21  47  1   
 44  21  48  1   
 45  22  23  1   
 46  22  49  1   
 47  22  50  1   
 48  23  24  1   
 49  23  51  1   
 50  24  25  1   
 51  24  26  2   
 52  25  27  1   
 53  25  52  1   
 54  26  28  1   
 55  26  53  1   
 56  27  28  2   
 57  28  54  1   
@<TRIPOS>SUBSTRUCTURE
  1 ****  12 GROUP 4 **** **** 0

# MOE 2024.06 (io_trps.svl 2023.06)
