@<TRIPOS>MOLECULE
NONAME
51 54 1 0 0 
SMALL
USER_CHARGES


@<TRIPOS>ATOM
  1 O        2.6260     2.3960     0.9930 O.co2 1 <1>  -0.9000 
  2 C        2.3150     1.2160     0.8200 C.2   1 <1>   0.9060 
  3 O        1.9720     0.5090     1.7720 O.co2 1 <1>  -0.9000 
  4 C        2.7420     0.5210    -0.4900 C.3   1 <1>  -0.1060 
  5 C        3.7880    -0.5230    -0.0490 C.3   1 <1>   0.4230 
  6 C        3.4500     1.5080    -1.4770 C.3   1 <1>  -0.1600 
  7 C        1.5500    -0.1400    -1.2310 C.3   1 <1>  -0.1600 
  8 N        3.1170    -1.6300     0.7290 N.4   1 <1>  -0.9590 
  9 C        4.9420     0.2050     0.7300 C.3   1 <1>   0.3430 
 10 C        4.8780     1.9430    -1.0860 C.3   1 <1>   0.3430 
 11 C        0.9840    -1.3550    -0.4820 C.3   1 <1>  -0.1600 
 12 C        2.0760    -2.3390    -0.0650 C.3   1 <1>   0.3430 
 13 C        4.0030    -2.5900     1.4470 C.3   1 <1>   0.2630 
 14 N        5.1180     1.6570     0.3540 N.4   1 <1>  -0.9590 
 15 C        6.2980     2.3300     0.9560 C.3   1 <1>   0.4860 
 16 C        6.2600     3.8110     0.6200 C.ar  1 <1>  -0.1440 
 17 C        7.2500     4.3990    -0.2090 C.ar  1 <1>   0.0000 
 18 C        5.2300     4.5690     1.1210 C.ar  1 <1>  -0.1500 
 19 C        7.1400     5.7780    -0.5170 C.ar  1 <1>   0.3100 
 20 C        8.3520     3.7100    -0.7620 C.ar  1 <1>  -0.1500 
 21 C        5.1340     5.9280     0.8210 C.ar  1 <1>  -0.1500 
 22 N        8.0210     6.4320    -1.3150 N.ar  1 <1>  -0.6200 
 23 C        6.0720     6.5120     0.0180 C.ar  1 <1>  -0.1500 
 24 C        9.2240     4.3950    -1.5530 C.ar  1 <1>  -0.1500 
 25 C        9.0140     5.7560    -1.8000 C.ar  1 <1>   0.1600 
 26 H        4.2160    -0.9550    -0.9370 H     1 <1>   0.0800 
 27 H        2.8450     2.3950    -1.5720 H     1 <1>   0.0800 
 28 H        3.5090     1.0830    -2.4630 H     1 <1>   0.0800 
 29 H        0.7660     0.5880    -1.3700 H     1 <1>   0.0800 
 30 H        1.8600    -0.4690    -2.2080 H     1 <1>   0.0800 
 31 H        2.5580    -1.0830     1.4440 H     1 <1>   0.4500 
 32 H        5.8620    -0.3260     0.5610 H     1 <1>   0.0800 
 33 H        4.7090     0.1630     1.7820 H     1 <1>   0.0800 
 34 H        4.9830     3.0000    -1.2810 H     1 <1>   0.0800 
 35 H        5.6030     1.4180    -1.6870 H     1 <1>   0.0800 
 36 H        0.2740    -1.8620    -1.1110 H     1 <1>   0.0800 
 37 H        0.4480    -1.0300     0.3940 H     1 <1>   0.0800 
 38 H        2.5200    -2.7850    -0.9400 H     1 <1>   0.0800 
 39 H        1.6320    -3.1220     0.5290 H     1 <1>   0.0800 
 40 H        4.6100    -3.1400     0.7460 H     1 <1>   0.0800 
 41 H        3.4060    -3.2910     2.0080 H     1 <1>   0.0800 
 42 H        4.6440    -2.0700     2.1390 H     1 <1>   0.0800 
 43 H        4.2980     2.1590     0.7960 H     1 <1>   0.4500 
 44 H        6.2670     2.2200     2.0280 H     1 <1>   0.0800 
 45 H        7.2040     1.8770     0.5980 H     1 <1>   0.0800 
 46 H        4.4600     4.1440     1.7490 H     1 <1>   0.1500 
 47 H        8.5220     2.6690    -0.5740 H     1 <1>   0.1500 
 48 H        4.3140     6.4990     1.2250 H     1 <1>   0.1500 
 49 H        6.0150     7.5570    -0.2280 H     1 <1>   0.1500 
 50 H       10.0810     3.9190    -1.9970 H     1 <1>   0.1500 
 51 H        9.7180     6.2720    -2.4310 H     1 <1>   0.1500 
@<TRIPOS>BOND
  1   1   2  ar  
  2   2   3  ar  
  3   2   4  1   
  4   4   5  1   
  5   4   6  1   
  6   4   7  1   
  7   5   8  1   
  8   5   9  1   
  9   5  26  1   
 10   6  10  1   
 11   6  27  1   
 12   6  28  1   
 13   7  11  1   
 14   7  29  1   
 15   7  30  1   
 16   8  12  1   
 17   8  13  1   
 18   8  31  1   
 19   9  14  1   
 20   9  32  1   
 21   9  33  1   
 22  10  14  1   
 23  10  34  1   
 24  10  35  1   
 25  11  12  1   
 26  11  36  1   
 27  11  37  1   
 28  12  38  1   
 29  12  39  1   
 30  13  40  1   
 31  13  41  1   
 32  13  42  1   
 33  14  15  1   
 34  14  43  1   
 35  15  16  1   
 36  15  44  1   
 37  15  45  1   
 38  16  17  ar  
 39  16  18  ar  
 40  17  19  ar  
 41  17  20  ar  
 42  18  21  ar  
 43  18  46  1   
 44  19  22  ar  
 45  19  23  ar  
 46  20  24  ar  
 47  20  47  1   
 48  21  23  ar  
 49  21  48  1   
 50  22  25  ar  
 51  23  49  1   
 52  24  25  ar  
 53  24  50  1   
 54  25  51  1   
@<TRIPOS>SUBSTRUCTURE
  1 ****  14 GROUP 4 **** **** 0

# MOE 2024.06 (io_trps.svl 2023.06)
