@<TRIPOS>MOLECULE
NONAME
48 50 1 0 0 
SMALL
USER_CHARGES


@<TRIPOS>ATOM
  1 O        1.6800     0.1370    -1.5000 O.2   1 <1>  -0.5700 
  2 C        1.9790    -0.4920    -0.5110 C.2   1 <1>   0.5690 
  3 N        1.3710    -1.6940    -0.2290 N.am  1 <1>  -0.6600 
  4 C        3.0600     0.0840     0.4140 C.3   1 <1>  -0.0190 
  5 C        0.3100    -2.2490    -1.1250 C.3   1 <1>   0.1400 
  6 C        1.6980    -2.6180     0.9000 C.3   1 <1>   0.1400 
  7 C        3.1610     1.6220     0.3380 C.3   1 <1>  -0.1600 
  8 C        4.4390    -0.5280     0.1020 C.3   1 <1>  -0.1600 
  9 C        0.6490    -3.6910    -1.5380 C.3   1 <1>   0.1200 
 10 C        1.9650    -4.0380     0.3730 C.3   1 <1>   0.1200 
 11 C        4.2530     2.1680     1.2600 C.3   1 <1>   0.2090 
 12 C        5.5180     0.0190     1.0370 C.3   1 <1>   0.2090 
 13 O        0.8960    -4.4830    -0.4100 O.3   1 <1>  -0.5600 
 14 N        5.5500     1.5040     0.9410 N.pl3 1 <1>  -0.8380 
 15 C        6.6730     2.2030     0.5660 C.ar  1 <1>   0.7200 
 16 N        6.6720     3.5240     0.7510 N.ar  1 <1>  -0.6200 
 17 N        7.6900     1.5140     0.0520 N.ar  1 <1>  -0.6200 
 18 C        7.7310     4.1940     0.3780 C.ar  1 <1>   0.1660 
 19 C        8.7350     2.2050    -0.3240 C.ar  1 <1>   0.1600 
 20 C        8.8280     3.5820    -0.2230 C.ar  1 <1>   0.0860 
 21 C        7.6810     5.6830     0.6780 C.3   1 <1>  -0.0970 
 22 C       10.0010     4.2400    -0.7280 C.2   1 <1>   0.4230 
 23 O       11.1100     3.8100    -0.5510 O.2   1 <1>  -0.5700 
 24 C        9.8860     5.4880    -1.5810 C.3   1 <1>  -0.1790 
 25 H        2.7930    -0.1530     1.4260 H     1 <1>   0.0800 
 26 H        0.2000    -1.6480    -2.0100 H     1 <1>   0.0800 
 27 H       -0.6320    -2.2420    -0.6050 H     1 <1>   0.0800 
 28 H        0.8650    -2.6490     1.5810 H     1 <1>   0.0800 
 29 H        2.5590    -2.2870     1.4460 H     1 <1>   0.0800 
 30 H        2.2160     2.0600     0.6070 H     1 <1>   0.0800 
 31 H        3.3850     1.9260    -0.6700 H     1 <1>   0.0800 
 32 H        4.7150    -0.2990    -0.9130 H     1 <1>   0.0800 
 33 H        4.4040    -1.5980     0.1950 H     1 <1>   0.0800 
 34 H        1.5190    -3.7060    -2.1710 H     1 <1>   0.0800 
 35 H       -0.1760    -4.1270    -2.0730 H     1 <1>   0.0800 
 36 H        2.0780    -4.7250     1.1930 H     1 <1>   0.0800 
 37 H        2.8610    -4.0600    -0.2230 H     1 <1>   0.0800 
 38 H        4.0040     1.9710     2.2880 H     1 <1>   0.0800 
 39 H        4.3110     3.2350     1.1340 H     1 <1>   0.0800 
 40 H        6.4680    -0.4190     0.7820 H     1 <1>   0.0800 
 41 H        5.2980    -0.2570     2.0540 H     1 <1>   0.0800 
 42 H        9.5670     1.6640    -0.7430 H     1 <1>   0.1500 
 43 H        7.0220     5.8670     1.5090 H     1 <1>   0.0800 
 44 H        7.3050     6.2180    -0.1740 H     1 <1>   0.0800 
 45 H        8.6530     6.0560     0.9440 H     1 <1>   0.0800 
 46 H        8.8960     5.5850    -1.9880 H     1 <1>   0.0800 
 47 H       10.5840     5.4240    -2.3970 H     1 <1>   0.0800 
 48 H       10.1260     6.3550    -0.9950 H     1 <1>   0.0800 
@<TRIPOS>BOND
  1   1   2  2   
  2   2   3  am  
  3   2   4  1   
  4   3   5  1   
  5   3   6  1   
  6   4   7  1   
  7   4   8  1   
  8   4  25  1   
  9   5   9  1   
 10   5  26  1   
 11   5  27  1   
 12   6  10  1   
 13   6  28  1   
 14   6  29  1   
 15   7  11  1   
 16   7  30  1   
 17   7  31  1   
 18   8  12  1   
 19   8  32  1   
 20   8  33  1   
 21   9  13  1   
 22   9  34  1   
 23   9  35  1   
 24  10  13  1   
 25  10  36  1   
 26  10  37  1   
 27  11  14  1   
 28  11  38  1   
 29  11  39  1   
 30  12  14  1   
 31  12  40  1   
 32  12  41  1   
 33  14  15  1   
 34  15  16  ar  
 35  15  17  ar  
 36  16  18  ar  
 37  17  19  ar  
 38  18  20  ar  
 39  18  21  1   
 40  19  20  ar  
 41  19  42  1   
 42  20  22  1   
 43  21  43  1   
 44  21  44  1   
 45  21  45  1   
 46  22  23  2   
 47  22  24  1   
 48  24  46  1   
 49  24  47  1   
 50  24  48  1   
@<TRIPOS>SUBSTRUCTURE
  1 ****  14 GROUP 4 **** **** 0

# MOE 2024.06 (io_trps.svl 2023.06)
