@<TRIPOS>MOLECULE
NONAME
48 49 1 0 0 
SMALL
USER_CHARGES


@<TRIPOS>ATOM
  1 S        0.4100     1.1190     0.0380 S.o2  1 <1>   1.3330 
  2 O        0.2760    -0.2680    -0.3490 O.2   1 <1>  -0.6500 
  3 O       -0.6860     2.0340    -0.1870 O.2   1 <1>  -0.6500 
  4 N        0.7640     1.1610     1.6990 N.am  1 <1>  -0.8490 
  5 C        1.8930     1.7700    -0.7350 C.3   1 <1>  -0.0550 
  6 C        0.6000     2.4930     2.2940 C.3   1 <1>   0.1160 
  7 C       -0.0260     0.1830     2.4540 C.3   1 <1>   0.1160 
  8 C        3.1220     0.8400    -0.6380 C.3   1 <1>  -0.0800 
  9 C        4.3420     1.3110    -1.4140 C.3   1 <1>   0.2200 
 10 C        3.6800     0.6400     0.7770 C.3   1 <1>   0.1200 
 11 N        4.5480     2.7660    -1.2330 N.am  1 <1>  -0.7300 
 12 C        5.4470     0.5600    -0.6850 C.3   1 <1>   0.1200 
 13 O        5.0720     0.5700     0.6590 O.3   1 <1>  -0.5600 
 14 C        4.2190     3.7360    -2.1240 C.2   1 <1>   0.5690 
 15 O        3.7170     3.4670    -3.1890 O.2   1 <1>  -0.5700 
 16 C        4.4640     5.1980    -1.7710 C.3   1 <1>   0.1810 
 17 O        4.6670     5.3570    -0.3730 O.3   1 <1>  -0.3630 
 18 C        4.9080     6.5780     0.1660 C.ar  1 <1>   0.0820 
 19 C        5.1720     6.6170     1.5260 C.ar  1 <1>  -0.1500 
 20 C        4.9010     7.7630    -0.5650 C.ar  1 <1>  -0.1500 
 21 C        5.4310     7.8190     2.1640 C.ar  1 <1>  -0.1440 
 22 C        5.1560     8.9650     0.0700 C.ar  1 <1>  -0.1500 
 23 C        5.4200     8.9930     1.4290 C.ar  1 <1>  -0.1500 
 24 C        5.7200     7.8510     3.6540 C.3   1 <1>  -0.0970 
 25 H        1.6850     1.9320    -1.7750 H     1 <1>   0.0800 
 26 H        2.1220     2.7240    -0.3050 H     1 <1>   0.0800 
 27 H        0.9160     2.4800     3.3230 H     1 <1>   0.0800 
 28 H       -0.4310     2.8030     2.2480 H     1 <1>   0.0800 
 29 H        1.2000     3.2140     1.7660 H     1 <1>   0.0800 
 30 H        0.2290     0.2230     3.4990 H     1 <1>   0.0800 
 31 H        0.1800    -0.8120     2.0970 H     1 <1>   0.0800 
 32 H       -1.0790     0.3810     2.3360 H     1 <1>   0.0800 
 33 H        2.8460    -0.1300    -1.0160 H     1 <1>   0.0800 
 34 H        4.2950     1.0610    -2.4610 H     1 <1>   0.0800 
 35 H        3.3170    -0.2690     1.2260 H     1 <1>   0.0800 
 36 H        3.4530     1.4750     1.4160 H     1 <1>   0.0800 
 37 H        4.9320     3.0390    -0.3220 H     1 <1>   0.3700 
 38 H        6.4120     1.0210    -0.7980 H     1 <1>   0.0800 
 39 H        5.4880    -0.4660    -1.0070 H     1 <1>   0.0800 
 40 H        3.6070     5.7780    -2.0590 H     1 <1>   0.0800 
 41 H        5.3390     5.5480    -2.2860 H     1 <1>   0.0800 
 42 H        5.1750     5.6970     2.0800 H     1 <1>   0.1500 
 43 H        4.7000     7.7750    -1.6190 H     1 <1>   0.1500 
 44 H        5.1510     9.8830    -0.4920 H     1 <1>   0.1500 
 45 H        5.6160     9.9350     1.9120 H     1 <1>   0.1500 
 46 H        6.4020     8.6490     3.8870 H     1 <1>   0.0800 
 47 H        6.1620     6.9240     3.9720 H     1 <1>   0.0800 
 48 H        4.8060     8.0050     4.1980 H     1 <1>   0.0800 
@<TRIPOS>BOND
  1   1   2  2   
  2   1   3  2   
  3   1   4  am  
  4   1   5  1   
  5   4   6  1   
  6   4   7  1   
  7   5   8  1   
  8   5  25  1   
  9   5  26  1   
 10   6  27  1   
 11   6  28  1   
 12   6  29  1   
 13   7  30  1   
 14   7  31  1   
 15   7  32  1   
 16   8   9  1   
 17   8  10  1   
 18   8  33  1   
 19   9  11  1   
 20   9  12  1   
 21   9  34  1   
 22  10  13  1   
 23  10  35  1   
 24  10  36  1   
 25  11  14  am  
 26  11  37  1   
 27  12  13  1   
 28  12  38  1   
 29  12  39  1   
 30  14  15  2   
 31  14  16  1   
 32  16  17  1   
 33  16  40  1   
 34  16  41  1   
 35  17  18  1   
 36  18  19  ar  
 37  18  20  ar  
 38  19  21  ar  
 39  19  42  1   
 40  20  22  ar  
 41  20  43  1   
 42  21  23  ar  
 43  21  24  1   
 44  22  23  ar  
 45  22  44  1   
 46  23  45  1   
 47  24  46  1   
 48  24  47  1   
 49  24  48  1   
@<TRIPOS>SUBSTRUCTURE
  1 ****  11 GROUP 4 **** **** 0

# MOE 2024.06 (io_trps.svl 2023.06)
