@<TRIPOS>MOLECULE
NONAME
52 54 1 0 0 
SMALL
USER_CHARGES


@<TRIPOS>ATOM
  1 O        2.9950     2.0810     1.7480 O.co2 1 <1>  -0.9000 
  2 C        2.4350     1.0700     1.2940 C.2   1 <1>   0.9060 
  3 O        2.3430     0.0400     1.9600 O.co2 1 <1>  -0.9000 
  4 C        2.1160     0.9890    -0.2060 C.3   1 <1>  -0.1060 
  5 C        3.1600    -0.0170    -0.7430 C.3   1 <1>   0.2000 
  6 C        2.3330     2.3570    -0.9350 C.3   1 <1>  -0.1600 
  7 C        0.6640     0.4790    -0.4020 C.3   1 <1>  -0.0160 
  8 O        3.0280    -0.1480    -2.1280 O.3   1 <1>  -0.6800 
  9 C        4.6010     0.4740    -0.4310 C.3   1 <1>   0.3430 
 10 C        3.8010     2.6610    -1.2830 C.3   1 <1>   0.3430 
 11 C       -0.3920     1.5140    -0.0270 C.ar  1 <1>  -0.1440 
 12 N        4.6940     1.9740    -0.3170 N.4   1 <1>  -0.9590 
 13 C       -1.0720     2.2170    -1.0110 C.ar  1 <1>  -0.1500 
 14 C       -0.6850     1.7610     1.3050 C.ar  1 <1>  -0.1500 
 15 C        6.0840     2.4820    -0.2570 C.3   1 <1>   0.3430 
 16 C       -2.0270     3.1590    -0.6680 C.ar  1 <1>  -0.1500 
 17 C       -1.6380     2.7040     1.6500 C.ar  1 <1>  -0.1500 
 18 C        6.1340     3.8270     0.4660 C.3   1 <1>  -0.0170 
 19 C       -2.3100     3.4040     0.6640 C.ar  1 <1>  -0.1500 
 20 C        7.5720     4.2940     0.5390 C.ar  1 <1>   0.1670 
 21 N        8.2300     4.3030    -0.6090 N.ar  1 <1>  -0.6200 
 22 C        8.1200     4.6750     1.7540 C.ar  1 <1>  -0.1500 
 23 C        9.4870     4.7140    -0.5540 C.ar  1 <1>   0.1670 
 24 C        9.4300     5.0970     1.8030 C.ar  1 <1>  -0.1500 
 25 C       10.1220     5.1130     0.6120 C.ar  1 <1>  -0.1500 
 26 C       10.2360     4.7310    -1.8700 C.3   1 <1>  -0.0970 
 27 H        3.0160    -0.9930    -0.3090 H     1 <1>   0.0800 
 28 H        1.9410     3.1530    -0.3250 H     1 <1>   0.0800 
 29 H        1.7780     2.3740    -1.8550 H     1 <1>   0.0800 
 30 H        0.5080     0.1960    -1.4260 H     1 <1>   0.0800 
 31 H        0.5070    -0.4040     0.1940 H     1 <1>   0.0800 
 32 H        2.1680    -0.5630    -2.3390 H     1 <1>   0.4000 
 33 H        5.2650     0.1080    -1.1950 H     1 <1>   0.0800 
 34 H        4.8980     0.0480     0.5130 H     1 <1>   0.0800 
 35 H        3.9600     3.7260    -1.2600 H     1 <1>   0.0800 
 36 H        4.0150     2.3010    -2.2760 H     1 <1>   0.0800 
 37 H        4.2440     2.1790     0.6150 H     1 <1>   0.4500 
 38 H       -0.8640     2.0350    -2.0500 H     1 <1>   0.1500 
 39 H       -0.1690     1.2220     2.0840 H     1 <1>   0.1500 
 40 H        6.7010     1.7850     0.2850 H     1 <1>   0.0800 
 41 H        6.4870     2.5850    -1.2510 H     1 <1>   0.0800 
 42 H       -2.5500     3.7000    -1.4360 H     1 <1>   0.1500 
 43 H       -1.8510     2.8890     2.6880 H     1 <1>   0.1500 
 44 H        5.7220     3.7220     1.4540 H     1 <1>   0.0800 
 45 H        5.5690     4.5640    -0.0730 H     1 <1>   0.0800 
 46 H       -3.0500     4.1360     0.9340 H     1 <1>   0.1500 
 47 H        7.5330     4.6460     2.6550 H     1 <1>   0.1500 
 48 H        9.8920     5.4020     2.7270 H     1 <1>   0.1500 
 49 H       11.1470     5.4360     0.5920 H     1 <1>   0.1500 
 50 H       11.2380     5.0950    -1.7420 H     1 <1>   0.0800 
 51 H        9.7210     5.3680    -2.5660 H     1 <1>   0.0800 
 52 H       10.2760     3.7360    -2.2740 H     1 <1>   0.0800 
@<TRIPOS>BOND
  1   1   2  ar  
  2   2   3  ar  
  3   2   4  1   
  4   4   5  1   
  5   4   6  1   
  6   4   7  1   
  7   5   8  1   
  8   5   9  1   
  9   5  27  1   
 10   6  10  1   
 11   6  28  1   
 12   6  29  1   
 13   7  11  1   
 14   7  30  1   
 15   7  31  1   
 16   8  32  1   
 17   9  12  1   
 18   9  33  1   
 19   9  34  1   
 20  10  12  1   
 21  10  35  1   
 22  10  36  1   
 23  11  13  ar  
 24  11  14  ar  
 25  12  15  1   
 26  12  37  1   
 27  13  16  ar  
 28  13  38  1   
 29  14  17  ar  
 30  14  39  1   
 31  15  18  1   
 32  15  40  1   
 33  15  41  1   
 34  16  19  ar  
 35  16  42  1   
 36  17  19  ar  
 37  17  43  1   
 38  18  20  1   
 39  18  44  1   
 40  18  45  1   
 41  19  46  1   
 42  20  21  ar  
 43  20  22  ar  
 44  21  23  ar  
 45  22  24  ar  
 46  22  47  1   
 47  23  25  ar  
 48  23  26  1   
 49  24  25  ar  
 50  24  48  1   
 51  25  49  1   
 52  26  50  1   
 53  26  51  1   
 54  26  52  1   
@<TRIPOS>SUBSTRUCTURE
  1 ****  12 GROUP 4 **** **** 0

# MOE 2024.06 (io_trps.svl 2023.06)
