@<TRIPOS>MOLECULE
NONAME
44 46 1 0 0 
SMALL
USER_CHARGES


@<TRIPOS>ATOM
  1 O       -2.4010     0.8860    -2.2570 O.2   1 <1>  -0.5700 
  2 C       -1.9890     0.9320    -1.1130 C.2   1 <1>   0.7150 
  3 N       -2.0060    -0.2100    -0.3680 N.am  1 <1>  -0.7300 
  4 C       -1.5030     2.1650    -0.5520 C.2   1 <1>   0.0550 
  5 C       -2.4750    -1.5360    -0.8300 C.3   1 <1>   0.2200 
  6 O       -1.0740     2.2290     0.6880 O.3   1 <1>  -0.0190 
  7 C       -1.3720     3.4100    -1.0600 C.2   1 <1>  -0.1500 
  8 C       -3.8500    -1.8100    -0.2460 C.3   1 <1>  -0.0800 
  9 C       -1.6360    -2.6320    -0.1820 C.3   1 <1>   0.1200 
 10 N       -0.6750     3.4160     1.0260 N.2   1 <1>  -0.4100 
 11 C       -0.8430     4.1560    -0.0170 C.2   1 <1>   0.1080 
 12 C       -3.5030    -2.3510     1.1450 C.3   1 <1>   0.1200 
 13 C       -4.6300    -2.8330    -1.0930 C.3   1 <1>  -0.0160 
 14 O       -2.2120    -2.8850     1.0650 O.3   1 <1>  -0.5600 
 15 C       -0.5090     5.6430    -0.0950 C.3   1 <1>   0.1010 
 16 C       -6.0170    -3.0870    -0.5230 C.ar  1 <1>  -0.1440 
 17 C        0.9890     5.8760     0.1310 C.3   1 <1>  -0.2400 
 18 C       -1.3350     6.4410     0.9200 C.3   1 <1>  -0.2400 
 19 C       -6.3280    -4.2440     0.1640 C.ar  1 <1>  -0.1500 
 20 C       -7.0390    -2.1700    -0.6660 C.ar  1 <1>  -0.1500 
 21 C       -7.6080    -4.4190     0.6650 C.ar  1 <1>   0.1600 
 22 C       -8.2850    -2.4430    -0.1260 C.ar  1 <1>   0.1600 
 23 N       -8.5930    -3.5460     0.5380 N.ar  1 <1>  -0.6200 
 24 H       -1.6880    -0.1730     0.6030 H     1 <1>   0.3700 
 25 H       -2.4520    -1.5890    -1.9060 H     1 <1>   0.0800 
 26 H       -1.6180     3.7540    -2.0480 H     1 <1>   0.1500 
 27 H       -4.4310    -0.9070    -0.1740 H     1 <1>   0.0800 
 28 H       -0.6060    -2.3470    -0.0540 H     1 <1>   0.0800 
 29 H       -1.6910    -3.5410    -0.7550 H     1 <1>   0.0800 
 30 H       -4.1790    -3.1150     1.4860 H     1 <1>   0.0800 
 31 H       -3.4770    -1.5520     1.8660 H     1 <1>   0.0800 
 32 H       -4.0890    -3.7610    -1.1510 H     1 <1>   0.0800 
 33 H       -4.7370    -2.4570    -2.0960 H     1 <1>   0.0800 
 34 H       -0.7590     5.9930    -1.0820 H     1 <1>   0.0800 
 35 H        1.2730     5.5460     1.1160 H     1 <1>   0.0800 
 36 H        1.2270     6.9200     0.0330 H     1 <1>   0.0800 
 37 H        1.5610     5.3220    -0.5910 H     1 <1>   0.0800 
 38 H       -1.1020     6.1240     1.9220 H     1 <1>   0.0800 
 39 H       -2.3840     6.2820     0.7480 H     1 <1>   0.0800 
 40 H       -1.1270     7.4920     0.8320 H     1 <1>   0.0800 
 41 H       -5.5900    -5.0100     0.3160 H     1 <1>   0.1500 
 42 H       -6.8790    -1.2470    -1.1910 H     1 <1>   0.1500 
 43 H       -7.8320    -5.3270     1.1990 H     1 <1>   0.1500 
 44 H       -9.0700    -1.7160    -0.2470 H     1 <1>   0.1500 
@<TRIPOS>BOND
  1   1   2  2   
  2   2   3  am  
  3   2   4  1   
  4   3   5  1   
  5   3  24  1   
  6   4   6  1   
  7   4   7  2   
  8   5   8  1   
  9   5   9  1   
 10   5  25  1   
 11   6  10  1   
 12   7  11  1   
 13   7  26  1   
 14   8  12  1   
 15   8  13  1   
 16   8  27  1   
 17   9  14  1   
 18   9  28  1   
 19   9  29  1   
 20  10  11  2   
 21  11  15  1   
 22  12  14  1   
 23  12  30  1   
 24  12  31  1   
 25  13  16  1   
 26  13  32  1   
 27  13  33  1   
 28  15  17  1   
 29  15  18  1   
 30  15  34  1   
 31  16  19  ar  
 32  16  20  ar  
 33  17  35  1   
 34  17  36  1   
 35  17  37  1   
 36  18  38  1   
 37  18  39  1   
 38  18  40  1   
 39  19  21  ar  
 40  19  41  1   
 41  20  22  ar  
 42  20  42  1   
 43  21  23  ar  
 44  21  43  1   
 45  22  23  ar  
 46  22  44  1   
@<TRIPOS>SUBSTRUCTURE
  1 ****   3 GROUP 4 **** **** 0

# MOE 2024.06 (io_trps.svl 2023.06)
