@<TRIPOS>MOLECULE
NONAME
54 56 1 0 0 
SMALL
USER_CHARGES


@<TRIPOS>ATOM
  1 O        2.1900    -1.2670    -1.2310 O.co2 1 <1>  -0.9000 
  2 C        1.5740    -0.6130    -0.3810 C.2   1 <1>   0.9060 
  3 O        0.7080    -1.1010     0.3500 O.co2 1 <1>  -0.9000 
  4 C        2.0700     0.8180    -0.1530 C.3   1 <1>  -0.1060 
  5 C        3.1320     0.1690     0.8720 C.3   1 <1>   0.2000 
  6 C        2.6680     2.3140     0.0460 C.3   1 <1>  -0.1600 
  7 C        0.9470     1.3700    -1.1570 C.3   1 <1>  -0.0160 
  8 O        3.1300     0.7480     2.1530 O.3   1 <1>  -0.6800 
  9 C        4.5400     0.2130     0.2820 C.3   1 <1>   0.3430 
 10 C        4.1260     2.4850    -0.4040 C.3   1 <1>   0.3430 
 11 C       -0.1020     2.2790    -0.5000 C.ar  1 <1>  -0.1440 
 12 N        5.0180     1.6090     0.3830 N.4   1 <1>  -0.9590 
 13 C       -0.7530     1.8780     0.6570 C.ar  1 <1>  -0.1500 
 14 C       -0.4190     3.5090    -1.0600 C.ar  1 <1>  -0.1500 
 15 C        6.4530     1.7600     0.0640 C.3   1 <1>   0.5240 
 16 C       -1.6890     2.7000     1.2580 C.ar  1 <1>  -0.1500 
 17 C       -1.3550     4.3330    -0.4600 C.ar  1 <1>  -0.1500 
 18 C        6.8570     3.2010     0.2830 C.2   1 <1>  -0.1810 
 19 C       -1.9890     3.9310     0.7020 C.ar  1 <1>  -0.1500 
 20 C        7.2150     4.1580    -0.6050 C.2   1 <1>  -0.3320 
 21 C        6.9270     3.8200     1.5240 C.2   1 <1>   0.1390 
 22 N        7.4890     5.2760     0.1160 N.pl3 1 <1>   0.3140 
 23 C        7.3180     4.0720    -2.1220 C.3   1 <1>  -0.0600 
 24 N        7.2880     5.0570     1.4300 N.2   1 <1>  -0.7070 
 25 C        7.9230     6.6080    -0.3780 C.3   1 <1>   0.2340 
 26 C        9.4090     6.6310    -0.7240 C.2   1 <1>  -0.2880 
 27 C       10.3160     7.4370    -0.1630 C.2   1 <1>  -0.3000 
 28 H        3.0080    -0.8820     1.1110 H     1 <1>   0.0800 
 29 H        2.5350     2.6820     1.0470 H     1 <1>   0.0800 
 30 H        2.2030     3.1090    -0.5080 H     1 <1>   0.0800 
 31 H        1.4100     1.8680    -1.9920 H     1 <1>   0.0800 
 32 H        0.3440     0.6280    -1.6660 H     1 <1>   0.0800 
 33 H        2.2430     0.5890     2.5480 H     1 <1>   0.4000 
 34 H        4.5080    -0.1230    -0.7430 H     1 <1>   0.0800 
 35 H        5.1740    -0.4500     0.8460 H     1 <1>   0.0800 
 36 H        4.4190     3.5140    -0.2720 H     1 <1>   0.0800 
 37 H        4.2060     2.2410    -1.4510 H     1 <1>   0.0800 
 38 H        4.8450     1.8540     1.3710 H     1 <1>   0.4500 
 39 H       -0.5370     0.9160     1.0910 H     1 <1>   0.1500 
 40 H        0.0600     3.8300    -1.9670 H     1 <1>   0.1500 
 41 H        7.0440     1.1200     0.6990 H     1 <1>   0.0800 
 42 H        6.6320     1.4850    -0.9620 H     1 <1>   0.0800 
 43 H       -2.1850     2.3760     2.1550 H     1 <1>   0.1500 
 44 H       -1.5930     5.2860    -0.8990 H     1 <1>   0.1500 
 45 H       -2.7170     4.5700     1.1700 H     1 <1>   0.1500 
 46 H        6.7090     3.3500     2.4700 H     1 <1>   0.1500 
 47 H        6.9900     3.1120    -2.4770 H     1 <1>   0.0800 
 48 H        8.3370     4.2140    -2.4350 H     1 <1>   0.0800 
 49 H        6.7070     4.8280    -2.5830 H     1 <1>   0.0800 
 50 H        7.3390     6.8610    -1.2420 H     1 <1>   0.0800 
 51 H        7.7170     7.3310     0.3910 H     1 <1>   0.0800 
 52 H        9.6730     5.9160    -1.4830 H     1 <1>   0.1500 
 53 H       11.3610     7.4360    -0.4200 H     1 <1>   0.1500 
 54 H       10.0950     8.1620     0.6030 H     1 <1>   0.1500 
@<TRIPOS>BOND
  1   1   2  ar  
  2   2   3  ar  
  3   2   4  1   
  4   4   5  1   
  5   4   6  1   
  6   4   7  1   
  7   5   8  1   
  8   5   9  1   
  9   5  28  1   
 10   6  10  1   
 11   6  29  1   
 12   6  30  1   
 13   7  11  1   
 14   7  31  1   
 15   7  32  1   
 16   8  33  1   
 17   9  12  1   
 18   9  34  1   
 19   9  35  1   
 20  10  12  1   
 21  10  36  1   
 22  10  37  1   
 23  11  13  ar  
 24  11  14  ar  
 25  12  15  1   
 26  12  38  1   
 27  13  16  ar  
 28  13  39  1   
 29  14  17  ar  
 30  14  40  1   
 31  15  18  1   
 32  15  41  1   
 33  15  42  1   
 34  16  19  ar  
 35  16  43  1   
 36  17  19  ar  
 37  17  44  1   
 38  18  20  2   
 39  18  21  1   
 40  19  45  1   
 41  20  22  1   
 42  20  23  1   
 43  21  24  2   
 44  21  46  1   
 45  22  24  1   
 46  22  25  1   
 47  23  47  1   
 48  23  48  1   
 49  23  49  1   
 50  25  26  1   
 51  25  50  1   
 52  25  51  1   
 53  26  27  2   
 54  26  52  1   
 55  27  53  1   
 56  27  54  1   
@<TRIPOS>SUBSTRUCTURE
  1 ****  10 GROUP 4 **** **** 0

# MOE 2024.06 (io_trps.svl 2023.06)
