@<TRIPOS>MOLECULE
NONAME
46 47 1 0 0 
SMALL
USER_CHARGES


@<TRIPOS>ATOM
  1 S        1.4840    -1.0950     2.0380 S.o2  1 <1>   1.4470 
  2 O        1.2400    -0.3480     3.2470 O.2   1 <1>  -0.6500 
  3 O        2.5980    -2.0140     1.9660 O.2   1 <1>  -0.6500 
  4 N        0.0960    -2.0100     1.8200 N.am  1 <1>  -0.9140 
  5 C        1.4440    -0.0100     0.5870 C.ar  1 <1>  -0.0090 
  6 C        0.2630    -3.1680     0.9500 C.3   1 <1>   0.2760 
  7 C        0.2710     0.6370     0.2220 C.ar  1 <1>  -0.1500 
  8 C        2.5720     0.1950    -0.2010 C.ar  1 <1>  -0.1500 
  9 C       -1.0890    -3.5750     0.3870 C.3   1 <1>  -0.0800 
 10 C        0.5870    -4.3990     1.7900 C.3   1 <1>   0.1200 
 11 C        0.2020     1.4440    -0.9000 C.ar  1 <1>   0.0830 
 12 C        2.5230     1.0070    -1.3220 C.ar  1 <1>  -0.1500 
 13 C       -1.6900    -4.4220     1.5180 C.3   1 <1>   0.1200 
 14 C       -1.9750    -2.4010    -0.0820 C.3   1 <1>  -0.0550 
 15 O       -0.6300    -4.7610     2.3680 O.3   1 <1>  -0.5600 
 16 O       -1.0010     2.0030    -1.1710 O.3   1 <1>  -0.3630 
 17 C        1.3410     1.6310    -1.6760 C.ar  1 <1>  -0.1500 
 18 S       -3.4990    -2.9370    -0.8520 S.o2  1 <1>   1.3330 
 19 C       -1.1920     2.8190    -2.3050 C.3   1 <1>   0.0400 
 20 O       -4.3910    -3.4440     0.1670 O.2   1 <1>  -0.6500 
 21 O       -3.1480    -3.7750    -1.9760 O.2   1 <1>  -0.6500 
 22 N       -4.1610    -1.4950    -1.4540 N.am  1 <1>  -0.8490 
 23 C       -4.7880    -0.6630    -0.4210 C.3   1 <1>   0.1160 
 24 C       -5.1120    -1.7410    -2.5410 C.3   1 <1>   0.1160 
 25 H       -0.1180    -2.3850     2.7470 H     1 <1>   0.4200 
 26 H        0.9850    -2.9840     0.1710 H     1 <1>   0.0800 
 27 H       -0.6140     0.5110     0.8200 H     1 <1>   0.1500 
 28 H        3.4980    -0.2890     0.0630 H     1 <1>   0.1500 
 29 H       -0.9180    -4.2280    -0.4520 H     1 <1>   0.0800 
 30 H        1.3160    -4.2140     2.5590 H     1 <1>   0.0800 
 31 H        0.9140    -5.2130     1.1670 H     1 <1>   0.0800 
 32 H        3.4080     1.1530    -1.9180 H     1 <1>   0.1500 
 33 H       -2.1450    -5.3250     1.1460 H     1 <1>   0.0800 
 34 H       -2.4080    -3.8680     2.0980 H     1 <1>   0.0800 
 35 H       -1.4200    -1.8170    -0.7910 H     1 <1>   0.0800 
 36 H       -2.2070    -1.7670     0.7510 H     1 <1>   0.0800 
 37 H        1.3250     2.2530    -2.5510 H     1 <1>   0.1500 
 38 H       -2.2180     3.1390    -2.3190 H     1 <1>   0.0800 
 39 H       -0.9770     2.2450    -3.1890 H     1 <1>   0.0800 
 40 H       -0.5440     3.6750    -2.2330 H     1 <1>   0.0800 
 41 H       -5.1270     0.2640    -0.8510 H     1 <1>   0.0800 
 42 H       -4.0780    -0.4330     0.3540 H     1 <1>   0.0800 
 43 H       -5.6280    -1.1760     0.0180 H     1 <1>   0.0800 
 44 H       -5.4960    -0.8100    -2.9200 H     1 <1>   0.0800 
 45 H       -5.9320    -2.3480    -2.1920 H     1 <1>   0.0800 
 46 H       -4.6210    -2.2560    -3.3500 H     1 <1>   0.0800 
@<TRIPOS>BOND
  1   1   2  2   
  2   1   3  2   
  3   1   4  am  
  4   1   5  1   
  5   4   6  1   
  6   4  25  1   
  7   5   7  ar  
  8   5   8  ar  
  9   6   9  1   
 10   6  10  1   
 11   6  26  1   
 12   7  11  ar  
 13   7  27  1   
 14   8  12  ar  
 15   8  28  1   
 16   9  13  1   
 17   9  14  1   
 18   9  29  1   
 19  10  15  1   
 20  10  30  1   
 21  10  31  1   
 22  11  16  1   
 23  11  17  ar  
 24  12  17  ar  
 25  12  32  1   
 26  13  15  1   
 27  13  33  1   
 28  13  34  1   
 29  14  18  1   
 30  14  35  1   
 31  14  36  1   
 32  16  19  1   
 33  17  37  1   
 34  18  20  2   
 35  18  21  2   
 36  18  22  am  
 37  19  38  1   
 38  19  39  1   
 39  19  40  1   
 40  22  23  1   
 41  22  24  1   
 42  23  41  1   
 43  23  42  1   
 44  23  43  1   
 45  24  44  1   
 46  24  45  1   
 47  24  46  1   
@<TRIPOS>SUBSTRUCTURE
  1 ****  14 GROUP 4 **** **** 0

# MOE 2024.06 (io_trps.svl 2023.06)
