@<TRIPOS>MOLECULE
NONAME
53 55 1 0 0 
SMALL
USER_CHARGES


@<TRIPOS>ATOM
  1 F       -0.2310    -1.1290     0.1090 F     1 <1>  -0.1900 
  2 C       -1.4600    -1.5420    -0.0450 C.ar  1 <1>   0.1900 
  3 C       -2.3630    -1.3420     0.9810 C.ar  1 <1>  -0.1500 
  4 C       -1.8120    -2.1630    -1.2270 C.ar  1 <1>  -0.1500 
  5 C       -3.6660    -1.7810     0.8120 C.ar  1 <1>  -0.1500 
  6 C       -3.1180    -2.5970    -1.3840 C.ar  1 <1>  -0.1500 
  7 C       -4.0470    -2.4070    -0.3690 C.ar  1 <1>  -0.1430 
  8 C       -5.4780    -2.8870    -0.5470 C.3   1 <1>  -0.0160 
  9 C       -5.6290    -4.3280    -0.0450 C.3   1 <1>  -0.1600 
 10 C       -7.0750    -4.8380    -0.1980 C.3   1 <1>  -0.0990 
 11 C       -7.2970    -6.2570     0.3150 C.2   1 <1>   0.5690 
 12 O       -6.3380    -6.9710     0.4980 O.2   1 <1>  -0.5700 
 13 N       -8.5670    -6.7190     0.5380 N.am  1 <1>  -0.6600 
 14 C       -8.7950    -8.0520     1.1700 C.3   1 <1>   0.1400 
 15 C       -9.8140    -6.1190    -0.0190 C.3   1 <1>   0.1400 
 16 C       -9.3160    -9.0310     0.0930 C.3   1 <1>   0.4230 
 17 C      -10.3840    -7.0780    -1.0760 C.3   1 <1>  -0.1600 
 18 N       -9.4850   -10.4470     0.5680 N.4   1 <1>  -0.9590 
 19 C      -10.6400    -8.5020    -0.5020 C.3   1 <1>  -0.1060 
 20 C       -9.8620   -11.3630    -0.5370 C.3   1 <1>   0.3430 
 21 C       -8.3670   -10.9790     1.3930 C.3   1 <1>   0.2630 
 22 C      -11.7000    -8.4540     0.6160 C.2   1 <1>   0.9060 
 23 C      -11.0970    -9.4300    -1.6520 C.3   1 <1>  -0.1600 
 24 C      -11.1620   -10.8980    -1.2000 C.3   1 <1>  -0.1600 
 25 O      -11.6570    -9.3030     1.5210 O.co2 1 <1>  -0.9000 
 26 O      -12.5550    -7.5700     0.6030 O.co2 1 <1>  -0.9000 
 27 H       -2.0520    -0.8560     1.8880 H     1 <1>   0.1500 
 28 H       -1.0810    -2.3020    -2.0020 H     1 <1>   0.1500 
 29 H       -4.3810    -1.6360     1.6030 H     1 <1>   0.1500 
 30 H       -3.4070    -3.0860    -2.2990 H     1 <1>   0.1500 
 31 H       -6.1430    -2.2390    -0.0030 H     1 <1>   0.0800 
 32 H       -5.7480    -2.8330    -1.5870 H     1 <1>   0.0800 
 33 H       -5.3430    -4.3770     0.9920 H     1 <1>   0.0800 
 34 H       -4.9620    -4.9680    -0.5980 H     1 <1>   0.0800 
 35 H       -7.3510    -4.8120    -1.2360 H     1 <1>   0.0800 
 36 H       -7.7270    -4.1800     0.3460 H     1 <1>   0.0800 
 37 H       -7.8750    -8.4120     1.5910 H     1 <1>   0.0800 
 38 H       -9.5090    -7.9460     1.9690 H     1 <1>   0.0800 
 39 H      -10.5280    -5.9740     0.7760 H     1 <1>   0.0800 
 40 H       -9.6270    -5.1610    -0.4690 H     1 <1>   0.0800 
 41 H       -8.5790    -9.0370    -0.6910 H     1 <1>   0.0800 
 42 H      -11.3090    -6.6680    -1.4460 H     1 <1>   0.0800 
 43 H       -9.6990    -7.1220    -1.9040 H     1 <1>   0.0800 
 44 H      -10.3460   -10.3470     1.1730 H     1 <1>   0.4500 
 45 H       -9.0730   -11.3860    -1.2710 H     1 <1>   0.0800 
 46 H      -10.0020   -12.3600    -0.1520 H     1 <1>   0.0800 
 47 H       -7.4500   -10.9750     0.8260 H     1 <1>   0.0800 
 48 H       -8.5850   -11.9870     1.7040 H     1 <1>   0.0800 
 49 H       -8.2350   -10.3740     2.2750 H     1 <1>   0.0800 
 50 H      -12.0700    -9.1190    -1.9960 H     1 <1>   0.0800 
 51 H      -10.4140    -9.3490    -2.4810 H     1 <1>   0.0800 
 52 H      -11.3700   -11.5240    -2.0480 H     1 <1>   0.0800 
 53 H      -11.9740   -11.0270    -0.5040 H     1 <1>   0.0800 
@<TRIPOS>BOND
  1   1   2  1   
  2   2   3  ar  
  3   2   4  ar  
  4   3   5  ar  
  5   3  27  1   
  6   4   6  ar  
  7   4  28  1   
  8   5   7  ar  
  9   5  29  1   
 10   6   7  ar  
 11   6  30  1   
 12   7   8  1   
 13   8   9  1   
 14   8  31  1   
 15   8  32  1   
 16   9  10  1   
 17   9  33  1   
 18   9  34  1   
 19  10  11  1   
 20  10  35  1   
 21  10  36  1   
 22  11  12  2   
 23  11  13  am  
 24  13  14  1   
 25  13  15  1   
 26  14  16  1   
 27  14  37  1   
 28  14  38  1   
 29  15  17  1   
 30  15  39  1   
 31  15  40  1   
 32  16  18  1   
 33  16  19  1   
 34  16  41  1   
 35  17  19  1   
 36  17  42  1   
 37  17  43  1   
 38  18  20  1   
 39  18  21  1   
 40  18  44  1   
 41  19  22  1   
 42  19  23  1   
 43  20  24  1   
 44  20  45  1   
 45  20  46  1   
 46  21  47  1   
 47  21  48  1   
 48  21  49  1   
 49  22  25  ar  
 50  22  26  ar  
 51  23  24  1   
 52  23  50  1   
 53  23  51  1   
 54  24  52  1   
 55  24  53  1   
@<TRIPOS>SUBSTRUCTURE
  1 ****  11 GROUP 4 **** **** 0

# MOE 2024.06 (io_trps.svl 2023.06)
