@<TRIPOS>MOLECULE
NONAME
41 43 1 0 0 
SMALL
USER_CHARGES


@<TRIPOS>ATOM
  1 CL      -0.6800    -0.8000     1.8490 Cl    1 <1>  -0.1770 
  2 C        0.1390    -2.2660     1.3660 C.ar  1 <1>   0.1770 
  3 C       -0.4650    -3.1070     0.4490 C.ar  1 <1>  -0.1500 
  4 C        1.3780    -2.5560     1.9060 C.ar  1 <1>  -0.1500 
  5 C        0.1770    -4.2730     0.0560 C.ar  1 <1>  -0.1440 
  6 C        2.0190    -3.7220     1.5240 C.ar  1 <1>  -0.1500 
  7 C        1.4130    -4.5780     0.6160 C.ar  1 <1>   0.0830 
  8 C       -0.4530    -5.1730    -0.9950 C.3   1 <1>   0.2540 
  9 O        2.0510    -5.7210     0.2980 O.3   1 <1>  -0.3630 
 10 N       -0.8180    -6.4870    -0.4280 N.3   1 <1>  -0.8100 
 11 C        1.4080    -6.9160     0.6910 C.3   1 <1>   0.1200 
 12 C        0.3700    -7.3700    -0.3460 C.3   1 <1>   0.1100 
 13 C       -1.8910    -7.1170    -1.2140 C.3   1 <1>   0.1100 
 14 C       -2.6990    -8.0500    -0.3180 C.3   1 <1>  -0.0550 
 15 S       -4.0140    -8.8270    -1.2380 S.o2  1 <1>   1.2040 
 16 O       -3.3910    -9.6920    -2.2160 O.2   1 <1>  -0.6500 
 17 O       -4.9130    -7.7820    -1.6780 O.2   1 <1>  -0.6500 
 18 C       -4.8120    -9.8230     0.0420 C.ar  1 <1>  -0.0090 
 19 C       -5.8040    -9.2850     0.8540 C.ar  1 <1>  -0.1500 
 20 C       -4.4280   -11.1400     0.2700 C.ar  1 <1>  -0.1500 
 21 C       -6.3900   -10.0310     1.8620 C.ar  1 <1>  -0.1500 
 22 C       -5.0090   -11.8930     1.2760 C.ar  1 <1>  -0.1500 
 23 C       -5.9900   -11.3370     2.0750 C.ar  1 <1>  -0.1500 
 24 H       -1.4260    -2.8400     0.0480 H     1 <1>   0.1500 
 25 H        1.8280    -1.8820     2.6120 H     1 <1>   0.1500 
 26 H        2.9820    -3.9760     1.9280 H     1 <1>   0.1500 
 27 H        0.2270    -5.2980    -1.8220 H     1 <1>   0.0800 
 28 H       -1.3330    -4.6800    -1.3700 H     1 <1>   0.0800 
 29 H        0.9460    -6.7680     1.6520 H     1 <1>   0.0800 
 30 H        2.1720    -7.6650     0.7850 H     1 <1>   0.0800 
 31 H        0.8440    -7.4520    -1.3100 H     1 <1>   0.0800 
 32 H        0.0540    -8.3560    -0.0590 H     1 <1>   0.0800 
 33 H       -1.4810    -7.6520    -2.0560 H     1 <1>   0.0800 
 34 H       -2.5650    -6.3660    -1.5940 H     1 <1>   0.0800 
 35 H       -3.1110    -7.4760     0.4890 H     1 <1>   0.0800 
 36 H       -2.0590    -8.8060     0.0900 H     1 <1>   0.0800 
 37 H       -6.1270    -8.2690     0.6950 H     1 <1>   0.1500 
 38 H       -3.6670   -11.5860    -0.3490 H     1 <1>   0.1500 
 39 H       -7.1580    -9.5960     2.4790 H     1 <1>   0.1500 
 40 H       -4.6990   -12.9120     1.4350 H     1 <1>   0.1500 
 41 H       -6.4450   -11.9210     2.8570 H     1 <1>   0.1500 
@<TRIPOS>BOND
  1   1   2  1   
  2   2   3  ar  
  3   2   4  ar  
  4   3   5  ar  
  5   3  24  1   
  6   4   6  ar  
  7   4  25  1   
  8   5   7  ar  
  9   5   8  1   
 10   6   7  ar  
 11   6  26  1   
 12   7   9  1   
 13   8  10  1   
 14   8  27  1   
 15   8  28  1   
 16   9  11  1   
 17  10  12  1   
 18  10  13  1   
 19  11  12  1   
 20  11  29  1   
 21  11  30  1   
 22  12  31  1   
 23  12  32  1   
 24  13  14  1   
 25  13  33  1   
 26  13  34  1   
 27  14  15  1   
 28  14  35  1   
 29  14  36  1   
 30  15  16  2   
 31  15  17  2   
 32  15  18  1   
 33  18  19  ar  
 34  18  20  ar  
 35  19  21  ar  
 36  19  37  1   
 37  20  22  ar  
 38  20  38  1   
 39  21  23  ar  
 40  21  39  1   
 41  22  23  ar  
 42  22  40  1   
 43  23  41  1   
@<TRIPOS>SUBSTRUCTURE
  1 ****  10 GROUP 4 **** **** 0

# MOE 2024.06 (io_trps.svl 2023.06)
