@<TRIPOS>MOLECULE
NONAME
47 49 1 0 0 
SMALL
USER_CHARGES


@<TRIPOS>ATOM
  1 O        3.3350    -2.2420    -0.0360 O.2   1 <1>  -0.5700 
  2 C        2.2380    -2.7760    -0.0190 C.2   1 <1>   0.5440 
  3 N        1.3740    -2.4390     1.0060 N.am  1 <1>  -0.6600 
  4 C        1.8770    -3.7050    -1.0870 C.ar  1 <1>   0.3960 
  5 C        1.7350    -1.5020     2.0910 C.3   1 <1>   0.1400 
  6 C       -0.0610    -2.8050     1.0770 C.3   1 <1>   0.1400 
  7 N        1.1610    -4.8100    -0.8170 N.ar  1 <1>  -0.6200 
  8 C        2.2850    -3.4000    -2.3890 C.ar  1 <1>   0.1600 
  9 C        0.5140    -1.4740     3.0050 C.3   1 <1>  -0.1600 
 10 C       -0.6570    -1.8470     2.0990 C.3   1 <1>  -0.1600 
 11 C        0.8350    -5.4950    -1.8870 C.ar  1 <1>   0.4100 
 12 N        1.9930    -4.1070    -3.4760 N.ar  1 <1>  -0.6200 
 13 N        0.0300    -6.5600    -1.6080 N.pl3 1 <1>  -0.8690 
 14 C        1.2530    -5.1570    -3.1820 C.ar  1 <1>   0.1600 
 15 C       -1.4180    -6.3120    -1.7470 C.3   1 <1>   0.4690 
 16 C       -2.0090    -5.7290    -0.4620 C.2   1 <1>   0.0070 
 17 C       -2.0950    -7.6150    -2.1580 C.3   1 <1>  -0.2400 
 18 N       -2.7300    -4.6580    -0.4590 N.2   1 <1>  -0.3380 
 19 N       -1.8680    -6.2210     0.7810 N.pl3 1 <1>   0.0480 
 20 N       -3.0880    -4.4210     0.8020 N.2   1 <1>  -0.3380 
 21 C       -2.5710    -5.3570     1.5150 C.2   1 <1>   0.0360 
 22 C       -1.1370    -7.3970     1.3050 C.3   1 <1>   0.0960 
 23 C        0.1420    -6.9600     2.0330 C.3   1 <1>  -0.1600 
 24 C        0.9400    -8.1720     2.5230 C.3   1 <1>  -0.2400 
 25 H        1.9160    -0.5290     1.6670 H     1 <1>   0.0800 
 26 H        2.6170    -1.8400     2.6090 H     1 <1>   0.0800 
 27 H       -0.1470    -3.8200     1.4230 H     1 <1>   0.0800 
 28 H       -0.5450    -2.7100     0.1190 H     1 <1>   0.0800 
 29 H        2.8810    -2.5150    -2.5320 H     1 <1>   0.1500 
 30 H        0.3850    -0.5130     3.4690 H     1 <1>   0.0800 
 31 H        0.6350    -2.2200     3.7700 H     1 <1>   0.0800 
 32 H       -1.4730    -2.2970     2.6350 H     1 <1>   0.0800 
 33 H       -1.0180    -0.9730     1.5850 H     1 <1>   0.0800 
 34 H        0.2130    -6.8360    -0.6450 H     1 <1>   0.4000 
 35 H        0.9480    -5.7990    -3.9870 H     1 <1>   0.1500 
 36 H       -1.5760    -5.5920    -2.5350 H     1 <1>   0.0800 
 37 H       -1.9570    -8.3800    -1.4200 H     1 <1>   0.0800 
 38 H       -1.6960    -7.9510    -3.0970 H     1 <1>   0.0800 
 39 H       -3.1500    -7.4430    -2.2790 H     1 <1>   0.0800 
 40 H       -2.6810    -5.4440     2.5810 H     1 <1>   0.1500 
 41 H       -0.8900    -8.0590     0.4970 H     1 <1>   0.0800 
 42 H       -1.7820    -7.9250     1.9840 H     1 <1>   0.0800 
 43 H       -0.1140    -6.3450     2.8790 H     1 <1>   0.0800 
 44 H        0.7630    -6.3800     1.3730 H     1 <1>   0.0800 
 45 H        0.3560    -8.7620     3.2080 H     1 <1>   0.0800 
 46 H        1.8290    -7.8420     3.0330 H     1 <1>   0.0800 
 47 H        1.2370    -8.7920     1.6950 H     1 <1>   0.0800 
@<TRIPOS>BOND
  1   1   2  2   
  2   2   3  am  
  3   2   4  1   
  4   3   5  1   
  5   3   6  1   
  6   4   7  ar  
  7   4   8  ar  
  8   5   9  1   
  9   5  25  1   
 10   5  26  1   
 11   6  10  1   
 12   6  27  1   
 13   6  28  1   
 14   7  11  ar  
 15   8  12  ar  
 16   8  29  1   
 17   9  10  1   
 18   9  30  1   
 19   9  31  1   
 20  10  32  1   
 21  10  33  1   
 22  11  13  1   
 23  11  14  ar  
 24  12  14  ar  
 25  13  15  1   
 26  13  34  1   
 27  14  35  1   
 28  15  16  1   
 29  15  17  1   
 30  15  36  1   
 31  16  18  2   
 32  16  19  1   
 33  17  37  1   
 34  17  38  1   
 35  17  39  1   
 36  18  20  1   
 37  19  21  1   
 38  19  22  1   
 39  20  21  2   
 40  21  40  1   
 41  22  23  1   
 42  22  41  1   
 43  22  42  1   
 44  23  24  1   
 45  23  43  1   
 46  23  44  1   
 47  24  45  1   
 48  24  46  1   
 49  24  47  1   
@<TRIPOS>SUBSTRUCTURE
  1 ****   7 GROUP 4 **** **** 0

# MOE 2024.06 (io_trps.svl 2023.06)
