@<TRIPOS>MOLECULE
NONAME
51 54 1 0 0 
SMALL
USER_CHARGES


@<TRIPOS>ATOM
  1 O        0.2060     0.5610    -0.3260 O.2   1 <1>  -0.5700 
  2 C       -0.3520     1.5060     0.1820 C.2   1 <1>   0.5690 
  3 N       -1.7230     1.6030     0.1580 N.am  1 <1>  -0.6600 
  4 C        0.4830     2.5990     0.8510 C.3   1 <1>   0.0440 
  5 C       -2.5310     2.7210     0.7420 C.3   1 <1>   0.1400 
  6 C       -2.5270     0.5070    -0.4700 C.3   1 <1>   0.1400 
  7 C        2.0000     2.4360     0.7700 C.ar  1 <1>  -0.1440 
  8 C       -3.4190     3.3910    -0.3310 C.3   1 <1>   0.1440 
  9 C       -3.9820     0.9260    -0.7430 C.3   1 <1>  -0.1600 
 10 C        2.6420     2.4550    -0.4600 C.ar  1 <1>  -0.1500 
 11 C        2.7570     2.2850     1.9230 C.ar  1 <1>  -0.1500 
 12 C       -4.4650     4.2120     0.4060 C.ar  1 <1>   0.1660 
 13 C       -4.0460     2.3550    -1.3030 C.3   1 <1>  -0.1600 
 14 C       -2.6420     4.4860    -1.1100 C.3   1 <1>  -0.1600 
 15 C        4.0180     2.3300    -0.5410 C.ar  1 <1>  -0.1500 
 16 C        4.1320     2.1600     1.8450 C.ar  1 <1>  -0.1500 
 17 N       -5.5130     3.7260     1.0350 N.ar  1 <1>  -0.6200 
 18 C       -4.1820     5.5440     0.3630 C.ar  1 <1>  -0.1440 
 19 C       -2.9140     5.8250    -0.4030 C.3   1 <1>  -0.0170 
 20 C        4.7730     2.1820     0.6180 C.ar  1 <1>   0.0820 
 21 C       -6.2800     4.6410     1.6110 C.ar  1 <1>   0.4770 
 22 C       -5.0440     6.4040     0.9970 C.ar  1 <1>   0.1600 
 23 O        6.1240     2.0540     0.6290 O.3   1 <1>  -0.3630 
 24 N       -6.1080     5.9560     1.6300 N.ar  1 <1>  -0.6200 
 25 C       -7.5020     4.1260     2.3320 C.3   1 <1>  -0.0970 
 26 C        6.8590     1.9880    -0.5720 C.3   1 <1>   0.0400 
 27 H        0.1910     2.6460     1.8830 H     1 <1>   0.0800 
 28 H        0.2340     3.5370     0.3950 H     1 <1>   0.0800 
 29 H       -1.9120     3.4600     1.2150 H     1 <1>   0.0800 
 30 H       -3.1630     2.3050     1.5090 H     1 <1>   0.0800 
 31 H       -2.5070    -0.3590     0.1700 H     1 <1>   0.0800 
 32 H       -2.0610     0.2350    -1.4030 H     1 <1>   0.0800 
 33 H       -4.5520     0.8660     0.1680 H     1 <1>   0.0800 
 34 H       -4.4220     0.2370    -1.4420 H     1 <1>   0.0800 
 35 H        2.0660     2.5590    -1.3630 H     1 <1>   0.1500 
 36 H        2.2830     2.2610     2.8890 H     1 <1>   0.1500 
 37 H       -3.5080     2.3570    -2.2340 H     1 <1>   0.0800 
 38 H       -5.0670     2.6200    -1.5180 H     1 <1>   0.0800 
 39 H       -3.0370     4.5640    -2.1080 H     1 <1>   0.0800 
 40 H       -1.5910     4.2700    -1.1820 H     1 <1>   0.0800 
 41 H        4.4780     2.3450    -1.5100 H     1 <1>   0.1500 
 42 H        4.7200     2.0420     2.7380 H     1 <1>   0.1500 
 43 H       -3.0430     6.6270    -1.1090 H     1 <1>   0.0800 
 44 H       -2.1200     6.0660     0.2840 H     1 <1>   0.0800 
 45 H       -4.8650     7.4650     0.9880 H     1 <1>   0.1500 
 46 H       -7.3750     3.0910     2.5900 H     1 <1>   0.0800 
 47 H       -8.3580     4.2280     1.6930 H     1 <1>   0.0800 
 48 H       -7.6620     4.6930     3.2300 H     1 <1>   0.0800 
 49 H        7.8970     1.8590    -0.3210 H     1 <1>   0.0800 
 50 H        6.7250     2.9080    -1.1130 H     1 <1>   0.0800 
 51 H        6.5140     1.1470    -1.1460 H     1 <1>   0.0800 
@<TRIPOS>BOND
  1   1   2  2   
  2   2   3  am  
  3   2   4  1   
  4   3   5  1   
  5   3   6  1   
  6   4   7  1   
  7   4  27  1   
  8   4  28  1   
  9   5   8  1   
 10   5  29  1   
 11   5  30  1   
 12   6   9  1   
 13   6  31  1   
 14   6  32  1   
 15   7  10  ar  
 16   7  11  ar  
 17   8  12  1   
 18   8  13  1   
 19   8  14  1   
 20   9  13  1   
 21   9  33  1   
 22   9  34  1   
 23  10  15  ar  
 24  10  35  1   
 25  11  16  ar  
 26  11  36  1   
 27  12  17  ar  
 28  12  18  ar  
 29  13  37  1   
 30  13  38  1   
 31  14  19  1   
 32  14  39  1   
 33  14  40  1   
 34  15  20  ar  
 35  15  41  1   
 36  16  20  ar  
 37  16  42  1   
 38  17  21  ar  
 39  18  19  1   
 40  18  22  ar  
 41  19  43  1   
 42  19  44  1   
 43  20  23  1   
 44  21  24  ar  
 45  21  25  1   
 46  22  24  ar  
 47  22  45  1   
 48  23  26  1   
 49  25  46  1   
 50  25  47  1   
 51  25  48  1   
 52  26  49  1   
 53  26  50  1   
 54  26  51  1   
@<TRIPOS>SUBSTRUCTURE
  1 ****   5 GROUP 4 **** **** 0

# MOE 2024.06 (io_trps.svl 2023.06)
