@<TRIPOS>MOLECULE
Untitled Document
41 43 1 0 0 
SMALL
USER_CHARGES


@<TRIPOS>ATOM
  1 CL       0.8860    -0.0780    -1.8600 Cl    1 <1>  -0.1770 
  2 C        0.4820    -1.5560    -1.0110 C.ar  1 <1>   0.1770 
  3 C        1.4250    -2.1250    -0.1490 C.ar  1 <1>   0.1170 
  4 C       -0.7540    -2.1190    -1.2110 C.ar  1 <1>  -0.0610 
  5 N        2.7010    -1.5650     0.0000 N.am  1 <1>  -0.5470 
  6 C        1.0080    -3.2820     0.5260 C.ar  1 <1>   0.1770 
  7 N       -1.0990    -3.2580    -0.5570 N.ar  1 <1>   0.5710 
  8 C        3.8900    -2.1670    -0.3300 C.2   1 <1>   0.5440 
  9 CL       2.0570    -4.0390     1.7080 Cl    1 <1>  -0.1770 
 10 C       -0.2300    -3.8350     0.3130 C.ar  1 <1>  -0.0600 
 11 O       -2.2430    -3.7620    -0.7350 O.2   1 <1>  -0.7500 
 12 O        3.8610    -3.2820    -0.8120 O.2   1 <1>  -0.5700 
 13 C        5.1520    -1.4870    -0.1150 C.ar  1 <1>   0.0860 
 14 C        6.2960    -2.2150     0.2100 C.ar  1 <1>  -0.1500 
 15 C        5.2800    -0.1000    -0.2170 C.ar  1 <1>  -0.1500 
 16 C        7.5230    -1.6010     0.4300 C.ar  1 <1>   0.0830 
 17 C        6.4920     0.5250     0.0040 C.ar  1 <1>  -0.1500 
 18 O        8.6160    -2.3320     0.7720 O.3   1 <1>  -0.3630 
 19 C        7.6230    -0.2080     0.3210 C.ar  1 <1>   0.0830 
 20 C        8.7770    -3.6480     0.2880 C.3   1 <1>   0.2150 
 21 O        8.7600     0.5120     0.5040 O.3   1 <1>  -0.3630 
 22 C       10.2520    -4.0210     0.4420 C.3   1 <1>  -0.1950 
 23 C       10.0230    -0.0040     0.1400 C.3   1 <1>   0.8800 
 24 C       11.2800    -3.5360    -0.5310 C.3   1 <1>  -0.2000 
 25 C       10.8980    -4.9890    -0.4970 C.3   1 <1>  -0.2000 
 26 F       10.9230     0.9420     0.3730 F     1 <1>  -0.3400 
 27 F       10.0390    -0.1970    -1.1750 F     1 <1>  -0.3400 
 28 H       -1.4850    -1.6980    -1.8740 H     1 <1>   0.1500 
 29 H        2.7490    -0.5710     0.2290 H     1 <1>   0.3700 
 30 H       -0.5630    -4.7220     0.8160 H     1 <1>   0.1500 
 31 H        6.1940    -3.2810     0.3000 H     1 <1>   0.1500 
 32 H        4.4300     0.5030    -0.4830 H     1 <1>   0.1500 
 33 H        6.5730     1.5960    -0.0770 H     1 <1>   0.1500 
 34 H        8.4870    -3.6690    -0.7490 H     1 <1>   0.0800 
 35 H        8.1520    -4.3090     0.8620 H     1 <1>   0.0800 
 36 H       10.5390    -4.0970     1.4770 H     1 <1>   0.1000 
 37 H       10.3020    -0.9010     0.6610 H     1 <1>   0.0800 
 38 H       12.2500    -3.2490    -0.1630 H     1 <1>   0.1000 
 39 H       10.9690    -2.9450    -1.3760 H     1 <1>   0.1000 
 40 H       10.3320    -5.3880    -1.3230 H     1 <1>   0.1000 
 41 H       11.6080    -5.6990    -0.1060 H     1 <1>   0.1000 
@<TRIPOS>BOND
  1   1   2  1   
  2   2   3  ar  
  3   2   4  ar  
  4   3   5  1   
  5   3   6  ar  
  6   4   7  ar  
  7   4  28  1   
  8   5   8  am  
  9   5  29  1   
 10   6   9  1   
 11   6  10  ar  
 12   7  10  ar  
 13   7  11  2   
 14   8  12  2   
 15   8  13  1   
 16  10  30  1   
 17  13  14  ar  
 18  13  15  ar  
 19  14  16  ar  
 20  14  31  1   
 21  15  17  ar  
 22  15  32  1   
 23  16  18  1   
 24  16  19  ar  
 25  17  19  ar  
 26  17  33  1   
 27  18  20  1   
 28  19  21  1   
 29  20  22  1   
 30  20  34  1   
 31  20  35  1   
 32  21  23  1   
 33  22  24  1   
 34  22  25  1   
 35  22  36  1   
 36  23  26  1   
 37  23  27  1   
 38  23  37  1   
 39  24  25  1   
 40  24  38  1   
 41  24  39  1   
 42  25  40  1   
 43  25  41  1   
@<TRIPOS>SUBSTRUCTURE
  1 ****  13 GROUP 4 **** **** 0

# MOE 2024.06 (io_trps.svl 2023.06)
