@<TRIPOS>MOLECULE
NONAME
50 52 1 0 0 
SMALL
USER_CHARGES


@<TRIPOS>ATOM
  1 S        1.3210    -0.0280    -1.3380 S.3   1 <1>  -0.0800 
  2 C        1.8500    -0.1980     0.3210 C.2   1 <1>   0.1980 
  3 C       -0.3060    -0.3740    -0.8270 C.2   1 <1>  -0.1400 
  4 N        0.9220    -0.4740     1.1420 N.2   1 <1>  -0.5650 
  5 C        3.3190     0.0080     0.6140 C.3   1 <1>   0.0200 
  6 C       -0.3020    -0.5780     0.5030 C.2   1 <1>   0.0460 
  7 C       -1.3720    -0.3870    -1.9050 C.3   1 <1>  -0.0600 
  8 C        3.6310     1.5060     0.7330 C.3   1 <1>  -0.1600 
  9 C       -1.4830    -0.9100     1.3880 C.3   1 <1>  -0.0590 
 10 C        5.1220     1.7600     0.9450 C.3   1 <1>   0.2090 
 11 N        5.3380     3.2140     1.1210 N.pl3 1 <1>  -0.8690 
 12 C        5.4750     4.2240     0.2580 C.ar  1 <1>   0.7710 
 13 N        5.6680     5.4150     0.7840 N.ar  1 <1>  -0.6200 
 14 N        5.4060     4.0080    -1.0660 N.ar  1 <1>  -0.1790 
 15 C        5.8120     6.4400    -0.0360 C.ar  1 <1>   0.4100 
 16 C        5.5260     5.0340    -1.9430 C.ar  1 <1>   0.2110 
 17 N        6.0390     7.6610     0.5140 N.pl3 1 <1>  -0.8380 
 18 C        5.7290     6.2720    -1.4340 C.ar  1 <1>  -0.1500 
 19 C        6.8390     8.7530    -0.1340 C.3   1 <1>   0.2090 
 20 C        5.5890     8.0200     1.8950 C.3   1 <1>   0.2090 
 21 C        6.0140    10.0490    -0.2070 C.3   1 <1>   0.2000 
 22 C        4.7490     9.3040     1.8440 C.3   1 <1>  -0.1600 
 23 O        6.7960    11.0720    -0.7120 O.3   1 <1>  -0.6800 
 24 C        5.4990    10.4690     1.1740 C.3   1 <1>  -0.1600 
 25 H        3.8980    -0.4480    -0.1690 H     1 <1>   0.0800 
 26 H        3.5540    -0.4900     1.5400 H     1 <1>   0.0800 
 27 H       -1.1330    -1.1300    -2.6450 H     1 <1>   0.0800 
 28 H       -1.4210     0.5760    -2.3820 H     1 <1>   0.0800 
 29 H       -2.3350    -0.6140    -1.4880 H     1 <1>   0.0800 
 30 H        3.0780     1.8990     1.5700 H     1 <1>   0.0800 
 31 H        3.2940     2.0050    -0.1570 H     1 <1>   0.0800 
 32 H       -2.3900    -0.9720     0.8180 H     1 <1>   0.0800 
 33 H       -1.5950    -0.1490     2.1390 H     1 <1>   0.0800 
 34 H       -1.3120    -1.8530     1.8750 H     1 <1>   0.0800 
 35 H        5.6940     1.3910     0.1100 H     1 <1>   0.0800 
 36 H        5.4580     1.2450     1.8320 H     1 <1>   0.0800 
 37 H        5.3740     3.5120     2.1040 H     1 <1>   0.4000 
 38 H        5.2420     3.0500    -1.3530 H     1 <1>   0.4570 
 39 H        5.4520     4.8390    -3.0010 H     1 <1>   0.1500 
 40 H        5.8130     7.1300    -2.0740 H     1 <1>   0.1500 
 41 H        7.1590     8.4730    -1.1200 H     1 <1>   0.0800 
 42 H        7.7180     8.9270     0.4620 H     1 <1>   0.0800 
 43 H        6.4520     8.1670     2.5220 H     1 <1>   0.0800 
 44 H        4.9950     7.2320     2.3250 H     1 <1>   0.0800 
 45 H        5.1910     9.9070    -0.8870 H     1 <1>   0.0800 
 46 H        4.4730     9.5840     2.8450 H     1 <1>   0.0800 
 47 H        3.8420     9.0990     1.3030 H     1 <1>   0.0800 
 48 H        7.4150    11.3980    -0.0320 H     1 <1>   0.4000 
 49 H        4.8350    11.3110     1.0710 H     1 <1>   0.0800 
 50 H        6.3260    10.7530     1.8010 H     1 <1>   0.0800 
@<TRIPOS>BOND
  1   1   2  1   
  2   1   3  1   
  3   2   4  2   
  4   2   5  1   
  5   3   6  2   
  6   3   7  1   
  7   4   6  1   
  8   5   8  1   
  9   5  25  1   
 10   5  26  1   
 11   6   9  1   
 12   7  27  1   
 13   7  28  1   
 14   7  29  1   
 15   8  10  1   
 16   8  30  1   
 17   8  31  1   
 18   9  32  1   
 19   9  33  1   
 20   9  34  1   
 21  10  11  1   
 22  10  35  1   
 23  10  36  1   
 24  11  12  1   
 25  11  37  1   
 26  12  13  ar  
 27  12  14  ar  
 28  13  15  ar  
 29  14  16  ar  
 30  14  38  1   
 31  15  17  1   
 32  15  18  ar  
 33  16  18  ar  
 34  16  39  1   
 35  17  19  1   
 36  17  20  1   
 37  18  40  1   
 38  19  21  1   
 39  19  41  1   
 40  19  42  1   
 41  20  22  1   
 42  20  43  1   
 43  20  44  1   
 44  21  23  1   
 45  21  24  1   
 46  21  45  1   
 47  22  24  1   
 48  22  46  1   
 49  22  47  1   
 50  23  48  1   
 51  24  49  1   
 52  24  50  1   
@<TRIPOS>SUBSTRUCTURE
  1 ****  12 GROUP 4 **** **** 0

# MOE 2024.06 (io_trps.svl 2023.06)
