@<TRIPOS>MOLECULE
NONAME
56 59 1 0 0 
SMALL
USER_CHARGES


@<TRIPOS>ATOM
  1 S        1.1300    -0.3640    -0.7390 S.o2  1 <1>   1.0900 
  2 O        1.5950     0.0800    -2.0330 O.2   1 <1>  -0.6500 
  3 O        0.3780    -1.5910    -0.6230 O.2   1 <1>  -0.6500 
  4 C        0.1220     0.9410    -0.0580 C.3   1 <1>  -0.0550 
  5 C        2.5090    -0.4460     0.3980 C.3   1 <1>  -0.0550 
  6 C        0.9220     2.2320     0.1290 C.3   1 <1>   0.1400 
  7 C        2.4940     0.7090     1.3970 C.3   1 <1>   0.1400 
  8 N        2.3100     1.9900     0.6500 N.am  1 <1>  -0.6600 
  9 C        3.4400     2.7010     0.2730 C.2   1 <1>   0.5690 
 10 O        4.5310     2.2180     0.4820 O.2   1 <1>  -0.5700 
 11 C        3.4170     4.0610    -0.4730 C.3   1 <1>   0.0610 
 12 C        4.6620     4.9250    -0.1070 C.3   1 <1>   0.2200 
 13 C        2.2780     5.0440    -0.0480 C.3   1 <1>  -0.1600 
 14 C        3.3950     3.7180    -1.9990 C.3   1 <1>  -0.1600 
 15 N        4.1870     6.2680    -0.4380 N.am  1 <1>  -0.6600 
 16 C        4.8260     5.1130     1.4170 C.3   1 <1>  -0.1600 
 17 C        3.0140     6.3130     0.4100 C.3   1 <1>   0.2200 
 18 C        3.4600     4.8680    -3.0200 C.3   1 <1>  -0.2400 
 19 C        4.9560     7.3180    -0.8730 C.2   1 <1>   0.7160 
 20 C        3.6570     6.0480     1.7760 C.3   1 <1>  -0.1600 
 21 O        6.1390     7.1260    -1.0830 O.2   1 <1>  -0.5700 
 22 C        4.3780     8.6260    -1.0740 C.2   1 <1>  -0.0860 
 23 C        4.8920     9.8580    -0.8030 C.2   1 <1>  -0.0400 
 24 C        3.1090     8.9020    -1.6270 C.2   1 <1>  -0.1500 
 25 O        4.0480    10.8060    -1.1310 O.3   1 <1>  -0.2800 
 26 C        6.2250    10.2650    -0.2090 C.3   1 <1>  -0.0600 
 27 C        2.9720    10.2420    -1.6300 C.2   1 <1>  -0.0400 
 28 C        1.8420    11.1300    -2.1000 C.3   1 <1>  -0.0600 
 29 H       -0.7110     1.1320    -0.7050 H     1 <1>   0.0800 
 30 H       -0.2760     0.6340     0.8900 H     1 <1>   0.0800 
 31 H        2.4840    -1.3730     0.9370 H     1 <1>   0.0800 
 32 H        3.4310    -0.4160    -0.1520 H     1 <1>   0.0800 
 33 H        0.3910     2.8710     0.8120 H     1 <1>   0.0800 
 34 H        0.9760     2.7290    -0.8220 H     1 <1>   0.0800 
 35 H        3.4180     0.7180     1.9530 H     1 <1>   0.0800 
 36 H        1.6970     0.5850     2.1090 H     1 <1>   0.0800 
 37 H        5.5690     4.6410    -0.6160 H     1 <1>   0.0800 
 38 H        1.6890     4.6770     0.7690 H     1 <1>   0.0800 
 39 H        1.6220     5.2730    -0.8660 H     1 <1>   0.0800 
 40 H        4.2320     3.0700    -2.2000 H     1 <1>   0.0800 
 41 H        2.5170     3.1410    -2.2200 H     1 <1>   0.0800 
 42 H        4.8040     4.1960     1.9760 H     1 <1>   0.0800 
 43 H        5.7660     5.5990     1.6090 H     1 <1>   0.0800 
 44 H        2.4410     7.2220     0.3550 H     1 <1>   0.0800 
 45 H        4.4100     5.3700    -2.9660 H     1 <1>   0.0800 
 46 H        2.6760     5.5850    -2.8620 H     1 <1>   0.0800 
 47 H        3.3580     4.4720    -4.0150 H     1 <1>   0.0800 
 48 H        4.0250     6.9690     2.1950 H     1 <1>   0.0800 
 49 H        2.9690     5.5980     2.4680 H     1 <1>   0.0800 
 50 H        2.4190     8.1570    -1.9760 H     1 <1>   0.1500 
 51 H        6.8110     9.4010     0.0410 H     1 <1>   0.0800 
 52 H        6.0620    10.8460     0.6810 H     1 <1>   0.0800 
 53 H        6.7690    10.8600    -0.9190 H     1 <1>   0.0800 
 54 H        1.0350    10.5350    -2.4870 H     1 <1>   0.0800 
 55 H        2.1960    11.7860    -2.8730 H     1 <1>   0.0800 
 56 H        1.4810    11.7210    -1.2780 H     1 <1>   0.0800 
@<TRIPOS>BOND
  1   1   2  2   
  2   1   3  2   
  3   1   4  1   
  4   1   5  1   
  5   4   6  1   
  6   4  29  1   
  7   4  30  1   
  8   5   7  1   
  9   5  31  1   
 10   5  32  1   
 11   6   8  1   
 12   6  33  1   
 13   6  34  1   
 14   7   8  1   
 15   7  35  1   
 16   7  36  1   
 17   8   9  am  
 18   9  10  2   
 19   9  11  1   
 20  11  12  1   
 21  11  13  1   
 22  11  14  1   
 23  12  15  1   
 24  12  16  1   
 25  12  37  1   
 26  13  17  1   
 27  13  38  1   
 28  13  39  1   
 29  14  18  1   
 30  14  40  1   
 31  14  41  1   
 32  15  17  1   
 33  15  19  am  
 34  16  20  1   
 35  16  42  1   
 36  16  43  1   
 37  17  20  1   
 38  17  44  1   
 39  18  45  1   
 40  18  46  1   
 41  18  47  1   
 42  19  21  2   
 43  19  22  1   
 44  20  48  1   
 45  20  49  1   
 46  22  23  2   
 47  22  24  1   
 48  23  25  1   
 49  23  26  1   
 50  24  27  2   
 51  24  50  1   
 52  25  27  1   
 53  26  51  1   
 54  26  52  1   
 55  26  53  1   
 56  27  28  1   
 57  28  54  1   
 58  28  55  1   
 59  28  56  1   
@<TRIPOS>SUBSTRUCTURE
  1 ****  11 GROUP 4 **** **** 0

# MOE 2024.06 (io_trps.svl 2023.06)
