@<TRIPOS>MOLECULE
NONAME
47 48 1 0 0 
SMALL
USER_CHARGES


@<TRIPOS>ATOM
  1 O       -2.8510     1.0410    -2.3110 O.2   1 <1>  -0.5700 
  2 C       -2.4780     1.1400    -1.1690 C.2   1 <1>   0.5690 
  3 N       -2.3690     0.0650    -0.3540 N.am  1 <1>  -0.7300 
  4 C       -2.1220     2.5060    -0.6170 C.3   1 <1>  -0.0990 
  5 C       -2.6480    -1.3310    -0.7560 C.3   1 <1>   0.2200 
  6 C       -0.6050     2.6840    -0.4470 C.3   1 <1>  -0.1600 
  7 C       -3.9380    -1.7920    -0.1010 C.3   1 <1>  -0.0800 
  8 C       -1.6240    -2.2610    -0.1170 C.3   1 <1>   0.1200 
  9 C       -0.2650     4.0810     0.0990 C.3   1 <1>  -0.1600 
 10 C       -3.4560    -2.2390     1.2830 C.3   1 <1>   0.1200 
 11 C       -4.5920    -2.9410    -0.8920 C.3   1 <1>  -0.0160 
 12 O       -2.0900    -2.5230     1.1740 O.3   1 <1>  -0.5600 
 13 C        1.2320     4.2680     0.4060 C.3   1 <1>  -0.0800 
 14 C       -5.8980    -3.3860    -0.2510 C.ar  1 <1>  -0.1440 
 15 C        1.4540     5.6250     1.0840 C.3   1 <1>  -0.2400 
 16 C        2.0990     4.1830    -0.8580 C.3   1 <1>  -0.2400 
 17 C       -6.0020    -4.5620     0.4650 C.ar  1 <1>  -0.1500 
 18 C       -7.0500    -2.6320    -0.3550 C.ar  1 <1>  -0.1500 
 19 C       -7.2170    -4.9140     1.0300 C.ar  1 <1>   0.1600 
 20 C       -8.2150    -3.0750     0.2490 C.ar  1 <1>   0.1600 
 21 N       -8.3260    -4.1970     0.9410 N.ar  1 <1>  -0.6200 
 22 H       -2.0480     0.1730     0.6100 H     1 <1>   0.3700 
 23 H       -2.4970     3.2530    -1.2930 H     1 <1>   0.0800 
 24 H       -2.6190     2.6360     0.3270 H     1 <1>   0.0800 
 25 H       -2.6610    -1.4160    -1.8310 H     1 <1>   0.0800 
 26 H       -0.2270     1.9340     0.2270 H     1 <1>   0.0800 
 27 H       -0.1360     2.5390    -1.4050 H     1 <1>   0.0800 
 28 H       -4.6430    -0.9830    -0.0230 H     1 <1>   0.0800 
 29 H       -0.6410    -1.8260    -0.0660 H     1 <1>   0.0800 
 30 H       -1.5800    -3.1980    -0.6430 H     1 <1>   0.0800 
 31 H       -0.8220     4.2380     1.0070 H     1 <1>   0.0800 
 32 H       -0.5820     4.8270    -0.6100 H     1 <1>   0.0800 
 33 H       -3.9670    -3.1120     1.6490 H     1 <1>   0.0800 
 34 H       -3.5630    -1.4400     1.9970 H     1 <1>   0.0800 
 35 H       -3.9210    -3.7790    -0.9600 H     1 <1>   0.0800 
 36 H       -4.7990    -2.6100    -1.8950 H     1 <1>   0.0800 
 37 H        1.5460     3.4970     1.0910 H     1 <1>   0.0800 
 38 H        1.1550     6.4280     0.4320 H     1 <1>   0.0800 
 39 H        2.4930     5.7540     1.3330 H     1 <1>   0.0800 
 40 H        0.8820     5.6890     1.9920 H     1 <1>   0.0800 
 41 H        1.7720     4.8990    -1.5910 H     1 <1>   0.0800 
 42 H        2.0530     3.2010    -1.2900 H     1 <1>   0.0800 
 43 H        3.1280     4.3870    -0.6170 H     1 <1>   0.0800 
 44 H       -5.1530    -5.2080     0.5900 H     1 <1>   0.1500 
 45 H       -7.0520    -1.7050    -0.8990 H     1 <1>   0.1500 
 46 H       -7.2790    -5.8340     1.5850 H     1 <1>   0.1500 
 47 H       -9.1030    -2.4740     0.1570 H     1 <1>   0.1500 
@<TRIPOS>BOND
  1   1   2  2   
  2   2   3  am  
  3   2   4  1   
  4   3   5  1   
  5   3  22  1   
  6   4   6  1   
  7   4  23  1   
  8   4  24  1   
  9   5   7  1   
 10   5   8  1   
 11   5  25  1   
 12   6   9  1   
 13   6  26  1   
 14   6  27  1   
 15   7  10  1   
 16   7  11  1   
 17   7  28  1   
 18   8  12  1   
 19   8  29  1   
 20   8  30  1   
 21   9  13  1   
 22   9  31  1   
 23   9  32  1   
 24  10  12  1   
 25  10  33  1   
 26  10  34  1   
 27  11  14  1   
 28  11  35  1   
 29  11  36  1   
 30  13  15  1   
 31  13  16  1   
 32  13  37  1   
 33  14  17  ar  
 34  14  18  ar  
 35  15  38  1   
 36  15  39  1   
 37  15  40  1   
 38  16  41  1   
 39  16  42  1   
 40  16  43  1   
 41  17  19  ar  
 42  17  44  1   
 43  18  20  ar  
 44  18  45  1   
 45  19  21  ar  
 46  19  46  1   
 47  20  21  ar  
 48  20  47  1   
@<TRIPOS>SUBSTRUCTURE
  1 ****   3 GROUP 4 **** **** 0

# MOE 2024.06 (io_trps.svl 2023.06)
