@<TRIPOS>MOLECULE
NONAME
33 34 1 0 0 
SMALL
USER_CHARGES


@<TRIPOS>ATOM
  1 O       -1.2710    -0.8980    -0.8160 O.2   1 <1>  -0.5700 
  2 C       -1.8330     0.0080    -0.2400 C.2   1 <1>   0.6300 
  3 N       -2.7910    -0.2500     0.7070 N.am  1 <1>  -0.6600 
  4 C       -1.4530     1.4450    -0.6270 C.3   1 <1>  -0.0950 
  5 C       -3.0080    -1.6490     1.1780 C.3   1 <1>   0.3200 
  6 C       -3.7390     0.7660     1.2570 C.3   1 <1>   0.1400 
  7 C       -0.8720     2.3670     0.4070 C.3   1 <1>  -0.2000 
  8 C        0.0070     1.7950    -0.6640 C.3   1 <1>  -0.2000 
  9 C       -2.3430     2.0250    -1.7350 C.3   1 <1>  -0.1450 
 10 C       -3.9210    -2.4020     0.2260 C.2   1 <1>   0.0060 
 11 C       -5.1190     0.6470     0.5980 C.3   1 <1>   0.1200 
 12 N       -5.0830    -2.8860     0.5300 N.2   1 <1>  -0.5650 
 13 N       -3.5630    -2.6190    -1.0570 N.pl3 1 <1>   0.0330 
 14 O       -5.9100     1.7100     1.0080 O.3   1 <1>  -0.6800 
 15 C       -5.5050    -3.4500    -0.6190 C.2   1 <1>   0.0770 
 16 C       -4.5890    -3.2960    -1.6000 C.2   1 <1>  -0.3020 
 17 H       -3.4440    -1.6450     2.1620 H     1 <1>   0.0800 
 18 H       -2.0630    -2.1610     1.2400 H     1 <1>   0.0800 
 19 H       -3.3630     1.7580     1.0840 H     1 <1>   0.0800 
 20 H       -3.8310     0.6260     2.3190 H     1 <1>   0.0800 
 21 H       -0.7440     2.0100     1.4140 H     1 <1>   0.1000 
 22 H       -1.1140     3.4150     0.3690 H     1 <1>   0.1000 
 23 H        0.3700     2.4450    -1.4410 H     1 <1>   0.1000 
 24 H        0.7220     1.0350    -0.4000 H     1 <1>   0.1000 
 25 H       -3.3600     2.1060    -1.3980 H     1 <1>   0.0800 
 26 H       -2.3150     1.3830    -2.5980 H     1 <1>   0.0800 
 27 H       -2.0040     3.0030    -2.0250 H     1 <1>   0.0800 
 28 H       -5.6130    -0.2690     0.8730 H     1 <1>   0.0800 
 29 H       -5.0290     0.6990    -0.4720 H     1 <1>   0.0800 
 30 H       -2.6830    -2.2920    -1.4830 H     1 <1>   0.2700 
 31 H       -6.2890     1.5390     1.8930 H     1 <1>   0.4000 
 32 H       -6.4600    -3.9450    -0.6810 H     1 <1>   0.1500 
 33 H       -4.6090    -3.6210    -2.6250 H     1 <1>   0.1500 
@<TRIPOS>BOND
  1   1   2  2   
  2   2   3  am  
  3   2   4  1   
  4   3   5  1   
  5   3   6  1   
  6   4   7  1   
  7   4   8  1   
  8   4   9  1   
  9   5  10  1   
 10   5  17  1   
 11   5  18  1   
 12   6  11  1   
 13   6  19  1   
 14   6  20  1   
 15   7   8  1   
 16   7  21  1   
 17   7  22  1   
 18   8  23  1   
 19   8  24  1   
 20   9  25  1   
 21   9  26  1   
 22   9  27  1   
 23  10  12  2   
 24  10  13  1   
 25  11  14  1   
 26  11  28  1   
 27  11  29  1   
 28  12  15  1   
 29  13  16  1   
 30  13  30  1   
 31  14  31  1   
 32  15  16  2   
 33  15  32  1   
 34  16  33  1   
@<TRIPOS>SUBSTRUCTURE
  1 ****   3 GROUP 4 **** **** 0

# MOE 2024.06 (io_trps.svl 2023.06)
