@<TRIPOS>MOLECULE
NONAME
53 55 1 0 0 
SMALL
USER_CHARGES


@<TRIPOS>ATOM
  1 O        0.6110     1.2670    -0.2010 O.2   1 <1>  -0.5700 
  2 C        0.2650     2.4200    -0.2520 C.2   1 <1>   0.5690 
  3 N       -0.7370     2.8780     0.5280 N.am  1 <1>  -0.7300 
  4 C        0.9320     3.3840    -1.2330 C.3   1 <1>   0.1810 
  5 C       -1.3000     4.2480     0.4360 C.3   1 <1>   0.3640 
  6 O        0.7680     4.7320    -0.8530 O.3   1 <1>  -0.5600 
  7 C       -2.7920     4.1180     0.1310 C.ar  1 <1>  -0.1440 
  8 C       -0.5840     5.1310    -0.6280 C.3   1 <1>   0.2610 
  9 C       -3.2530     3.2650    -0.8660 C.ar  1 <1>  -0.1500 
 10 C       -3.7140     4.8620     0.8530 C.ar  1 <1>  -0.1500 
 11 C       -0.6180     6.6080    -0.2080 C.2   1 <1>   0.5690 
 12 C       -4.6070     3.1580    -1.1320 C.ar  1 <1>  -0.1500 
 13 C       -5.0680     4.7570     0.5880 C.ar  1 <1>  -0.1500 
 14 O       -1.6460     7.1170     0.1700 O.2   1 <1>  -0.5700 
 15 N        0.5290     7.3380    -0.2720 N.am  1 <1>  -0.7300 
 16 C       -5.5160     3.9040    -0.4040 C.ar  1 <1>  -0.1500 
 17 C        0.6470     8.7520     0.0970 C.3   1 <1>   0.2200 
 18 C        0.4300     9.6100    -1.1460 C.3   1 <1>  -0.1600 
 19 C        2.0230     9.0120     0.7040 C.3   1 <1>  -0.1600 
 20 C        0.6210    11.0860    -0.8140 C.3   1 <1>   0.3430 
 21 C        2.1970    10.4980     1.0080 C.3   1 <1>   0.3430 
 22 N        1.9820    11.3050    -0.2360 N.4   1 <1>  -0.9590 
 23 C        2.2680    12.7570    -0.0830 C.3   1 <1>   0.4230 
 24 C        3.7700    12.9550     0.0930 C.3   1 <1>  -0.2400 
 25 C        1.4920    13.3760     1.0820 C.3   1 <1>  -0.2400 
 26 H       -1.2280     2.2170     1.1310 H     1 <1>   0.3700 
 27 H        0.5120     3.2490    -2.2140 H     1 <1>   0.0800 
 28 H        1.9860     3.1770    -1.2730 H     1 <1>   0.0800 
 29 H       -1.1820     4.7140     1.3990 H     1 <1>   0.0800 
 30 H       -1.1040     5.0450    -1.5640 H     1 <1>   0.0800 
 31 H       -2.5630     2.6720    -1.4410 H     1 <1>   0.1500 
 32 H       -3.3860     5.5390     1.6240 H     1 <1>   0.1500 
 33 H       -4.9530     2.4930    -1.9040 H     1 <1>   0.1500 
 34 H       -5.7730     5.3410     1.1530 H     1 <1>   0.1500 
 35 H        1.3690     6.8390    -0.5860 H     1 <1>   0.3700 
 36 H       -6.5690     3.8220    -0.6100 H     1 <1>   0.1500 
 37 H       -0.1130     8.9880     0.8270 H     1 <1>   0.0800 
 38 H        1.1090     9.3230    -1.9290 H     1 <1>   0.0800 
 39 H       -0.5750     9.4630    -1.5020 H     1 <1>   0.0800 
 40 H        2.1170     8.4560     1.6210 H     1 <1>   0.0800 
 41 H        2.8010     8.6900     0.0330 H     1 <1>   0.0800 
 42 H       -0.1310    11.3920    -0.1040 H     1 <1>   0.0800 
 43 H        0.4990    11.6740    -1.7100 H     1 <1>   0.0800 
 44 H        3.1890    10.6680     1.3960 H     1 <1>   0.0800 
 45 H        1.4850    10.7940     1.7610 H     1 <1>   0.0800 
 46 H        2.6560    10.9610    -0.9320 H     1 <1>   0.4500 
 47 H        1.9740    13.2620    -0.9900 H     1 <1>   0.0800 
 48 H        4.1220    12.5440     1.0220 H     1 <1>   0.0800 
 49 H        3.9910    14.0080     0.1000 H     1 <1>   0.0800 
 50 H        4.3110    12.5150    -0.7250 H     1 <1>   0.0800 
 51 H        1.8120    12.9840     2.0300 H     1 <1>   0.0800 
 52 H        0.4330    13.2300     0.9690 H     1 <1>   0.0800 
 53 H        1.6690    14.4370     1.0970 H     1 <1>   0.0800 
@<TRIPOS>BOND
  1   1   2  2   
  2   2   3  am  
  3   2   4  1   
  4   3   5  1   
  5   3  26  1   
  6   4   6  1   
  7   4  27  1   
  8   4  28  1   
  9   5   7  1   
 10   5   8  1   
 11   5  29  1   
 12   6   8  1   
 13   7   9  ar  
 14   7  10  ar  
 15   8  11  1   
 16   8  30  1   
 17   9  12  ar  
 18   9  31  1   
 19  10  13  ar  
 20  10  32  1   
 21  11  14  2   
 22  11  15  am  
 23  12  16  ar  
 24  12  33  1   
 25  13  16  ar  
 26  13  34  1   
 27  15  17  1   
 28  15  35  1   
 29  16  36  1   
 30  17  18  1   
 31  17  19  1   
 32  17  37  1   
 33  18  20  1   
 34  18  38  1   
 35  18  39  1   
 36  19  21  1   
 37  19  40  1   
 38  19  41  1   
 39  20  22  1   
 40  20  42  1   
 41  20  43  1   
 42  21  22  1   
 43  21  44  1   
 44  21  45  1   
 45  22  23  1   
 46  22  46  1   
 47  23  24  1   
 48  23  25  1   
 49  23  47  1   
 50  24  48  1   
 51  24  49  1   
 52  24  50  1   
 53  25  51  1   
 54  25  52  1   
 55  25  53  1   
@<TRIPOS>SUBSTRUCTURE
  1 ****  11 GROUP 4 **** **** 0

# MOE 2024.06 (io_trps.svl 2023.06)
