@<TRIPOS>MOLECULE
NONAME
42 43 1 0 0 
SMALL
USER_CHARGES


@<TRIPOS>ATOM
  1 S       -0.2390     0.5590    -1.2800 S.o2  1 <1>   1.4470 
  2 O       -1.1600     1.6750    -1.2400 O.2   1 <1>  -0.6500 
  3 O        0.2410     0.0860    -2.5610 O.2   1 <1>  -0.6500 
  4 N       -0.9680    -0.7530    -0.4980 N.am  1 <1>  -0.8490 
  5 C        1.1970     0.9140    -0.2270 C.ar  1 <1>  -0.0090 
  6 C       -1.8340    -1.5310    -1.4190 C.3   1 <1>   0.1960 
  7 C       -1.6070    -0.4160     0.7960 C.3   1 <1>   0.1960 
  8 C        1.5150     2.2180     0.1370 C.ar  1 <1>  -0.1500 
  9 C        2.0220    -0.1110     0.2320 C.ar  1 <1>  -0.1500 
 10 C       -2.8300    -2.4030    -0.6440 C.3   1 <1>   0.2000 
 11 C       -3.1210    -0.2380     0.6500 C.3   1 <1>  -0.1600 
 12 C        2.6170     2.4560     0.9340 C.ar  1 <1>   0.1900 
 13 C        3.1270     0.1410     1.0330 C.ar  1 <1>  -0.1500 
 14 O       -3.5140    -3.2710    -1.4790 O.3   1 <1>  -0.6800 
 15 C       -3.8190    -1.5640     0.2070 C.3   1 <1>  -0.1060 
 16 F        2.8980     3.6860     1.2670 F     1 <1>  -0.1900 
 17 C        3.4330     1.4410     1.3920 C.ar  1 <1>  -0.1500 
 18 C       -4.1020    -2.4900     1.4020 C.2   1 <1>   0.9060 
 19 C       -5.1790    -1.2060    -0.4810 C.3   1 <1>  -0.1600 
 20 O       -3.7140    -2.1820     2.5360 O.co2 1 <1>  -0.9000 
 21 O       -4.6600    -3.5730     1.1760 O.co2 1 <1>  -0.9000 
 22 C       -5.1130    -0.4900    -1.8460 C.3   1 <1>  -0.1600 
 23 C       -6.5210    -0.1800    -2.3620 C.3   1 <1>  -0.2400 
 24 H       -2.3820    -0.8580    -2.0540 H     1 <1>   0.0800 
 25 H       -1.2140    -2.1560    -2.0380 H     1 <1>   0.0800 
 26 H       -1.4240    -1.2160     1.4950 H     1 <1>   0.0800 
 27 H       -1.1740     0.4780     1.2130 H     1 <1>   0.0800 
 28 H        0.9080     3.0420    -0.1960 H     1 <1>   0.1500 
 29 H        1.7890    -1.1270    -0.0440 H     1 <1>   0.1500 
 30 H       -2.2420    -3.0300     0.0070 H     1 <1>   0.0800 
 31 H       -3.5320     0.0920     1.5880 H     1 <1>   0.0800 
 32 H       -3.2900     0.5580    -0.0470 H     1 <1>   0.0800 
 33 H        3.7430    -0.6750     1.3730 H     1 <1>   0.1500 
 34 H       -4.1500    -3.7490    -0.8890 H     1 <1>   0.4000 
 35 H        4.2820     1.6660     2.0120 H     1 <1>   0.1500 
 36 H       -5.7430    -2.1140    -0.6170 H     1 <1>   0.0800 
 37 H       -5.7460    -0.6010     0.2040 H     1 <1>   0.0800 
 38 H       -4.5630     0.4300    -1.7760 H     1 <1>   0.0800 
 39 H       -4.6190    -1.1220    -2.5630 H     1 <1>   0.0800 
 40 H       -7.0370     0.4680    -1.6760 H     1 <1>   0.0800 
 41 H       -7.0850    -1.0890    -2.4740 H     1 <1>   0.0800 
 42 H       -6.4610     0.3080    -3.3190 H     1 <1>   0.0800 
@<TRIPOS>BOND
  1   1   2  2   
  2   1   3  2   
  3   1   4  am  
  4   1   5  1   
  5   4   6  1   
  6   4   7  1   
  7   5   8  ar  
  8   5   9  ar  
  9   6  10  1   
 10   6  24  1   
 11   6  25  1   
 12   7  11  1   
 13   7  26  1   
 14   7  27  1   
 15   8  12  ar  
 16   8  28  1   
 17   9  13  ar  
 18   9  29  1   
 19  10  14  1   
 20  10  15  1   
 21  10  30  1   
 22  11  15  1   
 23  11  31  1   
 24  11  32  1   
 25  12  16  1   
 26  12  17  ar  
 27  13  17  ar  
 28  13  33  1   
 29  14  34  1   
 30  15  18  1   
 31  15  19  1   
 32  17  35  1   
 33  18  20  ar  
 34  18  21  ar  
 35  19  22  1   
 36  19  36  1   
 37  19  37  1   
 38  22  23  1   
 39  22  38  1   
 40  22  39  1   
 41  23  40  1   
 42  23  41  1   
 43  23  42  1   
@<TRIPOS>SUBSTRUCTURE
  1 ****   4 GROUP 4 **** **** 0

# MOE 2024.06 (io_trps.svl 2023.06)
