@<TRIPOS>MOLECULE
NONAME
57 59 1 0 0 
SMALL
USER_CHARGES


@<TRIPOS>ATOM
  1 O       -1.4200     1.0300    -2.6780 O.2   1 <1>  -0.5700 
  2 C       -2.3220     1.4670    -2.0020 C.2   1 <1>   0.5690 
  3 N       -3.3260     0.6520    -1.5270 N.am  1 <1>  -0.6600 
  4 C       -2.2890     2.9630    -1.7000 C.3   1 <1>   0.1810 
  5 C       -3.2320    -0.8430    -1.6230 C.3   1 <1>   0.1400 
  6 C       -4.5740     1.1510    -0.8860 C.3   1 <1>   0.1400 
  7 O       -2.2970     3.1980    -0.2980 O.3   1 <1>  -0.3620 
  8 C       -3.3350    -1.5120    -0.2280 C.3   1 <1>   0.0000 
  9 C       -4.7000     0.5560     0.5140 C.3   1 <1>  -0.1600 
 10 C       -1.4140     4.1100     0.1610 C.ar  1 <1>   0.0820 
 11 C       -4.6310    -0.9710     0.4350 C.3   1 <1>   0.2000 
 12 C       -3.5250    -3.0400    -0.4030 C.3   1 <1>   0.1200 
 13 C       -2.0770    -1.1850     0.6400 C.3   1 <1>  -0.0170 
 14 C       -0.0640     3.7960     0.3290 C.ar  1 <1>  -0.1440 
 15 C       -1.8950     5.3730     0.4610 C.ar  1 <1>  -0.1500 
 16 O       -4.7970    -1.4730     1.7150 O.3   1 <1>  -0.6800 
 17 O       -2.6020    -3.5750    -1.2910 O.3   1 <1>  -0.6800 
 18 C       -0.8020    -1.9380     0.2670 C.ar  1 <1>  -0.1440 
 19 C        0.8050     4.7920     0.7690 C.ar  1 <1>  -0.1440 
 20 C        0.4390     2.3820     0.0350 C.3   1 <1>  -0.0970 
 21 C       -1.0290     6.3490     0.9100 C.ar  1 <1>  -0.1500 
 22 C       -0.4720    -3.1140     0.9250 C.ar  1 <1>  -0.1500 
 23 C        0.0410    -1.4640    -0.7260 C.ar  1 <1>  -0.1500 
 24 C        0.3140     6.0580     1.0570 C.ar  1 <1>  -0.1500 
 25 C        2.2970     4.5400     0.9480 C.3   1 <1>  -0.0970 
 26 C        0.6730    -3.8130     0.5850 C.ar  1 <1>  -0.1500 
 27 C        1.1860    -2.1600    -1.0690 C.ar  1 <1>  -0.1500 
 28 C        1.5020    -3.3370    -0.4150 C.ar  1 <1>  -0.1500 
 29 H       -3.1440     3.4490    -2.1280 H     1 <1>   0.0800 
 30 H       -1.3970     3.3900    -2.1240 H     1 <1>   0.0800 
 31 H       -4.0320    -1.1950    -2.2500 H     1 <1>   0.0800 
 32 H       -2.3120    -1.1320    -2.1000 H     1 <1>   0.0800 
 33 H       -4.5850     2.2240    -0.8210 H     1 <1>   0.0800 
 34 H       -5.4160     0.8500    -1.4860 H     1 <1>   0.0800 
 35 H       -5.6460     0.8520     0.9310 H     1 <1>   0.0800 
 36 H       -3.9160     0.9520     1.1340 H     1 <1>   0.0800 
 37 H       -5.4780    -1.3140    -0.1360 H     1 <1>   0.0800 
 38 H       -4.5010    -3.2580    -0.8000 H     1 <1>   0.0800 
 39 H       -3.4230    -3.5480     0.5400 H     1 <1>   0.0800 
 40 H       -1.8720    -0.1310     0.6000 H     1 <1>   0.0800 
 41 H       -2.2800    -1.4120     1.6690 H     1 <1>   0.0800 
 42 H       -2.9410     5.5860     0.3410 H     1 <1>   0.1500 
 43 H       -4.1980    -1.0180     2.3360 H     1 <1>   0.4000 
 44 H       -1.6880    -3.3670    -0.9840 H     1 <1>   0.4000 
 45 H        1.2450     2.1080     0.6900 H     1 <1>   0.0800 
 46 H        0.7790     2.3180    -0.9830 H     1 <1>   0.0800 
 47 H       -0.3420     1.6610     0.1820 H     1 <1>   0.0800 
 48 H       -1.3970     7.3340     1.1430 H     1 <1>   0.1500 
 49 H       -1.1070    -3.4970     1.7050 H     1 <1>   0.1500 
 50 H       -0.1870    -0.5490    -1.2420 H     1 <1>   0.1500 
 51 H        0.9790     6.8290     1.4030 H     1 <1>   0.1500 
 52 H        2.8270     5.4600     1.1130 H     1 <1>   0.0800 
 53 H        2.7040     4.0750     0.0680 H     1 <1>   0.0800 
 54 H        2.4600     3.8980     1.7950 H     1 <1>   0.0800 
 55 H        0.9180    -4.7270     1.0970 H     1 <1>   0.1500 
 56 H        1.8270    -1.7830    -1.8460 H     1 <1>   0.1500 
 57 H        2.3920    -3.8790    -0.6830 H     1 <1>   0.1500 
@<TRIPOS>BOND
  1   1   2  2   
  2   2   3  am  
  3   2   4  1   
  4   3   5  1   
  5   3   6  1   
  6   4   7  1   
  7   4  29  1   
  8   4  30  1   
  9   5   8  1   
 10   5  31  1   
 11   5  32  1   
 12   6   9  1   
 13   6  33  1   
 14   6  34  1   
 15   7  10  1   
 16   8  11  1   
 17   8  12  1   
 18   8  13  1   
 19   9  11  1   
 20   9  35  1   
 21   9  36  1   
 22  10  14  ar  
 23  10  15  ar  
 24  11  16  1   
 25  11  37  1   
 26  12  17  1   
 27  12  38  1   
 28  12  39  1   
 29  13  18  1   
 30  13  40  1   
 31  13  41  1   
 32  14  19  ar  
 33  14  20  1   
 34  15  21  ar  
 35  15  42  1   
 36  16  43  1   
 37  17  44  1   
 38  18  22  ar  
 39  18  23  ar  
 40  19  24  ar  
 41  19  25  1   
 42  20  45  1   
 43  20  46  1   
 44  20  47  1   
 45  21  24  ar  
 46  21  48  1   
 47  22  26  ar  
 48  22  49  1   
 49  23  27  ar  
 50  23  50  1   
 51  24  51  1   
 52  25  52  1   
 53  25  53  1   
 54  25  54  1   
 55  26  28  ar  
 56  26  55  1   
 57  27  28  ar  
 58  27  56  1   
 59  28  57  1   
@<TRIPOS>SUBSTRUCTURE
  1 ****   2 GROUP 4 **** **** 0

# MOE 2024.06 (io_trps.svl 2023.06)
