@<TRIPOS>MOLECULE
NONAME
52 55 1 0 0 
SMALL
USER_CHARGES


@<TRIPOS>ATOM
  1 O        1.7010     1.7270     1.1200 O.3   1 <1>  -0.0190 
  2 N        2.5740     0.7720     0.9950 N.2   1 <1>  -0.4100 
  3 C        0.9390     1.8310     0.0640 C.2   1 <1>  -0.0400 
  4 C        2.3490     0.2290    -0.1480 C.2   1 <1>   0.1080 
  5 C        1.3050     0.8760    -0.8040 C.2   1 <1>  -0.1500 
  6 C       -0.1090     2.9270    -0.0140 C.3   1 <1>   0.0200 
  7 C        3.1200    -0.9510    -0.6970 C.3   1 <1>  -0.0590 
  8 C        0.4760     4.2780     0.4360 C.3   1 <1>  -0.0800 
  9 C       -0.3730     5.4850     0.0450 C.3   1 <1>   0.2000 
 10 C        1.8480     4.5900    -0.1550 C.3   1 <1>   0.2090 
 11 O       -1.3810     5.6730     0.9760 O.3   1 <1>  -0.6800 
 12 C        0.6010     6.6690    -0.0020 C.3   1 <1>   0.2090 
 13 N        1.9740     6.0680    -0.0530 N.pl3 1 <1>  -0.8380 
 14 C        3.0930     6.8170     0.0960 C.ar  1 <1>   0.7710 
 15 N        2.9710     8.1290     0.2190 N.ar  1 <1>  -0.6200 
 16 N        4.2910     6.2060     0.1140 N.ar  1 <1>  -0.1790 
 17 C        4.0620     8.8530     0.3810 C.ar  1 <1>   0.4100 
 18 C        5.4390     6.9110     0.2550 C.ar  1 <1>   0.2110 
 19 N        3.9150    10.1950     0.5400 N.pl3 1 <1>  -0.8380 
 20 C        5.3380     8.2540     0.3870 C.ar  1 <1>  -0.1500 
 21 C        4.8130    11.0500     1.3710 C.3   1 <1>   0.2090 
 22 C        2.7340    10.9400     0.0010 C.3   1 <1>   0.2090 
 23 C        5.3460    12.2000     0.5170 C.3   1 <1>  -0.1600 
 24 C        3.2220    12.1070    -0.8590 C.3   1 <1>  -0.1600 
 25 C        4.1790    12.9970    -0.0660 C.3   1 <1>   0.2000 
 26 O        4.6860    13.9590    -0.9100 O.3   1 <1>  -0.6800 
 27 H        0.9160     0.6360    -1.7760 H     1 <1>   0.1500 
 28 H       -0.4700     2.9920    -1.0250 H     1 <1>   0.0800 
 29 H       -0.9410     2.6720     0.6190 H     1 <1>   0.0800 
 30 H        2.4470    -1.7660    -0.8930 H     1 <1>   0.0800 
 31 H        3.8560    -1.2750     0.0160 H     1 <1>   0.0800 
 32 H        3.6160    -0.6750    -1.6090 H     1 <1>   0.0800 
 33 H        0.5980     4.2600     1.5050 H     1 <1>   0.0800 
 34 H       -0.8300     5.3530    -0.9220 H     1 <1>   0.0800 
 35 H        1.8810     4.2990    -1.1930 H     1 <1>   0.0800 
 36 H        2.6190     4.0760     0.3940 H     1 <1>   0.0800 
 37 H       -1.0180     5.7760     1.8780 H     1 <1>   0.4000 
 38 H        0.5010     7.2810     0.8790 H     1 <1>   0.0800 
 39 H        0.4240     7.2680    -0.8790 H     1 <1>   0.0800 
 40 H        4.2750     5.1980     0.0140 H     1 <1>   0.4570 
 41 H        6.3840     6.3910     0.2520 H     1 <1>   0.1500 
 42 H        6.2090     8.8730     0.4820 H     1 <1>   0.1500 
 43 H        4.2480    11.4480     2.1980 H     1 <1>   0.0800 
 44 H        5.6290    10.4840     1.7820 H     1 <1>   0.0800 
 45 H        2.1120    10.2990    -0.6000 H     1 <1>   0.0800 
 46 H        2.1410    11.3070     0.8220 H     1 <1>   0.0800 
 47 H        5.9560    11.7950    -0.2700 H     1 <1>   0.0800 
 48 H        5.9490    12.8450     1.1290 H     1 <1>   0.0800 
 49 H        2.3750    12.6870    -1.1790 H     1 <1>   0.0800 
 50 H        3.7140    11.7070    -1.7270 H     1 <1>   0.0800 
 51 H        3.6470    13.5040     0.7220 H     1 <1>   0.0800 
 52 H        5.1410    13.5390    -1.6640 H     1 <1>   0.4000 
@<TRIPOS>BOND
  1   1   2  1   
  2   1   3  1   
  3   2   4  2   
  4   3   5  2   
  5   3   6  1   
  6   4   5  1   
  7   4   7  1   
  8   5  27  1   
  9   6   8  1   
 10   6  28  1   
 11   6  29  1   
 12   7  30  1   
 13   7  31  1   
 14   7  32  1   
 15   8   9  1   
 16   8  10  1   
 17   8  33  1   
 18   9  11  1   
 19   9  12  1   
 20   9  34  1   
 21  10  13  1   
 22  10  35  1   
 23  10  36  1   
 24  11  37  1   
 25  12  13  1   
 26  12  38  1   
 27  12  39  1   
 28  13  14  1   
 29  14  15  ar  
 30  14  16  ar  
 31  15  17  ar  
 32  16  18  ar  
 33  16  40  1   
 34  17  19  1   
 35  17  20  ar  
 36  18  20  ar  
 37  18  41  1   
 38  19  21  1   
 39  19  22  1   
 40  20  42  1   
 41  21  23  1   
 42  21  43  1   
 43  21  44  1   
 44  22  24  1   
 45  22  45  1   
 46  22  46  1   
 47  23  25  1   
 48  23  47  1   
 49  23  48  1   
 50  24  25  1   
 51  24  49  1   
 52  24  50  1   
 53  25  26  1   
 54  25  51  1   
 55  26  52  1   
@<TRIPOS>SUBSTRUCTURE
  1 ****  14 GROUP 4 **** **** 0

# MOE 2024.06 (io_trps.svl 2023.06)
