@<TRIPOS>MOLECULE
NONAME
48 52 1 0 0 
SMALL
USER_CHARGES


@<TRIPOS>ATOM
  1 S       -0.3300    -0.8410     0.5250 S.o2  1 <1>   1.3330 
  2 O       -1.3830    -1.8060     0.3250 O.2   1 <1>  -0.6500 
  3 O        0.3040    -0.6870     1.8120 O.2   1 <1>  -0.6500 
  4 N        0.8420    -1.2850    -0.5860 N.am  1 <1>  -0.9140 
  5 C       -0.8480     0.7530    -0.0710 C.3   1 <1>  -0.1350 
  6 C        1.9440    -2.0890    -0.0580 C.3   1 <1>   0.1960 
  7 C        1.4850    -3.4580     0.4820 C.3   1 <1>  -0.0800 
  8 C        0.9170    -4.3580    -0.6280 C.3   1 <1>   0.2000 
  9 C        2.6160    -4.3650     1.0200 C.3   1 <1>  -0.0800 
 10 O        2.0640    -4.9790    -1.0700 O.3   1 <1>  -0.5600 
 11 C        0.1420    -5.5460    -0.0410 C.3   1 <1>  -0.1600 
 12 C        2.4930    -5.5760     0.1030 C.3   1 <1>   0.2800 
 13 C        4.0870    -3.9490     0.8760 C.3   1 <1>   0.2090 
 14 C        1.2820    -6.4400     0.4610 C.3   1 <1>  -0.1600 
 15 C        3.8850    -6.2050    -0.0020 C.3   1 <1>   0.2090 
 16 N        4.8300    -5.1980     0.5630 N.pl3 1 <1>  -0.8380 
 17 C        6.1840    -5.1680     0.2520 C.ar  1 <1>   0.4100 
 18 N        6.7980    -4.0210     0.3530 N.ar  1 <1>  -0.6200 
 19 C        6.8720    -6.3540    -0.1490 C.ar  1 <1>   0.1600 
 20 C        8.1150    -4.0530     0.0330 C.ar  1 <1>   0.3100 
 21 N        8.1250    -6.4290    -0.4660 N.ar  1 <1>  -0.6200 
 22 C        8.7760    -5.2390    -0.3770 C.ar  1 <1>   0.3100 
 23 C        8.8610    -2.8660     0.1070 C.ar  1 <1>  -0.1500 
 24 C       10.1390    -5.1800    -0.6950 C.ar  1 <1>  -0.1500 
 25 C       10.1960    -2.8350    -0.2090 C.ar  1 <1>  -0.1500 
 26 C       10.8420    -4.0050    -0.6150 C.ar  1 <1>  -0.1500 
 27 H        0.3420    -1.8500    -1.2690 H     1 <1>   0.4200 
 28 H       -1.2160     0.6730    -1.0740 H     1 <1>   0.0800 
 29 H       -0.0220     1.4360    -0.0570 H     1 <1>   0.0800 
 30 H       -1.6280     1.1420     0.5540 H     1 <1>   0.0800 
 31 H        2.6490    -2.2420    -0.8580 H     1 <1>   0.0800 
 32 H        2.4440    -1.5380     0.7230 H     1 <1>   0.0800 
 33 H        0.7560    -3.3140     1.2590 H     1 <1>   0.0800 
 34 H        0.4090    -3.8510    -1.4300 H     1 <1>   0.0800 
 35 H        2.4410    -4.6490     2.0420 H     1 <1>   0.0800 
 36 H       -0.5270    -5.2380     0.7440 H     1 <1>   0.0800 
 37 H       -0.4200    -6.0370    -0.8160 H     1 <1>   0.0800 
 38 H        4.4610    -3.5050     1.7830 H     1 <1>   0.0800 
 39 H        4.2380    -3.2660     0.0600 H     1 <1>   0.0800 
 40 H        1.3120    -7.3680    -0.0830 H     1 <1>   0.0800 
 41 H        1.2240    -6.6380     1.5160 H     1 <1>   0.0800 
 42 H        4.1170    -6.4330    -1.0270 H     1 <1>   0.0800 
 43 H        3.9280    -7.0970     0.5970 H     1 <1>   0.0800 
 44 H        6.2940    -7.2560    -0.1810 H     1 <1>   0.1500 
 45 H        8.3470    -1.9760     0.4210 H     1 <1>   0.1500 
 46 H       10.6180    -6.0910    -1.0050 H     1 <1>   0.1500 
 47 H       10.7550    -1.9170    -0.1480 H     1 <1>   0.1500 
 48 H       11.8900    -3.9710    -0.8620 H     1 <1>   0.1500 
@<TRIPOS>BOND
  1   1   2  2   
  2   1   3  2   
  3   1   4  am  
  4   1   5  1   
  5   4   6  1   
  6   4  27  1   
  7   5  28  1   
  8   5  29  1   
  9   5  30  1   
 10   6   7  1   
 11   6  31  1   
 12   6  32  1   
 13   7   8  1   
 14   7   9  1   
 15   7  33  1   
 16   8  10  1   
 17   8  11  1   
 18   8  34  1   
 19   9  12  1   
 20   9  13  1   
 21   9  35  1   
 22  10  12  1   
 23  11  14  1   
 24  11  36  1   
 25  11  37  1   
 26  12  14  1   
 27  12  15  1   
 28  13  16  1   
 29  13  38  1   
 30  13  39  1   
 31  14  40  1   
 32  14  41  1   
 33  15  16  1   
 34  15  42  1   
 35  15  43  1   
 36  16  17  1   
 37  17  18  ar  
 38  17  19  ar  
 39  18  20  ar  
 40  19  21  ar  
 41  19  44  1   
 42  20  22  ar  
 43  20  23  ar  
 44  21  22  ar  
 45  22  24  ar  
 46  23  25  ar  
 47  23  45  1   
 48  24  26  ar  
 49  24  46  1   
 50  25  26  ar  
 51  25  47  1   
 52  26  48  1   
@<TRIPOS>SUBSTRUCTURE
  1 ****  13 GROUP 4 **** **** 0

# MOE 2024.06 (io_trps.svl 2023.06)
