@<TRIPOS>MOLECULE
NONAME
55 58 1 0 0 
SMALL
USER_CHARGES


@<TRIPOS>ATOM
  1 O       -2.5090     0.5520     3.7720 O.3   1 <1>  -0.5320 
  2 C       -3.3690     0.7830     2.7690 C.ar  1 <1>   0.0830 
  3 C       -4.1230    -0.2640     2.2740 C.ar  1 <1>  -0.1500 
  4 C       -3.4970     2.0550     2.2360 C.ar  1 <1>  -0.1500 
  5 C       -5.0160    -0.0420     1.2420 C.ar  1 <1>  -0.1500 
  6 C       -4.3920     2.2750     1.2040 C.ar  1 <1>  -0.1500 
  7 C       -5.1580     1.2300     0.7040 C.ar  1 <1>  -0.1430 
  8 C       -6.1550     1.4750    -0.4120 C.3   1 <1>  -0.0170 
  9 C       -7.5220     1.7590     0.2140 C.3   1 <1>   0.3430 
 10 N       -8.5600     2.0830    -0.8140 N.4   1 <1>  -0.9590 
 11 C       -9.7770     2.6490    -0.1320 C.3   1 <1>   0.3430 
 12 C       -8.9300     0.8920    -1.6390 C.3   1 <1>   0.3430 
 13 C      -10.8600     3.0880    -1.1340 C.3   1 <1>   0.1440 
 14 C       -9.9560     1.2900    -2.7040 C.3   1 <1>  -0.1600 
 15 C      -12.0770     3.5090    -0.3500 C.ar  1 <1>   0.1670 
 16 C      -11.2130     1.9250    -2.0840 C.3   1 <1>  -0.1600 
 17 C      -10.4940     4.3840    -1.9070 C.3   1 <1>  -0.1600 
 18 N      -12.5880     2.8240     0.6390 N.ar  1 <1>  -0.6200 
 19 C      -12.5710     4.7020    -0.7780 C.ar  1 <1>  -0.1430 
 20 C      -11.7640     5.2600    -1.9230 C.3   1 <1>  -0.0170 
 21 C      -13.6590     3.3820     1.2130 C.ar  1 <1>   0.7200 
 22 C      -13.6720     5.1990    -0.1280 C.ar  1 <1>   0.1600 
 23 N      -14.2200     4.5460     0.8700 N.ar  1 <1>  -0.6200 
 24 N      -14.2280     2.6950     2.2640 N.pl3 1 <1>  -0.8380 
 25 C      -15.1870     3.3520     3.1960 C.3   1 <1>   0.1290 
 26 C      -14.1160     1.2180     2.4070 C.3   1 <1>   0.1290 
 27 H       -2.0060     1.3400     4.0410 H     1 <1>   0.4500 
 28 H       -4.0020    -1.2450     2.7000 H     1 <1>   0.1500 
 29 H       -2.9060     2.8670     2.6180 H     1 <1>   0.1500 
 30 H       -5.5890    -0.8710     0.8670 H     1 <1>   0.1500 
 31 H       -4.4800     3.2680     0.7960 H     1 <1>   0.1500 
 32 H       -6.1920     0.6040    -1.0410 H     1 <1>   0.0800 
 33 H       -5.8320     2.3140    -1.0020 H     1 <1>   0.0800 
 34 H       -7.4130     2.5920     0.8900 H     1 <1>   0.0800 
 35 H       -7.8320     0.9060     0.7950 H     1 <1>   0.0800 
 36 H       -8.1900     2.8070    -1.4420 H     1 <1>   0.4500 
 37 H       -9.5050     3.4950     0.4780 H     1 <1>   0.0800 
 38 H      -10.2040     1.9030     0.5190 H     1 <1>   0.0800 
 39 H       -9.3510     0.1270    -1.0050 H     1 <1>   0.0800 
 40 H       -8.0560     0.4860    -2.1230 H     1 <1>   0.0800 
 41 H      -10.2450     0.4090    -3.2520 H     1 <1>   0.0800 
 42 H       -9.5000     1.9630    -3.4080 H     1 <1>   0.0800 
 43 H      -11.8790     2.2680    -2.8590 H     1 <1>   0.0800 
 44 H      -11.7420     1.1700    -1.5260 H     1 <1>   0.0800 
 45 H      -10.1440     4.1970    -2.9060 H     1 <1>   0.0800 
 46 H       -9.7310     4.9230    -1.3720 H     1 <1>   0.0800 
 47 H      -12.3090     5.1310    -2.8430 H     1 <1>   0.0800 
 48 H      -11.5340     6.3020    -1.7790 H     1 <1>   0.0800 
 49 H      -14.1090     6.1370    -0.4250 H     1 <1>   0.1500 
 50 H      -14.9450     4.3950     3.3110 H     1 <1>   0.0800 
 51 H      -15.1420     2.8850     4.1640 H     1 <1>   0.0800 
 52 H      -16.1860     3.2670     2.8040 H     1 <1>   0.0800 
 53 H      -13.7690     0.7690     1.4930 H     1 <1>   0.0800 
 54 H      -15.0780     0.7980     2.6440 H     1 <1>   0.0800 
 55 H      -13.4240     0.9850     3.1970 H     1 <1>   0.0800 
@<TRIPOS>BOND
  1   1   2  1   
  2   1  27  1   
  3   2   3  ar  
  4   2   4  ar  
  5   3   5  ar  
  6   3  28  1   
  7   4   6  ar  
  8   4  29  1   
  9   5   7  ar  
 10   5  30  1   
 11   6   7  ar  
 12   6  31  1   
 13   7   8  1   
 14   8   9  1   
 15   8  32  1   
 16   8  33  1   
 17   9  10  1   
 18   9  34  1   
 19   9  35  1   
 20  10  11  1   
 21  10  12  1   
 22  10  36  1   
 23  11  13  1   
 24  11  37  1   
 25  11  38  1   
 26  12  14  1   
 27  12  39  1   
 28  12  40  1   
 29  13  15  1   
 30  13  16  1   
 31  13  17  1   
 32  14  16  1   
 33  14  41  1   
 34  14  42  1   
 35  15  18  ar  
 36  15  19  ar  
 37  16  43  1   
 38  16  44  1   
 39  17  20  1   
 40  17  45  1   
 41  17  46  1   
 42  18  21  ar  
 43  19  20  1   
 44  19  22  ar  
 45  20  47  1   
 46  20  48  1   
 47  21  23  ar  
 48  21  24  1   
 49  22  23  ar  
 50  22  49  1   
 51  24  25  1   
 52  24  26  1   
 53  25  50  1   
 54  25  51  1   
 55  25  52  1   
 56  26  53  1   
 57  26  54  1   
 58  26  55  1   
@<TRIPOS>SUBSTRUCTURE
  1 ****  11 GROUP 4 **** **** 0

# MOE 2024.06 (io_trps.svl 2023.06)
