@<TRIPOS>MOLECULE
NONAME
35 36 1 0 0 
SMALL
USER_CHARGES


@<TRIPOS>ATOM
  1 CL       1.0320    -0.5400    -1.8640 Cl    1 <1>  -0.1770 
  2 C        2.2570     0.5360    -1.2330 C.ar  1 <1>   0.1770 
  3 C        3.1490     0.0910    -0.2730 C.ar  1 <1>   0.1600 
  4 C        2.3290     1.8320    -1.6980 C.ar  1 <1>  -0.1500 
  5 N        4.1070     0.8360     0.2620 N.ar  1 <1>  -0.6200 
  6 C        3.3210     2.6130    -1.1490 C.ar  1 <1>  -0.1500 
  7 C        4.1800     2.0880    -0.1840 C.ar  1 <1>   0.4100 
  8 N        5.1550     2.8930     0.3620 N.pl3 1 <1>  -0.8380 
  9 C        6.4860     2.2560     0.5710 C.3   1 <1>   0.3900 
 10 C        4.7170     3.7980     1.4530 C.3   1 <1>   0.2090 
 11 C        7.5840     3.3040     0.6130 C.2   1 <1>  -0.1810 
 12 C        4.8030     5.2420     0.9720 C.3   1 <1>  -0.2400 
 13 C        8.2370     3.7600     1.7510 C.2   1 <1>   0.1390 
 14 C        8.1460     3.9980    -0.4000 C.2   1 <1>  -0.3020 
 15 N        9.1290     4.6630     1.4790 N.2   1 <1>  -0.7070 
 16 N        9.0720     4.8110     0.1420 N.pl3 1 <1>   0.3140 
 17 C        9.9340     5.7700    -0.5770 C.3   1 <1>   0.0960 
 18 C       11.1430     5.0660    -1.2050 C.3   1 <1>  -0.2400 
 19 H        3.0650    -0.9250     0.0680 H     1 <1>   0.1500 
 20 H        1.6480     2.1980    -2.4440 H     1 <1>   0.1500 
 21 H        3.4560     3.6330    -1.4540 H     1 <1>   0.1500 
 22 H        6.6840     1.5760    -0.2390 H     1 <1>   0.0800 
 23 H        6.4750     1.6900     1.4860 H     1 <1>   0.0800 
 24 H        5.3360     3.6630     2.3230 H     1 <1>   0.0800 
 25 H        3.7010     3.5700     1.7300 H     1 <1>   0.0800 
 26 H        5.8170     5.4880     0.7140 H     1 <1>   0.0800 
 27 H        4.4810     5.9040     1.7540 H     1 <1>   0.0800 
 28 H        4.1730     5.3880     0.1150 H     1 <1>   0.0800 
 29 H        8.0360     3.4140     2.7510 H     1 <1>   0.1500 
 30 H        7.9330     3.9600    -1.4520 H     1 <1>   0.1500 
 31 H       10.2650     6.5130     0.1260 H     1 <1>   0.0800 
 32 H        9.3460     6.2530    -1.3360 H     1 <1>   0.0800 
 33 H       11.7260     4.5850    -0.4380 H     1 <1>   0.0800 
 34 H       11.7650     5.7850    -1.7070 H     1 <1>   0.0800 
 35 H       10.8200     4.3300    -1.9200 H     1 <1>   0.0800 
@<TRIPOS>BOND
  1   1   2  1   
  2   2   3  ar  
  3   2   4  ar  
  4   3   5  ar  
  5   3  19  1   
  6   4   6  ar  
  7   4  20  1   
  8   5   7  ar  
  9   6   7  ar  
 10   6  21  1   
 11   7   8  1   
 12   8   9  1   
 13   8  10  1   
 14   9  11  1   
 15   9  22  1   
 16   9  23  1   
 17  10  12  1   
 18  10  24  1   
 19  10  25  1   
 20  11  13  1   
 21  11  14  2   
 22  12  26  1   
 23  12  27  1   
 24  12  28  1   
 25  13  15  2   
 26  13  29  1   
 27  14  16  1   
 28  14  30  1   
 29  15  16  1   
 30  16  17  1   
 31  17  18  1   
 32  17  31  1   
 33  17  32  1   
 34  18  33  1   
 35  18  34  1   
 36  18  35  1   
@<TRIPOS>SUBSTRUCTURE
  1 ****   8 GROUP 4 **** **** 0

# MOE 2024.06 (io_trps.svl 2023.06)
