@<TRIPOS>MOLECULE
NONAME
58 61 1 0 0 
SMALL
USER_CHARGES


@<TRIPOS>ATOM
  1 O       -0.2180    -1.3540     2.1370 O.2   1 <1>  -0.5700 
  2 C        0.5140    -1.8150     1.2770 C.2   1 <1>   0.5440 
  3 N        0.6680    -1.0950     0.1080 N.am  1 <1>  -0.6600 
  4 C        1.1910    -3.0820     1.5380 C.ar  1 <1>   0.3960 
  5 C        0.0470     0.2330    -0.1040 C.3   1 <1>   0.1400 
  6 C        1.6510    -1.3930    -0.9600 C.3   1 <1>   0.1400 
  7 N        1.2660    -4.0310     0.5870 N.ar  1 <1>  -0.6200 
  8 C        1.7270    -3.2810     2.8140 C.ar  1 <1>   0.1600 
  9 C        0.9280     0.9080    -1.1480 C.3   1 <1>  -0.1600 
 10 C        1.5190    -0.2450    -1.9540 C.3   1 <1>  -0.1600 
 11 C        1.8700    -5.1270     0.9910 C.ar  1 <1>   0.4100 
 12 N        2.3600    -4.3730     3.2240 N.ar  1 <1>  -0.6200 
 13 N        1.8760    -6.1190     0.0470 N.pl3 1 <1>  -0.8690 
 14 C        2.4190    -5.2820     2.2720 C.ar  1 <1>   0.1600 
 15 C        1.0330    -7.3160     0.2550 C.3   1 <1>   0.2090 
 16 C       -0.4540    -6.9210     0.2790 C.3   1 <1>  -0.0800 
 17 C       -1.3910    -8.1170     0.4400 C.3   1 <1>   0.3430 
 18 C       -0.9370    -6.2100    -0.9870 C.3   1 <1>  -0.1600 
 19 N       -2.4880    -7.9460    -0.5650 N.4   1 <1>  -0.9590 
 20 C       -2.4150    -6.5370    -1.0380 C.3   1 <1>   0.3430 
 21 C       -3.8370    -8.3500    -0.0700 C.3   1 <1>   0.4230 
 22 C       -3.8140    -9.8280     0.3590 C.3   1 <1>  -0.1600 
 23 C       -4.8920    -8.1300    -1.1690 C.3   1 <1>  -0.1600 
 24 C       -5.2020   -10.3150     0.8000 C.3   1 <1>  -0.1600 
 25 C       -6.2810    -8.6180    -0.7310 C.3   1 <1>  -0.1600 
 26 C       -6.2440   -10.0870    -0.3000 C.3   1 <1>  -0.1600 
 27 H        0.0130     0.8000     0.8110 H     1 <1>   0.0800 
 28 H       -0.9520     0.0950    -0.4810 H     1 <1>   0.0800 
 29 H        1.4340    -2.3370    -1.4310 H     1 <1>   0.0800 
 30 H        2.6410    -1.4150    -0.5370 H     1 <1>   0.0800 
 31 H        1.6220    -2.4840     3.5310 H     1 <1>   0.1500 
 32 H        1.7130     1.4450    -0.6460 H     1 <1>   0.0800 
 33 H        0.3690     1.5940    -1.7580 H     1 <1>   0.0800 
 34 H        0.8330    -0.5340    -2.7320 H     1 <1>   0.0800 
 35 H        2.4650     0.0090    -2.4000 H     1 <1>   0.0800 
 36 H        1.7360    -5.7070    -0.8810 H     1 <1>   0.4000 
 37 H        2.9190    -6.2070     2.4930 H     1 <1>   0.1500 
 38 H        1.3080    -7.7860     1.1860 H     1 <1>   0.0800 
 39 H        1.2240    -8.0160    -0.5420 H     1 <1>   0.0800 
 40 H       -0.6230    -6.2790     1.1270 H     1 <1>   0.0800 
 41 H       -1.7910    -8.1260     1.4420 H     1 <1>   0.0800 
 42 H       -0.8690    -9.0440     0.2640 H     1 <1>   0.0800 
 43 H       -0.4540    -6.6030    -1.8640 H     1 <1>   0.0800 
 44 H       -0.7740    -5.1470    -0.9440 H     1 <1>   0.0800 
 45 H       -2.2740    -8.5460    -1.3700 H     1 <1>   0.4500 
 46 H       -2.8160    -6.4230    -2.0330 H     1 <1>   0.0800 
 47 H       -2.9490    -5.8920    -0.3580 H     1 <1>   0.0800 
 48 H       -4.1030    -7.7470     0.7850 H     1 <1>   0.0800 
 49 H       -3.1430    -9.9740     1.1860 H     1 <1>   0.0800 
 50 H       -3.4840   -10.4390    -0.4630 H     1 <1>   0.0800 
 51 H       -4.6080    -8.6660    -2.0580 H     1 <1>   0.0800 
 52 H       -4.9780    -7.0860    -1.4090 H     1 <1>   0.0800 
 53 H       -5.5060    -9.7910     1.6910 H     1 <1>   0.0800 
 54 H       -5.1590   -11.3650     1.0380 H     1 <1>   0.0800 
 55 H       -6.9800    -8.5030    -1.5430 H     1 <1>   0.0800 
 56 H       -6.6360    -8.0160     0.0900 H     1 <1>   0.0800 
 57 H       -7.2170   -10.3810     0.0600 H     1 <1>   0.0800 
 58 H       -6.0140   -10.7080    -1.1500 H     1 <1>   0.0800 
@<TRIPOS>BOND
  1   1   2  2   
  2   2   3  am  
  3   2   4  1   
  4   3   5  1   
  5   3   6  1   
  6   4   7  ar  
  7   4   8  ar  
  8   5   9  1   
  9   5  27  1   
 10   5  28  1   
 11   6  10  1   
 12   6  29  1   
 13   6  30  1   
 14   7  11  ar  
 15   8  12  ar  
 16   8  31  1   
 17   9  10  1   
 18   9  32  1   
 19   9  33  1   
 20  10  34  1   
 21  10  35  1   
 22  11  13  1   
 23  11  14  ar  
 24  12  14  ar  
 25  13  15  1   
 26  13  36  1   
 27  14  37  1   
 28  15  16  1   
 29  15  38  1   
 30  15  39  1   
 31  16  17  1   
 32  16  18  1   
 33  16  40  1   
 34  17  19  1   
 35  17  41  1   
 36  17  42  1   
 37  18  20  1   
 38  18  43  1   
 39  18  44  1   
 40  19  20  1   
 41  19  21  1   
 42  19  45  1   
 43  20  46  1   
 44  20  47  1   
 45  21  22  1   
 46  21  23  1   
 47  21  48  1   
 48  22  24  1   
 49  22  49  1   
 50  22  50  1   
 51  23  25  1   
 52  23  51  1   
 53  23  52  1   
 54  24  26  1   
 55  24  53  1   
 56  24  54  1   
 57  25  26  1   
 58  25  55  1   
 59  25  56  1   
 60  26  57  1   
 61  26  58  1   
@<TRIPOS>SUBSTRUCTURE
  1 ****  18 GROUP 4 **** **** 0

# MOE 2024.06 (io_trps.svl 2023.06)
