@<TRIPOS>MOLECULE
NONAME
47 49 1 0 0 
SMALL
USER_CHARGES


@<TRIPOS>ATOM
  1 O       -1.8040    -0.6050     3.4470 O.2   1 <1>  -0.5700 
  2 C       -1.2580    -1.5120     2.8630 C.2   1 <1>   0.5690 
  3 N        0.0480    -1.4180     2.4480 N.am  1 <1>  -0.6600 
  4 C       -2.0690    -2.7910     2.6170 C.3   1 <1>   0.2010 
  5 C        0.7510    -2.5360     1.7460 C.3   1 <1>   0.1400 
  6 C        0.8000    -0.1340     2.5520 C.3   1 <1>   0.2840 
  7 N       -1.3930    -3.7920     1.7140 N.am  1 <1>  -0.6600 
  8 C        0.0720    -3.8950     1.9720 C.3   1 <1>   0.1400 
  9 C        1.4260     0.2260     1.2120 C.ar  1 <1>  -0.1430 
 10 C       -2.1020    -4.4220     0.7200 C.2   1 <1>   0.5690 
 11 C        0.6170     0.4760     0.1150 C.ar  1 <1>  -0.1500 
 12 C        2.8010     0.2990     1.0670 C.ar  1 <1>  -0.1500 
 13 O       -3.3030    -4.3050     0.6560 O.2   1 <1>  -0.5700 
 14 C       -1.3940    -5.2790    -0.3330 C.3   1 <1>  -0.0190 
 15 C        1.1630     0.7870    -1.1210 C.ar  1 <1>  -0.1430 
 16 C        3.3540     0.6120    -0.1620 C.ar  1 <1>  -0.1500 
 17 C       -0.5600    -4.4460    -1.3320 C.3   1 <1>  -0.0220 
 18 C       -2.3030    -6.1880    -1.1960 C.3   1 <1>  -0.0220 
 19 C        2.5450     0.8560    -1.2610 C.ar  1 <1>  -0.1430 
 20 C        0.2280     1.0460    -2.2940 C.3   1 <1>  -0.0970 
 21 C       -0.6710    -5.2420    -2.6080 C.2   1 <1>  -0.2880 
 22 C       -1.6060    -6.1810    -2.5340 C.2   1 <1>  -0.2880 
 23 C        3.1920     1.1960    -2.5960 C.3   1 <1>  -0.0970 
 24 H       -3.0170    -2.4970     2.2020 H     1 <1>   0.0800 
 25 H       -2.2610    -3.2550     3.5660 H     1 <1>   0.0800 
 26 H        1.7690    -2.5900     2.0910 H     1 <1>   0.0800 
 27 H        0.7710    -2.3280     0.6900 H     1 <1>   0.0800 
 28 H        1.5620    -0.2360     3.3040 H     1 <1>   0.0800 
 29 H        0.1440     0.6640     2.8540 H     1 <1>   0.0800 
 30 H        0.2250    -4.1990     2.9930 H     1 <1>   0.0800 
 31 H        0.5350    -4.6320     1.3440 H     1 <1>   0.0800 
 32 H       -0.4520     0.4210     0.2340 H     1 <1>   0.1500 
 33 H        3.4490     0.1140     1.9050 H     1 <1>   0.1500 
 34 H       -0.7240    -5.9460     0.1760 H     1 <1>   0.0800 
 35 H        4.4240     0.6660    -0.2560 H     1 <1>   0.1500 
 36 H        0.4640    -4.3590    -1.0160 H     1 <1>   0.0800 
 37 H       -0.9840    -3.4670    -1.4770 H     1 <1>   0.0800 
 38 H       -3.2940    -5.7860    -1.3170 H     1 <1>   0.0800 
 39 H       -2.3640    -7.1790    -0.7810 H     1 <1>   0.0800 
 40 H       -0.8000     0.9480    -1.9970 H     1 <1>   0.0800 
 41 H        0.4210     0.3410    -3.0820 H     1 <1>   0.0800 
 42 H        0.3770     2.0430    -2.6680 H     1 <1>   0.0800 
 43 H       -0.0310    -4.9920    -3.4380 H     1 <1>   0.1500 
 44 H       -1.9170    -6.8870    -3.2860 H     1 <1>   0.1500 
 45 H        2.9120     0.4700    -3.3370 H     1 <1>   0.0800 
 46 H        4.2640     1.2000    -2.5150 H     1 <1>   0.0800 
 47 H        2.8740     2.1700    -2.9200 H     1 <1>   0.0800 
@<TRIPOS>BOND
  1   1   2  2   
  2   2   3  am  
  3   2   4  1   
  4   3   5  1   
  5   3   6  1   
  6   4   7  1   
  7   4  24  1   
  8   4  25  1   
  9   5   8  1   
 10   5  26  1   
 11   5  27  1   
 12   6   9  1   
 13   6  28  1   
 14   6  29  1   
 15   7   8  1   
 16   7  10  am  
 17   8  30  1   
 18   8  31  1   
 19   9  11  ar  
 20   9  12  ar  
 21  10  13  2   
 22  10  14  1   
 23  11  15  ar  
 24  11  32  1   
 25  12  16  ar  
 26  12  33  1   
 27  14  17  1   
 28  14  18  1   
 29  14  34  1   
 30  15  19  ar  
 31  15  20  1   
 32  16  19  ar  
 33  16  35  1   
 34  17  21  1   
 35  17  36  1   
 36  17  37  1   
 37  18  22  1   
 38  18  38  1   
 39  18  39  1   
 40  19  23  1   
 41  20  40  1   
 42  20  41  1   
 43  20  42  1   
 44  21  22  2   
 45  21  43  1   
 46  22  44  1   
 47  23  45  1   
 48  23  46  1   
 49  23  47  1   
@<TRIPOS>SUBSTRUCTURE
  1 ****   5 GROUP 4 **** **** 0

# MOE 2024.06 (io_trps.svl 2023.06)
