@<TRIPOS>MOLECULE
NONAME
37 39 1 0 0 
SMALL
USER_CHARGES


@<TRIPOS>ATOM
  1 O       -1.5700    -0.0880     0.7980 O.2   1 <1>  -0.5700 
  2 C       -2.3410     0.8570     0.9140 C.2   1 <1>   0.7160 
  3 N       -3.6760     0.5460     1.0920 N.am  1 <1>  -0.6600 
  4 C       -1.8310     2.2260     0.8560 C.2   1 <1>   0.2030 
  5 C       -4.0610    -0.7120     1.7960 C.3   1 <1>   0.3200 
  6 C       -4.7910     1.4550     0.6810 C.3   1 <1>   0.1400 
  7 N       -2.4070     3.3250     1.3350 N.2   1 <1>  -0.7070 
  8 C       -0.6020     2.5760     0.2780 C.2   1 <1>  -0.1810 
  9 C       -4.2590    -1.8520     0.8110 C.2   1 <1>   0.0060 
 10 C       -5.7520     0.7780    -0.3060 C.3   1 <1>   0.1200 
 11 N       -1.5600     4.3370     1.0610 N.pl3 1 <1>   0.3000 
 12 C       -0.4700     3.8860     0.4220 C.2   1 <1>  -0.3320 
 13 C        0.5770     1.9570    -0.4200 C.3   1 <1>   0.0210 
 14 N       -5.3440    -2.5500     0.6860 N.2   1 <1>  -0.5650 
 15 N       -3.2770    -2.2240    -0.0350 N.pl3 1 <1>   0.0330 
 16 O       -6.7050     1.6980    -0.7230 O.3   1 <1>  -0.6800 
 17 C        0.8060     4.4460    -0.1400 C.3   1 <1>   0.0200 
 18 C        1.4480     3.1890    -0.7780 C.3   1 <1>  -0.1600 
 19 C       -5.0500    -3.4230    -0.2980 C.2   1 <1>   0.0770 
 20 C       -3.7910    -3.2390    -0.7510 C.2   1 <1>  -0.3020 
 21 H       -4.9690    -0.5560     2.3520 H     1 <1>   0.0800 
 22 H       -3.2900    -0.9850     2.4970 H     1 <1>   0.0800 
 23 H       -4.3910     2.3260     0.1920 H     1 <1>   0.0800 
 24 H       -5.3250     1.7730     1.5590 H     1 <1>   0.0800 
 25 H       -6.2670    -0.0520     0.1450 H     1 <1>   0.0800 
 26 H       -5.2170     0.4420    -1.1770 H     1 <1>   0.0800 
 27 H       -1.7510     5.3120     1.3220 H     1 <1>   0.2700 
 28 H        0.2640     1.4230    -1.2990 H     1 <1>   0.0800 
 29 H        1.0930     1.2920     0.2500 H     1 <1>   0.0800 
 30 H       -2.3510    -1.7740    -0.0880 H     1 <1>   0.2700 
 31 H       -7.3320     1.9000    -0.0020 H     1 <1>   0.4000 
 32 H        1.4230     4.8420     0.6480 H     1 <1>   0.0800 
 33 H        0.6090     5.2050    -0.8780 H     1 <1>   0.0800 
 34 H        1.4750     3.3070    -1.8470 H     1 <1>   0.0800 
 35 H        2.4540     3.0560    -0.4210 H     1 <1>   0.0800 
 36 H       -5.7720    -4.1490    -0.6330 H     1 <1>   0.1500 
 37 H       -3.2480    -3.7560    -1.5200 H     1 <1>   0.1500 
@<TRIPOS>BOND
  1   1   2  2   
  2   2   3  am  
  3   2   4  1   
  4   3   5  1   
  5   3   6  1   
  6   4   7  2   
  7   4   8  1   
  8   5   9  1   
  9   5  21  1   
 10   5  22  1   
 11   6  10  1   
 12   6  23  1   
 13   6  24  1   
 14   7  11  1   
 15   8  12  2   
 16   8  13  1   
 17   9  14  2   
 18   9  15  1   
 19  10  16  1   
 20  10  25  1   
 21  10  26  1   
 22  11  12  1   
 23  11  27  1   
 24  12  17  1   
 25  13  18  1   
 26  13  28  1   
 27  13  29  1   
 28  14  19  1   
 29  15  20  1   
 30  15  30  1   
 31  16  31  1   
 32  17  18  1   
 33  17  32  1   
 34  17  33  1   
 35  18  34  1   
 36  18  35  1   
 37  19  20  2   
 38  19  36  1   
 39  20  37  1   
@<TRIPOS>SUBSTRUCTURE
  1 ****   2 GROUP 4 **** **** 0

# MOE 2024.06 (io_trps.svl 2023.06)
