@<TRIPOS>MOLECULE
NONAME
46 47 1 0 0 
SMALL
USER_CHARGES


@<TRIPOS>ATOM
  1 O        0.2260     1.3400     0.7630 O.2   1 <1>  -0.5700 
  2 C        0.1230     2.4660     0.3470 C.2   1 <1>   0.5690 
  3 N       -0.8440     3.2880     0.8070 N.am  1 <1>  -0.7300 
  4 C        1.0680     2.9770    -0.7400 C.3   1 <1>   0.1810 
  5 C       -1.1000     4.6490     0.2690 C.3   1 <1>   0.3640 
  6 O        1.1300     4.3850    -0.7700 O.3   1 <1>  -0.5600 
  7 C       -2.5620     4.7120    -0.1720 C.ar  1 <1>  -0.1440 
  8 C       -0.1350     5.0350    -0.8870 C.3   1 <1>   0.2610 
  9 C       -3.3330     5.8190     0.1560 C.ar  1 <1>  -0.1500 
 10 C       -3.1440     3.6820    -0.9010 C.ar  1 <1>  -0.1500 
 11 C        0.0530     6.5560    -0.9030 C.2   1 <1>   0.5690 
 12 C       -4.6590     5.8940    -0.2330 C.ar  1 <1>  -0.1500 
 13 C       -4.4710     3.7560    -1.2890 C.ar  1 <1>  -0.1500 
 14 O       -0.8950     7.2580    -1.1610 O.2   1 <1>  -0.5700 
 15 N        1.2860     7.0500    -0.5940 N.am  1 <1>  -0.7300 
 16 C       -5.2300     4.8620    -0.9540 C.ar  1 <1>  -0.1500 
 17 C        1.8140     8.4240    -0.4950 C.3   1 <1>   0.3000 
 18 C        1.6450     8.9450     0.9700 C.3   1 <1>  -0.0800 
 19 C        1.1660     9.3320    -1.5510 C.3   1 <1>  -0.2400 
 20 C        3.2980     8.2830    -0.8510 C.3   1 <1>  -0.2400 
 21 C        0.1950     8.9090     1.4950 C.3   1 <1>  -0.2400 
 22 C        2.1920    10.3700     1.1950 C.3   1 <1>  -0.2400 
 23 H       -1.5140     2.9260     1.4870 H     1 <1>   0.3700 
 24 H        0.7390     2.6270    -1.7010 H     1 <1>   0.0800 
 25 H        2.0590     2.6070    -0.5530 H     1 <1>   0.0800 
 26 H       -0.9530     5.3470     1.0750 H     1 <1>   0.0800 
 27 H       -0.5660     4.7440    -1.8280 H     1 <1>   0.0800 
 28 H       -2.9040     6.6390     0.7070 H     1 <1>   0.1500 
 29 H       -2.5730     2.8110    -1.1710 H     1 <1>   0.1500 
 30 H       -5.2440     6.7600     0.0240 H     1 <1>   0.1500 
 31 H       -4.9130     2.9520    -1.8520 H     1 <1>   0.1500 
 32 H        1.9960     6.3350    -0.4170 H     1 <1>   0.3700 
 33 H       -6.2610     4.9210    -1.2560 H     1 <1>   0.1500 
 34 H        2.2190     8.2910     1.6040 H     1 <1>   0.0800 
 35 H        1.6820    10.2720    -1.6110 H     1 <1>   0.0800 
 36 H        0.1400     9.5380    -1.3140 H     1 <1>   0.0800 
 37 H        1.2080     8.8660    -2.5190 H     1 <1>   0.0800 
 38 H        3.7730     9.2450    -0.9010 H     1 <1>   0.0800 
 39 H        3.4090     7.8180    -1.8140 H     1 <1>   0.0800 
 40 H        3.8130     7.6920    -0.1150 H     1 <1>   0.0800 
 41 H       -0.4500     9.5210     0.8910 H     1 <1>   0.0800 
 42 H        0.1530     9.2710     2.5070 H     1 <1>   0.0800 
 43 H       -0.1890     7.9070     1.4930 H     1 <1>   0.0800 
 44 H        1.6390    11.0890     0.6160 H     1 <1>   0.0800 
 45 H        3.2310    10.4370     0.9310 H     1 <1>   0.0800 
 46 H        2.1040    10.6400     2.2320 H     1 <1>   0.0800 
@<TRIPOS>BOND
  1   1   2  2   
  2   2   3  am  
  3   2   4  1   
  4   3   5  1   
  5   3  23  1   
  6   4   6  1   
  7   4  24  1   
  8   4  25  1   
  9   5   7  1   
 10   5   8  1   
 11   5  26  1   
 12   6   8  1   
 13   7   9  ar  
 14   7  10  ar  
 15   8  11  1   
 16   8  27  1   
 17   9  12  ar  
 18   9  28  1   
 19  10  13  ar  
 20  10  29  1   
 21  11  14  2   
 22  11  15  am  
 23  12  16  ar  
 24  12  30  1   
 25  13  16  ar  
 26  13  31  1   
 27  15  17  1   
 28  15  32  1   
 29  16  33  1   
 30  17  18  1   
 31  17  19  1   
 32  17  20  1   
 33  18  21  1   
 34  18  22  1   
 35  18  34  1   
 36  19  35  1   
 37  19  36  1   
 38  19  37  1   
 39  20  38  1   
 40  20  39  1   
 41  20  40  1   
 42  21  41  1   
 43  21  42  1   
 44  21  43  1   
 45  22  44  1   
 46  22  45  1   
 47  22  46  1   
@<TRIPOS>SUBSTRUCTURE
  1 ****   8 GROUP 4 **** **** 0

# MOE 2024.06 (io_trps.svl 2023.06)
