@<TRIPOS>MOLECULE
NONAME
44 46 1 0 0 
SMALL
USER_CHARGES


@<TRIPOS>ATOM
  1 CL      -0.3440    -1.1450    -0.1510 Cl    1 <1>  -0.1770 
  2 C       -2.0790    -1.2370    -0.3560 C.ar  1 <1>   0.1770 
  3 C       -2.9480    -0.5860     0.5160 C.ar  1 <1>  -0.1440 
  4 C       -2.5390    -1.9810    -1.4230 C.ar  1 <1>  -0.1500 
  5 C       -4.3280    -0.6600     0.2860 C.ar  1 <1>  -0.0090 
  6 C       -2.3960     0.1980     1.7090 C.3   1 <1>  -0.0960 
  7 C       -3.8970    -2.0860    -1.6370 C.ar  1 <1>  -0.1500 
  8 S       -5.5570     0.1800     1.3440 S.o2  1 <1>   1.4470 
  9 C       -4.7710    -1.4330    -0.7870 C.ar  1 <1>  -0.1500 
 10 O       -5.1140     1.5110     1.7050 O.2   1 <1>  -0.6500 
 11 O       -5.9520    -0.7290     2.3980 O.2   1 <1>  -0.6500 
 12 N       -6.9030     0.3950     0.3340 N.am  1 <1>  -0.8490 
 13 C       -8.1320     0.6280     1.1110 C.3   1 <1>   0.1960 
 14 C       -6.7040     1.4790    -0.6340 C.3   1 <1>   0.1960 
 15 C       -9.3900     0.6360     0.2060 C.3   1 <1>   0.0000 
 16 C       -7.8720     1.5280    -1.6240 C.3   1 <1>  -0.1600 
 17 C      -10.6860     0.8660     1.0090 C.3   1 <1>   0.2000 
 18 C       -9.2140     1.7000    -0.8960 C.3   1 <1>  -0.1600 
 19 C       -9.6350    -0.7680    -0.3780 C.3   1 <1>  -0.1600 
 20 O      -10.5300     1.7640     2.0500 O.3   1 <1>  -0.6800 
 21 C      -11.1240    -0.4980     1.5480 C.3   1 <1>  -0.1600 
 22 C      -10.3700    -1.5450     0.7180 C.3   1 <1>  -0.1600 
 23 H       -1.8380    -2.4730    -2.0740 H     1 <1>   0.1500 
 24 H       -3.0000     0.0380     2.5850 H     1 <1>   0.0800 
 25 H       -2.3850     1.2500     1.4840 H     1 <1>   0.0800 
 26 H       -1.3980    -0.1030     1.9670 H     1 <1>   0.0800 
 27 H       -4.2740    -2.6710    -2.4590 H     1 <1>   0.1500 
 28 H       -5.8280    -1.5330    -0.9660 H     1 <1>   0.1500 
 29 H       -8.2440    -0.1440     1.8530 H     1 <1>   0.0800 
 30 H       -8.0430     1.5700     1.6280 H     1 <1>   0.0800 
 31 H       -6.6270     2.4240    -0.1180 H     1 <1>   0.0800 
 32 H       -5.7870     1.3200    -1.1780 H     1 <1>   0.0800 
 33 H       -7.7250     2.3480    -2.3030 H     1 <1>   0.0800 
 34 H       -7.8770     0.6210    -2.2020 H     1 <1>   0.0800 
 35 H      -11.4510     1.2530     0.3550 H     1 <1>   0.0800 
 36 H      -10.0230     1.6500    -1.6050 H     1 <1>   0.0800 
 37 H       -9.2410     2.6760    -0.4420 H     1 <1>   0.0800 
 38 H      -10.2780    -0.6950    -1.2380 H     1 <1>   0.0800 
 39 H       -8.7270    -1.2640    -0.6740 H     1 <1>   0.0800 
 40 H      -10.0580     1.3420     2.7920 H     1 <1>   0.4000 
 41 H      -10.8770    -0.6140     2.5890 H     1 <1>   0.0800 
 42 H      -12.1860    -0.6120     1.4200 H     1 <1>   0.0800 
 43 H       -9.6530    -2.0520     1.3420 H     1 <1>   0.0800 
 44 H      -11.0380    -2.2770     0.2960 H     1 <1>   0.0800 
@<TRIPOS>BOND
  1   1   2  1   
  2   2   3  ar  
  3   2   4  ar  
  4   3   5  ar  
  5   3   6  1   
  6   4   7  ar  
  7   4  23  1   
  8   5   8  1   
  9   5   9  ar  
 10   6  24  1   
 11   6  25  1   
 12   6  26  1   
 13   7   9  ar  
 14   7  27  1   
 15   8  10  2   
 16   8  11  2   
 17   8  12  am  
 18   9  28  1   
 19  12  13  1   
 20  12  14  1   
 21  13  15  1   
 22  13  29  1   
 23  13  30  1   
 24  14  16  1   
 25  14  31  1   
 26  14  32  1   
 27  15  17  1   
 28  15  18  1   
 29  15  19  1   
 30  16  18  1   
 31  16  33  1   
 32  16  34  1   
 33  17  20  1   
 34  17  21  1   
 35  17  35  1   
 36  18  36  1   
 37  18  37  1   
 38  19  22  1   
 39  19  38  1   
 40  19  39  1   
 41  20  40  1   
 42  21  22  1   
 43  21  41  1   
 44  21  42  1   
 45  22  43  1   
 46  22  44  1   
@<TRIPOS>SUBSTRUCTURE
  1 ****  12 GROUP 4 **** **** 0

# MOE 2024.06 (io_trps.svl 2023.06)
