@<TRIPOS>MOLECULE
NONAME
47 49 1 0 0 
SMALL
USER_CHARGES


@<TRIPOS>ATOM
  1 S       -0.6450    -0.2290    -0.3840 S.3   1 <1>  -0.4600 
  2 C       -1.5930     1.3060    -0.3450 C.3   1 <1>   0.0700 
  3 C       -1.5180    -1.2790     0.7950 C.3   1 <1>   0.0700 
  4 C       -3.0380     0.9630    -0.7130 C.3   1 <1>  -0.1600 
  5 C       -2.9690    -1.3870     0.3240 C.3   1 <1>  -0.1600 
  6 C       -3.6640    -0.0180     0.2950 C.3   1 <1>   0.4230 
  7 N       -5.1200    -0.2160     0.0320 N.4   1 <1>  -0.9590 
  8 C       -5.4390    -0.7020    -1.3530 C.3   1 <1>   0.3430 
  9 C       -5.9360     0.9610     0.4430 C.3   1 <1>   0.3430 
 10 C       -6.9010    -1.1820    -1.5190 C.3   1 <1>   0.1400 
 11 C       -7.1680     0.5070     1.2330 C.3   1 <1>  -0.1600 
 12 N       -7.6240    -1.4610    -0.2290 N.am  1 <1>  -0.6600 
 13 C       -8.2210    -0.2670     0.4260 C.3   1 <1>   0.1400 
 14 C       -7.3330    -2.5830     0.5170 C.2   1 <1>   0.7030 
 15 O       -6.1610    -2.7470     0.8050 O.2   1 <1>  -0.5700 
 16 C       -8.3410    -3.5170     1.0070 C.2   1 <1>   0.2770 
 17 N       -9.6750    -3.6940     0.6110 N.pl3 1 <1>  -0.7640 
 18 C       -8.1290    -4.4390     1.9840 C.2   1 <1>   0.2000 
 19 C      -10.1920    -4.6750     1.3430 C.cat 1 <1>   0.6500 
 20 C      -10.3850    -2.9670    -0.4800 C.3   1 <1>   0.2740 
 21 N       -9.2830    -5.1400     2.1840 N.pl3 1 <1>  -0.7000 
 22 H       -1.1440     1.9710    -1.0640 H     1 <1>   0.0800 
 23 H       -1.5030     1.7210     0.6440 H     1 <1>   0.0800 
 24 H       -1.4300    -0.8260     1.7670 H     1 <1>   0.0800 
 25 H       -1.0260    -2.2370     0.7910 H     1 <1>   0.0800 
 26 H       -3.0350     0.5430    -1.7030 H     1 <1>   0.0800 
 27 H       -3.5950     1.8810    -0.7320 H     1 <1>   0.0800 
 28 H       -3.4850    -2.0400     1.0040 H     1 <1>   0.0800 
 29 H       -2.9680    -1.8400    -0.6510 H     1 <1>   0.0800 
 30 H       -3.5570     0.4110     1.2790 H     1 <1>   0.0800 
 31 H       -5.4100    -1.0080     0.6370 H     1 <1>   0.4500 
 32 H       -4.7970    -1.5340    -1.5880 H     1 <1>   0.0800 
 33 H       -5.2330     0.0700    -2.0760 H     1 <1>   0.0800 
 34 H       -6.2330     1.5320    -0.4220 H     1 <1>   0.0800 
 35 H       -5.3460     1.6030     1.0770 H     1 <1>   0.0800 
 36 H       -6.8950    -2.0750    -2.1210 H     1 <1>   0.0800 
 37 H       -7.4460    -0.4400    -2.0780 H     1 <1>   0.0800 
 38 H       -7.6460     1.3890     1.6220 H     1 <1>   0.0800 
 39 H       -6.8590    -0.0700     2.0860 H     1 <1>   0.0800 
 40 H       -8.6590     0.3760    -0.3200 H     1 <1>   0.0800 
 41 H       -9.0110    -0.5780     1.0900 H     1 <1>   0.0800 
 42 H       -7.2180    -4.6220     2.5340 H     1 <1>   0.1500 
 43 H      -11.2060    -5.0490     1.2640 H     1 <1>   0.1500 
 44 H       -9.7970    -2.9880    -1.3820 H     1 <1>   0.0800 
 45 H      -10.5540    -1.9430    -0.1940 H     1 <1>   0.0800 
 46 H      -11.3370    -3.4280    -0.6830 H     1 <1>   0.0800 
 47 H       -9.4170    -5.9010     2.8600 H     1 <1>   0.4500 
@<TRIPOS>BOND
  1   1   2  1   
  2   1   3  1   
  3   2   4  1   
  4   2  22  1   
  5   2  23  1   
  6   3   5  1   
  7   3  24  1   
  8   3  25  1   
  9   4   6  1   
 10   4  26  1   
 11   4  27  1   
 12   5   6  1   
 13   5  28  1   
 14   5  29  1   
 15   6   7  1   
 16   6  30  1   
 17   7   8  1   
 18   7   9  1   
 19   7  31  1   
 20   8  10  1   
 21   8  32  1   
 22   8  33  1   
 23   9  11  1   
 24   9  34  1   
 25   9  35  1   
 26  10  12  1   
 27  10  36  1   
 28  10  37  1   
 29  11  13  1   
 30  11  38  1   
 31  11  39  1   
 32  12  13  1   
 33  12  14  am  
 34  13  40  1   
 35  13  41  1   
 36  14  15  2   
 37  14  16  1   
 38  16  17  1   
 39  16  18  2   
 40  17  19  ar  
 41  17  20  1   
 42  18  21  1   
 43  18  42  1   
 44  19  21  ar  
 45  19  43  1   
 46  20  44  1   
 47  20  45  1   
 48  20  46  1   
 49  21  47  1   
@<TRIPOS>SUBSTRUCTURE
  1 ****  15 GROUP 4 **** **** 0

# MOE 2024.06 (io_trps.svl 2023.06)
