@<TRIPOS>MOLECULE
NONAME
41 43 1 0 0 
SMALL
USER_CHARGES


@<TRIPOS>ATOM
  1 O       -2.5280     0.4040    -1.4700 O.2   1 <1>  -0.5700 
  2 C       -2.0720     0.5160    -0.3580 C.2   1 <1>   0.5690 
  3 N       -1.8120    -0.5710     0.4100 N.am  1 <1>  -0.7300 
  4 C       -1.7990     1.8960     0.1970 C.3   1 <1>  -0.0990 
  5 C       -1.8950    -1.9680    -0.0740 C.3   1 <1>   0.3880 
  6 C       -0.7210     2.6210    -0.6170 C.3   1 <1>   0.0210 
  7 C       -3.3660    -2.3980    -0.2160 C.2   1 <1>   0.1820 
  8 C       -1.0700    -2.8560     0.8720 C.3   1 <1>  -0.1600 
  9 C       -0.4480     3.9870    -0.0210 C.2   1 <1>  -0.1810 
 10 N       -4.2190    -1.7460    -1.0660 N.pl3 1 <1>  -0.7000 
 11 C       -4.0860    -3.3750     0.3780 C.2   1 <1>   0.2000 
 12 C       -0.7970    -4.2580     0.3020 C.3   1 <1>  -0.2400 
 13 C        0.3920     4.2830     1.0490 C.2   1 <1>   0.1390 
 14 C       -0.9570     5.1800    -0.3950 C.2   1 <1>  -0.3020 
 15 C       -5.4140    -2.3040    -0.9920 C.cat 1 <1>   0.9620 
 16 N       -5.3790    -3.3260    -0.1120 N.pl3 1 <1>  -0.6290 
 17 N        0.4070     5.5500     1.3270 N.2   1 <1>  -0.7070 
 18 N       -0.4280     6.1060     0.4290 N.pl3 1 <1>   0.3000 
 19 N       -6.4990    -1.9210    -1.6690 N.2   1 <1>  -0.6120 
 20 C       -6.5110    -4.0540     0.1290 C.2   1 <1>   0.2290 
 21 C       -7.5720    -2.6110    -1.4390 C.2   1 <1>   0.3760 
 22 C       -7.6330    -3.6960    -0.5440 C.2   1 <1>  -0.1360 
 23 H       -1.4260    -0.4470     1.3470 H     1 <1>   0.3700 
 24 H       -1.4900     1.8270     1.2230 H     1 <1>   0.0800 
 25 H       -2.7090     2.4660     0.1620 H     1 <1>   0.0800 
 26 H       -1.4440    -2.0050    -1.0530 H     1 <1>   0.0800 
 27 H       -1.0530     2.7370    -1.6340 H     1 <1>   0.0800 
 28 H        0.1890     2.0460    -0.6280 H     1 <1>   0.0800 
 29 H       -1.5650    -2.9420     1.8230 H     1 <1>   0.0800 
 30 H       -0.1140    -2.3870     1.0370 H     1 <1>   0.0800 
 31 H       -3.9820    -0.9040    -1.6150 H     1 <1>   0.4500 
 32 H       -3.7740    -4.0990     1.1130 H     1 <1>   0.1500 
 33 H       -1.7030    -4.8100     0.1290 H     1 <1>   0.0800 
 34 H       -0.1910    -4.8200     0.9930 H     1 <1>   0.0800 
 35 H       -0.2570    -4.1880    -0.6280 H     1 <1>   0.0800 
 36 H        0.9710     3.5570     1.5940 H     1 <1>   0.1500 
 37 H       -1.6490     5.4190    -1.1820 H     1 <1>   0.1500 
 38 H       -0.6130     7.1160     0.4060 H     1 <1>   0.2700 
 39 H       -6.4730    -4.8720     0.8340 H     1 <1>   0.1500 
 40 H       -8.4750    -2.3430    -1.9620 H     1 <1>   0.0600 
 41 H       -8.5670    -4.2140    -0.4150 H     1 <1>   0.1500 
@<TRIPOS>BOND
  1   1   2  2   
  2   2   3  am  
  3   2   4  1   
  4   3   5  1   
  5   3  23  1   
  6   4   6  1   
  7   4  24  1   
  8   4  25  1   
  9   5   7  1   
 10   5   8  1   
 11   5  26  1   
 12   6   9  1   
 13   6  27  1   
 14   6  28  1   
 15   7  10  1   
 16   7  11  2   
 17   8  12  1   
 18   8  29  1   
 19   8  30  1   
 20   9  13  1   
 21   9  14  2   
 22  10  15  ar  
 23  10  31  1   
 24  11  16  1   
 25  11  32  1   
 26  12  33  1   
 27  12  34  1   
 28  12  35  1   
 29  13  17  2   
 30  13  36  1   
 31  14  18  1   
 32  14  37  1   
 33  15  16  ar  
 34  15  19  1   
 35  16  20  1   
 36  17  18  1   
 37  18  38  1   
 38  19  21  2   
 39  20  22  2   
 40  20  39  1   
 41  21  22  1   
 42  21  40  1   
 43  22  41  1   
@<TRIPOS>SUBSTRUCTURE
  1 ****   2 GROUP 4 **** **** 0

# MOE 2024.06 (io_trps.svl 2023.06)
