@<TRIPOS>MOLECULE
NONAME
53 55 1 0 0 
SMALL
USER_CHARGES


@<TRIPOS>ATOM
  1 F       -0.4800    -0.9210    -1.1710 F     1 <1>  -0.3400 
  2 C        0.2710    -1.5660    -0.2870 C.3   1 <1>   0.8800 
  3 F        1.5180    -1.4530    -0.7200 F     1 <1>  -0.3400 
  4 O       -0.0740    -2.9300    -0.3160 O.3   1 <1>  -0.3630 
  5 C       -1.1690    -3.3850     0.3400 C.ar  1 <1>   0.0830 
  6 C       -1.2670    -4.7560     0.4910 C.ar  1 <1>  -0.1500 
  7 C       -2.1690    -2.5630     0.8530 C.ar  1 <1>  -0.1500 
  8 C       -2.3490    -5.3460     1.1400 C.ar  1 <1>   0.0860 
  9 C       -3.2420    -3.1280     1.5190 C.ar  1 <1>  -0.1500 
 10 C       -2.4610    -6.7870     1.2710 C.2   1 <1>   0.5440 
 11 C       -3.3270    -4.5010     1.6620 C.ar  1 <1>  -0.1500 
 12 O       -2.6720    -7.2670     2.3660 O.2   1 <1>  -0.5700 
 13 N       -2.3540    -7.6140     0.1760 N.am  1 <1>  -0.6600 
 14 C       -2.3320    -9.1120     0.3330 C.3   1 <1>   0.3640 
 15 C       -2.6090    -7.1100    -1.2140 C.3   1 <1>   0.1400 
 16 C       -0.9730    -9.7190    -0.0660 C.ar  1 <1>  -0.1430 
 17 C       -3.5090    -9.7720    -0.4560 C.3   1 <1>   0.2000 
 18 C       -2.9870    -8.2360    -2.1880 C.3   1 <1>   0.1200 
 19 C       -0.7800   -11.0800     0.1420 C.ar  1 <1>  -0.1500 
 20 C        0.0780    -8.9820    -0.6070 C.ar  1 <1>  -0.1500 
 21 O       -3.9420    -9.0570    -1.5950 O.3   1 <1>  -0.5600 
 22 C       -4.7370    -9.9540     0.4440 C.3   1 <1>   0.1200 
 23 C        0.4050   -11.7040    -0.2060 C.ar  1 <1>   0.0830 
 24 C        1.2760    -9.5910    -0.9420 C.ar  1 <1>  -0.1500 
 25 O       -4.5320   -11.0160     1.3210 O.3   1 <1>  -0.6800 
 26 O        0.4820   -13.0440    -0.0130 O.3   1 <1>  -0.3630 
 27 C        1.4550   -10.9470    -0.7340 C.ar  1 <1>   0.0830 
 28 C        0.6490   -13.8410    -1.1660 C.3   1 <1>   0.0400 
 29 O        2.6630   -11.4750    -1.0490 O.3   1 <1>  -0.3630 
 30 C        3.4400   -11.9340     0.0360 C.3   1 <1>   0.0400 
 31 H        0.1770    -1.1210     0.6880 H     1 <1>   0.0800 
 32 H       -0.4840    -5.3810     0.1020 H     1 <1>   0.1500 
 33 H       -2.1430    -1.4940     0.7450 H     1 <1>   0.1500 
 34 H       -4.0160    -2.4990     1.9260 H     1 <1>   0.1500 
 35 H       -4.1610    -4.9370     2.1850 H     1 <1>   0.1500 
 36 H       -2.4600    -9.3670     1.3710 H     1 <1>   0.0800 
 37 H       -3.4170    -6.3990    -1.1880 H     1 <1>   0.0800 
 38 H       -1.7360    -6.6040    -1.5850 H     1 <1>   0.0800 
 39 H       -3.2100   -10.7410    -0.8110 H     1 <1>   0.0800 
 40 H       -2.1300    -8.8310    -2.4550 H     1 <1>   0.0800 
 41 H       -3.4130    -7.8240    -3.0860 H     1 <1>   0.0800 
 42 H       -1.5570   -11.6810     0.5820 H     1 <1>   0.1500 
 43 H       -0.0110    -7.9250    -0.7660 H     1 <1>   0.1500 
 44 H       -5.6120   -10.1720    -0.1430 H     1 <1>   0.0800 
 45 H       -4.9050    -9.0660     1.0290 H     1 <1>   0.0800 
 46 H        2.0820    -9.0140    -1.3560 H     1 <1>   0.1500 
 47 H       -4.6760   -11.8720     0.8700 H     1 <1>   0.4000 
 48 H        0.5430   -14.8720    -0.8800 H     1 <1>   0.0800 
 49 H        1.6290   -13.6750    -1.5770 H     1 <1>   0.0800 
 50 H       -0.1060   -13.5770    -1.8840 H     1 <1>   0.0800 
 51 H        4.3950   -12.2480    -0.3430 H     1 <1>   0.0800 
 52 H        2.9410   -12.7620     0.5070 H     1 <1>   0.0800 
 53 H        3.5670   -11.1280     0.7370 H     1 <1>   0.0800 
@<TRIPOS>BOND
  1   1   2  1   
  2   2   3  1   
  3   2   4  1   
  4   2  31  1   
  5   4   5  1   
  6   5   6  ar  
  7   5   7  ar  
  8   6   8  ar  
  9   6  32  1   
 10   7   9  ar  
 11   7  33  1   
 12   8  10  1   
 13   8  11  ar  
 14   9  11  ar  
 15   9  34  1   
 16  10  12  2   
 17  10  13  am  
 18  11  35  1   
 19  13  14  1   
 20  13  15  1   
 21  14  16  1   
 22  14  17  1   
 23  14  36  1   
 24  15  18  1   
 25  15  37  1   
 26  15  38  1   
 27  16  19  ar  
 28  16  20  ar  
 29  17  21  1   
 30  17  22  1   
 31  17  39  1   
 32  18  21  1   
 33  18  40  1   
 34  18  41  1   
 35  19  23  ar  
 36  19  42  1   
 37  20  24  ar  
 38  20  43  1   
 39  22  25  1   
 40  22  44  1   
 41  22  45  1   
 42  23  26  1   
 43  23  27  ar  
 44  24  27  ar  
 45  24  46  1   
 46  25  47  1   
 47  26  28  1   
 48  27  29  1   
 49  28  48  1   
 50  28  49  1   
 51  28  50  1   
 52  29  30  1   
 53  30  51  1   
 54  30  52  1   
 55  30  53  1   
@<TRIPOS>SUBSTRUCTURE
  1 ****  13 GROUP 4 **** **** 0

# MOE 2024.06 (io_trps.svl 2023.06)
