@<TRIPOS>MOLECULE
NONAME
47 49 1 0 0 
SMALL
USER_CHARGES


@<TRIPOS>ATOM
  1 O        0.0380     0.2720    -0.7340 O.2   1 <1>  -0.5700 
  2 C       -0.0650     1.4850    -0.6300 C.2   1 <1>   0.5440 
  3 N       -1.2810     2.0080    -0.2160 N.am  1 <1>  -0.6600 
  4 C        1.1010     2.3340    -0.8890 C.ar  1 <1>   0.3960 
  5 C       -2.4240     1.1140     0.1400 C.3   1 <1>   0.1400 
  6 C       -1.5110     3.4780    -0.0880 C.3   1 <1>   0.1400 
  7 N        1.1270     3.0750    -2.0120 N.ar  1 <1>  -0.6200 
  8 C        2.1530     2.3680     0.0410 C.ar  1 <1>  -0.1430 
  9 C       -3.2730     1.7500     1.2430 C.3   1 <1>  -0.1600 
 10 C       -2.9950     3.7910    -0.2650 C.3   1 <1>  -0.1600 
 11 C        2.1910     3.8260    -2.2130 C.ar  1 <1>   0.1600 
 12 C        3.2530     3.1670    -0.1910 C.ar  1 <1>  -0.1500 
 13 C        2.1070     1.5310     1.3160 C.3   1 <1>  -0.0970 
 14 C       -3.8490     3.1310     0.8430 C.3   1 <1>   0.2800 
 15 C        3.2650     3.9100    -1.3480 C.ar  1 <1>  -0.1500 
 16 O       -3.6690     3.9550     1.9760 O.3   1 <1>  -0.5600 
 17 C       -5.3570     3.0070     0.4460 C.3   1 <1>   0.2000 
 18 C       -4.7650     4.6240     2.5310 C.3   1 <1>   0.1200 
 19 O       -5.5170     2.2710    -0.7400 O.3   1 <1>  -0.6800 
 20 C       -6.1080     4.3760     0.4110 C.3   1 <1>   0.2800 
 21 C       -5.5110     5.3680     1.4230 C.3   1 <1>  -0.1600 
 22 O       -7.4100     4.1440     0.8130 O.3   1 <1>  -0.6800 
 23 C       -6.2200     5.0250    -0.9770 C.3   1 <1>  -0.2400 
 24 H       -3.0240     0.9430    -0.7370 H     1 <1>   0.0800 
 25 H       -2.0550     0.1610     0.4810 H     1 <1>   0.0800 
 26 H       -1.1810     3.8050     0.8840 H     1 <1>   0.0800 
 27 H       -0.9510     4.0100    -0.8360 H     1 <1>   0.0800 
 28 H       -2.6510     1.8480     2.1150 H     1 <1>   0.0800 
 29 H       -4.0680     1.0710     1.4920 H     1 <1>   0.0800 
 30 H       -3.2820     3.4360    -1.2370 H     1 <1>   0.0800 
 31 H       -3.1330     4.8550    -0.2550 H     1 <1>   0.0800 
 32 H        2.2110     4.4100    -3.1170 H     1 <1>   0.1500 
 33 H        4.0770     3.2140     0.5010 H     1 <1>   0.1500 
 34 H        2.9500     1.7400     1.9500 H     1 <1>   0.0800 
 35 H        2.1200     0.4840     1.0680 H     1 <1>   0.0800 
 36 H        1.2080     1.7430     1.8690 H     1 <1>   0.0800 
 37 H        4.0980     4.5480    -1.5820 H     1 <1>   0.1500 
 38 H       -5.8230     2.4130     1.2130 H     1 <1>   0.0800 
 39 H       -5.4000     3.9050     3.0220 H     1 <1>   0.0800 
 40 H       -4.3870     5.3130     3.2650 H     1 <1>   0.0800 
 41 H       -5.2820     2.8200    -1.5110 H     1 <1>   0.4000 
 42 H       -4.8060     6.0220     0.9420 H     1 <1>   0.0800 
 43 H       -6.2780     5.9880     1.8510 H     1 <1>   0.0800 
 44 H       -7.9610     4.9260     0.6260 H     1 <1>   0.4000 
 45 H       -5.2450     5.1900    -1.3950 H     1 <1>   0.0800 
 46 H       -6.7150     5.9770    -0.9090 H     1 <1>   0.0800 
 47 H       -6.7770     4.3930    -1.6470 H     1 <1>   0.0800 
@<TRIPOS>BOND
  1   1   2  2   
  2   2   3  am  
  3   2   4  1   
  4   3   5  1   
  5   3   6  1   
  6   4   7  ar  
  7   4   8  ar  
  8   5   9  1   
  9   5  24  1   
 10   5  25  1   
 11   6  10  1   
 12   6  26  1   
 13   6  27  1   
 14   7  11  ar  
 15   8  12  ar  
 16   8  13  1   
 17   9  14  1   
 18   9  28  1   
 19   9  29  1   
 20  10  14  1   
 21  10  30  1   
 22  10  31  1   
 23  11  15  ar  
 24  11  32  1   
 25  12  15  ar  
 26  12  33  1   
 27  13  34  1   
 28  13  35  1   
 29  13  36  1   
 30  14  16  1   
 31  14  17  1   
 32  15  37  1   
 33  16  18  1   
 34  17  19  1   
 35  17  20  1   
 36  17  38  1   
 37  18  21  1   
 38  18  39  1   
 39  18  40  1   
 40  19  41  1   
 41  20  21  1   
 42  20  22  1   
 43  20  23  1   
 44  21  42  1   
 45  21  43  1   
 46  22  44  1   
 47  23  45  1   
 48  23  46  1   
 49  23  47  1   
@<TRIPOS>SUBSTRUCTURE
  1 ****   6 GROUP 4 **** **** 0

# MOE 2024.06 (io_trps.svl 2023.06)
