@<TRIPOS>MOLECULE
NONAME
55 58 1 0 0 
SMALL
USER_CHARGES


@<TRIPOS>ATOM
  1 O       -3.0140    -0.8090     1.0380 O.2   1 <1>  -0.5700 
  2 C       -3.0010     0.2820     0.4750 C.2   1 <1>   0.6160 
  3 N       -2.6590     1.4180     1.2110 N.am  1 <1>  -0.4690 
  4 C       -3.3740     0.4210    -0.8990 C.2   1 <1>   0.0290 
  5 C       -2.7400     2.6690     0.6320 C.2   1 <1>  -0.0290 
  6 C       -2.2160     1.2600     2.6320 C.3   1 <1>   0.0600 
  7 C       -3.4350     1.6770    -1.4590 C.2   1 <1>  -0.1380 
  8 C       -3.6590    -0.7860    -1.6230 C.2   1 <1>   0.6160 
  9 C       -3.1180     2.7990    -0.6700 C.2   1 <1>  -0.1500 
 10 C       -2.4070     3.9060     1.4560 C.3   1 <1>  -0.1020 
 11 C       -3.8250     1.9390    -2.9090 C.3   1 <1>  -0.1020 
 12 O       -2.8590    -1.1760    -2.4560 O.2   1 <1>  -0.5700 
 13 N       -4.8390    -1.4860    -1.4570 N.am  1 <1>  -0.6600 
 14 C       -5.8830    -1.1480    -0.4400 C.3   1 <1>   0.1400 
 15 C       -5.0720    -2.8150    -2.1000 C.3   1 <1>   0.1400 
 16 C       -6.0240    -2.2840     0.5920 C.3   1 <1>   0.1900 
 17 C       -5.2610    -3.9100    -1.0370 C.3   1 <1>   0.1100 
 18 N       -6.3440    -3.5660    -0.0870 N.3   1 <1>  -0.8100 
 19 C       -7.1070    -1.9310     1.6310 C.3   1 <1>   0.1200 
 20 C       -6.5400    -4.6280     0.9280 C.3   1 <1>   0.3330 
 21 O       -7.2630    -2.9670     2.5600 O.3   1 <1>  -0.5600 
 22 C       -6.9850    -5.9380     0.2770 C.ar  1 <1>  -0.1440 
 23 C       -7.5940    -4.1960     1.9700 C.3   1 <1>   0.1200 
 24 C       -6.3730    -7.1320     0.6300 C.ar  1 <1>  -0.1500 
 25 C       -8.0040    -5.9560    -0.6660 C.ar  1 <1>  -0.1500 
 26 C       -6.7750    -8.3250     0.0520 C.ar  1 <1>  -0.1500 
 27 C       -8.4080    -7.1460    -1.2440 C.ar  1 <1>  -0.1500 
 28 C       -7.7930    -8.3320    -0.8850 C.ar  1 <1>  -0.1500 
 29 H       -1.3380     1.8530     2.8130 H     1 <1>   0.0800 
 30 H       -1.9680     0.2380     2.8550 H     1 <1>   0.0800 
 31 H       -3.0050     1.5750     3.2910 H     1 <1>   0.0800 
 32 H       -3.1800     3.7710    -1.1280 H     1 <1>   0.1500 
 33 H       -3.0280     3.9470     2.3330 H     1 <1>   0.0800 
 34 H       -2.5760     4.8010     0.8850 H     1 <1>   0.0800 
 35 H       -1.3740     3.8890     1.7510 H     1 <1>   0.0800 
 36 H       -4.6190     2.6630    -2.9520 H     1 <1>   0.0800 
 37 H       -4.1600     1.0470    -3.4070 H     1 <1>   0.0800 
 38 H       -2.9770     2.3240    -3.4480 H     1 <1>   0.0800 
 39 H       -5.6430    -0.2330     0.0680 H     1 <1>   0.0800 
 40 H       -6.8240    -1.0090    -0.9410 H     1 <1>   0.0800 
 41 H       -5.9550    -2.7620    -2.7120 H     1 <1>   0.0800 
 42 H       -4.2470    -3.0830    -2.7360 H     1 <1>   0.0800 
 43 H       -5.0870    -2.3770     1.1150 H     1 <1>   0.0800 
 44 H       -4.3340    -4.0450    -0.5060 H     1 <1>   0.0800 
 45 H       -5.4950    -4.8330    -1.5390 H     1 <1>   0.0800 
 46 H       -8.0540    -1.7600     1.1490 H     1 <1>   0.0800 
 47 H       -6.8260    -1.0480     2.1750 H     1 <1>   0.0800 
 48 H       -5.6110    -4.7910     1.4470 H     1 <1>   0.0800 
 49 H       -7.6570    -4.9300     2.7530 H     1 <1>   0.0800 
 50 H       -8.5600    -4.1040     1.5060 H     1 <1>   0.0800 
 51 H       -5.5810    -7.1420     1.3580 H     1 <1>   0.1500 
 52 H       -8.4800    -5.0330    -0.9520 H     1 <1>   0.1500 
 53 H       -6.2960    -9.2460     0.3320 H     1 <1>   0.1500 
 54 H       -9.1980    -7.1480    -1.9740 H     1 <1>   0.1500 
 55 H       -8.1060    -9.2590    -1.3340 H     1 <1>   0.1500 
@<TRIPOS>BOND
  1   1   2  2   
  2   2   3  am  
  3   2   4  1   
  4   3   5  1   
  5   3   6  1   
  6   4   7  2   
  7   4   8  1   
  8   5   9  2   
  9   5  10  1   
 10   6  29  1   
 11   6  30  1   
 12   6  31  1   
 13   7   9  1   
 14   7  11  1   
 15   8  12  2   
 16   8  13  am  
 17   9  32  1   
 18  10  33  1   
 19  10  34  1   
 20  10  35  1   
 21  11  36  1   
 22  11  37  1   
 23  11  38  1   
 24  13  14  1   
 25  13  15  1   
 26  14  16  1   
 27  14  39  1   
 28  14  40  1   
 29  15  17  1   
 30  15  41  1   
 31  15  42  1   
 32  16  18  1   
 33  16  19  1   
 34  16  43  1   
 35  17  18  1   
 36  17  44  1   
 37  17  45  1   
 38  18  20  1   
 39  19  21  1   
 40  19  46  1   
 41  19  47  1   
 42  20  22  1   
 43  20  23  1   
 44  20  48  1   
 45  21  23  1   
 46  22  24  ar  
 47  22  25  ar  
 48  23  49  1   
 49  23  50  1   
 50  24  26  ar  
 51  24  51  1   
 52  25  27  ar  
 53  25  52  1   
 54  26  28  ar  
 55  26  53  1   
 56  27  28  ar  
 57  27  54  1   
 58  28  55  1   
@<TRIPOS>SUBSTRUCTURE
  1 ****  16 GROUP 4 **** **** 0

# MOE 2024.06 (io_trps.svl 2023.06)
