@<TRIPOS>MOLECULE
NONAME
47 49 1 0 0 
SMALL
USER_CHARGES


@<TRIPOS>ATOM
  1 S        1.5530    -0.0130     1.6930 S.3   1 <1>  -0.0800 
  2 C        1.4410     0.9550     0.2290 C.2   1 <1>  -0.1400 
  3 C        1.5600    -1.5020     0.7660 C.2   1 <1>  -0.1100 
  4 C        1.4160     0.1550    -0.8570 C.2   1 <1>  -0.1500 
  5 C        1.3990     2.4630     0.4120 C.3   1 <1>   0.3800 
  6 C        1.4830    -1.2410    -0.5510 C.2   1 <1>  -0.1500 
  7 O        1.0360     3.0330    -0.7940 O.3   1 <1>  -0.6800 
  8 C        2.7630     3.0440     0.8540 C.3   1 <1>  -0.0800 
  9 C        2.6920     4.5700     1.0720 C.3   1 <1>  -0.1600 
 10 C        3.9000     2.6990    -0.1330 C.3   1 <1>  -0.1600 
 11 C        4.0520     5.1640     1.4330 C.3   1 <1>   0.3430 
 12 C        5.2240     3.3480     0.2630 C.3   1 <1>   0.3430 
 13 N        5.0420     4.8230     0.3690 N.4   1 <1>  -0.9590 
 14 C        6.3530     5.5010     0.5590 C.3   1 <1>   0.3430 
 15 C        6.2250     6.9980     0.2800 C.3   1 <1>  -0.1600 
 16 C        7.5900     7.6970     0.3380 C.3   1 <1>  -0.0170 
 17 C        7.4150     9.1820     0.0690 C.ar  1 <1>  -0.1430 
 18 C        7.2110    10.0750     1.1130 C.ar  1 <1>   0.1600 
 19 C        7.4480     9.6700    -1.2220 C.ar  1 <1>  -0.1500 
 20 N        7.0310    11.3770     0.9740 N.ar  1 <1>  -0.6200 
 21 C        7.2680    11.0270    -1.3840 C.ar  1 <1>  -0.1500 
 22 C        7.0660    11.8230    -0.2700 C.ar  1 <1>   0.1600 
 23 H        1.6220    -2.4270     1.3130 H     1 <1>   0.1500 
 24 H        1.3550     0.4860    -1.8800 H     1 <1>   0.1500 
 25 H        0.6350     2.7130     1.1300 H     1 <1>   0.0800 
 26 H        1.4690    -1.9800    -1.3340 H     1 <1>   0.1500 
 27 H        0.2400     2.5730    -1.1260 H     1 <1>   0.4000 
 28 H        3.0040     2.5920     1.8010 H     1 <1>   0.0800 
 29 H        1.9970     4.7860     1.8630 H     1 <1>   0.0800 
 30 H        2.3270     5.0590     0.1850 H     1 <1>   0.0800 
 31 H        3.6400     3.0140    -1.1290 H     1 <1>   0.0800 
 32 H        4.0410     1.6330    -0.1630 H     1 <1>   0.0800 
 33 H        4.3810     4.7700     2.3810 H     1 <1>   0.0800 
 34 H        3.9540     6.2340     1.5250 H     1 <1>   0.0800 
 35 H        5.9690     3.1180    -0.4820 H     1 <1>   0.0800 
 36 H        5.5540     2.9490     1.2090 H     1 <1>   0.0800 
 37 H        4.6410     5.1360    -0.5270 H     1 <1>   0.4500 
 38 H        7.0750     5.0830    -0.1250 H     1 <1>   0.0800 
 39 H        6.7120     5.3400     1.5640 H     1 <1>   0.0800 
 40 H        5.5790     7.4600     1.0050 H     1 <1>   0.0800 
 41 H        5.8060     7.1500    -0.7000 H     1 <1>   0.0800 
 42 H        8.2570     7.2780    -0.3970 H     1 <1>   0.0800 
 43 H        8.0400     7.5590     1.3070 H     1 <1>   0.0800 
 44 H        7.1910     9.7010     2.1220 H     1 <1>   0.1500 
 45 H        7.6070     9.0300    -2.0720 H     1 <1>   0.1500 
 46 H        7.2850    11.4690    -2.3640 H     1 <1>   0.1500 
 47 H        6.9260    12.8820    -0.4100 H     1 <1>   0.1500 
@<TRIPOS>BOND
  1   1   2  1   
  2   1   3  1   
  3   2   4  2   
  4   2   5  1   
  5   3   6  2   
  6   3  23  1   
  7   4   6  1   
  8   4  24  1   
  9   5   7  1   
 10   5   8  1   
 11   5  25  1   
 12   6  26  1   
 13   7  27  1   
 14   8   9  1   
 15   8  10  1   
 16   8  28  1   
 17   9  11  1   
 18   9  29  1   
 19   9  30  1   
 20  10  12  1   
 21  10  31  1   
 22  10  32  1   
 23  11  13  1   
 24  11  33  1   
 25  11  34  1   
 26  12  13  1   
 27  12  35  1   
 28  12  36  1   
 29  13  14  1   
 30  13  37  1   
 31  14  15  1   
 32  14  38  1   
 33  14  39  1   
 34  15  16  1   
 35  15  40  1   
 36  15  41  1   
 37  16  17  1   
 38  16  42  1   
 39  16  43  1   
 40  17  18  ar  
 41  17  19  ar  
 42  18  20  ar  
 43  18  44  1   
 44  19  21  ar  
 45  19  45  1   
 46  20  22  ar  
 47  21  22  ar  
 48  21  46  1   
 49  22  47  1   
@<TRIPOS>SUBSTRUCTURE
  1 ****  13 GROUP 4 **** **** 0

# MOE 2024.06 (io_trps.svl 2023.06)
