@<TRIPOS>MOLECULE
NONAME
59 62 1 0 0 
SMALL
USER_CHARGES


@<TRIPOS>ATOM
  1 O       -4.5740     3.7240    -2.0970 O.2   1 <1>  -0.5700 
  2 C       -3.7690     3.1820    -1.3780 C.2   1 <1>   0.5690 
  3 N       -3.6440     1.8080    -1.3820 N.am  1 <1>  -0.6600 
  4 C       -2.9150     4.0830    -0.4640 C.3   1 <1>   0.1710 
  5 C       -4.3520     0.9730    -2.4080 C.3   1 <1>   0.1400 
  6 C       -2.7160     1.0570    -0.4690 C.3   1 <1>   0.1400 
  7 N       -1.4730     3.7160    -0.4110 N.3   1 <1>  -0.8100 
  8 C       -5.0760    -0.2520    -1.7960 C.3   1 <1>   0.4230 
  9 C       -3.1850    -0.3860    -0.1940 C.3   1 <1>   0.3430 
 10 C       -0.7850     4.2780     0.7610 C.3   1 <1>   0.2540 
 11 C       -0.7740     4.0730    -1.6650 C.3   1 <1>   0.1100 
 12 N       -4.6770    -0.5030    -0.3530 N.4   1 <1>  -0.9590 
 13 C       -4.8390    -1.5040    -2.6740 C.3   1 <1>   0.1200 
 14 C        0.3200     3.3280     1.1800 C.ar  1 <1>  -0.1440 
 15 C        0.5770     3.3580    -1.8310 C.3   1 <1>   0.1200 
 16 C       -5.2900    -1.7810     0.1480 C.3   1 <1>   0.4230 
 17 O       -5.4360    -2.6350    -2.1090 O.3   1 <1>  -0.5600 
 18 C        1.4190     3.1240     0.3540 C.ar  1 <1>   0.0820 
 19 C        0.2570     2.6620     2.3960 C.ar  1 <1>  -0.1500 
 20 O        1.5110     3.7410    -0.8420 O.3   1 <1>  -0.3620 
 21 C       -5.0050    -2.9550    -0.8160 C.3   1 <1>   0.1200 
 22 C       -4.8450    -2.0680     1.5910 C.3   1 <1>  -0.1600 
 23 C        2.4480     2.2840     0.7460 C.ar  1 <1>  -0.1500 
 24 C        1.2810     1.8120     2.7830 C.ar  1 <1>  -0.1500 
 25 C       -5.7280    -3.1230     2.2770 C.3   1 <1>  -0.1600 
 26 C        2.3770     1.6230     1.9590 C.ar  1 <1>  -0.1500 
 27 C       -5.3060    -3.3210     3.7350 C.3   1 <1>  -0.2400 
 28 H       -3.3390     4.0150     0.5200 H     1 <1>   0.0800 
 29 H       -3.0150     5.1040    -0.7910 H     1 <1>   0.0800 
 30 H       -5.0750     1.5620    -2.9480 H     1 <1>   0.0800 
 31 H       -3.6230     0.6480    -3.1310 H     1 <1>   0.0800 
 32 H       -1.7250     1.0400    -0.8930 H     1 <1>   0.0800 
 33 H       -2.6480     1.5710     0.4740 H     1 <1>   0.0800 
 34 H       -6.1340    -0.0460    -1.8270 H     1 <1>   0.0800 
 35 H       -2.8820    -0.6580     0.8030 H     1 <1>   0.0800 
 36 H       -2.6930    -1.0550    -0.8800 H     1 <1>   0.0800 
 37 H       -0.3750     5.2490     0.5360 H     1 <1>   0.0800 
 38 H       -1.4740     4.3920     1.5800 H     1 <1>   0.0800 
 39 H       -1.3880     3.7900    -2.5030 H     1 <1>   0.0800 
 40 H       -0.6250     5.1380    -1.7230 H     1 <1>   0.0800 
 41 H       -5.0810     0.2790     0.1770 H     1 <1>   0.4500 
 42 H       -3.7880    -1.7010    -2.8000 H     1 <1>   0.0800 
 43 H       -5.2770    -1.3610    -3.6470 H     1 <1>   0.0800 
 44 H        1.0050     3.6160    -2.7820 H     1 <1>   0.0800 
 45 H        0.4500     2.2910    -1.7900 H     1 <1>   0.0800 
 46 H       -6.3600    -1.6510     0.1660 H     1 <1>   0.0800 
 47 H       -0.5820     2.8070     3.0520 H     1 <1>   0.1500 
 48 H       -5.5480    -3.8310    -0.5100 H     1 <1>   0.0800 
 49 H       -3.9570    -3.1970    -0.8470 H     1 <1>   0.0800 
 50 H       -3.8260    -2.4130     1.6060 H     1 <1>   0.0800 
 51 H       -4.9100    -1.1600     2.1660 H     1 <1>   0.0800 
 52 H        3.2950     2.1520     0.0980 H     1 <1>   0.1500 
 53 H        1.2290     1.3020     3.7290 H     1 <1>   0.1500 
 54 H       -6.7600    -2.8130     2.2540 H     1 <1>   0.0800 
 55 H       -5.6530    -4.0700     1.7690 H     1 <1>   0.0800 
 56 H        3.1760     0.9690     2.2630 H     1 <1>   0.1500 
 57 H       -5.3990    -2.4030     4.2890 H     1 <1>   0.0800 
 58 H       -4.2860    -3.6610     3.7960 H     1 <1>   0.0800 
 59 H       -5.9340    -4.0610     4.2010 H     1 <1>   0.0800 
@<TRIPOS>BOND
  1   1   2  2   
  2   2   3  am  
  3   2   4  1   
  4   3   5  1   
  5   3   6  1   
  6   4   7  1   
  7   4  28  1   
  8   4  29  1   
  9   5   8  1   
 10   5  30  1   
 11   5  31  1   
 12   6   9  1   
 13   6  32  1   
 14   6  33  1   
 15   7  10  1   
 16   7  11  1   
 17   8  12  1   
 18   8  13  1   
 19   8  34  1   
 20   9  12  1   
 21   9  35  1   
 22   9  36  1   
 23  10  14  1   
 24  10  37  1   
 25  10  38  1   
 26  11  15  1   
 27  11  39  1   
 28  11  40  1   
 29  12  16  1   
 30  12  41  1   
 31  13  17  1   
 32  13  42  1   
 33  13  43  1   
 34  14  18  ar  
 35  14  19  ar  
 36  15  20  1   
 37  15  44  1   
 38  15  45  1   
 39  16  21  1   
 40  16  22  1   
 41  16  46  1   
 42  17  21  1   
 43  18  20  1   
 44  18  23  ar  
 45  19  24  ar  
 46  19  47  1   
 47  21  48  1   
 48  21  49  1   
 49  22  25  1   
 50  22  50  1   
 51  22  51  1   
 52  23  26  ar  
 53  23  52  1   
 54  24  26  ar  
 55  24  53  1   
 56  25  27  1   
 57  25  54  1   
 58  25  55  1   
 59  26  56  1   
 60  27  57  1   
 61  27  58  1   
 62  27  59  1   
@<TRIPOS>SUBSTRUCTURE
  1 ****   6 GROUP 4 **** **** 0

# MOE 2024.06 (io_trps.svl 2023.06)
