@<TRIPOS>MOLECULE
NONAME
42 44 1 0 0 
SMALL
USER_CHARGES


@<TRIPOS>ATOM
  1 O       -0.8220    -0.6560     0.3270 O.2   1 <1>  -0.5700 
  2 C       -1.8670    -0.0960     0.1250 C.2   1 <1>   0.5690 
  3 N       -2.6350    -0.2620    -0.9570 N.am  1 <1>  -0.7300 
  4 C       -2.5180     0.8520     1.0910 C.3   1 <1>  -0.0990 
  5 C       -3.9510     0.4090    -0.8690 C.3   1 <1>   0.2810 
  6 C       -3.9750     0.9070     0.5930 C.3   1 <1>  -0.1600 
  7 C       -5.1590    -0.4850    -1.2380 C.2   1 <1>   0.5690 
  8 O       -4.9580    -1.6690    -1.4000 O.2   1 <1>  -0.5700 
  9 N       -6.4220     0.0470    -1.3760 N.am  1 <1>  -0.6600 
 10 C       -7.6040    -0.8230    -1.6430 C.3   1 <1>   0.1400 
 11 C       -6.7830     1.4880    -1.2670 C.3   1 <1>   0.1400 
 12 C       -8.6090    -0.6680    -0.5000 C.3   1 <1>  -0.1600 
 13 C       -7.7590     1.6670    -0.1030 C.3   1 <1>  -0.1600 
 14 C       -9.0100     0.7950    -0.2870 C.3   1 <1>   0.4180 
 15 O       -9.6790     1.1910    -1.4590 O.3   1 <1>  -0.5600 
 16 C       -9.9360     0.9030     0.9220 C.2   1 <1>  -0.2880 
 17 C      -10.5270     2.3040    -1.3790 C.3   1 <1>   0.1200 
 18 C      -11.1550     1.4470     0.8860 C.2   1 <1>  -0.2760 
 19 C      -11.6850     2.0350    -0.4080 C.3   1 <1>  -0.0220 
 20 C      -12.0990     1.5230     2.0730 C.3   1 <1>  -0.1020 
 21 H       -2.5430    -1.0960    -1.5430 H     1 <1>   0.3700 
 22 H       -2.0380     1.8100     1.0150 H     1 <1>   0.0800 
 23 H       -2.4480     0.4790     2.0970 H     1 <1>   0.0800 
 24 H       -3.9270     1.2480    -1.5420 H     1 <1>   0.0800 
 25 H       -4.3890     1.8950     0.6740 H     1 <1>   0.0800 
 26 H       -4.5740     0.2330     1.1810 H     1 <1>   0.0800 
 27 H       -7.3130    -1.8560    -1.7290 H     1 <1>   0.0800 
 28 H       -8.0580    -0.5280    -2.5740 H     1 <1>   0.0800 
 29 H       -7.2530     1.8000    -2.1860 H     1 <1>   0.0800 
 30 H       -5.9170     2.1050    -1.1160 H     1 <1>   0.0800 
 31 H       -8.1680    -1.0580     0.3990 H     1 <1>   0.0800 
 32 H       -9.4900    -1.2470    -0.7070 H     1 <1>   0.0800 
 33 H       -8.0400     2.6980    -0.0090 H     1 <1>   0.0800 
 34 H       -7.2660     1.3870     0.8090 H     1 <1>   0.0800 
 35 H       -9.5070     0.4830     1.8130 H     1 <1>   0.1500 
 36 H      -10.9060     2.5000    -2.3660 H     1 <1>   0.0800 
 37 H       -9.9530     3.1520    -1.0530 H     1 <1>   0.0800 
 38 H      -12.3860     1.3540    -0.8570 H     1 <1>   0.0800 
 39 H      -12.1930     2.9630    -0.2170 H     1 <1>   0.0800 
 40 H      -13.0140     1.0020     1.8500 H     1 <1>   0.0800 
 41 H      -12.3280     2.5480     2.3020 H     1 <1>   0.0800 
 42 H      -11.6520     1.0710     2.9400 H     1 <1>   0.0800 
@<TRIPOS>BOND
  1   1   2  2   
  2   2   3  am  
  3   2   4  1   
  4   3   5  1   
  5   3  21  1   
  6   4   6  1   
  7   4  22  1   
  8   4  23  1   
  9   5   6  1   
 10   5   7  1   
 11   5  24  1   
 12   6  25  1   
 13   6  26  1   
 14   7   8  2   
 15   7   9  am  
 16   9  10  1   
 17   9  11  1   
 18  10  12  1   
 19  10  27  1   
 20  10  28  1   
 21  11  13  1   
 22  11  29  1   
 23  11  30  1   
 24  12  14  1   
 25  12  31  1   
 26  12  32  1   
 27  13  14  1   
 28  13  33  1   
 29  13  34  1   
 30  14  15  1   
 31  14  16  1   
 32  15  17  1   
 33  16  18  2   
 34  16  35  1   
 35  17  19  1   
 36  17  36  1   
 37  17  37  1   
 38  18  19  1   
 39  18  20  1   
 40  19  38  1   
 41  19  39  1   
 42  20  40  1   
 43  20  41  1   
 44  20  42  1   
@<TRIPOS>SUBSTRUCTURE
  1 ****   9 GROUP 4 **** **** 0

# MOE 2024.06 (io_trps.svl 2023.06)
