@<TRIPOS>MOLECULE
NONAME
39 41 1 0 0 
SMALL
USER_CHARGES


@<TRIPOS>ATOM
  1 S       -0.5600    -1.6720     1.3720 S.3   1 <1>  -0.0800 
  2 C       -1.8480    -1.9780     0.2220 C.2   1 <1>  -0.1100 
  3 C       -1.3630    -0.2220     1.9450 C.2   1 <1>  -0.1100 
  4 C       -2.8050    -1.0320     0.3030 C.2   1 <1>  -0.1810 
  5 C       -2.5200    -0.0280     1.2860 C.2   1 <1>  -0.1500 
  6 C       -4.0830    -0.9510    -0.5290 C.3   1 <1>   0.0820 
  7 C       -4.5000    -2.2700    -1.1630 C.2   1 <1>   0.5690 
  8 O       -4.7470    -2.3050    -2.3440 O.2   1 <1>  -0.5700 
  9 N       -4.6060    -3.3750    -0.3820 N.am  1 <1>  -0.7300 
 10 C       -4.9610    -4.7290    -0.8630 C.3   1 <1>   0.2200 
 11 C       -6.3000    -5.1360    -0.2730 C.3   1 <1>  -0.0800 
 12 C       -4.0190    -5.7560    -0.2420 C.3   1 <1>   0.1200 
 13 C       -5.8910    -5.6690     1.1040 C.3   1 <1>   0.1200 
 14 C       -6.9920    -6.2110    -1.1340 C.3   1 <1>  -0.0160 
 15 O       -4.5590    -6.0800     1.0050 O.3   1 <1>  -0.5600 
 16 C       -8.3410    -6.6070    -0.5540 C.ar  1 <1>  -0.1430 
 17 C       -8.5310    -7.7990     0.1160 C.ar  1 <1>  -0.1500 
 18 C       -9.4490    -5.7930    -0.6710 C.ar  1 <1>  -0.1500 
 19 C       -9.7810    -8.1070     0.6270 C.ar  1 <1>   0.1600 
 20 C      -10.6570    -6.1950    -0.1240 C.ar  1 <1>   0.1600 
 21 N      -10.8480    -7.3320     0.5240 N.ar  1 <1>  -0.6200 
 22 H       -1.7470    -2.8480    -0.4030 H     1 <1>   0.1500 
 23 H       -0.8760     0.3380     2.7230 H     1 <1>   0.1500 
 24 H       -3.1930     0.7960     1.4550 H     1 <1>   0.1500 
 25 H       -3.9490    -0.2190    -1.3030 H     1 <1>   0.0800 
 26 H       -4.8930    -0.6240     0.0960 H     1 <1>   0.0800 
 27 H       -4.3280    -3.3310     0.6020 H     1 <1>   0.3700 
 28 H       -4.9440    -4.7620    -1.9400 H     1 <1>   0.0800 
 29 H       -6.9590    -4.2900    -0.1810 H     1 <1>   0.0800 
 30 H       -3.0190    -5.3800    -0.1180 H     1 <1>   0.0800 
 31 H       -3.9980    -6.6560    -0.8310 H     1 <1>   0.0800 
 32 H       -6.4910    -6.4980     1.4350 H     1 <1>   0.0800 
 33 H       -5.9330    -4.8850     1.8400 H     1 <1>   0.0800 
 34 H       -6.3670    -7.0830    -1.2170 H     1 <1>   0.0800 
 35 H       -7.1460    -5.8270    -2.1280 H     1 <1>   0.0800 
 36 H       -7.7190    -8.4920     0.2480 H     1 <1>   0.1500 
 37 H       -9.3860    -4.8500    -1.1830 H     1 <1>   0.1500 
 38 H       -9.9090    -9.0410     1.1470 H     1 <1>   0.1500 
 39 H      -11.5100    -5.5470    -0.2260 H     1 <1>   0.1500 
@<TRIPOS>BOND
  1   1   2  1   
  2   1   3  1   
  3   2   4  2   
  4   2  22  1   
  5   3   5  2   
  6   3  23  1   
  7   4   5  1   
  8   4   6  1   
  9   5  24  1   
 10   6   7  1   
 11   6  25  1   
 12   6  26  1   
 13   7   8  2   
 14   7   9  am  
 15   9  10  1   
 16   9  27  1   
 17  10  11  1   
 18  10  12  1   
 19  10  28  1   
 20  11  13  1   
 21  11  14  1   
 22  11  29  1   
 23  12  15  1   
 24  12  30  1   
 25  12  31  1   
 26  13  15  1   
 27  13  32  1   
 28  13  33  1   
 29  14  16  1   
 30  14  34  1   
 31  14  35  1   
 32  16  17  ar  
 33  16  18  ar  
 34  17  19  ar  
 35  17  36  1   
 36  18  20  ar  
 37  18  37  1   
 38  19  21  ar  
 39  19  38  1   
 40  20  21  ar  
 41  20  39  1   
@<TRIPOS>SUBSTRUCTURE
  1 ****  11 GROUP 4 **** **** 0

# MOE 2024.06 (io_trps.svl 2023.06)
