@<TRIPOS>MOLECULE
NONAME
53 55 1 0 0 
SMALL
USER_CHARGES


@<TRIPOS>ATOM
  1 O       -2.8280     0.2950     1.4710 O.co2 1 <1>  -0.9000 
  2 C       -3.0860     0.0270     0.2950 C.2   1 <1>   0.9060 
  3 O       -2.3480     0.3040    -0.6540 O.co2 1 <1>  -0.9000 
  4 C       -4.2730    -0.8990     0.0340 C.3   1 <1>   0.2370 
  5 N       -3.9170    -2.3780     0.0460 N.4   1 <1>  -0.9590 
  6 C       -3.2590    -2.7590     1.3520 C.3   1 <1>   0.4230 
  7 C       -3.1410    -2.7260    -1.1740 C.3   1 <1>   0.3430 
  8 C       -1.7110    -2.6800     1.3820 C.3   1 <1>   0.1200 
  9 C       -3.7510    -4.1840     1.7190 C.3   1 <1>   0.2090 
 10 C       -2.4480    -4.0970    -1.1170 C.3   1 <1>  -0.0800 
 11 O       -1.1200    -3.8530     0.8930 O.3   1 <1>  -0.5600 
 12 N       -4.2670    -4.9550     0.5190 N.pl3 1 <1>  -0.8380 
 13 C       -1.0520    -3.9610    -0.4870 C.3   1 <1>   0.1200 
 14 C       -3.2670    -5.2880    -0.5530 C.3   1 <1>   0.2090 
 15 C       -5.5910    -5.2060     0.3760 C.ar  1 <1>   0.4100 
 16 N       -6.3610    -4.1370     0.4000 N.ar  1 <1>  -0.6200 
 17 C       -6.1050    -6.5180     0.2020 C.ar  1 <1>  -0.1440 
 18 C       -7.6640    -4.3080     0.2240 C.ar  1 <1>   0.7710 
 19 C       -7.4460    -6.6520    -0.0040 C.ar  1 <1>   0.2180 
 20 C       -5.1610    -7.7240     0.2900 C.3   1 <1>  -0.0970 
 21 N       -8.1930    -5.5240     0.0170 N.ar  1 <1>  -0.1790 
 22 N       -8.4890    -3.2250     0.2540 N.pl3 1 <1>  -0.8380 
 23 C       -8.1940    -7.9580    -0.2460 C.3   1 <1>  -0.0970 
 24 C       -8.0110    -1.8780     0.7110 C.3   1 <1>   0.1290 
 25 C       -9.9270    -3.1870    -0.1690 C.3   1 <1>   0.1290 
 26 H       -4.6910    -0.6290    -0.9180 H     1 <1>   0.0800 
 27 H       -4.9990    -0.6950     0.7980 H     1 <1>   0.0800 
 28 H       -4.7600    -2.9840     0.0340 H     1 <1>   0.4500 
 29 H       -3.6080    -2.0810     2.1130 H     1 <1>   0.0800 
 30 H       -3.8110    -2.7090    -2.0180 H     1 <1>   0.0800 
 31 H       -2.3920    -1.9670    -1.3470 H     1 <1>   0.0800 
 32 H       -1.3980    -2.5870     2.4070 H     1 <1>   0.0800 
 33 H       -1.3290    -1.8240     0.8520 H     1 <1>   0.0800 
 34 H       -4.5450    -4.0820     2.4380 H     1 <1>   0.0800 
 35 H       -2.9710    -4.7450     2.2060 H     1 <1>   0.0800 
 36 H       -2.2390    -4.3460    -2.1420 H     1 <1>   0.0800 
 37 H       -0.5230    -3.1050    -0.8740 H     1 <1>   0.0800 
 38 H       -0.4670    -4.8390    -0.7000 H     1 <1>   0.0800 
 39 H       -2.5880    -6.0340    -0.1730 H     1 <1>   0.0800 
 40 H       -3.7980    -5.7370    -1.3750 H     1 <1>   0.0800 
 41 H       -5.6670    -8.6090     0.6310 H     1 <1>   0.0800 
 42 H       -4.3700    -7.5350     0.9960 H     1 <1>   0.0800 
 43 H       -4.7210    -7.9270    -0.6700 H     1 <1>   0.0800 
 44 H       -9.2000    -5.5470    -0.0820 H     1 <1>   0.4570 
 45 H       -7.5320    -8.7440    -0.5620 H     1 <1>   0.0800 
 46 H       -8.9290    -7.8360    -1.0220 H     1 <1>   0.0800 
 47 H       -8.6900    -8.2740     0.6550 H     1 <1>   0.0800 
 48 H       -8.7700    -1.3970     1.3060 H     1 <1>   0.0800 
 49 H       -7.7960    -1.2560    -0.1420 H     1 <1>   0.0800 
 50 H       -7.1240    -1.9570     1.3170 H     1 <1>   0.0800 
 51 H      -10.1230    -2.2760    -0.7120 H     1 <1>   0.0800 
 52 H      -10.5660    -3.2070     0.6990 H     1 <1>   0.0800 
 53 H      -10.1770    -4.0090    -0.8170 H     1 <1>   0.0800 
@<TRIPOS>BOND
  1   1   2  ar  
  2   2   3  ar  
  3   2   4  1   
  4   4   5  1   
  5   4  26  1   
  6   4  27  1   
  7   5   6  1   
  8   5   7  1   
  9   5  28  1   
 10   6   8  1   
 11   6   9  1   
 12   6  29  1   
 13   7  10  1   
 14   7  30  1   
 15   7  31  1   
 16   8  11  1   
 17   8  32  1   
 18   8  33  1   
 19   9  12  1   
 20   9  34  1   
 21   9  35  1   
 22  10  13  1   
 23  10  14  1   
 24  10  36  1   
 25  11  13  1   
 26  12  14  1   
 27  12  15  1   
 28  13  37  1   
 29  13  38  1   
 30  14  39  1   
 31  14  40  1   
 32  15  16  ar  
 33  15  17  ar  
 34  16  18  ar  
 35  17  19  ar  
 36  17  20  1   
 37  18  21  ar  
 38  18  22  1   
 39  19  21  ar  
 40  19  23  1   
 41  20  41  1   
 42  20  42  1   
 43  20  43  1   
 44  21  44  1   
 45  22  24  1   
 46  22  25  1   
 47  23  45  1   
 48  23  46  1   
 49  23  47  1   
 50  24  48  1   
 51  24  49  1   
 52  24  50  1   
 53  25  51  1   
 54  25  52  1   
 55  25  53  1   
@<TRIPOS>SUBSTRUCTURE
  1 ****  12 GROUP 4 **** **** 0

# MOE 2024.06 (io_trps.svl 2023.06)
