@<TRIPOS>MOLECULE
NONAME
51 53 1 0 0 
SMALL
USER_CHARGES


@<TRIPOS>ATOM
  1 O        1.0890    -0.3440     1.0400 O.3   1 <1>  -0.6800 
  2 C        1.7520     0.6430     0.3260 C.3   1 <1>   0.2000 
  3 C        3.0060     0.0600    -0.3750 C.3   1 <1>   0.0000 
  4 C        2.0670     1.7970     1.2780 C.3   1 <1>  -0.1600 
  5 C        3.7180     1.2410    -1.0760 C.3   1 <1>   0.2090 
  6 C        2.4760    -0.9160    -1.4600 C.3   1 <1>   0.1200 
  7 C        3.9010    -0.7240     0.6450 C.3   1 <1>  -0.0170 
  8 C        2.7660     2.9310     0.5350 C.3   1 <1>   0.2090 
  9 N        3.9740     2.4440    -0.2000 N.pl3 1 <1>  -0.8380 
 10 O        3.4650    -1.3130    -2.3520 O.3   1 <1>  -0.6800 
 11 C        5.4220    -0.6490     0.5150 C.ar  1 <1>  -0.1440 
 12 C        5.1340     3.1690    -0.2800 C.ar  1 <1>   0.1000 
 13 C        6.1530     0.1000     1.4270 C.ar  1 <1>  -0.1500 
 14 C        6.1000    -1.3660    -0.4590 C.ar  1 <1>  -0.1500 
 15 C        6.3620     2.5860    -0.6310 C.ar  1 <1>  -0.1500 
 16 C        5.1730     4.5510    -0.0290 C.ar  1 <1>  -0.1500 
 17 C        7.5360     0.1280     1.3710 C.ar  1 <1>  -0.1500 
 18 C        7.4820    -1.3310    -0.5260 C.ar  1 <1>  -0.1500 
 19 C        7.5180     3.3160    -0.7090 C.ar  1 <1>   0.2180 
 20 C        6.3400     5.2670    -0.1060 C.ar  1 <1>   0.2180 
 21 C        8.2030    -0.5880     0.3930 C.ar  1 <1>  -0.1500 
 22 N        7.4920     4.6420    -0.4420 N.ar  1 <1>  -0.1790 
 23 C        8.8440     2.6790    -1.0870 C.3   1 <1>  -0.0970 
 24 C        6.3870     6.7610     0.1680 C.3   1 <1>  -0.0970 
 25 H        0.3230     0.0290     1.5170 H     1 <1>   0.4000 
 26 H        1.0640     1.0030    -0.4220 H     1 <1>   0.0800 
 27 H        1.1550     2.1800     1.6970 H     1 <1>   0.0800 
 28 H        2.6970     1.4790     2.0870 H     1 <1>   0.0800 
 29 H        3.0930     1.5740    -1.8870 H     1 <1>   0.0800 
 30 H        4.6230     0.8840    -1.5260 H     1 <1>   0.0800 
 31 H        1.6870    -0.4640    -2.0360 H     1 <1>   0.0800 
 32 H        2.0780    -1.8050    -0.9980 H     1 <1>   0.0800 
 33 H        3.6650    -0.4130     1.6430 H     1 <1>   0.0800 
 34 H        3.6270    -1.7640     0.6200 H     1 <1>   0.0800 
 35 H        3.0430     3.6750     1.2600 H     1 <1>   0.0800 
 36 H        2.0850     3.3790    -0.1700 H     1 <1>   0.0800 
 37 H        3.5980    -0.6520    -3.0580 H     1 <1>   0.4000 
 38 H        5.6420     0.6590     2.1910 H     1 <1>   0.1500 
 39 H        5.5540    -1.9720    -1.1610 H     1 <1>   0.1500 
 40 H        6.4060     1.5340    -0.8290 H     1 <1>   0.1500 
 41 H        4.2620     5.0620     0.2170 H     1 <1>   0.1500 
 42 H        8.0890     0.6990     2.0950 H     1 <1>   0.1500 
 43 H        7.9940    -1.8980    -1.2850 H     1 <1>   0.1500 
 44 H        9.2780    -0.5800     0.3520 H     1 <1>   0.1500 
 45 H        8.3600     5.1800    -0.4980 H     1 <1>   0.4570 
 46 H        8.7020     1.6460    -1.3510 H     1 <1>   0.0800 
 47 H        9.5300     2.7230    -0.2590 H     1 <1>   0.0800 
 48 H        9.2780     3.1820    -1.9340 H     1 <1>   0.0800 
 49 H        5.4080     7.1310     0.4220 H     1 <1>   0.0800 
 50 H        6.7290     7.2930    -0.7020 H     1 <1>   0.0800 
 51 H        7.0460     6.9710     0.9920 H     1 <1>   0.0800 
@<TRIPOS>BOND
  1   1   2  1   
  2   1  25  1   
  3   2   3  1   
  4   2   4  1   
  5   2  26  1   
  6   3   5  1   
  7   3   6  1   
  8   3   7  1   
  9   4   8  1   
 10   4  27  1   
 11   4  28  1   
 12   5   9  1   
 13   5  29  1   
 14   5  30  1   
 15   6  10  1   
 16   6  31  1   
 17   6  32  1   
 18   7  11  1   
 19   7  33  1   
 20   7  34  1   
 21   8   9  1   
 22   8  35  1   
 23   8  36  1   
 24   9  12  1   
 25  10  37  1   
 26  11  13  ar  
 27  11  14  ar  
 28  12  15  ar  
 29  12  16  ar  
 30  13  17  ar  
 31  13  38  1   
 32  14  18  ar  
 33  14  39  1   
 34  15  19  ar  
 35  15  40  1   
 36  16  20  ar  
 37  16  41  1   
 38  17  21  ar  
 39  17  42  1   
 40  18  21  ar  
 41  18  43  1   
 42  19  22  ar  
 43  19  23  1   
 44  20  22  ar  
 45  20  24  1   
 46  21  44  1   
 47  22  45  1   
 48  23  46  1   
 49  23  47  1   
 50  23  48  1   
 51  24  49  1   
 52  24  50  1   
 53  24  51  1   
@<TRIPOS>SUBSTRUCTURE
  1 ****   9 GROUP 4 **** **** 0

# MOE 2024.06 (io_trps.svl 2023.06)
