@<TRIPOS>MOLECULE
NONAME
55 57 1 0 0 
SMALL
USER_CHARGES


@<TRIPOS>ATOM
  1 O       -0.5820     0.6030     1.9480 O.2   1 <1>  -0.5700 
  2 C       -0.5590     1.1410     0.8560 C.2   1 <1>   0.6900 
  3 N        0.2730     2.2010     0.6130 N.am  1 <1>  -0.6600 
  4 N       -1.3850     0.7140    -0.1280 N.am  1 <1>  -0.7300 
  5 C        0.6300     2.6990    -0.7410 C.3   1 <1>   0.1400 
  6 C        0.8420     3.0020     1.7290 C.3   1 <1>   0.1400 
  7 C       -2.4020    -0.3360     0.0140 C.3   1 <1>   0.2200 
  8 C        0.1110     4.1270    -0.8930 C.3   1 <1>  -0.1600 
  9 C        0.3440     4.4430     1.6070 C.3   1 <1>  -0.1600 
 10 C       -2.3590    -1.2340    -1.2270 C.3   1 <1>  -0.1600 
 11 C       -3.7750     0.3240     0.1770 C.3   1 <1>  -0.1600 
 12 C        0.6560     5.0180     0.2250 C.3   1 <1>   0.2890 
 13 C       -3.4780    -2.2860    -1.1900 C.3   1 <1>  -0.1600 
 14 C       -4.8960    -0.7250     0.2150 C.3   1 <1>  -0.1600 
 15 N        0.0220     6.3390     0.1190 N.pl3 1 <1>  -0.8690 
 16 C       -4.8540    -1.6260    -1.0260 C.3   1 <1>  -0.1600 
 17 C        0.3990     7.3230    -0.7620 C.ar  1 <1>   0.4100 
 18 N        1.6340     7.2250    -1.2540 N.ar  1 <1>  -0.6200 
 19 C       -0.4980     8.3580    -1.0940 C.ar  1 <1>   0.0860 
 20 C        2.0100     8.1650    -2.0970 C.ar  1 <1>   0.1600 
 21 C       -1.8240     8.4180    -0.5250 C.2   1 <1>   0.5440 
 22 C       -0.0620     9.3260    -1.9910 C.ar  1 <1>  -0.1500 
 23 C        1.2140     9.2220    -2.4960 C.ar  1 <1>  -0.1500 
 24 O       -2.5150     7.4210    -0.4100 O.2   1 <1>  -0.5700 
 25 N       -2.3340     9.6150    -0.0980 N.am  1 <1>  -0.7300 
 26 C       -3.6820     9.8210     0.4930 C.3   1 <1>   0.0600 
 27 H       -1.5080     1.3380    -0.9180 H     1 <1>   0.3700 
 28 H        0.2210     2.0680    -1.5090 H     1 <1>   0.0800 
 29 H        1.7020     2.6870    -0.8440 H     1 <1>   0.0800 
 30 H        1.9170     2.9710     1.6740 H     1 <1>   0.0800 
 31 H        0.5430     2.5970     2.6810 H     1 <1>   0.0800 
 32 H       -2.1890    -0.9320     0.8870 H     1 <1>   0.0800 
 33 H       -0.9640     4.1170    -0.8640 H     1 <1>   0.0800 
 34 H        0.4250     4.5190    -1.8430 H     1 <1>   0.0800 
 35 H        0.8170     5.0480     2.3590 H     1 <1>   0.0800 
 36 H       -0.7180     4.4540     1.7780 H     1 <1>   0.0800 
 37 H       -1.4060    -1.7300    -1.2710 H     1 <1>   0.0800 
 38 H       -2.4740    -0.6320    -2.1110 H     1 <1>   0.0800 
 39 H       -3.9520     0.9980    -0.6430 H     1 <1>   0.0800 
 40 H       -3.7860     0.8910     1.0920 H     1 <1>   0.0800 
 41 H        1.7250     5.1150     0.1200 H     1 <1>   0.0800 
 42 H       -3.3060    -2.9590    -0.3670 H     1 <1>   0.0800 
 43 H       -3.4600    -2.8640    -2.0980 H     1 <1>   0.0800 
 44 H       -5.8500    -0.2300     0.2730 H     1 <1>   0.0800 
 45 H       -4.7850    -1.3300     1.0990 H     1 <1>   0.0800 
 46 H       -0.9940     6.3100     0.2950 H     1 <1>   0.4000 
 47 H       -5.6110    -2.3880    -0.9430 H     1 <1>   0.0800 
 48 H       -5.0740    -1.0380    -1.9010 H     1 <1>   0.0800 
 49 H        3.0090     8.0910    -2.4960 H     1 <1>   0.1500 
 50 H       -0.7100    10.1310    -2.2900 H     1 <1>   0.1500 
 51 H        1.5920     9.9490    -3.1930 H     1 <1>   0.1500 
 52 H       -1.7140    10.4270    -0.0750 H     1 <1>   0.3700 
 53 H       -4.2780     8.9290     0.3930 H     1 <1>   0.0800 
 54 H       -4.1830    10.6280    -0.0130 H     1 <1>   0.0800 
 55 H       -3.5880    10.0590     1.5380 H     1 <1>   0.0800 
@<TRIPOS>BOND
  1   1   2  2   
  2   2   3  am  
  3   2   4  am  
  4   3   5  1   
  5   3   6  1   
  6   4   7  1   
  7   4  27  1   
  8   5   8  1   
  9   5  28  1   
 10   5  29  1   
 11   6   9  1   
 12   6  30  1   
 13   6  31  1   
 14   7  10  1   
 15   7  11  1   
 16   7  32  1   
 17   8  12  1   
 18   8  33  1   
 19   8  34  1   
 20   9  12  1   
 21   9  35  1   
 22   9  36  1   
 23  10  13  1   
 24  10  37  1   
 25  10  38  1   
 26  11  14  1   
 27  11  39  1   
 28  11  40  1   
 29  12  15  1   
 30  12  41  1   
 31  13  16  1   
 32  13  42  1   
 33  13  43  1   
 34  14  16  1   
 35  14  44  1   
 36  14  45  1   
 37  15  17  1   
 38  15  46  1   
 39  16  47  1   
 40  16  48  1   
 41  17  18  ar  
 42  17  19  ar  
 43  18  20  ar  
 44  19  21  1   
 45  19  22  ar  
 46  20  23  ar  
 47  20  49  1   
 48  21  24  2   
 49  21  25  am  
 50  22  23  ar  
 51  22  50  1   
 52  23  51  1   
 53  25  26  1   
 54  25  52  1   
 55  26  53  1   
 56  26  54  1   
 57  26  55  1   
@<TRIPOS>SUBSTRUCTURE
  1 ****   8 GROUP 4 **** **** 0

# MOE 2024.06 (io_trps.svl 2023.06)
