@<TRIPOS>MOLECULE
NONAME
47 50 1 0 0 
SMALL
USER_CHARGES


@<TRIPOS>ATOM
  1 O       -0.3920    -1.2950     0.9940 O.3   1 <1>  -0.5600 
  2 C        0.1020    -1.9900    -0.1280 C.3   1 <1>   0.4180 
  3 C       -1.2020    -0.1790     0.7520 C.3   1 <1>   0.1200 
  4 C       -0.9840    -2.1190    -1.1940 C.2   1 <1>  -0.2880 
  5 C        0.5090    -3.3760     0.3690 C.3   1 <1>  -0.1600 
  6 C        1.3380    -1.2690    -0.6770 C.3   1 <1>  -0.1600 
  7 C       -2.4930    -0.5940     0.0330 C.3   1 <1>  -0.0220 
  8 C       -2.1700    -1.5080    -1.1350 C.2   1 <1>  -0.2760 
  9 C        1.6670    -3.2940     1.3650 C.3   1 <1>   0.1100 
 10 C        2.4740    -1.2440     0.3470 C.3   1 <1>   0.1100 
 11 C       -3.2700    -1.6620    -2.1690 C.3   1 <1>  -0.1020 
 12 N        2.8210    -2.6210     0.7450 N.3   1 <1>  -0.8100 
 13 C        3.9830    -2.6610     1.6710 C.3   1 <1>   0.2900 
 14 C        5.3090    -2.2050     1.0630 C.2   1 <1>   0.2980 
 15 O        5.5490    -0.9220     0.9770 O.3   1 <1>  -0.0190 
 16 N        6.2480    -2.9580     0.6540 N.2   1 <1>  -0.5650 
 17 N        6.7330    -0.8520     0.4550 N.2   1 <1>  -0.4100 
 18 C        7.1490    -2.0530     0.2580 C.2   1 <1>   0.4620 
 19 C        8.4330    -2.4220    -0.3170 C.ar  1 <1>   0.0540 
 20 C        8.7850    -3.7560    -0.5360 C.ar  1 <1>  -0.1500 
 21 C        9.3720    -1.4510    -0.6740 C.ar  1 <1>  -0.1500 
 22 C       10.0080    -4.1040    -1.0810 C.ar  1 <1>  -0.1500 
 23 C       10.5970    -1.7910    -1.2190 C.ar  1 <1>  -0.1500 
 24 C       10.9180    -3.1210    -1.4240 C.ar  1 <1>  -0.1500 
 25 H       -0.6500     0.5260     0.1570 H     1 <1>   0.0800 
 26 H       -1.4320     0.2730     1.7000 H     1 <1>   0.0800 
 27 H       -0.6950    -2.7650    -2.0030 H     1 <1>   0.1500 
 28 H        0.8150    -3.9840    -0.4620 H     1 <1>   0.0800 
 29 H       -0.3400    -3.8490     0.8290 H     1 <1>   0.0800 
 30 H        1.0850    -0.2700    -0.9760 H     1 <1>   0.0800 
 31 H        1.6850    -1.7850    -1.5530 H     1 <1>   0.0800 
 32 H       -2.9910     0.2930    -0.3150 H     1 <1>   0.0800 
 33 H       -3.1470    -1.0990     0.7210 H     1 <1>   0.0800 
 34 H        1.9430    -4.2930     1.6570 H     1 <1>   0.0800 
 35 H        1.3520    -2.7550     2.2440 H     1 <1>   0.0800 
 36 H        2.1770    -0.6720     1.2100 H     1 <1>   0.0800 
 37 H        3.3220    -0.7660    -0.1100 H     1 <1>   0.0800 
 38 H       -4.1580    -2.0570    -1.7080 H     1 <1>   0.0800 
 39 H       -2.9630    -2.3360    -2.9480 H     1 <1>   0.0800 
 40 H       -3.5000    -0.7100    -2.6120 H     1 <1>   0.0800 
 41 H        4.1220    -3.6770     1.9970 H     1 <1>   0.0800 
 42 H        3.7740    -2.0640     2.5410 H     1 <1>   0.0800 
 43 H        8.0890    -4.5340    -0.2770 H     1 <1>   0.1500 
 44 H        9.1390    -0.4120    -0.5220 H     1 <1>   0.1500 
 45 H       10.2520    -5.1400    -1.2390 H     1 <1>   0.1500 
 46 H       11.3010    -1.0220    -1.4850 H     1 <1>   0.1500 
 47 H       11.8710    -3.3880    -1.8480 H     1 <1>   0.1500 
@<TRIPOS>BOND
  1   1   2  1   
  2   1   3  1   
  3   2   4  1   
  4   2   5  1   
  5   2   6  1   
  6   3   7  1   
  7   3  25  1   
  8   3  26  1   
  9   4   8  2   
 10   4  27  1   
 11   5   9  1   
 12   5  28  1   
 13   5  29  1   
 14   6  10  1   
 15   6  30  1   
 16   6  31  1   
 17   7   8  1   
 18   7  32  1   
 19   7  33  1   
 20   8  11  1   
 21   9  12  1   
 22   9  34  1   
 23   9  35  1   
 24  10  12  1   
 25  10  36  1   
 26  10  37  1   
 27  11  38  1   
 28  11  39  1   
 29  11  40  1   
 30  12  13  1   
 31  13  14  1   
 32  13  41  1   
 33  13  42  1   
 34  14  15  1   
 35  14  16  2   
 36  15  17  1   
 37  16  18  1   
 38  17  18  2   
 39  18  19  1   
 40  19  20  ar  
 41  19  21  ar  
 42  20  22  ar  
 43  20  43  1   
 44  21  23  ar  
 45  21  44  1   
 46  22  24  ar  
 47  22  45  1   
 48  23  24  ar  
 49  23  46  1   
 50  24  47  1   
@<TRIPOS>SUBSTRUCTURE
  1 ****  12 GROUP 4 **** **** 0

# MOE 2024.06 (io_trps.svl 2023.06)
