@<TRIPOS>MOLECULE
NONAME
51 54 1 0 0 
SMALL
USER_CHARGES


@<TRIPOS>ATOM
  1 O       -0.9680     0.6970    -2.0400 O.2   1 <1>  -0.5700 
  2 C       -1.6740     1.1940    -1.1820 C.2   1 <1>   0.5440 
  3 N       -2.7320     0.4650    -0.6840 N.am  1 <1>  -0.6600 
  4 C       -1.3790     2.5360    -0.7240 C.ar  1 <1>   0.0860 
  5 C       -3.1490    -0.8150    -1.3570 C.3   1 <1>   0.1400 
  6 C       -3.5450     0.8700     0.5100 C.3   1 <1>   0.1400 
  7 C       -0.1610     2.8310    -0.1140 C.ar  1 <1>  -0.1500 
  8 C       -2.2950     3.5780    -0.8910 C.ar  1 <1>  -0.1500 
  9 C       -4.1600    -1.5950    -0.5050 C.3   1 <1>   0.2000 
 10 C       -5.0230     0.7110     0.1580 C.3   1 <1>  -0.1600 
 11 C        0.1270     4.1090     0.3250 C.ar  1 <1>   0.0820 
 12 C       -2.0200     4.8600    -0.4500 C.ar  1 <1>  -0.1500 
 13 O       -4.5330    -2.7690    -1.1400 O.3   1 <1>  -0.6800 
 14 C       -5.4190    -0.7760    -0.1200 C.3   1 <1>  -0.1060 
 15 O        1.3310     4.3510     0.9020 O.3   1 <1>  -0.3630 
 16 C       -0.8120     5.1310     0.1680 C.ar  1 <1>   0.0820 
 17 C       -5.9250    -1.5070     1.1280 C.2   1 <1>   0.9060 
 18 C       -6.5060    -0.8020    -1.2370 C.3   1 <1>  -0.0170 
 19 C        1.7240     5.7050     1.0150 C.3   1 <1>   0.1200 
 20 O       -0.5660     6.3860     0.6110 O.3   1 <1>  -0.3620 
 21 O       -5.8240    -0.9880     2.2450 O.co2 1 <1>  -0.9000 
 22 O       -6.3490    -2.6640     0.9870 O.co2 1 <1>  -0.9000 
 23 C       -7.6610     0.1770    -1.0280 C.ar  1 <1>  -0.1430 
 24 C        0.5390     6.5650     1.4770 C.3   1 <1>   0.1200 
 25 C       -7.8100     1.2780    -1.8600 C.ar  1 <1>  -0.1500 
 26 C       -8.5800    -0.0280    -0.0110 C.ar  1 <1>  -0.1500 
 27 C       -8.8580     2.1640    -1.6730 C.ar  1 <1>  -0.1500 
 28 C       -9.6270     0.8570     0.1790 C.ar  1 <1>  -0.1500 
 29 C       -9.7680     1.9540    -0.6520 C.ar  1 <1>  -0.1500 
 30 H       -3.5890    -0.5770    -2.3080 H     1 <1>   0.0800 
 31 H       -2.2800    -1.4280    -1.5200 H     1 <1>   0.0800 
 32 H       -3.3010     0.2400     1.3500 H     1 <1>   0.0800 
 33 H       -3.3490     1.8870     0.7940 H     1 <1>   0.0800 
 34 H        0.5680     2.0500     0.0100 H     1 <1>   0.1500 
 35 H       -3.2340     3.3680    -1.3740 H     1 <1>   0.1500 
 36 H       -3.6470    -1.8950     0.3940 H     1 <1>   0.0800 
 37 H       -5.6300     1.1120     0.9510 H     1 <1>   0.0800 
 38 H       -5.2060     1.3190    -0.7090 H     1 <1>   0.0800 
 39 H       -2.7350     5.6530    -0.5790 H     1 <1>   0.1500 
 40 H       -5.2300    -3.1730    -0.5550 H     1 <1>   0.4000 
 41 H       -6.0360    -0.5870    -2.1790 H     1 <1>   0.0800 
 42 H       -6.9230    -1.7900    -1.3240 H     1 <1>   0.0800 
 43 H        2.5340     5.7580     1.7200 H     1 <1>   0.0800 
 44 H        2.0720     6.0340     0.0510 H     1 <1>   0.0800 
 45 H        0.7980     7.6080     1.4710 H     1 <1>   0.0800 
 46 H        0.2370     6.2810     2.4690 H     1 <1>   0.0800 
 47 H       -7.1070     1.4490    -2.6550 H     1 <1>   0.1500 
 48 H       -8.4790    -0.8800     0.6430 H     1 <1>   0.1500 
 49 H       -8.9630     3.0140    -2.3220 H     1 <1>   0.1500 
 50 H      -10.3270     0.6850     0.9770 H     1 <1>   0.1500 
 51 H      -10.5820     2.6400    -0.5030 H     1 <1>   0.1500 
@<TRIPOS>BOND
  1   1   2  2   
  2   2   3  am  
  3   2   4  1   
  4   3   5  1   
  5   3   6  1   
  6   4   7  ar  
  7   4   8  ar  
  8   5   9  1   
  9   5  30  1   
 10   5  31  1   
 11   6  10  1   
 12   6  32  1   
 13   6  33  1   
 14   7  11  ar  
 15   7  34  1   
 16   8  12  ar  
 17   8  35  1   
 18   9  13  1   
 19   9  14  1   
 20   9  36  1   
 21  10  14  1   
 22  10  37  1   
 23  10  38  1   
 24  11  15  1   
 25  11  16  ar  
 26  12  16  ar  
 27  12  39  1   
 28  13  40  1   
 29  14  17  1   
 30  14  18  1   
 31  15  19  1   
 32  16  20  1   
 33  17  21  ar  
 34  17  22  ar  
 35  18  23  1   
 36  18  41  1   
 37  18  42  1   
 38  19  24  1   
 39  19  43  1   
 40  19  44  1   
 41  20  24  1   
 42  23  25  ar  
 43  23  26  ar  
 44  24  45  1   
 45  24  46  1   
 46  25  27  ar  
 47  25  47  1   
 48  26  28  ar  
 49  26  48  1   
 50  27  29  ar  
 51  27  49  1   
 52  28  29  ar  
 53  28  50  1   
 54  29  51  1   
@<TRIPOS>SUBSTRUCTURE
  1 ****   6 GROUP 4 **** **** 0

# MOE 2024.06 (io_trps.svl 2023.06)
