@<TRIPOS>MOLECULE
NONAME
56 58 1 0 0 
SMALL
USER_CHARGES


@<TRIPOS>ATOM
  1 CL      -3.4590     0.4040    -1.9850 Cl    1 <1>  -0.1770 
  2 C       -3.4870    -1.1350    -1.1460 C.ar  1 <1>   0.1770 
  3 C       -4.5380    -1.4170    -0.2840 C.ar  1 <1>  -0.1440 
  4 C       -2.4590    -2.0430    -1.3600 C.ar  1 <1>  -0.1440 
  5 C       -4.5550    -2.6370     0.3710 C.ar  1 <1>  -0.1500 
  6 C       -5.6610    -0.4140    -0.0540 C.3   1 <1>  -0.0960 
  7 C       -2.5000    -3.2590    -0.6970 C.ar  1 <1>  -0.1500 
  8 C       -1.3060    -1.7240    -2.3000 C.3   1 <1>  -0.0960 
  9 C       -3.5420    -3.5710     0.1610 C.ar  1 <1>   0.0830 
 10 O       -3.4930    -4.8110     0.7250 O.3   1 <1>  -0.3630 
 11 C       -4.5260    -5.4260     1.4950 C.3   1 <1>   0.3410 
 12 C       -5.9400    -5.3180     0.8260 C.2   1 <1>   0.5690 
 13 C       -4.4450    -4.8030     2.9070 C.3   1 <1>  -0.2400 
 14 C       -4.1230    -6.9040     1.6460 C.3   1 <1>  -0.2400 
 15 O       -6.8650    -5.0900     1.5780 O.2   1 <1>  -0.5700 
 16 N       -6.1640    -5.4520    -0.5420 N.am  1 <1>  -0.6600 
 17 C       -7.4260    -5.0200    -1.2180 C.3   1 <1>   0.2200 
 18 C       -5.1210    -5.8450    -1.5370 C.3   1 <1>   0.0600 
 19 C       -8.6760    -5.7940    -0.8030 C.3   1 <1>  -0.1600 
 20 C       -7.7620    -3.5500    -0.9900 C.3   1 <1>  -0.1600 
 21 C       -9.8480    -4.8680    -1.1650 C.3   1 <1>  -0.0800 
 22 C       -9.2560    -3.4420    -1.3130 C.3   1 <1>  -0.0800 
 23 C      -11.0230    -4.9880    -0.1750 C.3   1 <1>   0.1400 
 24 C       -9.9680    -2.3620    -0.4710 C.3   1 <1>  -0.0990 
 25 N      -11.9230    -3.8270    -0.3430 N.am  1 <1>  -0.7300 
 26 C      -11.4670    -2.5670    -0.4920 C.2   1 <1>   0.5690 
 27 O      -12.2150    -1.6340    -0.6280 O.2   1 <1>  -0.5700 
 28 H       -5.3700    -2.8410     1.0370 H     1 <1>   0.1500 
 29 H       -6.3890    -0.7970     0.6390 H     1 <1>   0.0800 
 30 H       -6.1560    -0.1980    -0.9830 H     1 <1>   0.0800 
 31 H       -5.2590     0.5000     0.3460 H     1 <1>   0.0800 
 32 H       -1.7200    -3.9850    -0.8420 H     1 <1>   0.1500 
 33 H       -0.6020    -2.5350    -2.3400 H     1 <1>   0.0800 
 34 H       -0.7900    -0.8430    -1.9620 H     1 <1>   0.0800 
 35 H       -1.6800    -1.5460    -3.2930 H     1 <1>   0.0800 
 36 H       -5.1150    -5.3160     3.5730 H     1 <1>   0.0800 
 37 H       -4.7290    -3.7690     2.8990 H     1 <1>   0.0800 
 38 H       -3.4470    -4.8860     3.2980 H     1 <1>   0.0800 
 39 H       -4.8190    -7.4030     2.2970 H     1 <1>   0.0800 
 40 H       -3.1390    -6.9850     2.0720 H     1 <1>   0.0800 
 41 H       -4.1390    -7.4140     0.7030 H     1 <1>   0.0800 
 42 H       -7.3190    -5.1520    -2.2820 H     1 <1>   0.0800 
 43 H       -5.5190    -6.5900    -2.2040 H     1 <1>   0.0800 
 44 H       -4.2460    -6.2530    -1.0720 H     1 <1>   0.0800 
 45 H       -4.8290    -4.9810    -2.1090 H     1 <1>   0.0800 
 46 H       -8.7390    -6.7320    -1.3230 H     1 <1>   0.0800 
 47 H       -8.6740    -5.9800     0.2540 H     1 <1>   0.0800 
 48 H       -7.5970    -3.2840     0.0360 H     1 <1>   0.0800 
 49 H       -7.1710    -2.9110    -1.6210 H     1 <1>   0.0800 
 50 H      -10.2140    -5.1650    -2.1330 H     1 <1>   0.0800 
 51 H       -9.3570    -3.1650    -2.3500 H     1 <1>   0.0800 
 52 H      -10.6570    -4.9920     0.8380 H     1 <1>   0.0800 
 53 H      -11.5630    -5.9030    -0.3500 H     1 <1>   0.0800 
 54 H       -9.7310    -1.3830    -0.8450 H     1 <1>   0.0800 
 55 H       -9.6530    -2.4180     0.5540 H     1 <1>   0.0800 
 56 H      -12.9350    -3.9700    -0.3110 H     1 <1>   0.3700 
@<TRIPOS>BOND
  1   1   2  1   
  2   2   3  ar  
  3   2   4  ar  
  4   3   5  ar  
  5   3   6  1   
  6   4   7  ar  
  7   4   8  1   
  8   5   9  ar  
  9   5  28  1   
 10   6  29  1   
 11   6  30  1   
 12   6  31  1   
 13   7   9  ar  
 14   7  32  1   
 15   8  33  1   
 16   8  34  1   
 17   8  35  1   
 18   9  10  1   
 19  10  11  1   
 20  11  12  1   
 21  11  13  1   
 22  11  14  1   
 23  12  15  2   
 24  12  16  am  
 25  13  36  1   
 26  13  37  1   
 27  13  38  1   
 28  14  39  1   
 29  14  40  1   
 30  14  41  1   
 31  16  17  1   
 32  16  18  1   
 33  17  19  1   
 34  17  20  1   
 35  17  42  1   
 36  18  43  1   
 37  18  44  1   
 38  18  45  1   
 39  19  21  1   
 40  19  46  1   
 41  19  47  1   
 42  20  22  1   
 43  20  48  1   
 44  20  49  1   
 45  21  22  1   
 46  21  23  1   
 47  21  50  1   
 48  22  24  1   
 49  22  51  1   
 50  23  25  1   
 51  23  52  1   
 52  23  53  1   
 53  24  26  1   
 54  24  54  1   
 55  24  55  1   
 56  25  26  am  
 57  25  56  1   
 58  26  27  2   
@<TRIPOS>SUBSTRUCTURE
  1 ****  20 GROUP 4 **** **** 0

# MOE 2024.06 (io_trps.svl 2023.06)
