@<TRIPOS>MOLECULE
NONAME
57 60 1 0 0 
SMALL
USER_CHARGES


@<TRIPOS>ATOM
  1 O       -1.7240     0.5670    -2.2740 O.2   1 <1>  -0.5700 
  2 C       -2.1060     0.8640    -1.1560 C.2   1 <1>   0.6160 
  3 N       -2.8500    -0.0620    -0.4430 N.am  1 <1>  -0.6600 
  4 C       -1.8590     2.1960    -0.6870 C.2   1 <1>   0.0290 
  5 C       -3.4090    -1.2760    -1.1140 C.3   1 <1>   0.1400 
  6 C       -3.3800     0.1980     0.9230 C.3   1 <1>   0.1400 
  7 C       -0.8810     2.4090     0.3310 C.2   1 <1>   0.6160 
  8 C       -2.5230     3.2850    -1.1990 C.2   1 <1>  -0.1500 
  9 C       -3.3160    -2.5810    -0.2840 C.3   1 <1>   0.0000 
 10 C       -3.1630    -1.0240     1.8090 C.3   1 <1>  -0.1600 
 11 O       -0.2370     1.5250     0.8720 O.2   1 <1>  -0.5700 
 12 N       -0.6540     3.6880     0.7590 N.am  1 <1>  -0.5390 
 13 C       -2.2590     4.5880    -0.7220 C.2   1 <1>  -0.1380 
 14 C       -3.7670    -2.2790     1.1720 C.3   1 <1>   0.2000 
 15 C       -4.3670    -3.5630    -0.8640 C.3   1 <1>   0.1200 
 16 C       -1.9150    -3.2660    -0.4390 C.3   1 <1>  -0.0170 
 17 C       -1.3180     4.7710     0.2510 C.2   1 <1>  -0.0290 
 18 C       -3.0340     5.7510    -1.3290 C.3   1 <1>  -0.0220 
 19 O       -3.4870    -3.3450     2.0000 O.3   1 <1>  -0.6800 
 20 O       -4.0980    -3.8870    -2.1910 O.3   1 <1>  -0.6800 
 21 C       -0.8110    -2.9210     0.5550 C.ar  1 <1>  -0.1430 
 22 C       -0.9590     6.1360     0.8230 C.3   1 <1>  -0.0220 
 23 C       -2.9450     7.0190    -0.4690 C.3   1 <1>  -0.1600 
 24 C       -0.0720    -1.7580     0.4120 C.ar  1 <1>  -0.1500 
 25 C       -0.5160    -3.7840     1.6010 C.ar  1 <1>  -0.1500 
 26 C       -1.4970     7.2850    -0.0410 C.3   1 <1>  -0.1600 
 27 C        0.9240    -1.4440     1.3190 C.ar  1 <1>  -0.1500 
 28 C        0.4810    -3.4730     2.5090 C.ar  1 <1>  -0.1500 
 29 C        1.2000    -2.2990     2.3710 C.ar  1 <1>  -0.1500 
 30 H       -4.4450    -1.0670    -1.3200 H     1 <1>   0.0800 
 31 H       -2.9300    -1.4310    -2.0650 H     1 <1>   0.0800 
 32 H       -2.8920     1.0430     1.3760 H     1 <1>   0.0800 
 33 H       -4.4320     0.4160     0.8540 H     1 <1>   0.0800 
 34 H       -3.2510     3.1540    -1.9800 H     1 <1>   0.1500 
 35 H       -3.6370    -0.8480     2.7580 H     1 <1>   0.0800 
 36 H       -2.1110    -1.1370     1.9890 H     1 <1>   0.0800 
 37 H        0.0620     3.7730     1.4810 H     1 <1>   0.3700 
 38 H       -4.8370    -2.1570     1.1830 H     1 <1>   0.0800 
 39 H       -5.3580    -3.1440    -0.8210 H     1 <1>   0.0800 
 40 H       -4.3680    -4.4820    -0.3010 H     1 <1>   0.0800 
 41 H       -2.0510    -4.3320    -0.3810 H     1 <1>   0.0800 
 42 H       -1.5380    -3.0840    -1.4300 H     1 <1>   0.0800 
 43 H       -2.6320     5.9540    -2.3060 H     1 <1>   0.0800 
 44 H       -4.0690     5.4800    -1.4470 H     1 <1>   0.0800 
 45 H       -2.5120    -3.3960     2.0990 H     1 <1>   0.4000 
 46 H       -4.1690    -3.1080    -2.7760 H     1 <1>   0.4000 
 47 H       -1.3750     6.2090     1.8120 H     1 <1>   0.0800 
 48 H        0.1090     6.2280     0.9020 H     1 <1>   0.0800 
 49 H       -3.3240     7.8580    -1.0260 H     1 <1>   0.0800 
 50 H       -3.5580     6.8980     0.4080 H     1 <1>   0.0800 
 51 H       -0.2700    -1.0840    -0.4030 H     1 <1>   0.1500 
 52 H       -1.0540    -4.7100     1.7130 H     1 <1>   0.1500 
 53 H       -1.4380     8.2080     0.5100 H     1 <1>   0.0800 
 54 H       -0.8820     7.3840    -0.9200 H     1 <1>   0.0800 
 55 H        1.4770    -0.5280     1.2030 H     1 <1>   0.1500 
 56 H        0.7010    -4.1440     3.3210 H     1 <1>   0.1500 
 57 H        1.9730    -2.0500     3.0760 H     1 <1>   0.1500 
@<TRIPOS>BOND
  1   1   2  2   
  2   2   3  am  
  3   2   4  1   
  4   3   5  1   
  5   3   6  1   
  6   4   7  1   
  7   4   8  2   
  8   5   9  1   
  9   5  30  1   
 10   5  31  1   
 11   6  10  1   
 12   6  32  1   
 13   6  33  1   
 14   7  11  2   
 15   7  12  am  
 16   8  13  1   
 17   8  34  1   
 18   9  14  1   
 19   9  15  1   
 20   9  16  1   
 21  10  14  1   
 22  10  35  1   
 23  10  36  1   
 24  12  17  1   
 25  12  37  1   
 26  13  17  2   
 27  13  18  1   
 28  14  19  1   
 29  14  38  1   
 30  15  20  1   
 31  15  39  1   
 32  15  40  1   
 33  16  21  1   
 34  16  41  1   
 35  16  42  1   
 36  17  22  1   
 37  18  23  1   
 38  18  43  1   
 39  18  44  1   
 40  19  45  1   
 41  20  46  1   
 42  21  24  ar  
 43  21  25  ar  
 44  22  26  1   
 45  22  47  1   
 46  22  48  1   
 47  23  26  1   
 48  23  49  1   
 49  23  50  1   
 50  24  27  ar  
 51  24  51  1   
 52  25  28  ar  
 53  25  52  1   
 54  26  53  1   
 55  26  54  1   
 56  27  29  ar  
 57  27  55  1   
 58  28  29  ar  
 59  28  56  1   
 60  29  57  1   
@<TRIPOS>SUBSTRUCTURE
  1 ****   3 GROUP 4 **** **** 0

# MOE 2024.06 (io_trps.svl 2023.06)
