@<TRIPOS>MOLECULE
NONAME
46 49 1 0 0 
SMALL
USER_CHARGES


@<TRIPOS>ATOM
  1 S       -0.2310     0.4670     0.1470 S.3   1 <1>  -0.0800 
  2 C        0.4750    -1.1490     0.2260 C.2   1 <1>   0.3250 
  3 C        1.3400     1.1730     0.3520 C.2   1 <1>  -0.1400 
  4 N        1.7520    -1.1130     0.3920 N.2   1 <1>  -0.5650 
  5 C       -0.3810    -2.3120     0.1040 C.ar  1 <1>   0.0530 
  6 C        2.2320     0.1800     0.4670 C.2   1 <1>   0.0770 
  7 C        1.4580     2.6830     0.3740 C.3   1 <1>   0.2900 
  8 C        0.1730    -3.5910     0.1590 C.ar  1 <1>  -0.1500 
  9 C       -1.7670    -2.2330    -0.0710 C.ar  1 <1>  -0.1500 
 10 N        2.8640     3.0720     0.1930 N.3   1 <1>  -0.8100 
 11 C       -0.5970    -4.7360     0.0470 C.ar  1 <1>   0.0830 
 12 C       -2.5500    -3.3680    -0.1850 C.ar  1 <1>  -0.1500 
 13 C        3.1900     4.3530     0.8630 C.3   1 <1>   0.1100 
 14 C        3.3000     2.9250    -1.2140 C.3   1 <1>   0.1100 
 15 O        0.0580    -5.9220     0.1160 O.3   1 <1>  -0.3630 
 16 C       -1.9720    -4.6220    -0.1260 C.ar  1 <1>  -0.1500 
 17 C        4.6920     4.7370     0.9190 C.3   1 <1>   0.2200 
 18 C        4.8140     3.0690    -1.4670 C.3   1 <1>  -0.0190 
 19 C       -0.6310    -7.1480     0.0130 C.3   1 <1>   0.0400 
 20 N        5.1460     5.2590    -0.3870 N.am  1 <1>  -0.7300 
 21 C        5.6470     3.6270     1.4290 C.3   1 <1>   0.1200 
 22 C        5.2140     4.5230    -1.5070 C.2   1 <1>   0.5690 
 23 C        5.7630     2.2610    -0.5550 C.3   1 <1>   0.1200 
 24 O        5.5010     2.3740     0.8140 O.3   1 <1>  -0.5600 
 25 O        5.5900     5.0190    -2.5390 O.2   1 <1>  -0.5700 
 26 H        3.2910     0.3270     0.6140 H     1 <1>   0.1500 
 27 H        1.0920     3.0310     1.3250 H     1 <1>   0.0800 
 28 H        0.8540     3.1180    -0.4040 H     1 <1>   0.0800 
 29 H        1.2340    -3.7000     0.2940 H     1 <1>   0.1500 
 30 H       -2.2530    -1.2760    -0.1210 H     1 <1>   0.1500 
 31 H       -3.6140    -3.2750    -0.3190 H     1 <1>   0.1500 
 32 H        2.6410     5.1520     0.3960 H     1 <1>   0.0800 
 33 H        2.8540     4.2810     1.8820 H     1 <1>   0.0800 
 34 H        3.0150     1.9450    -1.5560 H     1 <1>   0.0800 
 35 H        2.7750     3.6410    -1.8240 H     1 <1>   0.0800 
 36 H       -2.5990    -5.4870    -0.2170 H     1 <1>   0.1500 
 37 H        4.7750     5.5540     1.6130 H     1 <1>   0.0800 
 38 H        4.9830     2.7030    -2.4630 H     1 <1>   0.0800 
 39 H        0.0890    -7.9420     0.0940 H     1 <1>   0.0800 
 40 H       -1.1200    -7.1940    -0.9440 H     1 <1>   0.0800 
 41 H       -1.3440    -7.2160     0.8150 H     1 <1>   0.0800 
 42 H        5.4190     6.2410    -0.4560 H     1 <1>   0.3700 
 43 H        5.4530     3.4660     2.4740 H     1 <1>   0.0800 
 44 H        6.6710     3.9380     1.3250 H     1 <1>   0.0800 
 45 H        6.7860     2.5480    -0.7270 H     1 <1>   0.0800 
 46 H        5.6640     1.2170    -0.7930 H     1 <1>   0.0800 
@<TRIPOS>BOND
  1   1   2  1   
  2   1   3  1   
  3   2   4  2   
  4   2   5  1   
  5   3   6  2   
  6   3   7  1   
  7   4   6  1   
  8   5   8  ar  
  9   5   9  ar  
 10   6  26  1   
 11   7  10  1   
 12   7  27  1   
 13   7  28  1   
 14   8  11  ar  
 15   8  29  1   
 16   9  12  ar  
 17   9  30  1   
 18  10  13  1   
 19  10  14  1   
 20  11  15  1   
 21  11  16  ar  
 22  12  16  ar  
 23  12  31  1   
 24  13  17  1   
 25  13  32  1   
 26  13  33  1   
 27  14  18  1   
 28  14  34  1   
 29  14  35  1   
 30  15  19  1   
 31  16  36  1   
 32  17  20  1   
 33  17  21  1   
 34  17  37  1   
 35  18  22  1   
 36  18  23  1   
 37  18  38  1   
 38  19  39  1   
 39  19  40  1   
 40  19  41  1   
 41  20  22  am  
 42  20  42  1   
 43  21  24  1   
 44  21  43  1   
 45  21  44  1   
 46  22  25  2   
 47  23  24  1   
 48  23  45  1   
 49  23  46  1   
@<TRIPOS>SUBSTRUCTURE
  1 ****   6 GROUP 4 **** **** 0

# MOE 2024.06 (io_trps.svl 2023.06)
