@<TRIPOS>MOLECULE
NONAME
52 54 1 0 0 
SMALL
USER_CHARGES


@<TRIPOS>ATOM
  1 F        1.0060     1.0370    -2.0220 F     1 <1>  -0.1900 
  2 C        1.8180     1.0080    -0.9950 C.ar  1 <1>   0.1900 
  3 C        2.1610    -0.2130    -0.4240 C.ar  1 <1>   0.0820 
  4 C        2.2960     2.2070    -0.5030 C.ar  1 <1>  -0.1500 
  5 O        1.6840    -1.3790    -0.9230 O.3   1 <1>  -0.3630 
  6 C        3.0200    -0.2200     0.6660 C.ar  1 <1>  -0.1500 
  7 C        3.1450     2.1860     0.5930 C.ar  1 <1>  -0.1500 
  8 C        0.6890    -2.0430    -0.1850 C.3   1 <1>   0.2000 
  9 C        3.5050     0.9770     1.1720 C.ar  1 <1>  -0.1500 
 10 C        0.6570    -3.4890    -0.6710 C.3   1 <1>  -0.1600 
 11 C       -0.6530    -1.3500    -0.4330 C.3   1 <1>  -0.1600 
 12 C       -0.5150    -4.2490    -0.0600 C.3   1 <1>   0.3430 
 13 C       -1.8080    -2.1460     0.1630 C.3   1 <1>   0.3430 
 14 N       -1.7980    -3.5430    -0.3670 N.4   1 <1>  -0.9590 
 15 C       -2.9910    -4.3910     0.0280 C.3   1 <1>   0.4840 
 16 C       -3.0040    -5.7720    -0.6830 C.2   1 <1>   0.5690 
 17 C       -4.2920    -3.6430    -0.2890 C.3   1 <1>  -0.2400 
 18 O       -2.4600    -5.8580    -1.7600 O.2   1 <1>  -0.5700 
 19 N       -3.5910    -6.8500    -0.1010 N.am  1 <1>  -0.7300 
 20 C       -3.7530    -8.1620    -0.7550 C.3   1 <1>   0.2840 
 21 C       -5.0230    -8.7760    -0.2000 C.ar  1 <1>  -0.1430 
 22 C       -4.9710    -9.6290     0.8920 C.ar  1 <1>  -0.1500 
 23 C       -6.2500    -8.4760    -0.7740 C.ar  1 <1>  -0.1500 
 24 C       -6.1340   -10.1760     1.4060 C.ar  1 <1>  -0.1500 
 25 C       -7.4130    -9.0220    -0.2590 C.ar  1 <1>  -0.1500 
 26 C       -7.3560    -9.8720     0.8310 C.ar  1 <1>  -0.1500 
 27 H        2.0100     3.1340    -0.9670 H     1 <1>   0.1500 
 28 H        3.3160    -1.1530     1.1100 H     1 <1>   0.1500 
 29 H        3.5280     3.1090     0.9930 H     1 <1>   0.1500 
 30 H        0.9520    -2.0070     0.8600 H     1 <1>   0.0800 
 31 H        4.1710     0.9700     2.0180 H     1 <1>   0.1500 
 32 H        1.5750    -3.9770    -0.3950 H     1 <1>   0.0800 
 33 H        0.5750    -3.5170    -1.7440 H     1 <1>   0.0800 
 34 H       -0.8130    -1.2290    -1.4910 H     1 <1>   0.0800 
 35 H       -0.6420    -0.3720     0.0150 H     1 <1>   0.0800 
 36 H       -0.3820    -4.3230     1.0070 H     1 <1>   0.0800 
 37 H       -0.5300    -5.2470    -0.4700 H     1 <1>   0.0800 
 38 H       -2.7320    -1.6530    -0.0950 H     1 <1>   0.0800 
 39 H       -1.7200    -2.1610     1.2380 H     1 <1>   0.0800 
 40 H       -1.8460    -3.5040    -1.3990 H     1 <1>   0.4500 
 41 H       -2.9520    -4.5750     1.0880 H     1 <1>   0.0800 
 42 H       -4.3200    -3.3490    -1.3230 H     1 <1>   0.0800 
 43 H       -4.4220    -2.7840     0.3430 H     1 <1>   0.0800 
 44 H       -5.1310    -4.2940    -0.1110 H     1 <1>   0.0800 
 45 H       -4.1270    -6.7920     0.7700 H     1 <1>   0.3700 
 46 H       -2.9050    -8.7870    -0.5360 H     1 <1>   0.0800 
 47 H       -3.8270    -8.0440    -1.8240 H     1 <1>   0.0800 
 48 H       -4.0280    -9.8770     1.3490 H     1 <1>   0.1500 
 49 H       -6.3070    -7.8180    -1.6230 H     1 <1>   0.1500 
 50 H       -6.0900   -10.8390     2.2530 H     1 <1>   0.1500 
 51 H       -8.3630    -8.7880    -0.7080 H     1 <1>   0.1500 
 52 H       -8.2600   -10.2980     1.2300 H     1 <1>   0.1500 
@<TRIPOS>BOND
  1   1   2  1   
  2   2   3  ar  
  3   2   4  ar  
  4   3   5  1   
  5   3   6  ar  
  6   4   7  ar  
  7   4  27  1   
  8   5   8  1   
  9   6   9  ar  
 10   6  28  1   
 11   7   9  ar  
 12   7  29  1   
 13   8  10  1   
 14   8  11  1   
 15   8  30  1   
 16   9  31  1   
 17  10  12  1   
 18  10  32  1   
 19  10  33  1   
 20  11  13  1   
 21  11  34  1   
 22  11  35  1   
 23  12  14  1   
 24  12  36  1   
 25  12  37  1   
 26  13  14  1   
 27  13  38  1   
 28  13  39  1   
 29  14  15  1   
 30  14  40  1   
 31  15  16  1   
 32  15  17  1   
 33  15  41  1   
 34  16  18  2   
 35  16  19  am  
 36  17  42  1   
 37  17  43  1   
 38  17  44  1   
 39  19  20  1   
 40  19  45  1   
 41  20  21  1   
 42  20  46  1   
 43  20  47  1   
 44  21  22  ar  
 45  21  23  ar  
 46  22  24  ar  
 47  22  48  1   
 48  23  25  ar  
 49  23  49  1   
 50  24  26  ar  
 51  24  50  1   
 52  25  26  ar  
 53  25  51  1   
 54  26  52  1   
@<TRIPOS>SUBSTRUCTURE
  1 ****  14 GROUP 4 **** **** 0

# MOE 2024.06 (io_trps.svl 2023.06)
