@<TRIPOS>MOLECULE
NONAME
43 44 1 0 0 
SMALL
USER_CHARGES


@<TRIPOS>ATOM
  1 O        2.8130     0.1840     2.6000 O.co2 1 <1>  -0.9000 
  2 C        2.5470    -0.2440     1.4740 C.2   1 <1>   0.9060 
  3 O        2.9290    -1.3600     1.1020 O.co2 1 <1>  -0.9000 
  4 C        1.8920     0.7000     0.4410 C.3   1 <1>  -0.1060 
  5 C        2.6290     0.5160    -0.9050 C.3   1 <1>   0.2000 
  6 C        2.1310     2.1800     0.8520 C.3   1 <1>  -0.1600 
  7 C        0.3720     0.3890     0.3560 C.3   1 <1>  -0.1600 
  8 O        2.4670    -0.7700    -1.3830 O.3   1 <1>  -0.6800 
  9 C        4.1340     0.7780    -0.7130 C.3   1 <1>   0.3430 
 10 C        3.6260     2.4650     1.0550 C.3   1 <1>   0.3430 
 11 C       -0.4240     1.1900    -0.6900 C.3   1 <1>  -0.1600 
 12 N        4.3980     2.1670    -0.1950 N.4   1 <1>  -0.9590 
 13 C       -1.8990     0.7810    -0.6730 C.3   1 <1>  -0.2400 
 14 C        5.8510     2.3330     0.0700 C.3   1 <1>   0.5230 
 15 C        6.2270     3.8040     0.1320 C.2   1 <1>  -0.0400 
 16 O        7.4800     4.0880     0.4280 O.3   1 <1>  -0.2800 
 17 C        5.5260     4.9450    -0.0680 C.2   1 <1>  -0.1500 
 18 C        7.6110     5.3980     0.4300 C.2   1 <1>  -0.0400 
 19 C        6.4370     5.9900     0.1290 C.2   1 <1>  -0.1500 
 20 C        8.9660     5.9940     0.7460 C.3   1 <1>  -0.0600 
 21 H        2.2410     1.1790    -1.6570 H     1 <1>   0.0800 
 22 H        1.6260     2.3710     1.7840 H     1 <1>   0.0800 
 23 H        1.7360     2.8610     0.1220 H     1 <1>   0.0800 
 24 H        0.2550    -0.6610     0.1430 H     1 <1>   0.0800 
 25 H       -0.0610     0.5530     1.3290 H     1 <1>   0.0800 
 26 H        2.5850    -1.3730    -0.5880 H     1 <1>   0.4000 
 27 H        4.6310     0.6350    -1.6570 H     1 <1>   0.0800 
 28 H        4.5180     0.0530    -0.0110 H     1 <1>   0.0800 
 29 H        3.9990     1.8580     1.8650 H     1 <1>   0.0800 
 30 H        3.7580     3.4970     1.3380 H     1 <1>   0.0800 
 31 H       -0.3600     2.2430    -0.4880 H     1 <1>   0.0800 
 32 H       -0.0300     1.0030    -1.6740 H     1 <1>   0.0800 
 33 H        4.1300     2.8410    -0.9180 H     1 <1>   0.4500 
 34 H       -2.3310     0.9700     0.2940 H     1 <1>   0.0800 
 35 H       -2.0000    -0.2670    -0.8980 H     1 <1>   0.0800 
 36 H       -2.4470     1.3420    -1.4090 H     1 <1>   0.0800 
 37 H        6.1110     1.8540     1.0000 H     1 <1>   0.0800 
 38 H        6.4230     1.8710    -0.7170 H     1 <1>   0.0800 
 39 H        4.4930     5.0930    -0.3250 H     1 <1>   0.1500 
 40 H        6.2160     7.0400     0.0500 H     1 <1>   0.1500 
 41 H        8.9190     7.0670     0.7090 H     1 <1>   0.0800 
 42 H        9.6910     5.6510     0.0300 H     1 <1>   0.0800 
 43 H        9.2760     5.6910     1.7290 H     1 <1>   0.0800 
@<TRIPOS>BOND
  1   1   2  ar  
  2   2   3  ar  
  3   2   4  1   
  4   4   5  1   
  5   4   6  1   
  6   4   7  1   
  7   5   8  1   
  8   5   9  1   
  9   5  21  1   
 10   6  10  1   
 11   6  22  1   
 12   6  23  1   
 13   7  11  1   
 14   7  24  1   
 15   7  25  1   
 16   8  26  1   
 17   9  12  1   
 18   9  27  1   
 19   9  28  1   
 20  10  12  1   
 21  10  29  1   
 22  10  30  1   
 23  11  13  1   
 24  11  31  1   
 25  11  32  1   
 26  12  14  1   
 27  12  33  1   
 28  13  34  1   
 29  13  35  1   
 30  13  36  1   
 31  14  15  1   
 32  14  37  1   
 33  14  38  1   
 34  15  16  1   
 35  15  17  2   
 36  16  18  1   
 37  17  19  1   
 38  17  39  1   
 39  18  19  2   
 40  18  20  1   
 41  19  40  1   
 42  20  41  1   
 43  20  42  1   
 44  20  43  1   
@<TRIPOS>SUBSTRUCTURE
  1 ****  12 GROUP 4 **** **** 0

# MOE 2024.06 (io_trps.svl 2023.06)
