@<TRIPOS>MOLECULE
NONAME
25 27 1 0 0 
SMALL
USER_CHARGES


@<TRIPOS>ATOM
  1 O       -0.1000    -0.3170     0.0050 O.2   1 <1>  -0.5700 
  2 C        0.1280    -1.4990     0.0040 C.2   1 <1>   0.4230 
  3 C       -0.7960    -2.5900     0.0020 C.ar  1 <1>   0.0860 
  4 C        1.5410    -2.0470     0.0040 C.3   1 <1>  -0.0990 
  5 C       -2.1860    -2.6090     0.0010 C.ar  1 <1>  -0.1440 
  6 C       -0.1220    -3.7990     0.0010 C.ar  1 <1>  -0.1440 
  7 C        1.3780    -3.5820     0.0020 C.3   1 <1>  -0.0160 
  8 C       -2.8650    -3.8010     0.0000 C.ar  1 <1>  -0.1440 
  9 C       -3.1210    -1.4260     0.0020 C.3   1 <1>  -0.0160 
 10 C       -0.7980    -5.0080     0.0000 C.ar  1 <1>  -0.1500 
 11 C       -2.1860    -5.0090    -0.0010 C.ar  1 <1>  -0.1500 
 12 C       -4.3570    -3.5880    -0.0010 C.3   1 <1>  -0.0170 
 13 C       -4.5270    -2.0550     0.0000 C.3   1 <1>  -0.1600 
 14 H        2.0580    -1.7110     0.8840 H     1 <1>   0.0800 
 15 H        2.0590    -1.7090    -0.8750 H     1 <1>   0.0800 
 16 H        1.8190    -4.0170     0.8830 H     1 <1>   0.0800 
 17 H        1.8200    -4.0150    -0.8780 H     1 <1>   0.0800 
 18 H       -2.9600    -0.8250    -0.8760 H     1 <1>   0.0800 
 19 H       -2.9620    -0.8270     0.8810 H     1 <1>   0.0800 
 20 H       -0.2570    -5.9380    -0.0010 H     1 <1>   0.1500 
 21 H       -2.7300    -5.9380    -0.0020 H     1 <1>   0.1500 
 22 H       -4.7970    -4.0250     0.8780 H     1 <1>   0.0800 
 23 H       -4.7960    -4.0230    -0.8820 H     1 <1>   0.0800 
 24 H       -5.0690    -1.7420    -0.8750 H     1 <1>   0.0800 
 25 H       -5.0700    -1.7440     0.8750 H     1 <1>   0.0800 
@<TRIPOS>BOND
  1   1   2  2   
  2   2   3  1   
  3   2   4  1   
  4   3   5  ar  
  5   3   6  ar  
  6   4   7  1   
  7   4  14  1   
  8   4  15  1   
  9   5   8  ar  
 10   5   9  1   
 11   6   7  1   
 12   6  10  ar  
 13   7  16  1   
 14   7  17  1   
 15   8  11  ar  
 16   8  12  1   
 17   9  13  1   
 18   9  18  1   
 19   9  19  1   
 20  10  11  ar  
 21  10  20  1   
 22  11  21  1   
 23  12  13  1   
 24  12  22  1   
 25  12  23  1   
 26  13  24  1   
 27  13  25  1   
@<TRIPOS>SUBSTRUCTURE
  1 ****   3 GROUP 4 **** **** 0

# MOE 2024.06 (io_trps.svl 2023.06)
