@<TRIPOS>MOLECULE
NONAME
49 52 1 0 0 
SMALL
USER_CHARGES


@<TRIPOS>ATOM
  1 S        0.7180     0.2120     0.0010 S.3   1 <1>  -0.0800 
  2 C       -0.3320    -1.1490    -0.2350 C.2   1 <1>  -0.1400 
  3 C       -0.6790     1.1460     0.5140 C.2   1 <1>   0.1980 
  4 C       -1.5800    -0.8000     0.0870 C.2   1 <1>   0.0460 
  5 C        0.1660    -2.4880    -0.7290 C.3   1 <1>   0.0200 
  6 N       -1.7800     0.5030     0.5060 N.2   1 <1>  -0.5650 
  7 C       -0.4480     2.5900     0.9020 C.3   1 <1>   0.0200 
  8 C       -2.7390    -1.7730     0.0010 C.3   1 <1>   0.0210 
  9 C       -1.0490    -3.3450    -1.1390 C.3   1 <1>  -0.1600 
 10 C       -0.2960     3.4530    -0.3490 C.3   1 <1>   0.2090 
 11 C       -2.2220    -3.2230    -0.1390 C.3   1 <1>  -0.1600 
 12 N       -0.0900     4.8750     0.0270 N.pl3 1 <1>  -0.8690 
 13 C        1.1070     5.4290     0.4200 C.ar  1 <1>   0.4100 
 14 N        2.1770     4.6430     0.3060 N.ar  1 <1>  -0.6200 
 15 C        1.1550     6.7470     0.9110 C.ar  1 <1>   0.0860 
 16 C        3.3280     5.1490     0.7010 C.ar  1 <1>   0.1600 
 17 C       -0.0350     7.5600     0.9770 C.2   1 <1>   0.5440 
 18 C        2.3860     7.2400     1.3250 C.ar  1 <1>  -0.1500 
 19 C        3.4870     6.4230     1.2150 C.ar  1 <1>  -0.1500 
 20 O       -1.0360     7.1440     1.5370 O.2   1 <1>  -0.5700 
 21 N       -0.0750     8.8200     0.4200 N.am  1 <1>  -0.6600 
 22 C        0.8490     9.2980    -0.6340 C.3   1 <1>   0.1400 
 23 C       -1.2800     9.6760     0.4920 C.3   1 <1>   0.1400 
 24 C        0.0400    10.3200    -1.4240 C.3   1 <1>  -0.1600 
 25 C       -0.9790    10.8580    -0.4230 C.3   1 <1>  -0.1600 
 26 H        0.7120    -2.9700     0.0630 H     1 <1>   0.0800 
 27 H        0.8230    -2.3540    -1.5700 H     1 <1>   0.0800 
 28 H        0.4390     2.6590     1.5040 H     1 <1>   0.0800 
 29 H       -1.2880     2.9350     1.4750 H     1 <1>   0.0800 
 30 H       -3.3410    -1.5080    -0.8490 H     1 <1>   0.0800 
 31 H       -3.3450    -1.6860     0.8850 H     1 <1>   0.0800 
 32 H       -0.7470    -4.3740    -1.2270 H     1 <1>   0.0800 
 33 H       -1.3900    -3.0190    -2.1070 H     1 <1>   0.0800 
 34 H       -1.1810     3.3710    -0.9550 H     1 <1>   0.0800 
 35 H        0.5410     3.1070    -0.9330 H     1 <1>   0.0800 
 36 H       -3.0330    -3.8600    -0.4460 H     1 <1>   0.0800 
 37 H       -1.8870    -3.5620     0.8260 H     1 <1>   0.0800 
 38 H       -0.9270     5.3620     0.3850 H     1 <1>   0.4000 
 39 H        4.1940     4.5150     0.6140 H     1 <1>   0.1500 
 40 H        2.4660     8.2370     1.7240 H     1 <1>   0.1500 
 41 H        4.4600     6.7640     1.5220 H     1 <1>   0.1500 
 42 H        1.1790     8.4880    -1.2640 H     1 <1>   0.0800 
 43 H        1.6970     9.7720    -0.1720 H     1 <1>   0.0800 
 44 H       -1.4620     9.9900     1.5060 H     1 <1>   0.0800 
 45 H       -2.1290     9.1210     0.1290 H     1 <1>   0.0800 
 46 H       -0.4690     9.8170    -2.2280 H     1 <1>   0.0800 
 47 H        0.6630    11.0950    -1.8330 H     1 <1>   0.0800 
 48 H       -0.5400    11.6480     0.1600 H     1 <1>   0.0800 
 49 H       -1.8690    11.2280    -0.9010 H     1 <1>   0.0800 
@<TRIPOS>BOND
  1   1   2  1   
  2   1   3  1   
  3   2   4  2   
  4   2   5  1   
  5   3   6  2   
  6   3   7  1   
  7   4   6  1   
  8   4   8  1   
  9   5   9  1   
 10   5  26  1   
 11   5  27  1   
 12   7  10  1   
 13   7  28  1   
 14   7  29  1   
 15   8  11  1   
 16   8  30  1   
 17   8  31  1   
 18   9  11  1   
 19   9  32  1   
 20   9  33  1   
 21  10  12  1   
 22  10  34  1   
 23  10  35  1   
 24  11  36  1   
 25  11  37  1   
 26  12  13  1   
 27  12  38  1   
 28  13  14  ar  
 29  13  15  ar  
 30  14  16  ar  
 31  15  17  1   
 32  15  18  ar  
 33  16  19  ar  
 34  16  39  1   
 35  17  20  2   
 36  17  21  am  
 37  18  19  ar  
 38  18  40  1   
 39  19  41  1   
 40  21  22  1   
 41  21  23  1   
 42  22  24  1   
 43  22  42  1   
 44  22  43  1   
 45  23  25  1   
 46  23  44  1   
 47  23  45  1   
 48  24  25  1   
 49  24  46  1   
 50  24  47  1   
 51  25  48  1   
 52  25  49  1   
@<TRIPOS>SUBSTRUCTURE
  1 ****  10 GROUP 4 **** **** 0

# MOE 2024.06 (io_trps.svl 2023.06)
