@<TRIPOS>MOLECULE
NONAME
44 47 1 0 0 
SMALL
USER_CHARGES


@<TRIPOS>ATOM
  1 O        0.3650     0.1880    -1.4320 O.2   1 <1>  -0.5700 
  2 C        0.9860    -0.2690    -0.4940 C.2   1 <1>   0.6160 
  3 N        1.3370     0.5640     0.5370 N.am  1 <1>  -0.6600 
  4 C        1.3210    -1.6740    -0.5100 C.2   1 <1>   0.0140 
  5 C        1.7150     1.9850     0.2400 C.3   1 <1>   0.3210 
  6 C        1.5270     0.1330     1.9510 C.3   1 <1>   0.0600 
  7 C        0.4330    -2.5830    -1.0320 C.2   1 <1>   0.2290 
  8 C        2.5730    -2.1570    -0.0370 C.2   1 <1>  -0.1500 
  9 C        3.2310     2.1830     0.1700 C.2   1 <1>   0.3350 
 10 N        0.7280    -3.9280    -1.0750 N.pl3 1 <1>  -0.6290 
 11 C        2.8610    -3.4940    -0.0910 C.2   1 <1>  -0.1410 
 12 N        4.1090     1.2610     0.0610 N.2   1 <1>  -0.4100 
 13 N        3.7570     3.3990     0.2260 N.2   1 <1>  -0.5650 
 14 C        1.9170    -4.3900    -0.6210 C.cat 1 <1>   0.7910 
 15 C        0.0210    -5.0200    -1.5420 C.2   1 <1>   0.2000 
 16 O        5.2710     1.8370     0.0340 O.3   1 <1>  -0.0190 
 17 C        4.9970     3.1150     0.1320 C.2   1 <1>   0.2980 
 18 N        1.9600    -5.7210    -0.7860 N.pl3 1 <1>  -0.7000 
 19 C        0.7800    -6.1190    -1.3610 C.2   1 <1>   0.2000 
 20 C        6.1660     4.0960     0.1310 C.3   1 <1>   0.1000 
 21 C        5.7770     5.5720     0.2470 C.3   1 <1>  -0.1600 
 22 C        6.9850     4.0550    -1.1600 C.3   1 <1>  -0.1600 
 23 C        6.9990     6.3400    -0.2590 C.3   1 <1>  -0.1600 
 24 C        7.7300     5.3920    -1.2180 C.3   1 <1>  -0.1600 
 25 H        1.3150     2.6250     1.0050 H     1 <1>   0.0800 
 26 H        1.2920     2.2990    -0.6980 H     1 <1>   0.0800 
 27 H        1.1440    -0.8600     2.1010 H     1 <1>   0.0800 
 28 H        1.0000     0.8030     2.6090 H     1 <1>   0.0800 
 29 H        2.5740     0.1500     2.2040 H     1 <1>   0.0800 
 30 H       -0.5190    -2.2570    -1.4270 H     1 <1>   0.1500 
 31 H        3.2890    -1.4460     0.3480 H     1 <1>   0.1500 
 32 H        3.8000    -3.8820     0.2580 H     1 <1>   0.1500 
 33 H       -0.9670    -4.9380    -1.9670 H     1 <1>   0.1500 
 34 H        2.7480    -6.3220    -0.5300 H     1 <1>   0.4500 
 35 H        0.5550    -7.1470    -1.6060 H     1 <1>   0.1500 
 36 H        6.8140     3.8520     0.9550 H     1 <1>   0.0800 
 37 H        5.5150     5.8400     1.2560 H     1 <1>   0.0800 
 38 H        4.9410     5.7760    -0.3990 H     1 <1>   0.0800 
 39 H        6.3150     3.9860    -2.0010 H     1 <1>   0.0800 
 40 H        7.6580     3.2150    -1.1800 H     1 <1>   0.0800 
 41 H        7.6440     6.5820     0.5690 H     1 <1>   0.0800 
 42 H        6.7070     7.2530    -0.7490 H     1 <1>   0.0800 
 43 H        7.7310     5.7800    -2.2220 H     1 <1>   0.0800 
 44 H        8.7500     5.2650    -0.8950 H     1 <1>   0.0800 
@<TRIPOS>BOND
  1   1   2  2   
  2   2   3  am  
  3   2   4  1   
  4   3   5  1   
  5   3   6  1   
  6   4   7  2   
  7   4   8  1   
  8   5   9  1   
  9   5  25  1   
 10   5  26  1   
 11   6  27  1   
 12   6  28  1   
 13   6  29  1   
 14   7  10  1   
 15   7  30  1   
 16   8  11  2   
 17   8  31  1   
 18   9  12  2   
 19   9  13  1   
 20  10  14  ar  
 21  10  15  1   
 22  11  14  1   
 23  11  32  1   
 24  12  16  1   
 25  13  17  2   
 26  14  18  ar  
 27  15  19  2   
 28  15  33  1   
 29  16  17  1   
 30  17  20  1   
 31  18  19  1   
 32  18  34  1   
 33  19  35  1   
 34  20  21  1   
 35  20  22  1   
 36  20  36  1   
 37  21  23  1   
 38  21  37  1   
 39  21  38  1   
 40  22  24  1   
 41  22  39  1   
 42  22  40  1   
 43  23  24  1   
 44  23  41  1   
 45  23  42  1   
 46  24  43  1   
 47  24  44  1   
@<TRIPOS>SUBSTRUCTURE
  1 ****  12 GROUP 4 **** **** 0

# MOE 2024.06 (io_trps.svl 2023.06)
