@<TRIPOS>MOLECULE
NONAME
62 65 1 0 0 
SMALL
USER_CHARGES


@<TRIPOS>ATOM
  1 O        0.4880     0.1810     1.0490 O.3   1 <1>  -0.6800 
  2 C        0.9700    -0.4390    -0.1000 C.3   1 <1>   0.2000 
  3 C        1.8240    -1.6360     0.3260 C.3   1 <1>  -0.0800 
  4 C        1.9900     0.5070    -0.7280 C.3   1 <1>   0.3430 
  5 C        3.2440    -1.0620     0.4920 C.3   1 <1>   0.3430 
  6 C        1.7840    -2.7630    -0.7260 C.3   1 <1>  -0.0160 
  7 N        3.1540     0.3980     0.1920 N.4   1 <1>  -0.9590 
  8 C        2.7450    -3.8860    -0.3760 C.ar  1 <1>   0.1670 
  9 C        4.4320     0.9780    -0.3010 C.3   1 <1>   0.3430 
 10 N        3.9830    -3.7360    -0.7380 N.ar  1 <1>  -0.6200 
 11 C        2.2650    -5.0060     0.3210 C.ar  1 <1>  -0.1500 
 12 C        4.6770     2.3890     0.2760 C.3   1 <1>  -0.0800 
 13 C        4.8530    -4.7370    -0.4370 C.ar  1 <1>   0.3100 
 14 C        3.1200    -6.0130     0.6510 C.ar  1 <1>  -0.1500 
 15 C        3.6000     3.4220    -0.1100 C.3   1 <1>  -0.1600 
 16 C        6.0510     2.9080    -0.1810 C.3   1 <1>  -0.1600 
 17 C        4.4660    -5.8950     0.2720 C.ar  1 <1>   0.0000 
 18 C        6.1940    -4.6170    -0.8390 C.ar  1 <1>  -0.1500 
 19 C        3.9360     4.8290     0.3990 C.3   1 <1>   0.3430 
 20 C        6.3430     4.3200     0.3380 C.3   1 <1>   0.3430 
 21 C        5.4350    -6.8760     0.5640 C.ar  1 <1>  -0.1500 
 22 C        7.1200    -5.5840    -0.5480 C.ar  1 <1>  -0.1500 
 23 N        5.2750     5.2700    -0.1050 N.4   1 <1>  -0.9590 
 24 C        6.7350    -6.7240     0.1640 C.ar  1 <1>  -0.1500 
 25 C        5.5830     6.6830     0.2770 C.3   1 <1>   0.4230 
 26 C        4.4990     7.6210    -0.2580 C.3   1 <1>  -0.2400 
 27 C        6.9300     7.1060    -0.3150 C.3   1 <1>  -0.2400 
 28 H       -0.2740    -0.3110     1.4260 H     1 <1>   0.4000 
 29 H        0.1450    -0.6750    -0.7510 H     1 <1>   0.0800 
 30 H        1.4840    -2.0410     1.2640 H     1 <1>   0.0800 
 31 H        1.6020     1.5100    -0.7870 H     1 <1>   0.0800 
 32 H        2.2570     0.1570    -1.7120 H     1 <1>   0.0800 
 33 H        3.9160    -1.5280    -0.2080 H     1 <1>   0.0800 
 34 H        3.6130    -1.2310     1.4910 H     1 <1>   0.0800 
 35 H        2.0500    -2.3810    -1.6970 H     1 <1>   0.0800 
 36 H        0.7860    -3.1580    -0.8000 H     1 <1>   0.0800 
 37 H        2.8480     0.8390     1.0730 H     1 <1>   0.4500 
 38 H        5.2480     0.3410     0.0030 H     1 <1>   0.0800 
 39 H        4.4290     1.0110    -1.3790 H     1 <1>   0.0800 
 40 H        1.2250    -5.0640     0.5890 H     1 <1>   0.1500 
 41 H        4.7040     2.3020     1.3510 H     1 <1>   0.0800 
 42 H        2.7920    -6.8880     1.1850 H     1 <1>   0.1500 
 43 H        2.6530     3.1410     0.3160 H     1 <1>   0.0800 
 44 H        3.4790     3.4570    -1.1790 H     1 <1>   0.0800 
 45 H        6.1150     2.9140    -1.2560 H     1 <1>   0.0800 
 46 H        6.8240     2.2510     0.1820 H     1 <1>   0.0800 
 47 H        6.4740    -3.7400    -1.3900 H     1 <1>   0.1500 
 48 H        3.9370     4.8340     1.4780 H     1 <1>   0.0800 
 49 H        3.1690     5.5070     0.0630 H     1 <1>   0.0800 
 50 H        7.3030     4.6320    -0.0420 H     1 <1>   0.0800 
 51 H        6.3960     4.3080     1.4150 H     1 <1>   0.0800 
 52 H        5.1330    -7.7530     1.1080 H     1 <1>   0.1500 
 53 H        8.1450    -5.4820    -0.8610 H     1 <1>   0.1500 
 54 H        5.2480     5.2590    -1.1320 H     1 <1>   0.4500 
 55 H        7.4730    -7.4750     0.3880 H     1 <1>   0.1500 
 56 H        5.6270     6.7730     1.3520 H     1 <1>   0.0800 
 57 H        4.3540     7.4880    -1.3160 H     1 <1>   0.0800 
 58 H        4.7920     8.6440    -0.0930 H     1 <1>   0.0800 
 59 H        3.5670     7.4870     0.2580 H     1 <1>   0.0800 
 60 H        6.9610     6.9360    -1.3760 H     1 <1>   0.0800 
 61 H        7.7500     6.6000     0.1610 H     1 <1>   0.0800 
 62 H        7.0850     8.1570    -0.1450 H     1 <1>   0.0800 
@<TRIPOS>BOND
  1   1   2  1   
  2   1  28  1   
  3   2   3  1   
  4   2   4  1   
  5   2  29  1   
  6   3   5  1   
  7   3   6  1   
  8   3  30  1   
  9   4   7  1   
 10   4  31  1   
 11   4  32  1   
 12   5   7  1   
 13   5  33  1   
 14   5  34  1   
 15   6   8  1   
 16   6  35  1   
 17   6  36  1   
 18   7   9  1   
 19   7  37  1   
 20   8  10  ar  
 21   8  11  ar  
 22   9  12  1   
 23   9  38  1   
 24   9  39  1   
 25  10  13  ar  
 26  11  14  ar  
 27  11  40  1   
 28  12  15  1   
 29  12  16  1   
 30  12  41  1   
 31  13  17  ar  
 32  13  18  ar  
 33  14  17  ar  
 34  14  42  1   
 35  15  19  1   
 36  15  43  1   
 37  15  44  1   
 38  16  20  1   
 39  16  45  1   
 40  16  46  1   
 41  17  21  ar  
 42  18  22  ar  
 43  18  47  1   
 44  19  23  1   
 45  19  48  1   
 46  19  49  1   
 47  20  23  1   
 48  20  50  1   
 49  20  51  1   
 50  21  24  ar  
 51  21  52  1   
 52  22  24  ar  
 53  22  53  1   
 54  23  25  1   
 55  23  54  1   
 56  24  55  1   
 57  25  26  1   
 58  25  27  1   
 59  25  56  1   
 60  26  57  1   
 61  26  58  1   
 62  26  59  1   
 63  27  60  1   
 64  27  61  1   
 65  27  62  1   
@<TRIPOS>SUBSTRUCTURE
  1 ****   5 GROUP 4 **** **** 0

# MOE 2024.06 (io_trps.svl 2023.06)
