@<TRIPOS>MOLECULE
NONAME
43 45 1 0 0 
SMALL
USER_CHARGES


@<TRIPOS>ATOM
  1 CL      -1.4400    -0.2380    -0.5880 Cl    1 <1>  -0.1770 
  2 C       -0.3360    -1.1740     0.3970 C.ar  1 <1>   0.1770 
  3 C        0.4170    -2.2090    -0.1480 C.ar  1 <1>  -0.1440 
  4 C       -0.2540    -0.8490     1.7390 C.ar  1 <1>  -0.1500 
  5 C        1.2660    -2.9140     0.6950 C.ar  1 <1>  -0.1500 
  6 C        0.3540    -2.6010    -1.6260 C.3   1 <1>   0.0450 
  7 C        0.5940    -1.5640     2.5650 C.ar  1 <1>  -0.1500 
  8 C        1.3530    -2.5960     2.0400 C.ar  1 <1>  -0.1500 
  9 C        0.0880    -4.0880    -1.8470 C.2   1 <1>   0.5690 
 10 O        0.9940    -4.7260    -2.3320 O.2   1 <1>  -0.5700 
 11 N       -1.1170    -4.6780    -1.5270 N.am  1 <1>  -0.6600 
 12 C       -2.2470    -3.9320    -0.8960 C.3   1 <1>   0.2200 
 13 C       -1.3210    -6.1370    -1.7950 C.3   1 <1>   0.0600 
 14 C       -2.4450    -4.2760     0.5760 C.3   1 <1>  -0.1600 
 15 C       -3.6150    -4.1780    -1.5250 C.3   1 <1>  -0.1600 
 16 C       -3.8680    -3.7910     0.8920 C.3   1 <1>  -0.0800 
 17 C       -4.5960    -3.6700    -0.4600 C.3   1 <1>  -0.0800 
 18 C       -3.9040    -2.3990     1.5400 C.3   1 <1>  -0.1600 
 19 C       -4.9510    -2.1860    -0.6290 C.3   1 <1>  -0.1600 
 20 C       -4.9750    -1.6270     0.7840 C.3   1 <1>   0.2000 
 21 O       -4.6620    -0.2860     0.7640 O.3   1 <1>  -0.6800 
 22 H       -0.8490    -0.0440     2.1310 H     1 <1>   0.1500 
 23 H        1.8670    -3.7200     0.3050 H     1 <1>   0.1500 
 24 H        1.3000    -2.3580    -2.0750 H     1 <1>   0.0800 
 25 H       -0.3880    -2.0440    -2.1630 H     1 <1>   0.0800 
 26 H        0.6640    -1.3200     3.6110 H     1 <1>   0.1500 
 27 H        2.0150    -3.1550     2.6790 H     1 <1>   0.1500 
 28 H       -2.0710    -2.8770    -0.9610 H     1 <1>   0.0800 
 29 H       -1.8650    -6.6000    -0.9930 H     1 <1>   0.0800 
 30 H       -0.3760    -6.6440    -1.8910 H     1 <1>   0.0800 
 31 H       -1.8680    -6.2610    -2.7130 H     1 <1>   0.0800 
 32 H       -2.4040    -5.3400     0.7190 H     1 <1>   0.0800 
 33 H       -1.6990    -3.8140     1.1990 H     1 <1>   0.0800 
 34 H       -3.7240    -3.6660    -2.4640 H     1 <1>   0.0800 
 35 H       -3.7890    -5.2280    -1.6670 H     1 <1>   0.0800 
 36 H       -4.3750    -4.5010     1.5250 H     1 <1>   0.0800 
 37 H       -5.4970    -4.2600    -0.4550 H     1 <1>   0.0800 
 38 H       -2.9540    -1.9090     1.4260 H     1 <1>   0.0800 
 39 H       -4.1440    -2.4630     2.5860 H     1 <1>   0.0800 
 40 H       -5.9050    -2.0640    -1.1110 H     1 <1>   0.0800 
 41 H       -4.1930    -1.6840    -1.2050 H     1 <1>   0.0800 
 42 H       -5.9430    -1.7590     1.2390 H     1 <1>   0.0800 
 43 H       -3.7990    -0.1540     0.3260 H     1 <1>   0.4000 
@<TRIPOS>BOND
  1   1   2  1   
  2   2   3  ar  
  3   2   4  ar  
  4   3   5  ar  
  5   3   6  1   
  6   4   7  ar  
  7   4  22  1   
  8   5   8  ar  
  9   5  23  1   
 10   6   9  1   
 11   6  24  1   
 12   6  25  1   
 13   7   8  ar  
 14   7  26  1   
 15   8  27  1   
 16   9  10  2   
 17   9  11  am  
 18  11  12  1   
 19  11  13  1   
 20  12  14  1   
 21  12  15  1   
 22  12  28  1   
 23  13  29  1   
 24  13  30  1   
 25  13  31  1   
 26  14  16  1   
 27  14  32  1   
 28  14  33  1   
 29  15  17  1   
 30  15  34  1   
 31  15  35  1   
 32  16  17  1   
 33  16  18  1   
 34  16  36  1   
 35  17  19  1   
 36  17  37  1   
 37  18  20  1   
 38  18  38  1   
 39  18  39  1   
 40  19  20  1   
 41  19  40  1   
 42  19  41  1   
 43  20  21  1   
 44  20  42  1   
 45  21  43  1   
@<TRIPOS>SUBSTRUCTURE
  1 ****  12 GROUP 4 **** **** 0

# MOE 2024.06 (io_trps.svl 2023.06)
