@<TRIPOS>MOLECULE
NONAME
60 63 1 0 0 
SMALL
USER_CHARGES


@<TRIPOS>ATOM
  1 O       -1.2030     0.3800     1.6180 O.2   1 <1>  -0.5700 
  2 C       -1.8520     0.6340     0.6300 C.2   1 <1>   0.5690 
  3 N       -2.3210    -0.3840    -0.1740 N.am  1 <1>  -0.6600 
  4 C       -2.1550     2.1110     0.3200 C.3   1 <1>  -0.0190 
  5 C       -1.8200    -1.7700     0.0070 C.3   1 <1>   0.1400 
  6 C       -3.4200    -0.2640    -1.1630 C.3   1 <1>   0.1400 
  7 C       -0.9980     3.0450     0.7200 C.3   1 <1>  -0.2400 
  8 C       -3.4460     2.5750     1.0140 C.3   1 <1>  -0.2400 
  9 C       -2.9640    -2.6220     0.5500 C.3   1 <1>  -0.1600 
 10 C       -4.6020    -1.0990    -0.6620 C.3   1 <1>  -0.1600 
 11 C       -4.1800    -2.5470    -0.3750 C.3   1 <1>   0.4230 
 12 N       -5.2860    -3.2740     0.2820 N.4   1 <1>  -0.9060 
 13 C       -6.4760    -3.5720    -0.5620 C.3   1 <1>   0.4230 
 14 C       -7.5420    -4.2220     0.3220 C.3   1 <1>  -0.0800 
 15 C       -6.1340    -4.7300    -1.4930 C.3   1 <1>   0.1200 
 16 C       -7.1760    -5.7180     0.2580 C.3   1 <1>   0.1200 
 17 C       -8.9630    -3.9580    -0.2230 C.3   1 <1>  -0.0170 
 18 O       -6.0980    -5.8110    -0.6250 O.3   1 <1>  -0.5600 
 19 C      -10.1200    -4.5510     0.5890 C.ar  1 <1>  -0.1440 
 20 C      -11.4360    -4.5170     0.0610 C.ar  1 <1>   0.0000 
 21 C       -9.9660    -5.1190     1.8250 C.ar  1 <1>  -0.1500 
 22 C      -12.4790    -5.0900     0.8310 C.ar  1 <1>   0.3100 
 23 C      -11.7840    -3.9440    -1.1870 C.ar  1 <1>  -0.1500 
 24 C      -11.0680    -5.6510     2.5060 C.ar  1 <1>   0.1600 
 25 N      -12.2760    -5.6510     2.0470 N.ar  1 <1>  -0.6200 
 26 C      -13.7890    -5.0800     0.3270 C.ar  1 <1>  -0.1500 
 27 C      -13.0720    -3.9480    -1.6490 C.ar  1 <1>  -0.1500 
 28 C      -14.0890    -4.5240    -0.8860 C.ar  1 <1>  -0.1500 
 29 H       -2.2720     2.2180    -0.7420 H     1 <1>   0.0800 
 30 H       -1.4730    -2.1500    -0.9400 H     1 <1>   0.0800 
 31 H       -0.9870    -1.7930     0.6910 H     1 <1>   0.0800 
 32 H       -3.7310     0.7580    -1.2870 H     1 <1>   0.0800 
 33 H       -3.0760    -0.6230    -2.1190 H     1 <1>   0.0800 
 34 H       -0.8410     3.0170     1.7850 H     1 <1>   0.0800 
 35 H       -1.2100     4.0580     0.4280 H     1 <1>   0.0800 
 36 H       -0.0880     2.7320     0.2380 H     1 <1>   0.0800 
 37 H       -3.3360     2.5020     2.0830 H     1 <1>   0.0800 
 38 H       -4.2800     1.9670     0.7170 H     1 <1>   0.0800 
 39 H       -3.6620     3.5990     0.7610 H     1 <1>   0.0800 
 40 H       -3.2060    -2.2580     1.5340 H     1 <1>   0.0800 
 41 H       -2.6220    -3.6380     0.6330 H     1 <1>   0.0800 
 42 H       -5.3710    -1.0730    -1.4130 H     1 <1>   0.0800 
 43 H       -4.9790    -0.6350     0.2330 H     1 <1>   0.0800 
 44 H       -3.9240    -3.0270    -1.3060 H     1 <1>   0.0800 
 45 H       -5.5570    -2.7710     1.1330 H     1 <1>   0.4500 
 46 H       -4.9350    -4.1990     0.5760 H     1 <1>   0.4500 
 47 H       -6.8330    -2.6960    -1.0800 H     1 <1>   0.0800 
 48 H       -7.4890    -3.8490     1.3290 H     1 <1>   0.0800 
 49 H       -5.1860    -4.6310    -1.9910 H     1 <1>   0.0800 
 50 H       -6.9100    -4.9040    -2.2200 H     1 <1>   0.0800 
 51 H       -7.9820    -6.3210    -0.1290 H     1 <1>   0.0800 
 52 H       -6.8670    -6.1070     1.2130 H     1 <1>   0.0800 
 53 H       -9.0240    -4.3540    -1.2230 H     1 <1>   0.0800 
 54 H       -9.1230    -2.8950    -0.2840 H     1 <1>   0.0800 
 55 H       -9.0240    -5.1870     2.3300 H     1 <1>   0.1500 
 56 H      -11.0290    -3.4880    -1.7960 H     1 <1>   0.1500 
 57 H      -10.9000    -6.0900     3.4750 H     1 <1>   0.1500 
 58 H      -14.5550    -5.5270     0.9330 H     1 <1>   0.1500 
 59 H      -13.3200    -3.5100    -2.6010 H     1 <1>   0.1500 
 60 H      -15.0990    -4.5230    -1.2610 H     1 <1>   0.1500 
@<TRIPOS>BOND
  1   1   2  2   
  2   2   3  am  
  3   2   4  1   
  4   3   5  1   
  5   3   6  1   
  6   4   7  1   
  7   4   8  1   
  8   4  29  1   
  9   5   9  1   
 10   5  30  1   
 11   5  31  1   
 12   6  10  1   
 13   6  32  1   
 14   6  33  1   
 15   7  34  1   
 16   7  35  1   
 17   7  36  1   
 18   8  37  1   
 19   8  38  1   
 20   8  39  1   
 21   9  11  1   
 22   9  40  1   
 23   9  41  1   
 24  10  11  1   
 25  10  42  1   
 26  10  43  1   
 27  11  12  1   
 28  11  44  1   
 29  12  13  1   
 30  12  45  1   
 31  12  46  1   
 32  13  14  1   
 33  13  15  1   
 34  13  47  1   
 35  14  16  1   
 36  14  17  1   
 37  14  48  1   
 38  15  18  1   
 39  15  49  1   
 40  15  50  1   
 41  16  18  1   
 42  16  51  1   
 43  16  52  1   
 44  17  19  1   
 45  17  53  1   
 46  17  54  1   
 47  19  20  ar  
 48  19  21  ar  
 49  20  22  ar  
 50  20  23  ar  
 51  21  24  ar  
 52  21  55  1   
 53  22  25  ar  
 54  22  26  ar  
 55  23  27  ar  
 56  23  56  1   
 57  24  25  ar  
 58  24  57  1   
 59  26  28  ar  
 60  26  58  1   
 61  27  28  ar  
 62  27  59  1   
 63  28  60  1   
@<TRIPOS>SUBSTRUCTURE
  1 ****  13 GROUP 4 **** **** 0

# MOE 2024.06 (io_trps.svl 2023.06)
