@<TRIPOS>MOLECULE
NONAME
46 48 1 0 0 
SMALL
USER_CHARGES


@<TRIPOS>ATOM
  1 S        0.0650    -1.0070    -1.3600 S.3   1 <1>  -0.0800 
  2 C       -1.5220    -1.3010    -0.6980 C.2   1 <1>  -0.1400 
  3 C       -0.1220     0.6920    -1.0220 C.2   1 <1>   0.2280 
  4 C       -2.0370    -0.1160    -0.3040 C.2   1 <1>   0.0460 
  5 C       -1.9280    -2.7710    -0.7220 C.3   1 <1>   0.0200 
  6 N       -1.2330     0.9980    -0.4870 N.2   1 <1>  -0.5650 
  7 C       -3.3840     0.2070     0.3120 C.3   1 <1>  -0.0590 
  8 C       -3.1200    -3.1220     0.1700 C.3   1 <1>   0.1400 
  9 N       -3.2750    -4.6030     0.2830 N.am  1 <1>  -0.6600 
 10 C       -3.9900    -5.2950    -0.6770 C.2   1 <1>   0.5690 
 11 C       -2.4720    -5.2280     1.3770 C.3   1 <1>   0.0600 
 12 O       -4.4960    -4.7050    -1.6050 O.2   1 <1>  -0.5700 
 13 C       -4.2090    -6.8140    -0.6310 C.3   1 <1>   0.2610 
 14 O       -2.9950    -7.5320    -0.4440 O.3   1 <1>  -0.5600 
 15 C       -5.2510    -7.1560     0.4630 C.3   1 <1>   0.3640 
 16 C       -3.1390    -8.9350    -0.4940 C.3   1 <1>   0.1810 
 17 N       -5.2070    -8.5880     0.8450 N.am  1 <1>  -0.7300 
 18 C       -6.6660    -6.8030     0.0170 C.ar  1 <1>  -0.1440 
 19 C       -4.2510    -9.4470     0.4260 C.2   1 <1>   0.5690 
 20 C       -7.2510    -5.6240     0.4590 C.ar  1 <1>  -0.1500 
 21 C       -7.3850    -7.6350    -0.8330 C.ar  1 <1>  -0.1500 
 22 O       -4.2830   -10.6070     0.7500 O.2   1 <1>  -0.5700 
 23 C       -8.5330    -5.2850     0.0630 C.ar  1 <1>  -0.1500 
 24 C       -8.6670    -7.2960    -1.2290 C.ar  1 <1>  -0.1500 
 25 C       -9.2420    -6.1200    -0.7810 C.ar  1 <1>  -0.1500 
 26 H        0.6950     1.3400    -1.2840 H     1 <1>   0.1500 
 27 H       -2.1520    -3.0520    -1.7360 H     1 <1>   0.0800 
 28 H       -1.0820    -3.3490    -0.3970 H     1 <1>   0.0800 
 29 H       -4.0400    -0.6370     0.3320 H     1 <1>   0.0800 
 30 H       -3.8570     0.9830    -0.2610 H     1 <1>   0.0800 
 31 H       -3.2410     0.5630     1.3160 H     1 <1>   0.0800 
 32 H       -4.0160    -2.7060    -0.2570 H     1 <1>   0.0800 
 33 H       -2.9820    -2.6970     1.1490 H     1 <1>   0.0800 
 34 H       -2.5110    -4.6160     2.2610 H     1 <1>   0.0800 
 35 H       -1.4480    -5.3240     1.0620 H     1 <1>   0.0800 
 36 H       -2.8420    -6.2040     1.6310 H     1 <1>   0.0800 
 37 H       -4.6040    -7.1080    -1.5870 H     1 <1>   0.0800 
 38 H       -5.0240    -6.5800     1.3420 H     1 <1>   0.0800 
 39 H       -3.3500    -9.2200    -1.5080 H     1 <1>   0.0800 
 40 H       -2.2020    -9.3710    -0.1980 H     1 <1>   0.0800 
 41 H       -5.9740    -8.9440     1.4170 H     1 <1>   0.3700 
 42 H       -6.7140    -4.9570     1.1100 H     1 <1>   0.1500 
 43 H       -6.9550    -8.5530    -1.1930 H     1 <1>   0.1500 
 44 H       -8.9790    -4.3680     0.4080 H     1 <1>   0.1500 
 45 H       -9.2170    -7.9460    -1.8870 H     1 <1>   0.1500 
 46 H      -10.2390    -5.8560    -1.0900 H     1 <1>   0.1500 
@<TRIPOS>BOND
  1   1   2  1   
  2   1   3  1   
  3   2   4  2   
  4   2   5  1   
  5   3   6  2   
  6   3  26  1   
  7   4   6  1   
  8   4   7  1   
  9   5   8  1   
 10   5  27  1   
 11   5  28  1   
 12   7  29  1   
 13   7  30  1   
 14   7  31  1   
 15   8   9  1   
 16   8  32  1   
 17   8  33  1   
 18   9  10  am  
 19   9  11  1   
 20  10  12  2   
 21  10  13  1   
 22  11  34  1   
 23  11  35  1   
 24  11  36  1   
 25  13  14  1   
 26  13  15  1   
 27  13  37  1   
 28  14  16  1   
 29  15  17  1   
 30  15  18  1   
 31  15  38  1   
 32  16  19  1   
 33  16  39  1   
 34  16  40  1   
 35  17  19  am  
 36  17  41  1   
 37  18  20  ar  
 38  18  21  ar  
 39  19  22  2   
 40  20  23  ar  
 41  20  42  1   
 42  21  24  ar  
 43  21  43  1   
 44  23  25  ar  
 45  23  44  1   
 46  24  25  ar  
 47  24  45  1   
 48  25  46  1   
@<TRIPOS>SUBSTRUCTURE
  1 ****  10 GROUP 4 **** **** 0

# MOE 2024.06 (io_trps.svl 2023.06)
