@<TRIPOS>MOLECULE
NONAME
44 45 1 0 0 
SMALL
USER_CHARGES


@<TRIPOS>ATOM
  1 S        0.1150     0.3700    -0.2570 S.o2  1 <1>   1.3330 
  2 O        1.1610     0.2180    -1.2430 O.2   1 <1>  -0.6500 
  3 O       -1.2640     0.4500    -0.6840 O.2   1 <1>  -0.6500 
  4 N        0.2570    -0.9050     0.8530 N.am  1 <1>  -0.8490 
  5 C        0.4530     1.8180     0.7410 C.3   1 <1>  -0.0550 
  6 C       -0.5470    -2.0680     0.4640 C.3   1 <1>   0.1160 
  7 C        1.6440    -1.3170     1.0930 C.3   1 <1>   0.1160 
  8 C        0.2890     3.1400    -0.0350 C.3   1 <1>  -0.0800 
  9 C        0.4130     4.3960     0.8300 C.3   1 <1>   0.2000 
 10 C        1.3180     3.3430    -1.1580 C.3   1 <1>   0.1400 
 11 O        1.5030     4.2590     1.6780 O.3   1 <1>  -0.6800 
 12 C        0.7370     5.4940    -0.1790 C.3   1 <1>   0.1400 
 13 N        1.5730     4.8060    -1.1960 N.am  1 <1>  -0.6600 
 14 C        2.5740     5.3540    -1.9530 C.2   1 <1>   0.5690 
 15 O        3.2800     4.6650    -2.6490 O.2   1 <1>  -0.5700 
 16 C        2.8380     6.8520    -1.9360 C.3   1 <1>   0.0440 
 17 C        3.6310     7.2840    -0.7020 C.ar  1 <1>  -0.1440 
 18 C        3.1790     8.2660     0.1710 C.ar  1 <1>   0.1900 
 19 C        4.8540     6.6840    -0.4230 C.ar  1 <1>  -0.1500 
 20 F        2.0290     8.8520    -0.0540 F     1 <1>  -0.1900 
 21 C        3.9210     8.6300     1.2830 C.ar  1 <1>   0.1900 
 22 C        5.5980     7.0490     0.6920 C.ar  1 <1>  -0.1500 
 23 F        3.4800     9.5550     2.0980 F     1 <1>  -0.1900 
 24 C        5.1350     8.0290     1.5570 C.ar  1 <1>  -0.1500 
 25 H       -0.2240     1.8250     1.5730 H     1 <1>   0.0800 
 26 H        1.4480     1.7530     1.1350 H     1 <1>   0.0800 
 27 H       -0.4500    -2.8510     1.1960 H     1 <1>   0.0800 
 28 H       -0.2290    -2.4370    -0.4970 H     1 <1>   0.0800 
 29 H       -1.5870    -1.7930     0.4020 H     1 <1>   0.0800 
 30 H        1.6790    -2.0680     1.8630 H     1 <1>   0.0800 
 31 H        2.2320    -0.4750     1.4150 H     1 <1>   0.0800 
 32 H        2.0800    -1.7180     0.1920 H     1 <1>   0.0800 
 33 H       -0.6890     3.1510    -0.4870 H     1 <1>   0.0800 
 34 H       -0.4620     4.6030     1.4220 H     1 <1>   0.0800 
 35 H        0.9410     3.0000    -2.1080 H     1 <1>   0.0800 
 36 H        2.2400     2.8300    -0.9420 H     1 <1>   0.0800 
 37 H        2.3220     4.2890     1.1400 H     1 <1>   0.4000 
 38 H        1.2430     6.3170     0.2920 H     1 <1>   0.0800 
 39 H       -0.1680     5.8440    -0.6450 H     1 <1>   0.0800 
 40 H        3.4040     7.1060    -2.8140 H     1 <1>   0.0800 
 41 H        1.8990     7.3670    -2.0070 H     1 <1>   0.0800 
 42 H        5.2380     5.9190    -1.0810 H     1 <1>   0.1500 
 43 H        6.5420     6.5670     0.8850 H     1 <1>   0.1500 
 44 H        5.7000     8.3210     2.4240 H     1 <1>   0.1500 
@<TRIPOS>BOND
  1   1   2  2   
  2   1   3  2   
  3   1   4  am  
  4   1   5  1   
  5   4   6  1   
  6   4   7  1   
  7   5   8  1   
  8   5  25  1   
  9   5  26  1   
 10   6  27  1   
 11   6  28  1   
 12   6  29  1   
 13   7  30  1   
 14   7  31  1   
 15   7  32  1   
 16   8   9  1   
 17   8  10  1   
 18   8  33  1   
 19   9  11  1   
 20   9  12  1   
 21   9  34  1   
 22  10  13  1   
 23  10  35  1   
 24  10  36  1   
 25  11  37  1   
 26  12  13  1   
 27  12  38  1   
 28  12  39  1   
 29  13  14  am  
 30  14  15  2   
 31  14  16  1   
 32  16  17  1   
 33  16  40  1   
 34  16  41  1   
 35  17  18  ar  
 36  17  19  ar  
 37  18  20  1   
 38  18  21  ar  
 39  19  22  ar  
 40  19  42  1   
 41  21  23  1   
 42  21  24  ar  
 43  22  24  ar  
 44  22  43  1   
 45  24  44  1   
@<TRIPOS>SUBSTRUCTURE
  1 ****  13 GROUP 4 **** **** 0

# MOE 2024.06 (io_trps.svl 2023.06)
