@<TRIPOS>MOLECULE
NONAME
60 64 1 0 0 
SMALL
USER_CHARGES


@<TRIPOS>ATOM
  1 O       -1.2990     2.3300     2.1620 O.2   1 <1>  -0.5700 
  2 C       -1.4540     1.7820     1.0980 C.2   1 <1>   0.5690 
  3 N       -2.1600     0.6250     0.9870 N.am  1 <1>  -0.7300 
  4 C       -0.7800     2.4100    -0.1230 C.3   1 <1>   0.0610 
  5 C       -2.8530    -0.0470     2.1050 C.3   1 <1>   0.1400 
  6 C       -0.8490     3.9630    -0.0520 C.3   1 <1>   0.4230 
  7 C       -1.5040     2.1690    -1.4860 C.3   1 <1>  -0.1600 
  8 C        0.6780     1.8540    -0.1250 C.3   1 <1>  -0.0170 
  9 C       -4.2700    -0.3880     1.6600 C.3   1 <1>  -0.2400 
 10 N       -0.5910     4.2910    -1.4790 N.4   1 <1>  -0.9590 
 11 C       -2.3110     4.4360     0.1340 C.3   1 <1>  -0.1600 
 12 C       -1.7540     3.5890    -2.0280 C.3   1 <1>   0.4230 
 13 C        1.6550     2.5700    -1.0500 C.ar  1 <1>  -0.1440 
 14 C       -0.2560     5.6750    -1.9700 C.3   1 <1>   0.4860 
 15 C       -2.9270     4.1870    -1.2480 C.3   1 <1>  -0.1600 
 16 C        1.7830     2.2110    -2.3840 C.ar  1 <1>  -0.1500 
 17 C        2.4190     3.6170    -0.5550 C.ar  1 <1>  -0.1500 
 18 C       -0.8890     6.8330    -1.2170 C.ar  1 <1>  -0.1440 
 19 C        2.6240     2.9220    -3.2210 C.ar  1 <1>  -0.1500 
 20 C        3.2620     4.3270    -1.3910 C.ar  1 <1>  -0.1500 
 21 C       -0.3560     7.3050     0.0050 C.ar  1 <1>   0.0000 
 22 C       -1.9900     7.4700    -1.7160 C.ar  1 <1>  -0.1500 
 23 C        3.3570     3.9850    -2.7270 C.ar  1 <1>  -0.1500 
 24 C       -1.0500     8.3480     0.6650 C.ar  1 <1>   0.3100 
 25 C        0.8220     6.8070     0.6080 C.ar  1 <1>  -0.1500 
 26 C       -2.5840     8.5130    -0.9960 C.ar  1 <1>   0.1600 
 27 N       -2.1560     8.9360     0.1490 N.ar  1 <1>  -0.6200 
 28 C       -0.5750     8.8010     1.9050 C.ar  1 <1>  -0.1500 
 29 C        1.2630     7.2750     1.8150 C.ar  1 <1>  -0.1500 
 30 C        0.5530     8.2790     2.4780 C.ar  1 <1>  -0.1500 
 31 H       -2.2090     0.1180     0.1020 H     1 <1>   0.3700 
 32 H       -2.3200    -0.9450     2.3720 H     1 <1>   0.0800 
 33 H       -2.8850     0.5980     2.9680 H     1 <1>   0.0800 
 34 H       -0.1510     4.3920     0.6490 H     1 <1>   0.0800 
 35 H       -2.4390     1.6470    -1.3820 H     1 <1>   0.0800 
 36 H       -0.9030     1.6100    -2.1760 H     1 <1>   0.0800 
 37 H        1.0730     1.9110     0.8760 H     1 <1>   0.0800 
 38 H        0.6590     0.8060    -0.3750 H     1 <1>   0.0800 
 39 H       -4.2550    -1.0590     0.8210 H     1 <1>   0.0800 
 40 H       -4.8060     0.5080     1.4020 H     1 <1>   0.0800 
 41 H       -4.7920    -0.8700     2.4680 H     1 <1>   0.0800 
 42 H        0.2390     3.7340    -1.7370 H     1 <1>   0.4500 
 43 H       -2.8430     3.9070     0.9040 H     1 <1>   0.0800 
 44 H       -2.3540     5.4740     0.4030 H     1 <1>   0.0800 
 45 H       -1.8520     3.6420    -3.1010 H     1 <1>   0.0800 
 46 H        0.8130     5.8040    -1.9230 H     1 <1>   0.0800 
 47 H       -0.5280     5.7500    -3.0090 H     1 <1>   0.0800 
 48 H       -3.2620     5.1020    -1.6990 H     1 <1>   0.0800 
 49 H       -3.7660     3.5140    -1.1990 H     1 <1>   0.0800 
 50 H        1.2440     1.3700    -2.7860 H     1 <1>   0.1500 
 51 H        2.3690     3.8840     0.4890 H     1 <1>   0.1500 
 52 H        2.7220     2.6400    -4.2570 H     1 <1>   0.1500 
 53 H        3.8560     5.1370    -1.0020 H     1 <1>   0.1500 
 54 H       -2.4350     7.1970    -2.6560 H     1 <1>   0.1500 
 55 H        4.0180     4.5330    -3.3790 H     1 <1>   0.1500 
 56 H        1.3940     6.0510     0.1110 H     1 <1>   0.1500 
 57 H       -3.4540     8.9910    -1.4170 H     1 <1>   0.1500 
 58 H       -1.1300     9.5810     2.3940 H     1 <1>   0.1500 
 59 H        2.1580     6.8880     2.2720 H     1 <1>   0.1500 
 60 H        0.9060     8.6370     3.4300 H     1 <1>   0.1500 
@<TRIPOS>BOND
  1   1   2  2   
  2   2   3  am  
  3   2   4  1   
  4   3   5  1   
  5   3  31  1   
  6   4   6  1   
  7   4   7  1   
  8   4   8  1   
  9   5   9  1   
 10   5  32  1   
 11   5  33  1   
 12   6  10  1   
 13   6  11  1   
 14   6  34  1   
 15   7  12  1   
 16   7  35  1   
 17   7  36  1   
 18   8  13  1   
 19   8  37  1   
 20   8  38  1   
 21   9  39  1   
 22   9  40  1   
 23   9  41  1   
 24  10  12  1   
 25  10  14  1   
 26  10  42  1   
 27  11  15  1   
 28  11  43  1   
 29  11  44  1   
 30  12  15  1   
 31  12  45  1   
 32  13  16  ar  
 33  13  17  ar  
 34  14  18  1   
 35  14  46  1   
 36  14  47  1   
 37  15  48  1   
 38  15  49  1   
 39  16  19  ar  
 40  16  50  1   
 41  17  20  ar  
 42  17  51  1   
 43  18  21  ar  
 44  18  22  ar  
 45  19  23  ar  
 46  19  52  1   
 47  20  23  ar  
 48  20  53  1   
 49  21  24  ar  
 50  21  25  ar  
 51  22  26  ar  
 52  22  54  1   
 53  23  55  1   
 54  24  27  ar  
 55  24  28  ar  
 56  25  29  ar  
 57  25  56  1   
 58  26  27  ar  
 59  26  57  1   
 60  28  30  ar  
 61  28  58  1   
 62  29  30  ar  
 63  29  59  1   
 64  30  60  1   
@<TRIPOS>SUBSTRUCTURE
  1 ****   6 GROUP 4 **** **** 0

# MOE 2024.06 (io_trps.svl 2023.06)
