@<TRIPOS>MOLECULE
NONAME
39 41 1 0 0 
SMALL
USER_CHARGES


@<TRIPOS>ATOM
  1 O       -0.5760    -1.0440     0.7480 O.2   1 <1>  -0.5700 
  2 C        0.1650    -1.9580     0.4750 C.2   1 <1>   0.5690 
  3 N       -0.1970    -3.0080    -0.3230 N.am  1 <1>  -0.6600 
  4 C        1.5700    -1.9610     1.0450 C.3   1 <1>  -0.0990 
  5 C        0.7540    -4.1180    -0.5820 C.3   1 <1>   0.1400 
  6 C       -1.5560    -3.1360    -0.9130 C.3   1 <1>   0.0600 
  7 C        2.5910    -2.3490    -0.0400 C.3   1 <1>  -0.0800 
  8 C        2.1580    -3.5600    -0.8950 C.3   1 <1>  -0.0800 
  9 C        3.9770    -2.6920     0.5250 C.3   1 <1>  -0.1600 
 10 C        3.2650    -4.6050    -0.7140 C.3   1 <1>  -0.1600 
 11 C        4.5190    -3.7870    -0.3920 C.3   1 <1>   0.2200 
 12 N        5.6420    -4.5440     0.2540 N.am  1 <1>  -0.6600 
 13 C        6.7890    -3.9190     0.7230 C.2   1 <1>   0.7150 
 14 C        5.4920    -6.0240     0.4330 C.3   1 <1>   0.0600 
 15 O        7.4210    -4.4750     1.6060 O.2   1 <1>  -0.5700 
 16 C        7.2880    -2.6500     0.2420 C.2   1 <1>   0.0550 
 17 O        6.9090    -2.1090    -0.8960 O.3   1 <1>  -0.0190 
 18 C        8.1960    -1.7980     0.7700 C.2   1 <1>  -0.1500 
 19 N        7.4850    -0.9720    -1.1410 N.2   1 <1>  -0.4100 
 20 C        8.2740    -0.7620    -0.1470 C.2   1 <1>   0.1390 
 21 H        1.8010    -0.9880     1.4380 H     1 <1>   0.0800 
 22 H        1.5920    -2.6660     1.8550 H     1 <1>   0.0800 
 23 H        0.7870    -4.7390     0.2970 H     1 <1>   0.0800 
 24 H        0.4110    -4.7180    -1.4070 H     1 <1>   0.0800 
 25 H       -2.0270    -4.0340    -0.5530 H     1 <1>   0.0800 
 26 H       -1.4850    -3.1740    -1.9860 H     1 <1>   0.0800 
 27 H       -2.1680    -2.2930    -0.6390 H     1 <1>   0.0800 
 28 H        2.6940    -1.5090    -0.7070 H     1 <1>   0.0800 
 29 H        2.1600    -3.2470    -1.9250 H     1 <1>   0.0800 
 30 H        3.8850    -3.0830     1.5230 H     1 <1>   0.0800 
 31 H        4.6080    -1.8210     0.5370 H     1 <1>   0.0800 
 32 H        3.3930    -5.2000    -1.6010 H     1 <1>   0.0800 
 33 H        3.0110    -5.2330     0.1200 H     1 <1>   0.0800 
 34 H        4.8650    -3.3470    -1.3120 H     1 <1>   0.0800 
 35 H        5.1720    -6.4810    -0.4860 H     1 <1>   0.0800 
 36 H        4.7750    -6.2270     1.2090 H     1 <1>   0.0800 
 37 H        6.4300    -6.4730     0.7140 H     1 <1>   0.0800 
 38 H        8.7440    -1.8940     1.6890 H     1 <1>   0.1500 
 39 H        8.9060     0.1050    -0.0530 H     1 <1>   0.1500 
@<TRIPOS>BOND
  1   1   2  2   
  2   2   3  am  
  3   2   4  1   
  4   3   5  1   
  5   3   6  1   
  6   4   7  1   
  7   4  21  1   
  8   4  22  1   
  9   5   8  1   
 10   5  23  1   
 11   5  24  1   
 12   6  25  1   
 13   6  26  1   
 14   6  27  1   
 15   7   8  1   
 16   7   9  1   
 17   7  28  1   
 18   8  10  1   
 19   8  29  1   
 20   9  11  1   
 21   9  30  1   
 22   9  31  1   
 23  10  11  1   
 24  10  32  1   
 25  10  33  1   
 26  11  12  1   
 27  11  34  1   
 28  12  13  am  
 29  12  14  1   
 30  13  15  2   
 31  13  16  1   
 32  14  35  1   
 33  14  36  1   
 34  14  37  1   
 35  16  17  1   
 36  16  18  2   
 37  17  19  1   
 38  18  20  1   
 39  18  38  1   
 40  19  20  2   
 41  20  39  1   
@<TRIPOS>SUBSTRUCTURE
  1 ****   9 GROUP 4 **** **** 0

# MOE 2024.06 (io_trps.svl 2023.06)
