@<TRIPOS>MOLECULE
NONAME
58 60 1 0 0 
SMALL
USER_CHARGES


@<TRIPOS>ATOM
  1 O       -0.8090     0.1700     0.2770 O.3   1 <1>  -0.3630 
  2 C       -1.7170     0.9690     0.9050 C.ar  1 <1>   0.0820 
  3 C        0.4080     0.7310    -0.1910 C.3   1 <1>   0.1200 
  4 C       -2.7280     0.3620     1.6470 C.ar  1 <1>  -0.1440 
  5 C       -1.6670     2.3610     0.8390 C.ar  1 <1>  -0.1500 
  6 C        1.3750    -0.3960    -0.5850 C.3   1 <1>   0.3430 
  7 C       -3.6430     1.1410     2.3410 C.ar  1 <1>  -0.1500 
  8 C       -2.8530    -1.1460     1.7060 C.3   1 <1>   0.4860 
  9 C       -2.5920     3.1280     1.5220 C.ar  1 <1>  -0.1500 
 10 N        2.7320     0.1150    -0.9830 N.4   1 <1>  -0.9590 
 11 C       -3.5760     2.5200     2.2780 C.ar  1 <1>  -0.1500 
 12 N       -3.4290    -1.6840     0.4360 N.4   1 <1>  -0.9590 
 13 C        2.7040     0.9160    -2.2520 C.3   1 <1>   0.2630 
 14 C        3.6960    -1.0230    -1.1270 C.3   1 <1>   0.2630 
 15 C       -4.7890    -1.1180     0.1500 C.3   1 <1>   0.4230 
 16 C       -3.3600    -3.1810     0.4700 C.3   1 <1>   0.2630 
 17 C       -5.7610    -2.0720    -0.5490 C.3   1 <1>  -0.1600 
 18 C       -4.7040     0.0530    -0.8290 C.3   1 <1>  -0.1600 
 19 C       -6.8090    -1.1570    -1.1910 C.3   1 <1>  -0.0800 
 20 C       -6.1210     0.2010    -1.3950 C.3   1 <1>  -0.0800 
 21 C       -8.0310    -0.8940    -0.3000 C.3   1 <1>  -0.1600 
 22 C       -6.9750     1.2390    -0.6500 C.3   1 <1>  -0.1600 
 23 C       -8.3380     0.5800    -0.5090 C.3   1 <1>   0.2000 
 24 O       -9.0080     1.0900     0.5810 O.3   1 <1>  -0.6800 
 25 H        0.1810     1.3550    -1.0370 H     1 <1>   0.0800 
 26 H        0.8320     1.3150     0.6080 H     1 <1>   0.0800 
 27 H       -0.9230     2.8810     0.2650 H     1 <1>   0.1500 
 28 H        0.9490    -0.9570    -1.4010 H     1 <1>   0.0800 
 29 H        1.4840    -1.0550     0.2610 H     1 <1>   0.0800 
 30 H       -4.4190     0.6900     2.9380 H     1 <1>   0.1500 
 31 H       -3.4790    -1.4220     2.5390 H     1 <1>   0.0800 
 32 H       -1.8740    -1.5650     1.8700 H     1 <1>   0.0800 
 33 H       -2.5470     4.2040     1.4710 H     1 <1>   0.1500 
 34 H        3.0900     0.7220    -0.2270 H     1 <1>   0.4500 
 35 H       -4.2870     3.1250     2.8160 H     1 <1>   0.1500 
 36 H       -2.8160    -1.3300    -0.3090 H     1 <1>   0.4500 
 37 H        2.3340     0.3150    -3.0680 H     1 <1>   0.0800 
 38 H        3.6960     1.2560    -2.5010 H     1 <1>   0.0800 
 39 H        2.0680     1.7790    -2.1420 H     1 <1>   0.0800 
 40 H        3.3770    -1.6910    -1.9100 H     1 <1>   0.0800 
 41 H        3.7630    -1.5780    -0.2050 H     1 <1>   0.0800 
 42 H        4.6790    -0.6520    -1.3720 H     1 <1>   0.0800 
 43 H       -5.2520    -0.7760     1.0630 H     1 <1>   0.0800 
 44 H       -4.0370    -3.5710     1.2130 H     1 <1>   0.0800 
 45 H       -2.3600    -3.5060     0.7100 H     1 <1>   0.0800 
 46 H       -3.6270    -3.5930    -0.4890 H     1 <1>   0.0800 
 47 H       -5.2640    -2.5970    -1.3450 H     1 <1>   0.0800 
 48 H       -6.2090    -2.7750     0.1310 H     1 <1>   0.0800 
 49 H       -4.3740     0.9670    -0.3710 H     1 <1>   0.0800 
 50 H       -4.0410    -0.1950    -1.6390 H     1 <1>   0.0800 
 51 H       -7.1360    -1.5540    -2.1390 H     1 <1>   0.0800 
 52 H       -6.0890     0.4480    -2.4450 H     1 <1>   0.0800 
 53 H       -7.7950    -1.0730     0.7340 H     1 <1>   0.0800 
 54 H       -8.8680    -1.5060    -0.5890 H     1 <1>   0.0800 
 55 H       -7.0480     2.1580    -1.2060 H     1 <1>   0.0800 
 56 H       -6.5640     1.4410     0.3230 H     1 <1>   0.0800 
 57 H       -8.9380     0.7320    -1.3920 H     1 <1>   0.0800 
 58 H       -8.4760     0.9970     1.3910 H     1 <1>   0.4000 
@<TRIPOS>BOND
  1   1   2  1   
  2   1   3  1   
  3   2   4  ar  
  4   2   5  ar  
  5   3   6  1   
  6   3  25  1   
  7   3  26  1   
  8   4   7  ar  
  9   4   8  1   
 10   5   9  ar  
 11   5  27  1   
 12   6  10  1   
 13   6  28  1   
 14   6  29  1   
 15   7  11  ar  
 16   7  30  1   
 17   8  12  1   
 18   8  31  1   
 19   8  32  1   
 20   9  11  ar  
 21   9  33  1   
 22  10  13  1   
 23  10  14  1   
 24  10  34  1   
 25  11  35  1   
 26  12  15  1   
 27  12  16  1   
 28  12  36  1   
 29  13  37  1   
 30  13  38  1   
 31  13  39  1   
 32  14  40  1   
 33  14  41  1   
 34  14  42  1   
 35  15  17  1   
 36  15  18  1   
 37  15  43  1   
 38  16  44  1   
 39  16  45  1   
 40  16  46  1   
 41  17  19  1   
 42  17  47  1   
 43  17  48  1   
 44  18  20  1   
 45  18  49  1   
 46  18  50  1   
 47  19  20  1   
 48  19  21  1   
 49  19  51  1   
 50  20  22  1   
 51  20  52  1   
 52  21  23  1   
 53  21  53  1   
 54  21  54  1   
 55  22  23  1   
 56  22  55  1   
 57  22  56  1   
 58  23  24  1   
 59  23  57  1   
 60  24  58  1   
@<TRIPOS>SUBSTRUCTURE
  1 ****   4 GROUP 4 **** **** 0

# MOE 2024.06 (io_trps.svl 2023.06)
