@<TRIPOS>MOLECULE
NONAME
44 47 1 0 0 
SMALL
USER_CHARGES


@<TRIPOS>ATOM
  1 S        1.5250    -2.6750     0.6570 S.3   1 <1>  -0.0800 
  2 C       -0.0320    -1.9350     0.3290 C.2   1 <1>  -0.1100 
  3 C        0.7570    -4.0290     1.4650 C.2   1 <1>  -0.1100 
  4 C       -1.0360    -2.6920     0.8130 C.2   1 <1>  -0.1810 
  5 C       -0.5810    -3.8880     1.4620 C.2   1 <1>  -0.1500 
  6 C       -2.5140    -2.3700     0.7130 C.3   1 <1>   0.3210 
  7 N       -3.1570    -3.4180    -0.0930 N.am  1 <1>  -0.7300 
  8 C       -4.4120    -3.8980     0.0870 C.2   1 <1>   0.5690 
  9 O       -5.1430    -3.4360     0.9310 O.2   1 <1>  -0.5700 
 10 C       -4.9120    -5.0550    -0.7860 C.3   1 <1>   0.2610 
 11 O       -3.8650    -5.5320    -1.6200 O.3   1 <1>  -0.5600 
 12 C       -5.5570    -6.1470     0.1190 C.3   1 <1>   0.3640 
 13 C       -4.1540    -6.7270    -2.2970 C.3   1 <1>   0.1810 
 14 N       -5.0860    -7.5460    -0.1480 N.am  1 <1>  -0.5090 
 15 C       -7.0780    -6.0710    -0.0270 C.ar  1 <1>  -0.1430 
 16 C       -4.4240    -7.8530    -1.3070 C.2   1 <1>   0.5690 
 17 C       -5.1510    -8.4930     0.9930 C.3   1 <1>   0.0490 
 18 C       -7.8080    -5.2830     0.8530 C.ar  1 <1>   0.1600 
 19 C       -7.7610    -6.7580    -1.0160 C.ar  1 <1>  -0.1500 
 20 O       -4.0370    -8.9650    -1.5830 O.2   1 <1>  -0.5700 
 21 C       -5.8000    -9.8250     0.7830 C.3   1 <1>  -0.2000 
 22 C       -6.4580    -8.8080     1.6570 C.3   1 <1>  -0.2000 
 23 N       -9.1230    -5.1340     0.8270 N.ar  1 <1>  -0.6200 
 24 C       -9.1300    -6.6130    -1.0550 C.ar  1 <1>  -0.1500 
 25 C       -9.7530    -5.8020    -0.1240 C.ar  1 <1>   0.1600 
 26 H       -0.0260    -0.9980    -0.2010 H     1 <1>   0.1500 
 27 H        1.3970    -4.7970     1.8610 H     1 <1>   0.1500 
 28 H       -1.2810    -4.5830     1.8930 H     1 <1>   0.1500 
 29 H       -2.6560    -1.4170     0.2340 H     1 <1>   0.0800 
 30 H       -2.9540    -2.3330     1.6960 H     1 <1>   0.0800 
 31 H       -2.5560    -3.8700    -0.7900 H     1 <1>   0.3700 
 32 H       -5.6650    -4.6510    -1.4380 H     1 <1>   0.0800 
 33 H       -5.3120    -5.9270     1.1440 H     1 <1>   0.0800 
 34 H       -5.0060    -6.5750    -2.9340 H     1 <1>   0.0800 
 35 H       -3.3010    -6.9790    -2.9010 H     1 <1>   0.0800 
 36 H       -4.2600    -8.4640     1.5990 H     1 <1>   0.1000 
 37 H       -7.2880    -4.7370     1.6240 H     1 <1>   0.1500 
 38 H       -7.2610    -7.3930    -1.7270 H     1 <1>   0.1500 
 39 H       -6.2240   -10.0400    -0.1820 H     1 <1>   0.1000 
 40 H       -5.3560   -10.6900     1.2410 H     1 <1>   0.1000 
 41 H       -6.4700    -8.9900     2.7170 H     1 <1>   0.1000 
 42 H       -7.3810    -8.3840     1.3060 H     1 <1>   0.1000 
 43 H       -9.7140    -7.1250    -1.7980 H     1 <1>   0.1500 
 44 H      -10.8240    -5.6960    -0.1620 H     1 <1>   0.1500 
@<TRIPOS>BOND
  1   1   2  1   
  2   1   3  1   
  3   2   4  2   
  4   2  26  1   
  5   3   5  2   
  6   3  27  1   
  7   4   5  1   
  8   4   6  1   
  9   5  28  1   
 10   6   7  1   
 11   6  29  1   
 12   6  30  1   
 13   7   8  am  
 14   7  31  1   
 15   8   9  2   
 16   8  10  1   
 17  10  11  1   
 18  10  12  1   
 19  10  32  1   
 20  11  13  1   
 21  12  14  1   
 22  12  15  1   
 23  12  33  1   
 24  13  16  1   
 25  13  34  1   
 26  13  35  1   
 27  14  16  am  
 28  14  17  1   
 29  15  18  ar  
 30  15  19  ar  
 31  16  20  2   
 32  17  21  1   
 33  17  22  1   
 34  17  36  1   
 35  18  23  ar  
 36  18  37  1   
 37  19  24  ar  
 38  19  38  1   
 39  21  22  1   
 40  21  39  1   
 41  21  40  1   
 42  22  41  1   
 43  22  42  1   
 44  23  25  ar  
 45  24  25  ar  
 46  24  43  1   
 47  25  44  1   
@<TRIPOS>SUBSTRUCTURE
  1 ****  10 GROUP 4 **** **** 0

# MOE 2024.06 (io_trps.svl 2023.06)
