@<TRIPOS>MOLECULE
NONAME
49 52 1 0 0 
SMALL
USER_CHARGES


@<TRIPOS>ATOM
  1 S       -1.0550    -0.1410     2.3340 S.3   1 <1>  -0.3320 
  2 C       -2.0310    -1.1560     1.2100 C.ar  1 <1>   0.1020 
  3 C        0.5230     0.2540     1.4610 C.3   1 <1>  -0.0100 
  4 C       -3.2680    -1.5790     1.6590 C.ar  1 <1>  -0.1500 
  5 C       -1.5770    -1.5080    -0.0510 C.ar  1 <1>  -0.1500 
  6 C       -4.0610    -2.3640     0.8400 C.ar  1 <1>  -0.1500 
  7 C       -2.3760    -2.2940    -0.8640 C.ar  1 <1>  -0.1500 
  8 C       -3.6190    -2.7290    -0.4240 C.ar  1 <1>  -0.1440 
  9 C       -4.4940    -3.5970    -1.3190 C.3   1 <1>   0.2840 
 10 N       -4.7010    -4.9500    -0.7350 N.am  1 <1>  -0.5090 
 11 C       -5.9370    -5.3080    -0.2260 C.2   1 <1>   0.7160 
 12 C       -3.5990    -5.9210    -0.9500 C.3   1 <1>   0.0490 
 13 O       -6.6910    -4.4140     0.1330 O.2   1 <1>  -0.5700 
 14 C       -6.3760    -6.6950    -0.0960 C.2   1 <1>   0.2030 
 15 C       -3.1680    -6.7910     0.1910 C.3   1 <1>  -0.2000 
 16 C       -2.2690    -5.7030    -0.2950 C.3   1 <1>  -0.2000 
 17 N       -6.0750    -7.7120    -0.8910 N.2   1 <1>  -0.7070 
 18 C       -7.2210    -7.1330     0.9230 C.2   1 <1>  -0.1500 
 19 N       -6.7070    -8.7690    -0.3810 N.pl3 1 <1>   0.3140 
 20 C       -7.4030    -8.4650     0.7410 C.2   1 <1>  -0.2370 
 21 C       -6.7180   -10.0680    -1.0860 C.3   1 <1>   0.0960 
 22 C       -8.1250    -9.4270     1.5200 C.2   1 <1>   0.7150 
 23 C       -6.0980   -11.2100    -0.2610 C.3   1 <1>   0.2000 
 24 O       -9.1080    -9.1340     2.1630 O.2   1 <1>  -0.5700 
 25 N       -7.6910   -10.7110     1.5950 N.am  1 <1>  -0.7300 
 26 O       -6.6860   -12.3940    -0.6820 O.3   1 <1>  -0.6800 
 27 C       -6.2980   -11.1060     1.2630 C.3   1 <1>   0.1400 
 28 H        1.1160     0.8600     2.1220 H     1 <1>   0.0800 
 29 H        0.2800     0.7950     0.5640 H     1 <1>   0.0800 
 30 H        1.0220    -0.6720     1.2410 H     1 <1>   0.0800 
 31 H       -3.6060    -1.2960     2.6390 H     1 <1>   0.1500 
 32 H       -0.6200    -1.1850    -0.4080 H     1 <1>   0.1500 
 33 H       -5.0240    -2.6940     1.1920 H     1 <1>   0.1500 
 34 H       -2.0210    -2.5700    -1.8420 H     1 <1>   0.1500 
 35 H       -4.0380    -3.7050    -2.2870 H     1 <1>   0.0800 
 36 H       -5.4400    -3.1060    -1.4650 H     1 <1>   0.0800 
 37 H       -3.6310    -6.3650    -1.9310 H     1 <1>   0.1000 
 38 H       -2.9030    -7.8120    -0.0190 H     1 <1>   0.1000 
 39 H       -3.6420    -6.6720     1.1490 H     1 <1>   0.1000 
 40 H       -2.1170    -4.8640     0.3610 H     1 <1>   0.1000 
 41 H       -1.3770    -5.9820    -0.8250 H     1 <1>   0.1000 
 42 H       -7.6320    -6.5130     1.7010 H     1 <1>   0.1500 
 43 H       -6.1810    -9.9600    -2.0100 H     1 <1>   0.0800 
 44 H       -7.7440   -10.2940    -1.3130 H     1 <1>   0.0800 
 45 H       -5.0460   -11.2850    -0.4820 H     1 <1>   0.0800 
 46 H       -8.1900   -11.2820     2.2810 H     1 <1>   0.3700 
 47 H       -7.6080   -12.4400    -0.3570 H     1 <1>   0.4000 
 48 H       -5.6220   -10.3650     1.6570 H     1 <1>   0.0800 
 49 H       -6.0560   -12.0460     1.7300 H     1 <1>   0.0800 
@<TRIPOS>BOND
  1   1   2  1   
  2   1   3  1   
  3   2   4  ar  
  4   2   5  ar  
  5   3  28  1   
  6   3  29  1   
  7   3  30  1   
  8   4   6  ar  
  9   4  31  1   
 10   5   7  ar  
 11   5  32  1   
 12   6   8  ar  
 13   6  33  1   
 14   7   8  ar  
 15   7  34  1   
 16   8   9  1   
 17   9  10  1   
 18   9  35  1   
 19   9  36  1   
 20  10  11  am  
 21  10  12  1   
 22  11  13  2   
 23  11  14  1   
 24  12  15  1   
 25  12  16  1   
 26  12  37  1   
 27  14  17  2   
 28  14  18  1   
 29  15  16  1   
 30  15  38  1   
 31  15  39  1   
 32  16  40  1   
 33  16  41  1   
 34  17  19  1   
 35  18  20  2   
 36  18  42  1   
 37  19  20  1   
 38  19  21  1   
 39  20  22  1   
 40  21  23  1   
 41  21  43  1   
 42  21  44  1   
 43  22  24  2   
 44  22  25  am  
 45  23  26  1   
 46  23  27  1   
 47  23  45  1   
 48  25  27  1   
 49  25  46  1   
 50  26  47  1   
 51  27  48  1   
 52  27  49  1   
@<TRIPOS>SUBSTRUCTURE
  1 ****  11 GROUP 4 **** **** 0

# MOE 2024.06 (io_trps.svl 2023.06)
