@<TRIPOS>MOLECULE
NONAME
51 53 1 0 0 
SMALL
USER_CHARGES


@<TRIPOS>ATOM
  1 O       -1.1610     1.1580    -1.8100 O.2   1 <1>  -0.5700 
  2 C       -1.6220     1.6240    -0.7940 C.2   1 <1>   0.5690 
  3 N       -2.6020     0.9540    -0.1020 N.am  1 <1>  -0.6600 
  4 C       -1.0840     2.9670    -0.2960 C.3   1 <1>  -0.0190 
  5 C       -3.0710    -0.3930    -0.5580 C.3   1 <1>   0.1400 
  6 C       -3.3340     1.4660     1.0920 C.3   1 <1>   0.1400 
  7 C       -0.5060     3.9070    -1.3810 C.3   1 <1>  -0.0220 
  8 C        0.0210     2.8150     0.7700 C.3   1 <1>  -0.0220 
  9 C       -4.3880    -0.3170    -1.3470 C.3   1 <1>   0.1400 
 10 C       -4.5380     2.3320     0.6950 C.3   1 <1>  -0.1600 
 11 C        0.6200     4.5970    -0.6500 C.2   1 <1>  -0.2880 
 12 C        0.9040     4.0090     0.5050 C.2   1 <1>  -0.2880 
 13 N       -5.4660     0.3920    -0.5820 N.am  1 <1>  -0.6600 
 14 C       -5.3020     1.8720    -0.5540 C.3   1 <1>   0.1400 
 15 C       -6.4980    -0.2020     0.1000 C.2   1 <1>   0.5690 
 16 O       -7.2220     0.4470     0.8190 O.2   1 <1>  -0.5700 
 17 C       -6.7280    -1.7080    -0.0100 C.3   1 <1>  -0.0990 
 18 C       -8.0800    -2.2220     0.5340 C.3   1 <1>  -0.0800 
 19 C       -8.0910    -3.7610     0.5610 C.3   1 <1>   0.1200 
 20 C       -9.2680    -1.7070    -0.3000 C.3   1 <1>  -0.1600 
 21 O       -9.3220    -4.2270     1.0270 O.3   1 <1>  -0.5600 
 22 C      -10.5660    -2.3690     0.1770 C.3   1 <1>  -0.1600 
 23 C      -10.4150    -3.8940     0.2290 C.3   1 <1>   0.1200 
 24 H       -1.8860     3.5160     0.1570 H     1 <1>   0.0800 
 25 H       -3.2020    -1.0360     0.2940 H     1 <1>   0.0800 
 26 H       -2.3210    -0.8490    -1.1820 H     1 <1>   0.0800 
 27 H       -2.6720     2.0240     1.7290 H     1 <1>   0.0800 
 28 H       -3.6910     0.6280     1.6680 H     1 <1>   0.0800 
 29 H       -1.2490     4.6060    -1.7220 H     1 <1>   0.0800 
 30 H       -0.1020     3.3680    -2.2210 H     1 <1>   0.0800 
 31 H        0.5840     1.9080     0.6240 H     1 <1>   0.0800 
 32 H       -0.3880     2.8370     1.7640 H     1 <1>   0.0800 
 33 H       -4.6910    -1.3130    -1.6040 H     1 <1>   0.0800 
 34 H       -4.2060     0.2030    -2.2720 H     1 <1>   0.0800 
 35 H       -4.2160     3.3440     0.5390 H     1 <1>   0.0800 
 36 H       -5.2240     2.3530     1.5230 H     1 <1>   0.0800 
 37 H        1.0880     5.4530    -1.1060 H     1 <1>   0.1500 
 38 H        1.6630     4.2660     1.2250 H     1 <1>   0.1500 
 39 H       -4.7690     2.1880    -1.4350 H     1 <1>   0.0800 
 40 H       -6.2710     2.3420    -0.5760 H     1 <1>   0.0800 
 41 H       -5.9330    -2.1880     0.5270 H     1 <1>   0.0800 
 42 H       -6.6580    -1.9930    -1.0420 H     1 <1>   0.0800 
 43 H       -8.1910    -1.8800     1.5500 H     1 <1>   0.0800 
 44 H       -7.3340    -4.1310     1.2300 H     1 <1>   0.0800 
 45 H       -7.9230    -4.1710    -0.4200 H     1 <1>   0.0800 
 46 H       -9.1130    -1.9430    -1.3380 H     1 <1>   0.0800 
 47 H       -9.3580    -0.6390    -0.2080 H     1 <1>   0.0800 
 48 H      -11.3740    -2.1080    -0.4810 H     1 <1>   0.0800 
 49 H      -10.8140    -2.0140     1.1620 H     1 <1>   0.0800 
 50 H      -11.2900    -4.3440     0.6650 H     1 <1>   0.0800 
 51 H      -10.2620    -4.3050    -0.7540 H     1 <1>   0.0800 
@<TRIPOS>BOND
  1   1   2  2   
  2   2   3  am  
  3   2   4  1   
  4   3   5  1   
  5   3   6  1   
  6   4   7  1   
  7   4   8  1   
  8   4  24  1   
  9   5   9  1   
 10   5  25  1   
 11   5  26  1   
 12   6  10  1   
 13   6  27  1   
 14   6  28  1   
 15   7  11  1   
 16   7  29  1   
 17   7  30  1   
 18   8  12  1   
 19   8  31  1   
 20   8  32  1   
 21   9  13  1   
 22   9  33  1   
 23   9  34  1   
 24  10  14  1   
 25  10  35  1   
 26  10  36  1   
 27  11  12  2   
 28  11  37  1   
 29  12  38  1   
 30  13  14  1   
 31  13  15  am  
 32  14  39  1   
 33  14  40  1   
 34  15  16  2   
 35  15  17  1   
 36  17  18  1   
 37  17  41  1   
 38  17  42  1   
 39  18  19  1   
 40  18  20  1   
 41  18  43  1   
 42  19  21  1   
 43  19  44  1   
 44  19  45  1   
 45  20  22  1   
 46  20  46  1   
 47  20  47  1   
 48  21  23  1   
 49  22  23  1   
 50  22  48  1   
 51  22  49  1   
 52  23  50  1   
 53  23  51  1   
@<TRIPOS>SUBSTRUCTURE
  1 ****  13 GROUP 4 **** **** 0

# MOE 2024.06 (io_trps.svl 2023.06)
