@<TRIPOS>MOLECULE
NONAME
43 45 1 0 0 
SMALL
USER_CHARGES


@<TRIPOS>ATOM
  1 F       -0.0820    -0.2770    -0.8010 F     1 <1>  -0.3400 
  2 C        0.8120    -1.2090    -0.4920 C.3   1 <1>   0.8800 
  3 F        1.8650    -0.9690    -1.2590 F     1 <1>  -0.3400 
  4 O        0.2910    -2.4680    -0.8480 O.3   1 <1>  -0.3630 
  5 C       -0.5230    -3.1360     0.0040 C.ar  1 <1>   0.0820 
  6 C       -0.5940    -4.5100    -0.1460 C.ar  1 <1>  -0.1500 
  7 C       -1.2720    -2.5140     0.9990 C.ar  1 <1>  -0.1500 
  8 C       -1.3910    -5.2970     0.6790 C.ar  1 <1>   0.0860 
  9 C       -2.0620    -3.2780     1.8390 C.ar  1 <1>  -0.1500 
 10 C       -1.4520    -6.7370     0.5020 C.2   1 <1>   0.5440 
 11 C       -2.1150    -4.6520     1.6820 C.ar  1 <1>  -0.1500 
 12 O       -0.4230    -7.3740     0.3880 O.2   1 <1>  -0.5700 
 13 N       -2.6510    -7.4100     0.4460 N.am  1 <1>  -0.6600 
 14 C       -3.9510    -6.7880     0.0860 C.3   1 <1>   0.1400 
 15 C       -2.7140    -8.8830     0.2840 C.3   1 <1>   0.1400 
 16 C       -4.7770    -7.9260    -0.5140 C.3   1 <1>   0.2000 
 17 C       -4.1940    -9.2090     0.0750 C.3   1 <1>  -0.0800 
 18 O       -6.1180    -7.8140    -0.1790 O.3   1 <1>  -0.6800 
 19 C       -4.4340   -10.4380    -0.8140 C.3   1 <1>  -0.0170 
 20 C       -3.8450   -11.6910    -0.1860 C.ar  1 <1>  -0.1430 
 21 C       -2.5910   -12.1620    -0.5190 C.ar  1 <1>  -0.1500 
 22 C       -4.5390   -12.4220     0.7570 C.ar  1 <1>  -0.1500 
 23 C       -2.1030   -13.3050     0.0930 C.ar  1 <1>   0.1600 
 24 C       -3.9610   -13.5540     1.3080 C.ar  1 <1>   0.1600 
 25 N       -2.7580   -14.0120     0.9990 N.ar  1 <1>  -0.6200 
 26 H        1.0870    -1.1400     0.5450 H     1 <1>   0.0800 
 27 H       -0.0130    -4.9850    -0.9180 H     1 <1>   0.1500 
 28 H       -1.2650    -1.4480     1.1330 H     1 <1>   0.1500 
 29 H       -2.6380    -2.8030     2.6150 H     1 <1>   0.1500 
 30 H       -2.7220    -5.2400     2.3480 H     1 <1>   0.1500 
 31 H       -4.4180    -6.4060     0.9760 H     1 <1>   0.0800 
 32 H       -3.8100    -5.9990    -0.6320 H     1 <1>   0.0800 
 33 H       -2.1320    -9.1620    -0.5770 H     1 <1>   0.0800 
 34 H       -2.3180    -9.3790     1.1540 H     1 <1>   0.0800 
 35 H       -4.6910    -7.9110    -1.5870 H     1 <1>   0.0800 
 36 H       -4.6200    -9.3830     1.0480 H     1 <1>   0.0800 
 37 H       -6.2340    -7.8620     0.7890 H     1 <1>   0.4000 
 38 H       -3.9990   -10.2810    -1.7860 H     1 <1>   0.0800 
 39 H       -5.4930   -10.5750    -0.9540 H     1 <1>   0.0800 
 40 H       -1.9850   -11.6530    -1.2460 H     1 <1>   0.1500 
 41 H       -5.5230   -12.1240     1.0680 H     1 <1>   0.1500 
 42 H       -1.1220   -13.6560    -0.1780 H     1 <1>   0.1500 
 43 H       -4.5170   -14.1120     2.0410 H     1 <1>   0.1500 
@<TRIPOS>BOND
  1   1   2  1   
  2   2   3  1   
  3   2   4  1   
  4   2  26  1   
  5   4   5  1   
  6   5   6  ar  
  7   5   7  ar  
  8   6   8  ar  
  9   6  27  1   
 10   7   9  ar  
 11   7  28  1   
 12   8  10  1   
 13   8  11  ar  
 14   9  11  ar  
 15   9  29  1   
 16  10  12  2   
 17  10  13  am  
 18  11  30  1   
 19  13  14  1   
 20  13  15  1   
 21  14  16  1   
 22  14  31  1   
 23  14  32  1   
 24  15  17  1   
 25  15  33  1   
 26  15  34  1   
 27  16  17  1   
 28  16  18  1   
 29  16  35  1   
 30  17  19  1   
 31  17  36  1   
 32  18  37  1   
 33  19  20  1   
 34  19  38  1   
 35  19  39  1   
 36  20  21  ar  
 37  20  22  ar  
 38  21  23  ar  
 39  21  40  1   
 40  22  24  ar  
 41  22  41  1   
 42  23  25  ar  
 43  23  42  1   
 44  24  25  ar  
 45  24  43  1   
@<TRIPOS>SUBSTRUCTURE
  1 ****  13 GROUP 4 **** **** 0

# MOE 2024.06 (io_trps.svl 2023.06)
