@<TRIPOS>MOLECULE
NONAME
46 47 1 0 0 
SMALL
USER_CHARGES


@<TRIPOS>ATOM
  1 F        0.1000    -0.9510     0.3490 F     1 <1>  -0.1900 
  2 C        0.0250    -2.2250     0.0710 C.ar  1 <1>   0.1900 
  3 C       -0.2580    -3.1380     1.0740 C.ar  1 <1>  -0.1440 
  4 C        0.2370    -2.5990    -1.2430 C.ar  1 <1>  -0.1500 
  5 C       -0.3340    -4.4810     0.7120 C.ar  1 <1>  -0.1500 
  6 C       -0.4730    -2.6490     2.5090 C.3   1 <1>   1.1640 
  7 C        0.1600    -3.9380    -1.5790 C.ar  1 <1>  -0.1500 
  8 C       -0.1280    -4.8830    -0.6040 C.ar  1 <1>  -0.1440 
  9 F       -1.5330    -1.8580     2.6230 F     1 <1>  -0.3400 
 10 F        0.5650    -1.9600     2.9690 F     1 <1>  -0.3400 
 11 F       -0.6560    -3.6370     3.3730 F     1 <1>  -0.3400 
 12 C       -0.2290    -6.3530    -0.9830 C.3   1 <1>   0.4870 
 13 N       -1.5940    -6.8310    -0.7080 N.4   1 <1>  -0.9590 
 14 C       -1.7660    -8.3260    -0.8120 C.3   1 <1>   0.3430 
 15 C       -2.6980    -6.0880    -1.3660 C.3   1 <1>   0.3430 
 16 C       -3.2540    -8.7590    -0.7360 C.3   1 <1>   0.2000 
 17 C       -4.0170    -6.3630    -0.6180 C.3   1 <1>  -0.1600 
 18 O       -3.7720    -8.8150    -2.0310 O.3   1 <1>  -0.6800 
 19 C       -4.0640    -7.7490     0.1100 C.3   1 <1>  -0.1060 
 20 C       -3.3070    -7.7250     1.4520 C.2   1 <1>   0.9060 
 21 C       -5.5320    -8.2200     0.3080 C.3   1 <1>  -0.1600 
 22 O       -2.6580    -6.7120     1.7590 O.co2 1 <1>  -0.9000 
 23 O       -3.1480    -8.7870     2.0500 O.co2 1 <1>  -0.9000 
 24 C       -6.3560    -7.2960     1.2200 C.3   1 <1>  -0.1600 
 25 C       -7.7800    -7.8280     1.3940 C.3   1 <1>  -0.2400 
 26 H        0.4570    -1.8490    -1.9830 H     1 <1>   0.1500 
 27 H       -0.5650    -5.2220     1.4670 H     1 <1>   0.1500 
 28 H        0.3250    -4.2300    -2.6030 H     1 <1>   0.1500 
 29 H        0.4770    -6.9190    -0.3970 H     1 <1>   0.0800 
 30 H        0.0030    -6.4860    -2.0260 H     1 <1>   0.0800 
 31 H       -1.7680    -6.6290     0.3110 H     1 <1>   0.4500 
 32 H       -1.3440    -8.6980    -1.7300 H     1 <1>   0.0800 
 33 H       -1.2470    -8.7840     0.0150 H     1 <1>   0.0800 
 34 H       -2.5010    -5.0280    -1.3620 H     1 <1>   0.0800 
 35 H       -2.7890    -6.4210    -2.3870 H     1 <1>   0.0800 
 36 H       -3.3160    -9.7500    -0.3170 H     1 <1>   0.0800 
 37 H       -4.1830    -5.5740     0.0960 H     1 <1>   0.0800 
 38 H       -4.8120    -6.2980    -1.3380 H     1 <1>   0.0800 
 39 H       -4.6970    -9.1320    -1.9920 H     1 <1>   0.4000 
 40 H       -6.0260    -8.2950    -0.6440 H     1 <1>   0.0800 
 41 H       -5.5180    -9.2040     0.7480 H     1 <1>   0.0800 
 42 H       -5.8880    -7.2300     2.1890 H     1 <1>   0.0800 
 43 H       -6.4020    -6.3040     0.8060 H     1 <1>   0.0800 
 44 H       -7.7610    -8.8080     1.8380 H     1 <1>   0.0800 
 45 H       -8.2830    -7.8850     0.4440 H     1 <1>   0.0800 
 46 H       -8.3390    -7.1730     2.0390 H     1 <1>   0.0800 
@<TRIPOS>BOND
  1   1   2  1   
  2   2   3  ar  
  3   2   4  ar  
  4   3   5  ar  
  5   3   6  1   
  6   4   7  ar  
  7   4  26  1   
  8   5   8  ar  
  9   5  27  1   
 10   6   9  1   
 11   6  10  1   
 12   6  11  1   
 13   7   8  ar  
 14   7  28  1   
 15   8  12  1   
 16  12  13  1   
 17  12  29  1   
 18  12  30  1   
 19  13  14  1   
 20  13  15  1   
 21  13  31  1   
 22  14  16  1   
 23  14  32  1   
 24  14  33  1   
 25  15  17  1   
 26  15  34  1   
 27  15  35  1   
 28  16  18  1   
 29  16  19  1   
 30  16  36  1   
 31  17  19  1   
 32  17  37  1   
 33  17  38  1   
 34  18  39  1   
 35  19  20  1   
 36  19  21  1   
 37  20  22  ar  
 38  20  23  ar  
 39  21  24  1   
 40  21  40  1   
 41  21  41  1   
 42  24  25  1   
 43  24  42  1   
 44  24  43  1   
 45  25  44  1   
 46  25  45  1   
 47  25  46  1   
@<TRIPOS>SUBSTRUCTURE
  1 ****  13 GROUP 4 **** **** 0

# MOE 2024.06 (io_trps.svl 2023.06)
