@<TRIPOS>MOLECULE
NONAME
42 44 1 0 0 
SMALL
USER_CHARGES


@<TRIPOS>ATOM
  1 S       -0.7250     0.1230    -0.5480 S.3   1 <1>  -0.0800 
  2 C       -0.4100    -1.5680    -0.8940 C.2   1 <1>  -0.1100 
  3 C       -1.4670    -0.2890     0.9880 C.2   1 <1>  -0.1100 
  4 C       -0.8550    -2.3550     0.1050 C.2   1 <1>  -0.1810 
  5 C       -1.4550    -1.6210     1.1800 C.2   1 <1>  -0.1500 
  6 C       -0.7550    -3.8700     0.1440 C.3   1 <1>   0.0210 
  7 C       -2.1390    -4.5060    -0.0470 C.3   1 <1>  -0.0990 
  8 C       -2.1170    -6.0260    -0.0370 C.2   1 <1>   0.5690 
  9 O       -1.0660    -6.6040     0.1060 O.2   1 <1>  -0.5700 
 10 N       -3.2880    -6.7140    -0.1890 N.am  1 <1>  -0.6600 
 11 C       -4.6350    -6.1330    -0.4160 C.3   1 <1>   0.1400 
 12 C       -3.3470    -8.1940    -0.1720 C.3   1 <1>   0.1400 
 13 C       -5.5420    -7.3360    -0.6770 C.3   1 <1>   0.2000 
 14 C       -4.8320    -8.5350    -0.0500 C.3   1 <1>  -0.0800 
 15 O       -6.7910    -7.1650    -0.1000 O.3   1 <1>  -0.6800 
 16 C       -5.2170    -9.8690    -0.7080 C.3   1 <1>  -0.0170 
 17 C       -4.4920   -11.0330    -0.0530 C.ar  1 <1>  -0.1430 
 18 C       -4.9570   -11.6120     1.1110 C.ar  1 <1>  -0.1500 
 19 C       -3.3360   -11.5720    -0.5810 C.ar  1 <1>  -0.1500 
 20 C       -4.2630   -12.6690     1.6750 C.ar  1 <1>   0.1600 
 21 C       -2.7170   -12.6310     0.0640 C.ar  1 <1>   0.1600 
 22 N       -3.1530   -13.1920     1.1800 N.ar  1 <1>  -0.6200 
 23 H        0.0810    -1.7970    -1.8230 H     1 <1>   0.1500 
 24 H       -1.8350     0.5210     1.5910 H     1 <1>   0.1500 
 25 H       -1.8470    -2.1240     2.0470 H     1 <1>   0.1500 
 26 H       -0.0970    -4.2060    -0.6400 H     1 <1>   0.0800 
 27 H       -0.3310    -4.1790     1.0840 H     1 <1>   0.0800 
 28 H       -2.5420    -4.1760    -0.9860 H     1 <1>   0.0800 
 29 H       -2.7910    -4.1710     0.7370 H     1 <1>   0.0800 
 30 H       -4.9450    -5.6010     0.4660 H     1 <1>   0.0800 
 31 H       -4.6250    -5.4750    -1.2670 H     1 <1>   0.0800 
 32 H       -2.9380    -8.5660    -1.0960 H     1 <1>   0.0800 
 33 H       -2.7790    -8.5930     0.6530 H     1 <1>   0.0800 
 34 H       -5.6740    -7.4680    -1.7370 H     1 <1>   0.0800 
 35 H       -5.0610    -8.5770     1.0010 H     1 <1>   0.0800 
 36 H       -6.7130    -7.0990     0.8710 H     1 <1>   0.4000 
 37 H       -4.9850    -9.8420    -1.7590 H     1 <1>   0.0800 
 38 H       -6.2800   -10.0170    -0.6170 H     1 <1>   0.0800 
 39 H       -5.8520   -11.2520     1.5840 H     1 <1>   0.1500 
 40 H       -2.9080   -11.1820    -1.4860 H     1 <1>   0.1500 
 41 H       -4.6400   -13.1080     2.5830 H     1 <1>   0.1500 
 42 H       -1.8160   -13.0370    -0.3620 H     1 <1>   0.1500 
@<TRIPOS>BOND
  1   1   2  1   
  2   1   3  1   
  3   2   4  2   
  4   2  23  1   
  5   3   5  2   
  6   3  24  1   
  7   4   5  1   
  8   4   6  1   
  9   5  25  1   
 10   6   7  1   
 11   6  26  1   
 12   6  27  1   
 13   7   8  1   
 14   7  28  1   
 15   7  29  1   
 16   8   9  2   
 17   8  10  am  
 18  10  11  1   
 19  10  12  1   
 20  11  13  1   
 21  11  30  1   
 22  11  31  1   
 23  12  14  1   
 24  12  32  1   
 25  12  33  1   
 26  13  14  1   
 27  13  15  1   
 28  13  34  1   
 29  14  16  1   
 30  14  35  1   
 31  15  36  1   
 32  16  17  1   
 33  16  37  1   
 34  16  38  1   
 35  17  18  ar  
 36  17  19  ar  
 37  18  20  ar  
 38  18  39  1   
 39  19  21  ar  
 40  19  40  1   
 41  20  22  ar  
 42  20  41  1   
 43  21  22  ar  
 44  21  42  1   
@<TRIPOS>SUBSTRUCTURE
  1 ****  10 GROUP 4 **** **** 0

# MOE 2024.06 (io_trps.svl 2023.06)
