@<TRIPOS>MOLECULE
NONAME
23 24 1 0 0 
SMALL
USER_CHARGES


@<TRIPOS>ATOM
  1 N        0.0260    -1.3590     1.8210 N.1   1 <1>  -0.5570 
  2 C        0.1520    -1.9380     0.8500 C.1   1 <1>   0.3570 
  3 C        0.2770    -2.6760    -0.4390 C.3   1 <1>   0.1840 
  4 C        1.5190    -3.5550    -0.4680 C.ar  1 <1>  -0.1440 
  5 C        1.4640    -4.8610    -0.0020 C.ar  1 <1>  -0.1500 
  6 C        2.7190    -3.0610    -0.9590 C.ar  1 <1>  -0.1500 
  7 C        2.5870    -5.6710    -0.0300 C.ar  1 <1>  -0.0320 
  8 C        3.8450    -3.8650    -0.9870 C.ar  1 <1>  -0.1500 
  9 C        3.7780    -5.1660    -0.5230 C.ar  1 <1>  -0.1500 
 10 C        2.5140    -7.0970     0.4860 C.3   1 <1>  -0.0680 
 11 C        2.9410    -8.2340    -0.3920 C.3   1 <1>  -0.2000 
 12 C        1.4930    -8.0440    -0.0670 C.3   1 <1>  -0.2000 
 13 H        0.3140    -1.9620    -1.2410 H     1 <1>   0.0800 
 14 H       -0.6010    -3.2790    -0.5750 H     1 <1>   0.0800 
 15 H        0.5450    -5.2610     0.3900 H     1 <1>   0.1500 
 16 H        2.7880    -2.0490    -1.3210 H     1 <1>   0.1500 
 17 H        4.7740    -3.4780    -1.3680 H     1 <1>   0.1500 
 18 H        4.6540    -5.7890    -0.5430 H     1 <1>   0.1500 
 19 H        2.7420    -7.1670     1.5360 H     1 <1>   0.1000 
 20 H        3.4710    -9.0580     0.0540 H     1 <1>   0.1000 
 21 H        3.2730    -8.0220    -1.3930 H     1 <1>   0.1000 
 22 H        0.8360    -7.7050    -0.8490 H     1 <1>   0.1000 
 23 H        1.0170    -8.7370     0.6040 H     1 <1>   0.1000 
@<TRIPOS>BOND
  1   1   2  3   
  2   2   3  1   
  3   3   4  1   
  4   3  13  1   
  5   3  14  1   
  6   4   5  ar  
  7   4   6  ar  
  8   5   7  ar  
  9   5  15  1   
 10   6   8  ar  
 11   6  16  1   
 12   7   9  ar  
 13   7  10  1   
 14   8   9  ar  
 15   8  17  1   
 16   9  18  1   
 17  10  11  1   
 18  10  12  1   
 19  10  19  1   
 20  11  12  1   
 21  11  20  1   
 22  11  21  1   
 23  12  22  1   
 24  12  23  1   
@<TRIPOS>SUBSTRUCTURE
  1 ****   5 GROUP 4 **** **** 0

# MOE 2024.06 (io_trps.svl 2023.06)
