@<TRIPOS>MOLECULE
NONAME
53 55 1 0 0 
SMALL
USER_CHARGES


@<TRIPOS>ATOM
  1 O       -2.9130     1.2490    -1.4450 O.2   1 <1>  -0.5700 
  2 C       -2.4210     0.9870    -0.3750 C.2   1 <1>   0.5690 
  3 N       -2.2860    -0.2980     0.0480 N.am  1 <1>  -0.7300 
  4 C       -1.9110     2.1520     0.4920 C.3   1 <1>   0.4040 
  5 C       -2.6530    -1.4990    -0.7450 C.3   1 <1>   0.2200 
  6 N       -0.5380     2.6860     0.1040 N.4   1 <1>  -0.9590 
  7 C       -3.8590    -2.2130    -0.1420 C.3   1 <1>  -0.0800 
  8 C       -1.5790    -2.5530    -0.5220 C.3   1 <1>   0.1200 
  9 C       -0.0220     3.7210     1.0450 C.3   1 <1>   0.4230 
 10 C       -0.5910     3.1780    -1.3180 C.3   1 <1>   0.2630 
 11 C       -3.2330    -3.1120     0.9350 C.3   1 <1>   0.1200 
 12 C       -4.9970    -1.3100     0.3710 C.3   1 <1>  -0.0170 
 13 O       -1.8490    -3.0340     0.7560 O.3   1 <1>  -0.5600 
 14 C        1.3930     4.1330     0.6340 C.3   1 <1>  -0.2400 
 15 C        0.0190     3.1630     2.4690 C.3   1 <1>  -0.2400 
 16 C       -6.1950    -2.1430     0.8160 C.ar  1 <1>  -0.1440 
 17 C       -7.1090    -2.7080    -0.1060 C.ar  1 <1>   0.0000 
 18 C       -6.4150    -2.3740     2.1430 C.ar  1 <1>  -0.1500 
 19 C       -8.1700    -3.4890     0.4150 C.ar  1 <1>   0.3100 
 20 C       -7.0360    -2.5440    -1.5090 C.ar  1 <1>  -0.1500 
 21 C       -7.5020    -3.1550     2.5520 C.ar  1 <1>   0.1600 
 22 N       -8.3510    -3.7020     1.7420 N.ar  1 <1>  -0.6200 
 23 C       -9.0840    -4.0750    -0.4760 C.ar  1 <1>  -0.1500 
 24 C       -7.9450    -3.1270    -2.3500 C.ar  1 <1>  -0.1500 
 25 C       -8.9820    -3.9050    -1.8290 C.ar  1 <1>  -0.1500 
 26 H       -1.8980    -0.5590     0.9610 H     1 <1>   0.3700 
 27 H       -1.8930     1.8060     1.5100 H     1 <1>   0.0800 
 28 H       -2.6330     2.9470     0.4270 H     1 <1>   0.0800 
 29 H       -2.7870    -1.2580    -1.7870 H     1 <1>   0.0800 
 30 H        0.1230     1.8980     0.1340 H     1 <1>   0.4500 
 31 H       -4.2600    -2.8650    -0.8980 H     1 <1>   0.0800 
 32 H       -0.5800    -2.1570    -0.5610 H     1 <1>   0.0800 
 33 H       -1.6800    -3.3690    -1.2180 H     1 <1>   0.0800 
 34 H       -0.6620     4.5900     1.0230 H     1 <1>   0.0800 
 35 H       -1.2570     4.0210    -1.4000 H     1 <1>   0.0800 
 36 H       -0.9450     2.4000    -1.9760 H     1 <1>   0.0800 
 37 H        0.3880     3.4750    -1.6560 H     1 <1>   0.0800 
 38 H       -3.5420    -4.1370     0.8210 H     1 <1>   0.0800 
 39 H       -3.4570    -2.7750     1.9320 H     1 <1>   0.0800 
 40 H       -5.2980    -0.6180    -0.3960 H     1 <1>   0.0800 
 41 H       -4.6500    -0.7220     1.2020 H     1 <1>   0.0800 
 42 H        2.0420     3.2780     0.5630 H     1 <1>   0.0800 
 43 H        1.8040     4.8010     1.3710 H     1 <1>   0.0800 
 44 H        1.3940     4.6680    -0.2980 H     1 <1>   0.0800 
 45 H        0.5680     2.2390     2.5100 H     1 <1>   0.0800 
 46 H       -0.9680     3.0220     2.8680 H     1 <1>   0.0800 
 47 H        0.5110     3.8670     3.1170 H     1 <1>   0.0800 
 48 H       -5.7710    -1.9740     2.9030 H     1 <1>   0.1500 
 49 H       -6.2520    -1.9470    -1.9340 H     1 <1>   0.1500 
 50 H       -7.6400    -3.3140     3.6090 H     1 <1>   0.1500 
 51 H       -9.8740    -4.6660    -0.0520 H     1 <1>   0.1500 
 52 H       -7.8770    -2.9950    -3.4160 H     1 <1>   0.1500 
 53 H       -9.6900    -4.3600    -2.5000 H     1 <1>   0.1500 
@<TRIPOS>BOND
  1   1   2  2   
  2   2   3  am  
  3   2   4  1   
  4   3   5  1   
  5   3  26  1   
  6   4   6  1   
  7   4  27  1   
  8   4  28  1   
  9   5   7  1   
 10   5   8  1   
 11   5  29  1   
 12   6   9  1   
 13   6  10  1   
 14   6  30  1   
 15   7  11  1   
 16   7  12  1   
 17   7  31  1   
 18   8  13  1   
 19   8  32  1   
 20   8  33  1   
 21   9  14  1   
 22   9  15  1   
 23   9  34  1   
 24  10  35  1   
 25  10  36  1   
 26  10  37  1   
 27  11  13  1   
 28  11  38  1   
 29  11  39  1   
 30  12  16  1   
 31  12  40  1   
 32  12  41  1   
 33  14  42  1   
 34  14  43  1   
 35  14  44  1   
 36  15  45  1   
 37  15  46  1   
 38  15  47  1   
 39  16  17  ar  
 40  16  18  ar  
 41  17  19  ar  
 42  17  20  ar  
 43  18  21  ar  
 44  18  48  1   
 45  19  22  ar  
 46  19  23  ar  
 47  20  24  ar  
 48  20  49  1   
 49  21  22  ar  
 50  21  50  1   
 51  23  25  ar  
 52  23  51  1   
 53  24  25  ar  
 54  24  52  1   
 55  25  53  1   
@<TRIPOS>SUBSTRUCTURE
  1 ****  12 GROUP 4 **** **** 0

# MOE 2024.06 (io_trps.svl 2023.06)
