@<TRIPOS>MOLECULE
NONAME
44 46 1 0 0 
SMALL
USER_CHARGES


@<TRIPOS>ATOM
  1 F        1.7990    -0.1210     2.7580 F     1 <1>  -0.1900 
  2 C        2.1780     0.5890     1.7310 C.ar  1 <1>   0.1900 
  3 C        2.3330    -0.0360     0.4970 C.ar  1 <1>   0.0860 
  4 C        2.3850     1.9400     1.9290 C.ar  1 <1>  -0.1500 
  5 C        2.7150     0.8030    -0.5460 C.ar  1 <1>   0.1900 
  6 C        2.1010    -1.4420     0.3090 C.2   1 <1>   0.5440 
  7 C        2.7660     2.7380     0.8610 C.ar  1 <1>   0.0830 
  8 F        2.8670     0.3000    -1.7400 F     1 <1>  -0.1900 
  9 C        2.9340     2.1600    -0.3950 C.ar  1 <1>  -0.1500 
 10 O        3.0250    -2.2140     0.4830 O.2   1 <1>  -0.5700 
 11 N        0.8650    -1.9340    -0.0700 N.am  1 <1>  -0.6600 
 12 O        2.9490     4.0520     1.1120 O.3   1 <1>  -0.3630 
 13 C       -0.3360    -1.0520    -0.1670 C.3   1 <1>   0.2200 
 14 C        0.7050    -3.3830    -0.4040 C.3   1 <1>   0.0600 
 15 C        3.3700     4.9520     0.1090 C.3   1 <1>   0.0400 
 16 C       -1.6200    -1.6410     0.4150 C.3   1 <1>  -0.1600 
 17 C       -0.6940    -0.7100    -1.6080 C.3   1 <1>  -0.1600 
 18 C       -2.7390    -0.8190    -0.2390 C.3   1 <1>  -0.0800 
 19 C       -2.1500    -0.2340    -1.5360 C.3   1 <1>  -0.0800 
 20 C       -3.1950     0.3770     0.6090 C.3   1 <1>  -0.1600 
 21 C       -2.2860     1.2920    -1.4240 C.3   1 <1>  -0.1600 
 22 C       -3.3820     1.5060    -0.3920 C.3   1 <1>   0.2000 
 23 O       -3.2220     2.7250     0.2280 O.3   1 <1>  -0.6800 
 24 H        2.2530     2.3750     2.9030 H     1 <1>   0.1500 
 25 H        3.2280     2.7350    -1.2520 H     1 <1>   0.1500 
 26 H       -0.1570    -0.1290     0.3550 H     1 <1>   0.0800 
 27 H        0.0320    -3.5090    -1.2320 H     1 <1>   0.0800 
 28 H        0.3210    -3.9090     0.4530 H     1 <1>   0.0800 
 29 H        1.6520    -3.8170    -0.6750 H     1 <1>   0.0800 
 30 H        3.4580     5.9280     0.5520 H     1 <1>   0.0800 
 31 H        2.6340     4.9730    -0.6750 H     1 <1>   0.0800 
 32 H        4.3270     4.6350    -0.2670 H     1 <1>   0.0800 
 33 H       -1.7450    -2.6640     0.1150 H     1 <1>   0.0800 
 34 H       -1.6350    -1.5820     1.4880 H     1 <1>   0.0800 
 35 H       -0.0350     0.0330    -2.0200 H     1 <1>   0.0800 
 36 H       -0.6480    -1.5950    -2.2170 H     1 <1>   0.0800 
 37 H       -3.5870    -1.4450    -0.4660 H     1 <1>   0.0800 
 38 H       -2.7070    -0.5860    -2.3890 H     1 <1>   0.0800 
 39 H       -2.4320     0.6430     1.3190 H     1 <1>   0.0800 
 40 H       -4.1120     0.1630     1.1290 H     1 <1>   0.0800 
 41 H       -2.5510     1.7330    -2.3690 H     1 <1>   0.0800 
 42 H       -1.3660     1.7240    -1.0710 H     1 <1>   0.0800 
 43 H       -4.3580     1.4660    -0.8470 H     1 <1>   0.0800 
 44 H       -2.3520     2.7650     0.6650 H     1 <1>   0.4000 
@<TRIPOS>BOND
  1   1   2  1   
  2   2   3  ar  
  3   2   4  ar  
  4   3   5  ar  
  5   3   6  1   
  6   4   7  ar  
  7   4  24  1   
  8   5   8  1   
  9   5   9  ar  
 10   6  10  2   
 11   6  11  am  
 12   7   9  ar  
 13   7  12  1   
 14   9  25  1   
 15  11  13  1   
 16  11  14  1   
 17  12  15  1   
 18  13  16  1   
 19  13  17  1   
 20  13  26  1   
 21  14  27  1   
 22  14  28  1   
 23  14  29  1   
 24  15  30  1   
 25  15  31  1   
 26  15  32  1   
 27  16  18  1   
 28  16  33  1   
 29  16  34  1   
 30  17  19  1   
 31  17  35  1   
 32  17  36  1   
 33  18  19  1   
 34  18  20  1   
 35  18  37  1   
 36  19  21  1   
 37  19  38  1   
 38  20  22  1   
 39  20  39  1   
 40  20  40  1   
 41  21  22  1   
 42  21  41  1   
 43  21  42  1   
 44  22  23  1   
 45  22  43  1   
 46  23  44  1   
@<TRIPOS>SUBSTRUCTURE
  1 ****  13 GROUP 4 **** **** 0

# MOE 2024.06 (io_trps.svl 2023.06)
