@<TRIPOS>MOLECULE
NONAME
50 53 1 0 0 
SMALL
USER_CHARGES


@<TRIPOS>ATOM
  1 O       -0.4680    -0.3990    -0.1280 O.2   1 <1>  -0.5700 
  2 C       -1.3230     0.3260    -0.5930 C.2   1 <1>   0.7160 
  3 N       -2.3120    -0.2150    -1.3520 N.am  1 <1>  -0.7300 
  4 C       -1.3460     1.7300    -0.3130 C.2   1 <1>  -0.0860 
  5 C       -2.7330    -1.6120    -1.5750 C.3   1 <1>   0.4000 
  6 C       -2.4690     2.5650    -0.4130 C.2   1 <1>   0.3720 
  7 C       -0.3590     2.5860     0.0720 C.2   1 <1>   0.0870 
  8 C       -3.7650    -2.0240    -0.5290 C.2   1 <1>   0.0060 
  9 C       -1.5730    -2.5940    -1.7560 C.3   1 <1>  -0.2400 
 10 N       -2.1700     3.7840    -0.1330 N.2   1 <1>  -0.4100 
 11 N       -3.7630     2.1490    -0.7610 N.pl3 1 <1>  -0.8210 
 12 O       -0.8970     3.7760     0.1550 O.3   1 <1>  -0.0190 
 13 C        1.0440     2.4300     0.3570 C.ar  1 <1>   0.0530 
 14 N       -4.9900    -2.2770    -0.8370 N.2   1 <1>  -0.5650 
 15 N       -3.5690    -2.1470     0.7980 N.pl3 1 <1>   0.3140 
 16 C       -4.5400     1.5830     0.3900 C.3   1 <1>   0.2090 
 17 C       -4.5890     3.1840    -1.4640 C.3   1 <1>   0.2090 
 18 C        1.9780     3.2900    -0.2200 C.ar  1 <1>  -0.1500 
 19 C        1.5230     1.4430     1.2170 C.ar  1 <1>  -0.1500 
 20 C       -5.5240    -2.5550     0.3560 C.2   1 <1>   0.3660 
 21 N       -4.7230    -2.4750     1.3620 N.2   1 <1>  -0.7070 
 22 C       -2.3780    -1.9600     1.6430 C.3   1 <1>   0.0160 
 23 C       -5.9270     1.0940    -0.0660 C.3   1 <1>   0.1200 
 24 C       -5.9750     2.6280    -1.8370 C.3   1 <1>   0.1200 
 25 C        3.3300     3.1640     0.0400 C.ar  1 <1>  -0.1500 
 26 C        2.8730     1.3100     1.4800 C.ar  1 <1>  -0.1500 
 27 O       -6.6290     2.1220    -0.7070 O.3   1 <1>  -0.5600 
 28 C        3.7810     2.1710     0.8910 C.ar  1 <1>  -0.1500 
 29 H       -3.0690     0.4570    -1.5520 H     1 <1>   0.3700 
 30 H       -3.2550    -1.6110    -2.5180 H     1 <1>   0.0800 
 31 H       -1.0100    -2.7330    -0.8560 H     1 <1>   0.0800 
 32 H       -0.9160    -2.2430    -2.5300 H     1 <1>   0.0800 
 33 H       -1.9650    -3.5500    -2.0520 H     1 <1>   0.0800 
 34 H       -4.6630     2.3370     1.1490 H     1 <1>   0.0800 
 35 H       -4.0020     0.7590     0.8240 H     1 <1>   0.0800 
 36 H       -4.0780     3.5050    -2.3550 H     1 <1>   0.0800 
 37 H       -4.7190     4.0440    -0.8270 H     1 <1>   0.0800 
 38 H        1.6370     4.0670    -0.8820 H     1 <1>   0.1500 
 39 H        0.8280     0.7710     1.6870 H     1 <1>   0.1500 
 40 H       -6.5660    -2.8210     0.4470 H     1 <1>   0.1500 
 41 H       -1.5270    -2.4340     1.1960 H     1 <1>   0.0800 
 42 H       -2.5580    -2.4020     2.6050 H     1 <1>   0.0800 
 43 H       -2.1920    -0.9110     1.7690 H     1 <1>   0.0800 
 44 H       -6.5060     0.7770     0.7830 H     1 <1>   0.0800 
 45 H       -5.8320     0.2670    -0.7470 H     1 <1>   0.0800 
 46 H       -5.8830     1.8400    -2.5640 H     1 <1>   0.0800 
 47 H       -6.5900     3.4090    -2.2490 H     1 <1>   0.0800 
 48 H        4.0330     3.8380    -0.4190 H     1 <1>   0.1500 
 49 H        3.2180     0.5370     2.1440 H     1 <1>   0.1500 
 50 H        4.8330     2.0690     1.0940 H     1 <1>   0.1500 
@<TRIPOS>BOND
  1   1   2  2   
  2   2   3  am  
  3   2   4  1   
  4   3   5  1   
  5   3  29  1   
  6   4   6  1   
  7   4   7  2   
  8   5   8  1   
  9   5   9  1   
 10   5  30  1   
 11   6  10  2   
 12   6  11  1   
 13   7  12  1   
 14   7  13  1   
 15   8  14  2   
 16   8  15  1   
 17   9  31  1   
 18   9  32  1   
 19   9  33  1   
 20  10  12  1   
 21  11  16  1   
 22  11  17  1   
 23  13  18  ar  
 24  13  19  ar  
 25  14  20  1   
 26  15  21  1   
 27  15  22  1   
 28  16  23  1   
 29  16  34  1   
 30  16  35  1   
 31  17  24  1   
 32  17  36  1   
 33  17  37  1   
 34  18  25  ar  
 35  18  38  1   
 36  19  26  ar  
 37  19  39  1   
 38  20  21  2   
 39  20  40  1   
 40  22  41  1   
 41  22  42  1   
 42  22  43  1   
 43  23  27  1   
 44  23  44  1   
 45  23  45  1   
 46  24  27  1   
 47  24  46  1   
 48  24  47  1   
 49  25  28  ar  
 50  25  48  1   
 51  26  28  ar  
 52  26  49  1   
 53  28  50  1   
@<TRIPOS>SUBSTRUCTURE
  1 ****   2 GROUP 4 **** **** 0

# MOE 2024.06 (io_trps.svl 2023.06)
