@<TRIPOS>MOLECULE
NONAME
52 54 1 0 0 
SMALL
USER_CHARGES


@<TRIPOS>ATOM
  1 O        1.0970    -0.6130     1.9280 O.2   1 <1>  -0.5700 
  2 C        1.5820    -0.5060     0.8160 C.2   1 <1>   0.7150 
  3 N        1.9390     0.7440     0.3620 N.am  1 <1>  -0.6600 
  4 C        1.7740    -1.6760    -0.0020 C.2   1 <1>  -0.2370 
  5 C        2.0830     1.8930     1.2970 C.3   1 <1>   0.2840 
  6 C        2.2390     1.0400    -1.0670 C.3   1 <1>   0.0600 
  7 N        0.8110    -2.6300    -0.2430 N.pl3 1 <1>   0.0480 
  8 C        2.9090    -2.0460    -0.6790 C.2   1 <1>  -0.1500 
  9 C        3.5280     2.3690     1.3080 C.ar  1 <1>  -0.1430 
 10 C        1.3560    -3.5570    -1.0770 C.2   1 <1>  -0.3020 
 11 C       -0.5930    -2.6140     0.2720 C.3   1 <1>   0.1760 
 12 C        2.6440    -3.2290    -1.3580 C.2   1 <1>  -0.1500 
 13 C        3.8850     3.5680     0.7110 C.ar  1 <1>  -0.1500 
 14 C        4.5040     1.5990     1.9220 C.ar  1 <1>  -0.1500 
 15 C       -1.1800    -4.0280     0.3940 C.3   1 <1>  -0.2400 
 16 C       -1.4660    -1.7440    -0.6380 C.3   1 <1>  -0.2400 
 17 C        5.2050     4.0080     0.7160 C.ar  1 <1>  -0.0230 
 18 C        5.8190     2.0290     1.9470 C.ar  1 <1>  -0.1500 
 19 N        5.5530     5.2330     0.0810 N.pl3 1 <1>   0.5930 
 20 C        6.1660     3.2270     1.3510 C.ar  1 <1>  -0.1500 
 21 N        4.9810     6.4170     0.4140 N.2   1 <1>  -0.7070 
 22 C        6.4250     5.4160    -0.9520 C.2   1 <1>  -0.3320 
 23 C        5.5020     7.2940    -0.3790 C.2   1 <1>   0.1080 
 24 C        6.4140     6.7290    -1.2610 C.2   1 <1>  -0.1500 
 25 C        7.2280     4.3090    -1.6170 C.3   1 <1>  -0.0600 
 26 C        5.1310     8.7570    -0.3250 C.3   1 <1>  -0.0590 
 27 H        1.8000     1.6150     2.2970 H     1 <1>   0.0800 
 28 H        1.4290     2.6880     0.9830 H     1 <1>   0.0800 
 29 H        1.8130     0.2900    -1.7100 H     1 <1>   0.0800 
 30 H        3.3050     1.0670    -1.2140 H     1 <1>   0.0800 
 31 H        1.8240     1.9950    -1.3390 H     1 <1>   0.0800 
 32 H        3.8500    -1.5230    -0.6920 H     1 <1>   0.1500 
 33 H        0.8120    -4.4100    -1.4390 H     1 <1>   0.1500 
 34 H       -0.5850    -2.1860     1.2570 H     1 <1>   0.0800 
 35 H        3.3400    -3.7640    -1.9810 H     1 <1>   0.1500 
 36 H        3.1390     4.1820     0.2350 H     1 <1>   0.1500 
 37 H        4.2350     0.6630     2.3830 H     1 <1>   0.1500 
 38 H       -1.3080    -4.4780    -0.5740 H     1 <1>   0.0800 
 39 H       -2.1410    -3.9810     0.8720 H     1 <1>   0.0800 
 40 H       -0.5340    -4.6430     0.9950 H     1 <1>   0.0800 
 41 H       -1.4860    -2.1450    -1.6360 H     1 <1>   0.0800 
 42 H       -1.0820    -0.7400    -0.6670 H     1 <1>   0.0800 
 43 H       -2.4720    -1.7080    -0.2610 H     1 <1>   0.0800 
 44 H        6.5680     1.4290     2.4330 H     1 <1>   0.1500 
 45 H        7.1880     3.5620     1.3840 H     1 <1>   0.1500 
 46 H        6.9700     7.2520    -2.0180 H     1 <1>   0.1500 
 47 H        6.5730     3.5240    -1.9520 H     1 <1>   0.0800 
 48 H        7.9420     3.8960    -0.9270 H     1 <1>   0.0800 
 49 H        7.7610     4.6970    -2.4660 H     1 <1>   0.0800 
 50 H        5.3540     9.1470     0.6510 H     1 <1>   0.0800 
 51 H        4.0790     8.8670    -0.5110 H     1 <1>   0.0800 
 52 H        5.6810     9.3130    -1.0610 H     1 <1>   0.0800 
@<TRIPOS>BOND
  1   1   2  2   
  2   2   3  am  
  3   2   4  1   
  4   3   5  1   
  5   3   6  1   
  6   4   7  1   
  7   4   8  2   
  8   5   9  1   
  9   5  27  1   
 10   5  28  1   
 11   6  29  1   
 12   6  30  1   
 13   6  31  1   
 14   7  10  1   
 15   7  11  1   
 16   8  12  1   
 17   8  32  1   
 18   9  13  ar  
 19   9  14  ar  
 20  10  12  2   
 21  10  33  1   
 22  11  15  1   
 23  11  16  1   
 24  11  34  1   
 25  12  35  1   
 26  13  17  ar  
 27  13  36  1   
 28  14  18  ar  
 29  14  37  1   
 30  15  38  1   
 31  15  39  1   
 32  15  40  1   
 33  16  41  1   
 34  16  42  1   
 35  16  43  1   
 36  17  19  1   
 37  17  20  ar  
 38  18  20  ar  
 39  18  44  1   
 40  19  21  1   
 41  19  22  1   
 42  20  45  1   
 43  21  23  2   
 44  22  24  2   
 45  22  25  1   
 46  23  24  1   
 47  23  26  1   
 48  24  46  1   
 49  25  47  1   
 50  25  48  1   
 51  25  49  1   
 52  26  50  1   
 53  26  51  1   
 54  26  52  1   
@<TRIPOS>SUBSTRUCTURE
  1 ****   9 GROUP 4 **** **** 0

# MOE 2024.06 (io_trps.svl 2023.06)
