@<TRIPOS>MOLECULE
NONAME
54 58 1 0 0 
SMALL
USER_CHARGES


@<TRIPOS>ATOM
  1 S       -0.6410    -0.3980     0.3160 S.3   1 <1>  -0.0800 
  2 C       -0.8660     1.2640     0.8490 C.2   1 <1>   0.4620 
  3 C       -1.5460    -0.9500     1.7020 C.2   1 <1>  -0.1400 
  4 N       -1.5370     1.3580     1.9400 N.2   1 <1>  -0.5650 
  5 N       -0.3520     2.2860     0.0940 N.pl3 1 <1>  -0.8220 
  6 C       -1.9080     0.1230     2.4220 C.2   1 <1>   0.0770 
  7 C       -1.7750    -2.4330     1.8480 C.3   1 <1>   0.5230 
  8 C       -0.4060     3.6900     0.5550 C.3   1 <1>   0.2090 
  9 C        0.6190     2.1190    -1.0090 C.3   1 <1>   0.2090 
 10 N       -2.5250    -2.9030     0.6520 N.4   1 <1>  -0.9590 
 11 C        0.7780     4.3630    -0.1280 C.3   1 <1>  -0.1600 
 12 C        1.0140     3.5410    -1.3910 C.3   1 <1>  -0.1600 
 13 C       -2.6660    -4.4070     0.6220 C.3   1 <1>   0.3430 
 14 C       -3.8780    -2.2340     0.5410 C.3   1 <1>   0.3430 
 15 C       -3.6110    -4.9090    -0.4950 C.3   1 <1>   0.3430 
 16 C       -4.7540    -2.8400    -0.5790 C.3   1 <1>   0.2950 
 17 O       -4.8330    -4.2260    -0.4250 O.3   1 <1>  -0.5600 
 18 C       -3.8470    -6.4010    -0.3170 C.ar  1 <1>  -0.1430 
 19 C       -6.1790    -2.2890    -0.5170 C.3   1 <1>  -0.1950 
 20 C       -4.8270    -6.8780     0.5430 C.ar  1 <1>  -0.1500 
 21 C       -3.0560    -7.3100    -1.0080 C.ar  1 <1>  -0.1500 
 22 C       -7.0610    -2.2940    -1.7250 C.3   1 <1>  -0.2000 
 23 C       -6.5380    -0.9950    -1.1790 C.3   1 <1>  -0.2000 
 24 C       -5.0070    -8.2390     0.7170 C.ar  1 <1>  -0.1500 
 25 C       -3.2360    -8.6710    -0.8340 C.ar  1 <1>  -0.1500 
 26 C       -4.2100    -9.1360     0.0300 C.ar  1 <1>  -0.1500 
 27 H       -2.4720     0.1100     3.3410 H     1 <1>   0.1500 
 28 H       -2.3360    -2.6330     2.7470 H     1 <1>   0.0800 
 29 H       -0.8230    -2.9350     1.9150 H     1 <1>   0.0800 
 30 H       -1.3330     4.1300     0.2290 H     1 <1>   0.0800 
 31 H       -0.3340     3.7540     1.6280 H     1 <1>   0.0800 
 32 H        1.4770     1.5760    -0.6500 H     1 <1>   0.0800 
 33 H        0.1750     1.5990    -1.8410 H     1 <1>   0.0800 
 34 H       -1.9720    -2.6020    -0.1630 H     1 <1>   0.4500 
 35 H        0.5790     5.3990    -0.3400 H     1 <1>   0.0800 
 36 H        1.6340     4.2950     0.5200 H     1 <1>   0.0800 
 37 H        2.0330     3.5940    -1.7320 H     1 <1>   0.0800 
 38 H        0.3630     3.8830    -2.1760 H     1 <1>   0.0800 
 39 H       -1.7020    -4.8690     0.4930 H     1 <1>   0.0800 
 40 H       -3.0690    -4.7520     1.5600 H     1 <1>   0.0800 
 41 H       -4.4130    -2.3400     1.4700 H     1 <1>   0.0800 
 42 H       -3.7560    -1.1790     0.3550 H     1 <1>   0.0800 
 43 H       -3.1820    -4.7280    -1.4660 H     1 <1>   0.0800 
 44 H       -4.3300    -2.6270    -1.5460 H     1 <1>   0.0800 
 45 H       -6.6580    -2.5040     0.4240 H     1 <1>   0.1000 
 46 H       -5.4660    -6.1970     1.0790 H     1 <1>   0.1500 
 47 H       -2.2950    -6.9760    -1.6920 H     1 <1>   0.1500 
 48 H       -6.6700    -2.6620    -2.6590 H     1 <1>   0.1000 
 49 H       -8.1040    -2.5290    -1.6000 H     1 <1>   0.1000 
 50 H       -7.2380    -0.3330    -0.6960 H     1 <1>   0.1000 
 51 H       -5.8160    -0.4610    -1.7720 H     1 <1>   0.1000 
 52 H       -5.7710    -8.6020     1.3840 H     1 <1>   0.1500 
 53 H       -2.6220    -9.3720    -1.3730 H     1 <1>   0.1500 
 54 H       -4.3520   -10.1950     0.1640 H     1 <1>   0.1500 
@<TRIPOS>BOND
  1   1   2  1   
  2   1   3  1   
  3   2   4  2   
  4   2   5  1   
  5   3   6  2   
  6   3   7  1   
  7   4   6  1   
  8   5   8  1   
  9   5   9  1   
 10   6  27  1   
 11   7  10  1   
 12   7  28  1   
 13   7  29  1   
 14   8  11  1   
 15   8  30  1   
 16   8  31  1   
 17   9  12  1   
 18   9  32  1   
 19   9  33  1   
 20  10  13  1   
 21  10  14  1   
 22  10  34  1   
 23  11  12  1   
 24  11  35  1   
 25  11  36  1   
 26  12  37  1   
 27  12  38  1   
 28  13  15  1   
 29  13  39  1   
 30  13  40  1   
 31  14  16  1   
 32  14  41  1   
 33  14  42  1   
 34  15  17  1   
 35  15  18  1   
 36  15  43  1   
 37  16  17  1   
 38  16  19  1   
 39  16  44  1   
 40  18  20  ar  
 41  18  21  ar  
 42  19  22  1   
 43  19  23  1   
 44  19  45  1   
 45  20  24  ar  
 46  20  46  1   
 47  21  25  ar  
 48  21  47  1   
 49  22  23  1   
 50  22  48  1   
 51  22  49  1   
 52  23  50  1   
 53  23  51  1   
 54  24  26  ar  
 55  24  52  1   
 56  25  26  ar  
 57  25  53  1   
 58  26  54  1   
@<TRIPOS>SUBSTRUCTURE
  1 ****  10 GROUP 4 **** **** 0

# MOE 2024.06 (io_trps.svl 2023.06)
