@<TRIPOS>MOLECULE
NONAME
43 44 1 0 0 
SMALL
USER_CHARGES


@<TRIPOS>ATOM
  1 O        1.0870    -0.4420     2.2010 O.2   1 <1>  -0.5700 
  2 C        1.6680    -1.0800     1.3440 C.2   1 <1>   0.5440 
  3 N        2.6370    -0.4580     0.5890 N.am  1 <1>  -0.6600 
  4 C        1.3190    -2.4680     1.1250 C.ar  1 <1>   0.0860 
  5 C        3.1590    -0.9720    -0.6970 C.3   1 <1>   0.1400 
  6 C        2.9900     0.9690     0.7680 C.3   1 <1>   0.1400 
  7 C        0.0230    -2.8660     0.8650 C.ar  1 <1>  -0.1500 
  8 C        2.2530    -3.4930     1.1670 C.ar  1 <1>  -0.1500 
  9 C        4.0330     0.1500    -1.2470 C.3   1 <1>  -0.1600 
 10 C        3.4910     1.4200    -0.5980 C.3   1 <1>  -0.1600 
 11 C       -0.2910    -4.2000     0.6280 C.ar  1 <1>   0.4100 
 12 C        1.8590    -4.7930     0.9320 C.ar  1 <1>   0.1600 
 13 N        0.6220    -5.1640     0.6580 N.ar  1 <1>  -0.6200 
 14 N       -1.5930    -4.5870     0.3440 N.pl3 1 <1>  -0.8380 
 15 C       -2.0850    -5.9500     0.7130 C.3   1 <1>   0.2090 
 16 C       -2.5850    -3.6860    -0.3040 C.3   1 <1>   0.1290 
 17 C       -1.8640    -6.9320    -0.4380 C.3   1 <1>   0.1200 
 18 O       -2.5490    -8.1170    -0.1640 O.3   1 <1>  -0.5600 
 19 C       -2.3470    -9.1100    -1.1110 C.3   1 <1>   0.1200 
 20 C       -3.1660   -10.3230    -0.6870 C.3   1 <1>  -0.2400 
 21 H        2.3350    -1.1670    -1.3620 H     1 <1>   0.0800 
 22 H        3.7320    -1.8720    -0.5530 H     1 <1>   0.0800 
 23 H        3.7710     1.0450     1.5050 H     1 <1>   0.0800 
 24 H        2.1380     1.5470     1.0870 H     1 <1>   0.0800 
 25 H       -0.7520    -2.1250     0.8580 H     1 <1>   0.1500 
 26 H        3.2800    -3.2690     1.3890 H     1 <1>   0.1500 
 27 H        4.0020     0.1920    -2.3210 H     1 <1>   0.0800 
 28 H        5.0490    -0.0130    -0.9330 H     1 <1>   0.0800 
 29 H        4.2350     2.1920    -0.5150 H     1 <1>   0.0800 
 30 H        2.6580     1.7950    -1.1670 H     1 <1>   0.0800 
 31 H        2.5980    -5.5750     0.9700 H     1 <1>   0.1500 
 32 H       -3.1340    -5.9000     0.9460 H     1 <1>   0.0800 
 33 H       -1.5590    -6.3020     1.5830 H     1 <1>   0.0800 
 34 H       -2.0820    -2.9230    -0.8720 H     1 <1>   0.0800 
 35 H       -3.2000    -3.2240     0.4490 H     1 <1>   0.0800 
 36 H       -3.2110    -4.2500    -0.9730 H     1 <1>   0.0800 
 37 H       -0.8140    -7.1470    -0.5360 H     1 <1>   0.0800 
 38 H       -2.2470    -6.5220    -1.3550 H     1 <1>   0.0800 
 39 H       -1.2980    -9.3520    -1.1440 H     1 <1>   0.0800 
 40 H       -2.6730    -8.7470    -2.0720 H     1 <1>   0.0800 
 41 H       -2.8400   -10.6650     0.2790 H     1 <1>   0.0800 
 42 H       -3.0350   -11.1180    -1.3970 H     1 <1>   0.0800 
 43 H       -4.2090   -10.0650    -0.6430 H     1 <1>   0.0800 
@<TRIPOS>BOND
  1   1   2  2   
  2   2   3  am  
  3   2   4  1   
  4   3   5  1   
  5   3   6  1   
  6   4   7  ar  
  7   4   8  ar  
  8   5   9  1   
  9   5  21  1   
 10   5  22  1   
 11   6  10  1   
 12   6  23  1   
 13   6  24  1   
 14   7  11  ar  
 15   7  25  1   
 16   8  12  ar  
 17   8  26  1   
 18   9  10  1   
 19   9  27  1   
 20   9  28  1   
 21  10  29  1   
 22  10  30  1   
 23  11  13  ar  
 24  11  14  1   
 25  12  13  ar  
 26  12  31  1   
 27  14  15  1   
 28  14  16  1   
 29  15  17  1   
 30  15  32  1   
 31  15  33  1   
 32  16  34  1   
 33  16  35  1   
 34  16  36  1   
 35  17  18  1   
 36  17  37  1   
 37  17  38  1   
 38  18  19  1   
 39  19  20  1   
 40  19  39  1   
 41  19  40  1   
 42  20  41  1   
 43  20  42  1   
 44  20  43  1   
@<TRIPOS>SUBSTRUCTURE
  1 ****  11 GROUP 4 **** **** 0

# MOE 2024.06 (io_trps.svl 2023.06)
