@<TRIPOS>MOLECULE
NONAME
49 51 1 0 0 
SMALL
USER_CHARGES


@<TRIPOS>ATOM
  1 S        0.8790    -0.1330    -1.4070 S.o2  1 <1>   1.3330 
  2 O        2.1590    -0.7610    -1.1600 O.2   1 <1>  -0.6500 
  3 O        0.3660    -0.0730    -2.7570 O.2   1 <1>  -0.6500 
  4 N       -0.2870    -0.9490    -0.4770 N.am  1 <1>  -0.8490 
  5 C        0.8840     1.5250    -0.7060 C.3   1 <1>  -0.0550 
  6 C       -0.0260    -2.3900    -0.3990 C.3   1 <1>   0.1160 
  7 C       -1.6630    -0.7210    -0.9340 C.3   1 <1>   0.1160 
  8 C        1.6830     1.7500     0.5970 C.3   1 <1>  -0.0800 
  9 C        3.1970     1.6220     0.4080 C.3   1 <1>   0.2200 
 10 C        1.3790     0.8170     1.7750 C.3   1 <1>   0.1200 
 11 N        3.8350     2.9260     0.7000 N.am  1 <1>  -0.7300 
 12 C        3.5920     0.5820     1.4540 C.3   1 <1>   0.1200 
 13 O        2.5970     0.6500     2.4240 O.3   1 <1>  -0.5600 
 14 C        3.9460     3.9500    -0.1960 C.2   1 <1>   0.5440 
 15 O        3.4930     3.7800    -1.3120 O.2   1 <1>  -0.5700 
 16 C        4.5770     5.2060     0.1720 C.ar  1 <1>   0.0860 
 17 C        5.1170     6.0440    -0.8070 C.ar  1 <1>  -0.1500 
 18 C        4.6740     5.6300     1.5000 C.ar  1 <1>  -0.1500 
 19 C        5.7330     7.2420    -0.4900 C.ar  1 <1>  -0.1440 
 20 C        5.2860     6.8240     1.8310 C.ar  1 <1>  -0.1500 
 21 C        5.8150     7.6350     0.8420 C.ar  1 <1>   0.0820 
 22 C        6.3120     8.1180    -1.5880 C.3   1 <1>  -0.0170 
 23 O        6.4070     8.7910     1.2150 O.3   1 <1>  -0.3620 
 24 C        7.3180     9.1100    -1.0000 C.3   1 <1>  -0.1600 
 25 C        6.7250     9.7710     0.2480 C.3   1 <1>   0.1200 
 26 H        1.2890     2.1940    -1.4420 H     1 <1>   0.0800 
 27 H       -0.1300     1.8310    -0.5420 H     1 <1>   0.0800 
 28 H       -0.7760    -2.8740     0.2010 H     1 <1>   0.0800 
 29 H        0.9340    -2.5680     0.0570 H     1 <1>   0.0800 
 30 H       -0.0250    -2.8230    -1.3860 H     1 <1>   0.0800 
 31 H       -2.3590    -1.1800    -0.2530 H     1 <1>   0.0800 
 32 H       -1.8070    -1.1390    -1.9170 H     1 <1>   0.0800 
 33 H       -1.8730     0.3340    -0.9750 H     1 <1>   0.0800 
 34 H        1.4560     2.7480     0.9270 H     1 <1>   0.0800 
 35 H        3.4810     1.2970    -0.5790 H     1 <1>   0.0800 
 36 H        1.0510    -0.1580     1.4670 H     1 <1>   0.0800 
 37 H        0.6690     1.2400     2.4640 H     1 <1>   0.0800 
 38 H        4.1380     3.0460     1.6670 H     1 <1>   0.3700 
 39 H        4.5520     0.7730     1.9000 H     1 <1>   0.0800 
 40 H        3.5730    -0.4080     1.0300 H     1 <1>   0.0800 
 41 H        5.0470     5.7380    -1.8370 H     1 <1>   0.1500 
 42 H        4.2610     5.0270     2.2870 H     1 <1>   0.1500 
 43 H        5.3570     7.1410     2.8560 H     1 <1>   0.1500 
 44 H        6.7960     7.5110    -2.3340 H     1 <1>   0.0800 
 45 H        5.5080     8.6550    -2.0590 H     1 <1>   0.0800 
 46 H        7.5640     9.8600    -1.7310 H     1 <1>   0.0800 
 47 H        8.2240     8.5980    -0.7260 H     1 <1>   0.0800 
 48 H        5.8190    10.3000     0.0070 H     1 <1>   0.0800 
 49 H        7.4270    10.4540     0.6930 H     1 <1>   0.0800 
@<TRIPOS>BOND
  1   1   2  2   
  2   1   3  2   
  3   1   4  am  
  4   1   5  1   
  5   4   6  1   
  6   4   7  1   
  7   5   8  1   
  8   5  26  1   
  9   5  27  1   
 10   6  28  1   
 11   6  29  1   
 12   6  30  1   
 13   7  31  1   
 14   7  32  1   
 15   7  33  1   
 16   8   9  1   
 17   8  10  1   
 18   8  34  1   
 19   9  11  1   
 20   9  12  1   
 21   9  35  1   
 22  10  13  1   
 23  10  36  1   
 24  10  37  1   
 25  11  14  am  
 26  11  38  1   
 27  12  13  1   
 28  12  39  1   
 29  12  40  1   
 30  14  15  2   
 31  14  16  1   
 32  16  17  ar  
 33  16  18  ar  
 34  17  19  ar  
 35  17  41  1   
 36  18  20  ar  
 37  18  42  1   
 38  19  21  ar  
 39  19  22  1   
 40  20  21  ar  
 41  20  43  1   
 42  21  23  1   
 43  22  24  1   
 44  22  44  1   
 45  22  45  1   
 46  23  25  1   
 47  24  25  1   
 48  24  46  1   
 49  24  47  1   
 50  25  48  1   
 51  25  49  1   
@<TRIPOS>SUBSTRUCTURE
  1 ****  14 GROUP 4 **** **** 0

# MOE 2024.06 (io_trps.svl 2023.06)
