@<TRIPOS>MOLECULE
NONAME
51 53 1 0 0 
SMALL
USER_CHARGES


@<TRIPOS>ATOM
  1 F       -1.5110    -1.0370     0.5100 F     1 <1>  -0.1900 
  2 C       -2.6270    -0.3570     0.4410 C.ar  1 <1>   0.1900 
  3 C       -2.6740     1.0190     0.6840 C.ar  1 <1>   0.0830 
  4 C       -3.7620    -1.0730     0.1160 C.ar  1 <1>  -0.1500 
  5 O       -1.6280     1.8320     1.0110 O.3   1 <1>  -0.3630 
  6 C       -3.9060     1.6460     0.5890 C.ar  1 <1>  -0.1500 
  7 C       -4.9760    -0.4160     0.0300 C.ar  1 <1>  -0.1500 
  8 C       -0.2970     1.3750     1.1020 C.3   1 <1>   0.0400 
  9 C       -5.0780     0.9590     0.2620 C.ar  1 <1>   0.0530 
 10 C       -6.3400     1.6550     0.1770 C.2   1 <1>   0.0870 
 11 O       -6.5170     2.7870     0.8120 O.3   1 <1>  -0.0190 
 12 C       -7.5090     1.3800    -0.4580 C.2   1 <1>  -0.0860 
 13 N       -7.7160     3.2830     0.6510 N.2   1 <1>  -0.4100 
 14 C       -8.3340     2.4550    -0.1190 C.2   1 <1>   0.3720 
 15 C       -7.8650     0.2740    -1.2860 C.2   1 <1>   0.7160 
 16 N       -9.6630     2.6190    -0.5430 N.pl3 1 <1>  -0.8210 
 17 O       -7.3640     0.1850    -2.3930 O.2   1 <1>  -0.5700 
 18 N       -8.7130    -0.7250    -0.8500 N.am  1 <1>  -0.6600 
 19 C       -9.8070     2.8910    -1.9990 C.3   1 <1>   0.1290 
 20 C      -10.4890     3.5480     0.2780 C.3   1 <1>   0.1290 
 21 C       -8.9920    -1.9410    -1.6610 C.3   1 <1>   0.1400 
 22 C       -9.4350    -0.6810     0.4500 C.3   1 <1>   0.1400 
 23 C       -8.6220    -3.1890    -0.8520 C.3   1 <1>  -0.1600 
 24 C       -9.0620    -1.9140     1.2790 C.3   1 <1>  -0.1600 
 25 C       -9.3330    -3.2230     0.5160 C.3   1 <1>  -0.0800 
 26 C       -8.8900    -4.4260     1.3630 C.3   1 <1>   0.1200 
 27 O       -9.1920    -5.6060     0.7030 O.3   1 <1>  -0.6800 
 28 H       -3.6940    -2.1310    -0.0670 H     1 <1>   0.1500 
 29 H       -3.9490     2.7050     0.7720 H     1 <1>   0.1500 
 30 H       -5.8510    -0.9880    -0.2190 H     1 <1>   0.1500 
 31 H        0.3290     2.2150     1.3450 H     1 <1>   0.0800 
 32 H       -0.0020     0.9630     0.1530 H     1 <1>   0.0800 
 33 H       -0.2330     0.6360     1.8810 H     1 <1>   0.0800 
 34 H       -9.2360     2.1840    -2.5760 H     1 <1>   0.0800 
 35 H       -9.4560     3.8830    -2.2240 H     1 <1>   0.0800 
 36 H      -10.8410     2.8060    -2.2870 H     1 <1>   0.0800 
 37 H      -10.3790     3.3090     1.3220 H     1 <1>   0.0800 
 38 H      -11.5270     3.4530     0.0100 H     1 <1>   0.0800 
 39 H      -10.1710     4.5650     0.1200 H     1 <1>   0.0800 
 40 H       -8.4300    -1.9310    -2.5790 H     1 <1>   0.0800 
 41 H      -10.0380    -1.9620    -1.9120 H     1 <1>   0.0800 
 42 H      -10.4940    -0.6710     0.2590 H     1 <1>   0.0800 
 43 H       -9.1950     0.2080     1.0050 H     1 <1>   0.0800 
 44 H       -7.5560    -3.2060    -0.7120 H     1 <1>   0.0800 
 45 H       -8.8860    -4.0600    -1.4250 H     1 <1>   0.0800 
 46 H       -9.6290    -1.9010     2.1930 H     1 <1>   0.0800 
 47 H       -8.0190    -1.8480     1.5400 H     1 <1>   0.0800 
 48 H      -10.3960    -3.2940     0.3540 H     1 <1>   0.0800 
 49 H       -9.3940    -4.4370     2.3140 H     1 <1>   0.0800 
 50 H       -7.8260    -4.4060     1.5290 H     1 <1>   0.0800 
 51 H      -10.1540    -5.6810     0.5540 H     1 <1>   0.4000 
@<TRIPOS>BOND
  1   1   2  1   
  2   2   3  ar  
  3   2   4  ar  
  4   3   5  1   
  5   3   6  ar  
  6   4   7  ar  
  7   4  28  1   
  8   5   8  1   
  9   6   9  ar  
 10   6  29  1   
 11   7   9  ar  
 12   7  30  1   
 13   8  31  1   
 14   8  32  1   
 15   8  33  1   
 16   9  10  1   
 17  10  11  1   
 18  10  12  2   
 19  11  13  1   
 20  12  14  1   
 21  12  15  1   
 22  13  14  2   
 23  14  16  1   
 24  15  17  2   
 25  15  18  am  
 26  16  19  1   
 27  16  20  1   
 28  18  21  1   
 29  18  22  1   
 30  19  34  1   
 31  19  35  1   
 32  19  36  1   
 33  20  37  1   
 34  20  38  1   
 35  20  39  1   
 36  21  23  1   
 37  21  40  1   
 38  21  41  1   
 39  22  24  1   
 40  22  42  1   
 41  22  43  1   
 42  23  25  1   
 43  23  44  1   
 44  23  45  1   
 45  24  25  1   
 46  24  46  1   
 47  24  47  1   
 48  25  26  1   
 49  25  48  1   
 50  26  27  1   
 51  26  49  1   
 52  26  50  1   
 53  27  51  1   
@<TRIPOS>SUBSTRUCTURE
  1 ****  10 GROUP 4 **** **** 0

# MOE 2024.06 (io_trps.svl 2023.06)
