@<TRIPOS>MOLECULE
NONAME
41 43 1 0 0 
SMALL
USER_CHARGES


@<TRIPOS>ATOM
  1 S        1.1020     0.3530     0.9390 S.3   1 <1>  -0.3310 
  2 C        0.6940    -1.3780     1.0730 C.ar  1 <1>   0.7220 
  3 C        1.8570     0.5050    -0.7540 C.3   1 <1>   0.1310 
  4 N        1.0030    -2.1240     0.0230 N.ar  1 <1>  -0.6200 
  5 N        0.1230    -1.7260     2.2120 N.ar  1 <1>  -0.6200 
  6 C        2.2450     1.9390    -1.0850 C.2   1 <1>   0.5690 
  7 C        0.6930    -3.3940     0.1430 C.ar  1 <1>   0.1660 
  8 C       -0.1740    -3.0030     2.2990 C.ar  1 <1>   0.1600 
  9 O        2.7180     2.1680    -2.1720 O.2   1 <1>  -0.5700 
 10 N        2.0730     2.9250    -0.1760 N.am  1 <1>  -0.7300 
 11 C        0.0930    -3.8880     1.2800 C.ar  1 <1>  -0.1500 
 12 C        1.0230    -4.2960    -1.0270 C.3   1 <1>  -0.0970 
 13 C        2.3180     4.3540    -0.4110 C.3   1 <1>   0.4950 
 14 C        3.5430     4.8080     0.3900 C.2   1 <1>   0.0060 
 15 C        1.0320     5.1110    -0.0440 C.3   1 <1>  -0.1950 
 16 N        3.5050     5.4670     1.5110 N.2   1 <1>  -0.5650 
 17 N        4.8080     4.5420    -0.0280 N.pl3 1 <1>   0.0480 
 18 C       -0.1610     5.1230    -0.9510 C.3   1 <1>  -0.2000 
 19 C        0.6470     6.3750    -0.7500 C.3   1 <1>  -0.2000 
 20 C        4.7980     5.6410     1.8350 C.2   1 <1>   0.0770 
 21 C        5.6060     5.0840     0.9090 C.2   1 <1>  -0.3020 
 22 C        5.2640     3.8050    -1.2230 C.3   1 <1>   0.0160 
 23 H        1.1300     0.1490    -1.4600 H     1 <1>   0.0800 
 24 H        2.7240    -0.1290    -0.7750 H     1 <1>   0.0800 
 25 H       -0.6420    -3.3500     3.2050 H     1 <1>   0.1500 
 26 H        1.7200     2.7100     0.7590 H     1 <1>   0.3700 
 27 H       -0.1600    -4.9260     1.3760 H     1 <1>   0.1500 
 28 H        0.5090    -3.9500    -1.9060 H     1 <1>   0.0800 
 29 H        0.7280    -5.3100    -0.8300 H     1 <1>   0.0800 
 30 H        2.0810    -4.2720    -1.2140 H     1 <1>   0.0800 
 31 H        2.5120     4.5160    -1.4570 H     1 <1>   0.0800 
 32 H        0.8510     5.0910     1.0170 H     1 <1>   0.1000 
 33 H       -1.1400     5.0590    -0.5100 H     1 <1>   0.1000 
 34 H       -0.1000     4.6120    -1.8960 H     1 <1>   0.1000 
 35 H        1.2610     6.7320    -1.5590 H     1 <1>   0.1000 
 36 H        0.2350     7.1780    -0.1630 H     1 <1>   0.1000 
 37 H        5.0830     6.1670     2.7310 H     1 <1>   0.1500 
 38 H        6.6790     5.0470     0.8720 H     1 <1>   0.1500 
 39 H        4.6950     4.1120    -2.0800 H     1 <1>   0.0800 
 40 H        5.1280     2.7520    -1.0620 H     1 <1>   0.0800 
 41 H        6.3050     4.0090    -1.3970 H     1 <1>   0.0800 
@<TRIPOS>BOND
  1   1   2  1   
  2   1   3  1   
  3   2   4  ar  
  4   2   5  ar  
  5   3   6  1   
  6   3  23  1   
  7   3  24  1   
  8   4   7  ar  
  9   5   8  ar  
 10   6   9  2   
 11   6  10  am  
 12   7  11  ar  
 13   7  12  1   
 14   8  11  ar  
 15   8  25  1   
 16  10  13  1   
 17  10  26  1   
 18  11  27  1   
 19  12  28  1   
 20  12  29  1   
 21  12  30  1   
 22  13  14  1   
 23  13  15  1   
 24  13  31  1   
 25  14  16  2   
 26  14  17  1   
 27  15  18  1   
 28  15  19  1   
 29  15  32  1   
 30  16  20  1   
 31  17  21  1   
 32  17  22  1   
 33  18  19  1   
 34  18  33  1   
 35  18  34  1   
 36  19  35  1   
 37  19  36  1   
 38  20  21  2   
 39  20  37  1   
 40  21  38  1   
 41  22  39  1   
 42  22  40  1   
 43  22  41  1   
@<TRIPOS>SUBSTRUCTURE
  1 ****  10 GROUP 4 **** **** 0

# MOE 2024.06 (io_trps.svl 2023.06)
