@<TRIPOS>MOLECULE
NONAME
36 37 1 0 0 
SMALL
USER_CHARGES


@<TRIPOS>ATOM
  1 O        0.4470     0.5500     0.0460 O.co2 1 <1>  -0.9000 
  2 C        0.3880     1.7850     0.0410 C.2   1 <1>   0.8710 
  3 O       -0.6470     2.3990    -0.2350 O.co2 1 <1>  -0.9000 
  4 C        1.6220     2.5640     0.3990 C.3   1 <1>  -0.0710 
  5 C        1.8500     3.7890    -0.5030 C.3   1 <1>   0.2450 
  6 C        2.8870     1.9670    -0.2380 C.3   1 <1>   0.2450 
  7 N        3.2970     3.3730    -0.5820 N.3   1 <1>  -0.5900 
  8 C        4.4150     4.0670    -0.2750 C.ar  1 <1>   0.4100 
  9 N        4.3400     5.3820    -0.1900 N.ar  1 <1>  -0.6200 
 10 C        5.6290     3.3870    -0.0700 C.ar  1 <1>  -0.1500 
 11 C        5.4390     6.0600     0.1030 C.ar  1 <1>   0.7710 
 12 C        6.7420     4.0940     0.2370 C.ar  1 <1>   0.2180 
 13 N        6.6110     5.4390     0.3210 N.ar  1 <1>  -0.1790 
 14 N        5.3860     7.4200     0.1910 N.pl3 1 <1>  -0.8380 
 15 C        8.1050     3.4600     0.4860 C.3   1 <1>  -0.0170 
 16 C        6.5400     8.3680     0.2980 C.3   1 <1>   0.1290 
 17 C        4.0700     8.1380     0.1010 C.3   1 <1>   0.1290 
 18 C        9.1420     3.8910    -0.5590 C.3   1 <1>  -0.2400 
 19 H        1.7280     2.7760     1.4490 H     1 <1>   0.0000 
 20 H        1.7120     4.7290     0.0000 H     1 <1>   0.0000 
 21 H        1.3790     3.7280    -1.4690 H     1 <1>   0.0000 
 22 H        2.7140     1.3890    -1.1290 H     1 <1>   0.0000 
 23 H        3.5480     1.5020     0.4720 H     1 <1>   0.0000 
 24 H        5.6370     2.3170    -0.1670 H     1 <1>   0.1500 
 25 H        7.3850     6.0430     0.5600 H     1 <1>   0.4570 
 26 H        8.0080     2.3870     0.4530 H     1 <1>   0.0800 
 27 H        8.4520     3.7190     1.4720 H     1 <1>   0.0800 
 28 H        7.4710     7.9030     0.0280 H     1 <1>   0.0800 
 29 H        6.6090     8.7480     1.3040 H     1 <1>   0.0800 
 30 H        6.3870     9.2010    -0.3690 H     1 <1>   0.0800 
 31 H        3.2600     7.5200     0.4550 H     1 <1>   0.0800 
 32 H        3.8710     8.4090    -0.9220 H     1 <1>   0.0800 
 33 H        4.0870     9.0310     0.7030 H     1 <1>   0.0800 
 34 H        8.8070     3.6340    -1.5510 H     1 <1>   0.0800 
 35 H       10.0730     3.3790    -0.3800 H     1 <1>   0.0800 
 36 H        9.3300     4.9480    -0.5190 H     1 <1>   0.0800 
@<TRIPOS>BOND
  1   1   2  ar  
  2   2   3  ar  
  3   2   4  1   
  4   4   5  1   
  5   4   6  1   
  6   4  19  1   
  7   5   7  1   
  8   5  20  1   
  9   5  21  1   
 10   6   7  1   
 11   6  22  1   
 12   6  23  1   
 13   7   8  1   
 14   8   9  ar  
 15   8  10  ar  
 16   9  11  ar  
 17  10  12  ar  
 18  10  24  1   
 19  11  13  ar  
 20  11  14  1   
 21  12  13  ar  
 22  12  15  1   
 23  13  25  1   
 24  14  16  1   
 25  14  17  1   
 26  15  18  1   
 27  15  26  1   
 28  15  27  1   
 29  16  28  1   
 30  16  29  1   
 31  16  30  1   
 32  17  31  1   
 33  17  32  1   
 34  17  33  1   
 35  18  34  1   
 36  18  35  1   
 37  18  36  1   
@<TRIPOS>SUBSTRUCTURE
  1 ****   8 GROUP 4 **** **** 0

# MOE 2024.06 (io_trps.svl 2023.06)
