@<TRIPOS>MOLECULE
NONAME
38 40 1 0 0 
SMALL
USER_CHARGES


@<TRIPOS>ATOM
  1 O        1.6060     0.6250    -1.1550 O.3   1 <1>  -0.0190 
  2 N        0.8440     1.6700    -1.2650 N.2   1 <1>  -0.4100 
  3 C        1.5650     0.3340     0.1220 C.2   1 <1>   0.2980 
  4 C        0.3960     1.9370    -0.1010 C.2   1 <1>   0.3350 
  5 N        0.8350     1.1030     0.8330 N.2   1 <1>  -0.5650 
  6 C        2.3760    -0.8590     0.6390 C.3   1 <1>   0.4690 
  7 C       -0.5430     3.0910     0.2580 C.3   1 <1>   0.1010 
  8 N        2.1570    -2.1290    -0.1130 N.pl3 1 <1>  -0.8380 
  9 C        3.8840    -0.6140     0.5430 C.3   1 <1>  -0.1600 
 10 C       -1.4500     3.4970    -0.9140 C.3   1 <1>  -0.2400 
 11 C        0.2570     4.3050     0.7490 C.3   1 <1>  -0.2400 
 12 C        0.9610    -2.8310    -0.1690 C.ar  1 <1>   0.4100 
 13 C        3.4520    -2.7480    -0.4890 C.3   1 <1>   0.2090 
 14 C        4.4960    -1.9940     0.3230 C.3   1 <1>  -0.1600 
 15 N        0.9830    -3.9480    -0.8830 N.ar  1 <1>  -0.6200 
 16 C       -0.1910    -2.3840     0.4810 C.ar  1 <1>  -0.1500 
 17 C       -0.1470    -4.6450    -0.9770 C.ar  1 <1>   0.3830 
 18 C       -1.3610    -3.0970     0.3920 C.ar  1 <1>  -0.1500 
 19 C       -0.1440    -5.8610    -1.7500 C.1   1 <1>   0.4840 
 20 C       -1.3260    -4.2520    -0.3580 C.ar  1 <1>  -0.1500 
 21 N       -0.1930    -6.8350    -2.3460 N.1   1 <1>  -0.5570 
 22 H        2.1200    -1.0310     1.6700 H     1 <1>   0.0800 
 23 H       -1.1740     2.7530     1.0620 H     1 <1>   0.0800 
 24 H        4.0930     0.0090    -0.3100 H     1 <1>   0.0800 
 25 H        4.2610    -0.1310     1.4260 H     1 <1>   0.0800 
 26 H       -0.8610     3.8650    -1.7360 H     1 <1>   0.0800 
 27 H       -2.1380     4.2650    -0.6090 H     1 <1>   0.0800 
 28 H       -2.0130     2.6460    -1.2540 H     1 <1>   0.0800 
 29 H        0.9070     4.6610    -0.0300 H     1 <1>   0.0800 
 30 H        0.8590     4.0280     1.5970 H     1 <1>   0.0800 
 31 H       -0.4050     5.0990     1.0430 H     1 <1>   0.0800 
 32 H        3.4690    -3.8010    -0.2630 H     1 <1>   0.0800 
 33 H        3.6120    -2.6050    -1.5450 H     1 <1>   0.0800 
 34 H        4.6300    -2.4940     1.2670 H     1 <1>   0.0800 
 35 H        5.4420    -1.9500    -0.1880 H     1 <1>   0.0800 
 36 H       -0.1790    -1.4800     1.0560 H     1 <1>   0.1500 
 37 H       -2.2620    -2.7680     0.8830 H     1 <1>   0.1500 
 38 H       -2.2150    -4.8490    -0.4640 H     1 <1>   0.1500 
@<TRIPOS>BOND
  1   1   2  1   
  2   1   3  1   
  3   2   4  2   
  4   3   5  2   
  5   3   6  1   
  6   4   5  1   
  7   4   7  1   
  8   6   8  1   
  9   6   9  1   
 10   6  22  1   
 11   7  10  1   
 12   7  11  1   
 13   7  23  1   
 14   8  12  1   
 15   8  13  1   
 16   9  14  1   
 17   9  24  1   
 18   9  25  1   
 19  10  26  1   
 20  10  27  1   
 21  10  28  1   
 22  11  29  1   
 23  11  30  1   
 24  11  31  1   
 25  12  15  ar  
 26  12  16  ar  
 27  13  14  1   
 28  13  32  1   
 29  13  33  1   
 30  14  34  1   
 31  14  35  1   
 32  15  17  ar  
 33  16  18  ar  
 34  16  36  1   
 35  17  19  1   
 36  17  20  ar  
 37  18  20  ar  
 38  18  37  1   
 39  19  21  3   
 40  20  38  1   
@<TRIPOS>SUBSTRUCTURE
  1 ****   8 GROUP 4 **** **** 0

# MOE 2024.06 (io_trps.svl 2023.06)
