@<TRIPOS>MOLECULE
NONAME
45 48 1 0 0 
SMALL
USER_CHARGES


@<TRIPOS>ATOM
  1 O       -0.1840    -0.2770    -0.5020 O.2   1 <1>  -0.5700 
  2 C       -0.8440    -1.1850    -0.0410 C.2   1 <1>   0.5440 
  3 N       -1.4010    -0.9460     1.1650 N.am  1 <1>  -0.8000 
  4 C       -0.9980    -2.4460    -0.7370 C.ar  1 <1>   0.0860 
  5 C       -2.0690    -3.3420    -0.5050 C.ar  1 <1>   0.4100 
  6 C       -0.0490    -2.8200    -1.6810 C.ar  1 <1>  -0.1500 
  7 N       -2.1880    -4.5210    -1.1160 N.ar  1 <1>  -0.6200 
  8 N       -3.1180    -3.0450     0.3520 N.pl3 1 <1>  -0.8380 
  9 C       -0.1860    -4.0320    -2.3160 C.ar  1 <1>  -0.1500 
 10 C       -1.2610    -4.8370    -1.9950 C.ar  1 <1>   0.1600 
 11 C       -4.2200    -2.2310    -0.2700 C.3   1 <1>   0.2090 
 12 C       -3.5510    -4.0910     1.3370 C.3   1 <1>   0.2090 
 13 C       -5.4570    -2.0960     0.6390 C.3   1 <1>   0.1440 
 14 C       -4.9550    -4.6070     1.0080 C.3   1 <1>  -0.1600 
 15 C       -6.4640    -1.2040    -0.0690 C.ar  1 <1>   0.1670 
 16 C       -6.0290    -3.4990     0.9730 C.3   1 <1>  -0.1600 
 17 C       -5.1350    -1.2660     1.9180 C.3   1 <1>  -0.1600 
 18 N       -7.1970    -1.5500    -1.1040 N.ar  1 <1>  -0.6200 
 19 C       -6.5110     0.0420     0.4810 C.ar  1 <1>  -0.1430 
 20 C       -5.5520     0.1870     1.6330 C.3   1 <1>  -0.0170 
 21 C       -7.9960    -0.5950    -1.5580 C.ar  1 <1>   0.4770 
 22 C       -7.3750     0.9560    -0.0690 C.ar  1 <1>   0.1600 
 23 N       -8.1330     0.6420    -1.1000 N.ar  1 <1>  -0.6200 
 24 C       -8.8560    -0.9690    -2.7410 C.3   1 <1>  -0.0970 
 25 H       -1.3070    -0.0300     1.6010 H     1 <1>   0.3700 
 26 H       -2.1190    -1.5940     1.5060 H     1 <1>   0.3700 
 27 H        0.7800    -2.1700    -1.9050 H     1 <1>   0.1500 
 28 H        0.5310    -4.3520    -3.0510 H     1 <1>   0.1500 
 29 H       -1.3620    -5.7880    -2.4910 H     1 <1>   0.1500 
 30 H       -4.5200    -2.7020    -1.1910 H     1 <1>   0.0800 
 31 H       -3.8430    -1.2520    -0.5140 H     1 <1>   0.0800 
 32 H       -3.5420    -3.6700     2.3270 H     1 <1>   0.0800 
 33 H       -2.8560    -4.9150     1.3290 H     1 <1>   0.0800 
 34 H       -5.2370    -5.3620     1.7200 H     1 <1>   0.0800 
 35 H       -4.9050    -5.0830     0.0430 H     1 <1>   0.0800 
 36 H       -6.7480    -3.7790     0.2220 H     1 <1>   0.0800 
 37 H       -6.5610    -3.4730     1.9060 H     1 <1>   0.0800 
 38 H       -4.1010    -1.3240     2.2030 H     1 <1>   0.0800 
 39 H       -5.7280    -1.6190     2.7420 H     1 <1>   0.0800 
 40 H       -4.7030     0.7730     1.3250 H     1 <1>   0.0800 
 41 H       -6.0210     0.6400     2.4890 H     1 <1>   0.0800 
 42 H       -7.4470     1.9520     0.3330 H     1 <1>   0.1500 
 43 H       -8.2640    -1.4930    -3.4670 H     1 <1>   0.0800 
 44 H       -9.2710    -0.0890    -3.1970 H     1 <1>   0.0800 
 45 H       -9.6550    -1.6050    -2.4100 H     1 <1>   0.0800 
@<TRIPOS>BOND
  1   1   2  2   
  2   2   3  am  
  3   2   4  1   
  4   3  25  1   
  5   3  26  1   
  6   4   5  ar  
  7   4   6  ar  
  8   5   7  ar  
  9   5   8  1   
 10   6   9  ar  
 11   6  27  1   
 12   7  10  ar  
 13   8  11  1   
 14   8  12  1   
 15   9  10  ar  
 16   9  28  1   
 17  10  29  1   
 18  11  13  1   
 19  11  30  1   
 20  11  31  1   
 21  12  14  1   
 22  12  32  1   
 23  12  33  1   
 24  13  15  1   
 25  13  16  1   
 26  13  17  1   
 27  14  16  1   
 28  14  34  1   
 29  14  35  1   
 30  15  18  ar  
 31  15  19  ar  
 32  16  36  1   
 33  16  37  1   
 34  17  20  1   
 35  17  38  1   
 36  17  39  1   
 37  18  21  ar  
 38  19  20  1   
 39  19  22  ar  
 40  20  40  1   
 41  20  41  1   
 42  21  23  ar  
 43  21  24  1   
 44  22  23  ar  
 45  22  42  1   
 46  24  43  1   
 47  24  44  1   
 48  24  45  1   
@<TRIPOS>SUBSTRUCTURE
  1 ****  11 GROUP 4 **** **** 0

# MOE 2024.06 (io_trps.svl 2023.06)
