@<TRIPOS>MOLECULE
NONAME
44 45 1 0 0 
SMALL
USER_CHARGES


@<TRIPOS>ATOM
  1 O       -0.5970    -0.3050     1.3290 O.3   1 <1>  -0.5600 
  2 C       -0.2760     1.0580     1.2360 C.3   1 <1>   0.1200 
  3 C        0.4630    -1.0990     1.7500 C.3   1 <1>   0.0400 
  4 C       -1.4740     1.9030     0.7370 C.3   1 <1>   0.3690 
  5 N       -1.1880     3.3570     0.8350 N.pl3 1 <1>  -0.8690 
  6 C       -1.9480     1.5710    -0.6800 C.3   1 <1>  -0.1600 
  7 C       -2.7530     1.6810     1.5530 C.3   1 <1>  -0.1600 
  8 C       -0.2900     4.0800     0.0860 C.ar  1 <1>   0.4100 
  9 C       -3.3860     2.0970    -0.7780 C.3   1 <1>  -0.1600 
 10 C       -3.9140     2.1460     0.6620 C.3   1 <1>  -0.1600 
 11 N        0.7670     3.4510    -0.3830 N.ar  1 <1>  -0.6200 
 12 C       -0.4950     5.4330    -0.1590 C.ar  1 <1>  -0.1430 
 13 C        1.6050     4.1720    -1.0950 C.ar  1 <1>   0.4770 
 14 C        0.4600     6.0690    -0.9160 C.ar  1 <1>   0.1600 
 15 C       -1.7350     6.1390     0.4030 C.3   1 <1>  -0.0170 
 16 N        1.5200     5.4520    -1.3960 N.ar  1 <1>  -0.6200 
 17 C        2.8140     3.4450    -1.6310 C.3   1 <1>  -0.0970 
 18 C       -1.8550     7.6320     0.0630 C.3   1 <1>  -0.1600 
 19 C       -3.1250     8.2400     0.6660 C.3   1 <1>  -0.2400 
 20 H        0.5470     1.1540     0.5530 H     1 <1>   0.0800 
 21 H        0.0200     1.4040     2.2100 H     1 <1>   0.0800 
 22 H        0.1220    -2.1180     1.7920 H     1 <1>   0.0800 
 23 H        0.7790    -0.7800     2.7280 H     1 <1>   0.0800 
 24 H        1.2710    -1.0150     1.0440 H     1 <1>   0.0800 
 25 H       -2.0390     3.8550     1.0790 H     1 <1>   0.4000 
 26 H       -1.9630     0.5010    -0.7950 H     1 <1>   0.0800 
 27 H       -1.3040     1.9810    -1.4370 H     1 <1>   0.0800 
 28 H       -2.7230     2.1840     2.5020 H     1 <1>   0.0800 
 29 H       -2.8770     0.6280     1.7360 H     1 <1>   0.0800 
 30 H       -3.9870     1.4590    -1.4020 H     1 <1>   0.0800 
 31 H       -3.3780     3.0890    -1.1960 H     1 <1>   0.0800 
 32 H       -4.1980     3.1530     0.9130 H     1 <1>   0.0800 
 33 H       -4.7690     1.5020     0.7860 H     1 <1>   0.0800 
 34 H        0.3760     7.1150    -1.1500 H     1 <1>   0.1500 
 35 H       -1.7260     6.0320     1.4740 H     1 <1>   0.0800 
 36 H       -2.6080     5.6340     0.0280 H     1 <1>   0.0800 
 37 H        2.5890     2.4040    -1.7690 H     1 <1>   0.0800 
 38 H        3.6220     3.5430    -0.9320 H     1 <1>   0.0800 
 39 H        3.1090     3.8660    -2.5740 H     1 <1>   0.0800 
 40 H       -1.8830     7.7590    -1.0060 H     1 <1>   0.0800 
 41 H       -0.9990     8.1600     0.4480 H     1 <1>   0.0800 
 42 H       -4.0010     7.7460     0.2820 H     1 <1>   0.0800 
 43 H       -3.1870     9.2850     0.4160 H     1 <1>   0.0800 
 44 H       -3.1170     8.1480     1.7380 H     1 <1>   0.0800 
@<TRIPOS>BOND
  1   1   2  1   
  2   1   3  1   
  3   2   4  1   
  4   2  20  1   
  5   2  21  1   
  6   3  22  1   
  7   3  23  1   
  8   3  24  1   
  9   4   5  1   
 10   4   6  1   
 11   4   7  1   
 12   5   8  1   
 13   5  25  1   
 14   6   9  1   
 15   6  26  1   
 16   6  27  1   
 17   7  10  1   
 18   7  28  1   
 19   7  29  1   
 20   8  11  ar  
 21   8  12  ar  
 22   9  10  1   
 23   9  30  1   
 24   9  31  1   
 25  10  32  1   
 26  10  33  1   
 27  11  13  ar  
 28  12  14  ar  
 29  12  15  1   
 30  13  16  ar  
 31  13  17  1   
 32  14  16  ar  
 33  14  34  1   
 34  15  18  1   
 35  15  35  1   
 36  15  36  1   
 37  17  37  1   
 38  17  38  1   
 39  17  39  1   
 40  18  19  1   
 41  18  40  1   
 42  18  41  1   
 43  19  42  1   
 44  19  43  1   
 45  19  44  1   
@<TRIPOS>SUBSTRUCTURE
  1 ****   8 GROUP 4 **** **** 0

# MOE 2024.06 (io_trps.svl 2023.06)
