@<TRIPOS>MOLECULE
NONAME
42 43 1 0 0 
SMALL
USER_CHARGES


@<TRIPOS>ATOM
  1 S       -0.0110    -0.0580    -1.1370 S.o2  1 <1>   1.3330 
  2 O       -0.8660    -1.1970    -0.8920 O.2   1 <1>  -0.6500 
  3 O        0.6240     0.0990    -2.4270 O.2   1 <1>  -0.6500 
  4 N        1.2010    -0.0620     0.0540 N.am  1 <1>  -0.8490 
  5 C       -0.9250     1.4460    -0.7920 C.3   1 <1>  -0.0550 
  6 C        2.4400    -0.6990    -0.4050 C.3   1 <1>   0.1160 
  7 C        0.7720    -0.6590     1.3230 C.3   1 <1>   0.1160 
  8 C       -0.1540     2.7480    -1.1070 C.3   1 <1>  -0.0800 
  9 C       -0.9980     4.0190    -0.9860 C.3   1 <1>   0.2000 
 10 C        1.0600     3.0170    -0.2070 C.3   1 <1>   0.1400 
 11 O       -1.7280     3.9680     0.1920 O.3   1 <1>  -0.6800 
 12 C        0.0390     5.1310    -0.8510 C.3   1 <1>   0.1400 
 13 N        1.1570     4.4980    -0.1030 N.am  1 <1>  -0.6600 
 14 C        2.3180     5.1350     0.2800 C.2   1 <1>   0.5440 
 15 O        3.2860     4.4540     0.5580 O.2   1 <1>  -0.5700 
 16 C        2.4200     6.5730     0.3420 C.ar  1 <1>   0.0860 
 17 C        3.4790     7.2300    -0.2810 C.ar  1 <1>   0.1600 
 18 C        1.4990     7.3690     1.0190 C.ar  1 <1>  -0.1500 
 19 N        3.6720     8.5380    -0.3180 N.ar  1 <1>  -0.6200 
 20 C        1.6840     8.7300     0.9970 C.ar  1 <1>  -0.1500 
 21 C        2.7730     9.2660     0.3160 C.ar  1 <1>   0.4100 
 22 N        2.9940    10.5980     0.2680 N.pl3 1 <1>  -0.9000 
 23 H       -1.8160     1.4380    -1.3890 H     1 <1>   0.0800 
 24 H       -1.2340     1.4450     0.2350 H     1 <1>   0.0800 
 25 H        3.1860    -0.6660     0.3710 H     1 <1>   0.0800 
 26 H        2.8280    -0.1760    -1.2640 H     1 <1>   0.0800 
 27 H        2.2550    -1.7250    -0.6780 H     1 <1>   0.0800 
 28 H        1.5420    -0.5420     2.0660 H     1 <1>   0.0800 
 29 H        0.5650    -1.7090     1.1940 H     1 <1>   0.0800 
 30 H       -0.1210    -0.1730     1.6790 H     1 <1>   0.0800 
 31 H        0.2050     2.6940    -2.1210 H     1 <1>   0.0800 
 32 H       -1.6780     4.1670    -1.8080 H     1 <1>   0.0800 
 33 H        1.9590     2.5990    -0.6300 H     1 <1>   0.0800 
 34 H        0.9130     2.6080     0.7780 H     1 <1>   0.0800 
 35 H       -1.1040     3.9990     0.9460 H     1 <1>   0.4000 
 36 H       -0.3690     5.9850    -0.3420 H     1 <1>   0.0800 
 37 H        0.3920     5.4240    -1.8250 H     1 <1>   0.0800 
 38 H        4.2110     6.6190    -0.7840 H     1 <1>   0.1500 
 39 H        0.6730     6.9230     1.5440 H     1 <1>   0.1500 
 40 H        1.0010     9.3910     1.4950 H     1 <1>   0.1500 
 41 H        3.8890    10.8560    -0.1510 H     1 <1>   0.4000 
 42 H        2.7110    11.1850     1.0510 H     1 <1>   0.4000 
@<TRIPOS>BOND
  1   1   2  2   
  2   1   3  2   
  3   1   4  am  
  4   1   5  1   
  5   4   6  1   
  6   4   7  1   
  7   5   8  1   
  8   5  23  1   
  9   5  24  1   
 10   6  25  1   
 11   6  26  1   
 12   6  27  1   
 13   7  28  1   
 14   7  29  1   
 15   7  30  1   
 16   8   9  1   
 17   8  10  1   
 18   8  31  1   
 19   9  11  1   
 20   9  12  1   
 21   9  32  1   
 22  10  13  1   
 23  10  33  1   
 24  10  34  1   
 25  11  35  1   
 26  12  13  1   
 27  12  36  1   
 28  12  37  1   
 29  13  14  am  
 30  14  15  2   
 31  14  16  1   
 32  16  17  ar  
 33  16  18  ar  
 34  17  19  ar  
 35  17  38  1   
 36  18  20  ar  
 37  18  39  1   
 38  19  21  ar  
 39  20  21  ar  
 40  20  40  1   
 41  21  22  1   
 42  22  41  1   
 43  22  42  1   
@<TRIPOS>SUBSTRUCTURE
  1 ****  13 GROUP 4 **** **** 0

# MOE 2024.06 (io_trps.svl 2023.06)
