@<TRIPOS>MOLECULE
NONAME
54 57 1 0 0 
SMALL
USER_CHARGES


@<TRIPOS>ATOM
  1 O       -0.3460    -0.9430    -1.7680 O.3   1 <1>  -0.5600 
  2 C        0.0380    -2.1560    -1.1750 C.3   1 <1>   0.1200 
  3 C        0.7050    -0.2730    -2.3960 C.3   1 <1>   0.1200 
  4 C        1.1540    -1.9390    -0.1300 C.3   1 <1>   0.3340 
  5 C        1.8050     0.0570    -1.3690 C.3   1 <1>   0.1900 
  6 N        2.2920    -1.1830    -0.7150 N.3   1 <1>  -0.8100 
  7 C        1.6290    -3.2880     0.4070 C.ar  1 <1>  -0.1430 
  8 C        2.9720     0.8040    -2.0520 C.3   1 <1>   0.3430 
  9 C        3.3320    -0.8760     0.2940 C.3   1 <1>   0.1100 
 10 C        2.3760    -4.1470    -0.3880 C.ar  1 <1>  -0.1500 
 11 C        1.3180    -3.6690     1.7040 C.ar  1 <1>  -0.1500 
 12 N        4.0990     1.0740    -1.0980 N.4   1 <1>  -0.9590 
 13 C        4.5310    -0.1480    -0.3440 C.3   1 <1>   0.3430 
 14 C        2.8070    -5.3660     0.1060 C.ar  1 <1>  -0.1500 
 15 C        1.7490    -4.8870     2.2000 C.ar  1 <1>  -0.1500 
 16 C        5.2520     1.7790    -1.7060 C.3   1 <1>   0.5240 
 17 C        2.4940    -5.7360     1.4010 C.ar  1 <1>  -0.1500 
 18 C        5.9470     2.5260    -0.5770 C.2   1 <1>   0.0460 
 19 N        5.1970     3.1180     0.3800 N.2   1 <1>  -0.5650 
 20 C        7.2660     2.7030    -0.3370 C.2   1 <1>  -0.3320 
 21 C        6.0680     3.6540     1.1710 C.2   1 <1>   0.0060 
 22 N        7.3450     3.4360     0.7900 N.pl3 1 <1>   0.0330 
 23 C        8.5020     2.2430    -1.0950 C.3   1 <1>  -0.0600 
 24 C        5.7130     4.4570     2.4110 C.3   1 <1>   0.0200 
 25 C        6.0710     5.9370     2.2410 C.3   1 <1>  -0.2400 
 26 H       -0.8300    -2.5810    -0.7020 H     1 <1>   0.0800 
 27 H        0.3680    -2.8270    -1.9470 H     1 <1>   0.0800 
 28 H        1.0850    -0.8970    -3.1860 H     1 <1>   0.0800 
 29 H        0.3010     0.6270    -2.8240 H     1 <1>   0.0800 
 30 H        0.7330    -1.3700     0.6820 H     1 <1>   0.0800 
 31 H        1.3730     0.7090    -0.6280 H     1 <1>   0.0800 
 32 H        2.6070     1.7330    -2.4580 H     1 <1>   0.0800 
 33 H        3.3280     0.1970    -2.8670 H     1 <1>   0.0800 
 34 H        2.9190    -0.2710     1.0820 H     1 <1>   0.0800 
 35 H        3.6930    -1.7900     0.7350 H     1 <1>   0.0800 
 36 H        2.6270    -3.8640    -1.3950 H     1 <1>   0.1500 
 37 H        0.7370    -3.0230     2.3400 H     1 <1>   0.1500 
 38 H        3.7970     1.7580    -0.3790 H     1 <1>   0.4500 
 39 H        5.0250    -0.8340    -1.0120 H     1 <1>   0.0800 
 40 H        5.2300     0.1290     0.4290 H     1 <1>   0.0800 
 41 H        3.3840    -6.0270    -0.5170 H     1 <1>   0.1500 
 42 H        1.5030    -5.1770     3.2070 H     1 <1>   0.1500 
 43 H        5.9260     1.0900    -2.1860 H     1 <1>   0.0800 
 44 H        4.9050     2.5010    -2.4270 H     1 <1>   0.0800 
 45 H        2.8280    -6.6840     1.7860 H     1 <1>   0.1500 
 46 H        8.1890     3.7750     1.2640 H     1 <1>   0.2700 
 47 H        8.2320     1.6760    -1.9670 H     1 <1>   0.0800 
 48 H        9.1170     1.6270    -0.4630 H     1 <1>   0.0800 
 49 H        9.0790     3.0950    -1.4110 H     1 <1>   0.0800 
 50 H        4.6560     4.3690     2.5940 H     1 <1>   0.0800 
 51 H        6.2300     4.0510     3.2630 H     1 <1>   0.0800 
 52 H        5.5560     6.3420     1.3870 H     1 <1>   0.0800 
 53 H        7.1290     6.0600     2.0980 H     1 <1>   0.0800 
 54 H        5.7750     6.4900     3.1140 H     1 <1>   0.0800 
@<TRIPOS>BOND
  1   1   2  1   
  2   1   3  1   
  3   2   4  1   
  4   2  26  1   
  5   2  27  1   
  6   3   5  1   
  7   3  28  1   
  8   3  29  1   
  9   4   6  1   
 10   4   7  1   
 11   4  30  1   
 12   5   6  1   
 13   5   8  1   
 14   5  31  1   
 15   6   9  1   
 16   7  10  ar  
 17   7  11  ar  
 18   8  12  1   
 19   8  32  1   
 20   8  33  1   
 21   9  13  1   
 22   9  34  1   
 23   9  35  1   
 24  10  14  ar  
 25  10  36  1   
 26  11  15  ar  
 27  11  37  1   
 28  12  13  1   
 29  12  16  1   
 30  12  38  1   
 31  13  39  1   
 32  13  40  1   
 33  14  17  ar  
 34  14  41  1   
 35  15  17  ar  
 36  15  42  1   
 37  16  18  1   
 38  16  43  1   
 39  16  44  1   
 40  17  45  1   
 41  18  19  1   
 42  18  20  2   
 43  19  21  2   
 44  20  22  1   
 45  20  23  1   
 46  21  22  1   
 47  21  24  1   
 48  22  46  1   
 49  23  47  1   
 50  23  48  1   
 51  23  49  1   
 52  24  25  1   
 53  24  50  1   
 54  24  51  1   
 55  25  52  1   
 56  25  53  1   
 57  25  54  1   
@<TRIPOS>SUBSTRUCTURE
  1 ****   9 GROUP 4 **** **** 0

# MOE 2024.06 (io_trps.svl 2023.06)
