@<TRIPOS>MOLECULE
NONAME
41 42 1 0 0 
SMALL
USER_CHARGES


@<TRIPOS>ATOM
  1 O       -1.2880    -0.3230    -0.5170 O.2   1 <1>  -0.5700 
  2 C       -2.1570     0.5180    -0.6720 C.2   1 <1>   0.5440 
  3 N       -3.3760     0.1180    -1.1780 N.am  1 <1>  -0.6600 
  4 C       -1.8890     1.8910    -0.2820 C.ar  1 <1>   0.0860 
  5 C       -3.5160    -1.2180    -1.8190 C.3   1 <1>   0.3200 
  6 C       -4.6600     0.7570    -0.7480 C.3   1 <1>   0.1400 
  7 C       -2.3130     2.9890    -1.0160 C.ar  1 <1>  -0.1500 
  8 C       -1.1750     2.1990     0.8660 C.ar  1 <1>  -0.1500 
  9 C       -3.8890    -2.2300    -0.7600 C.2   1 <1>  -0.3320 
 10 C       -5.4600     1.2690    -1.9510 C.3   1 <1>   0.1200 
 11 C       -2.0430     4.2730    -0.5790 C.ar  1 <1>   0.1670 
 12 C       -0.9480     3.5150     1.2220 C.ar  1 <1>   0.1660 
 13 N       -3.0760    -2.4940     0.2760 N.pl3 1 <1>   0.0330 
 14 C       -4.9760    -3.0150    -0.6010 C.2   1 <1>   0.0770 
 15 O       -6.5320     2.0250    -1.5030 O.3   1 <1>  -0.6800 
 16 N       -1.3750     4.5520     0.5240 N.ar  1 <1>  -0.6200 
 17 C       -2.5220     5.4670    -1.3770 C.3   1 <1>  -0.0970 
 18 C       -0.1700     3.8440     2.4770 C.3   1 <1>  -0.0970 
 19 C       -3.7250    -3.4230     1.0090 C.2   1 <1>   0.0070 
 20 N       -4.8710    -3.7610     0.5150 N.2   1 <1>  -0.5650 
 21 C       -3.1520    -4.0010     2.2840 C.3   1 <1>  -0.0600 
 22 H       -2.5860    -1.5040    -2.2820 H     1 <1>   0.0800 
 23 H       -4.2690    -1.1860    -2.5860 H     1 <1>   0.0800 
 24 H       -4.4570     1.5790    -0.0850 H     1 <1>   0.0800 
 25 H       -5.2460     0.0340    -0.2070 H     1 <1>   0.0800 
 26 H       -2.8510     2.8370    -1.9310 H     1 <1>   0.1500 
 27 H       -0.7970     1.3990     1.4750 H     1 <1>   0.1500 
 28 H       -5.8460     0.4570    -2.5410 H     1 <1>   0.0800 
 29 H       -4.8510     1.9070    -2.5670 H     1 <1>   0.0800 
 30 H       -2.1650    -2.0450     0.4450 H     1 <1>   0.2700 
 31 H       -5.8440    -3.0890    -1.2340 H     1 <1>   0.1500 
 32 H       -7.1790     1.4720    -1.0200 H     1 <1>   0.4000 
 33 H       -3.0650     5.1620    -2.2520 H     1 <1>   0.0800 
 34 H       -1.6760     6.0580    -1.6790 H     1 <1>   0.0800 
 35 H       -3.1630     6.0730    -0.7640 H     1 <1>   0.0800 
 36 H        0.1450     2.9520     2.9870 H     1 <1>   0.0800 
 37 H       -0.7850     4.4260     3.1390 H     1 <1>   0.0800 
 38 H        0.6990     4.4220     2.2180 H     1 <1>   0.0800 
 39 H       -2.2210    -4.4960     2.0780 H     1 <1>   0.0800 
 40 H       -3.8400    -4.7170     2.6990 H     1 <1>   0.0800 
 41 H       -2.9900    -3.2200     3.0030 H     1 <1>   0.0800 
@<TRIPOS>BOND
  1   1   2  2   
  2   2   3  am  
  3   2   4  1   
  4   3   5  1   
  5   3   6  1   
  6   4   7  ar  
  7   4   8  ar  
  8   5   9  1   
  9   5  22  1   
 10   5  23  1   
 11   6  10  1   
 12   6  24  1   
 13   6  25  1   
 14   7  11  ar  
 15   7  26  1   
 16   8  12  ar  
 17   8  27  1   
 18   9  13  1   
 19   9  14  2   
 20  10  15  1   
 21  10  28  1   
 22  10  29  1   
 23  11  16  ar  
 24  11  17  1   
 25  12  16  ar  
 26  12  18  1   
 27  13  19  1   
 28  13  30  1   
 29  14  20  1   
 30  14  31  1   
 31  15  32  1   
 32  17  33  1   
 33  17  34  1   
 34  17  35  1   
 35  18  36  1   
 36  18  37  1   
 37  18  38  1   
 38  19  20  2   
 39  19  21  1   
 40  21  39  1   
 41  21  40  1   
 42  21  41  1   
@<TRIPOS>SUBSTRUCTURE
  1 ****   2 GROUP 4 **** **** 0

# MOE 2024.06 (io_trps.svl 2023.06)
