@<TRIPOS>MOLECULE
NONAME
39 40 1 0 0 
SMALL
USER_CHARGES


@<TRIPOS>ATOM
  1 O       -1.4510    -0.4260    -0.2900 O.2   1 <1>  -0.5700 
  2 C       -2.1430     0.3300     0.3580 C.2   1 <1>   0.5690 
  3 N       -3.0530    -0.1710     1.2570 N.am  1 <1>  -0.6600 
  4 C       -1.9770     1.8360     0.1050 C.3   1 <1>  -0.0190 
  5 C       -3.1380    -1.6470     1.4670 C.3   1 <1>   0.3200 
  6 C       -4.1490     0.6050     1.9120 C.3   1 <1>   0.1400 
  7 C       -2.2160     2.1870    -1.3780 C.3   1 <1>  -0.1600 
  8 C       -0.5840     2.3200     0.5520 C.3   1 <1>  -0.1600 
  9 C       -4.0140    -2.2690     0.3940 C.2   1 <1>   0.0060 
 10 C       -5.2960     0.8590     0.9260 C.3   1 <1>   0.1200 
 11 C       -2.0350     3.6890    -1.6370 C.3   1 <1>  -0.1600 
 12 C       -0.3980     3.8220     0.2930 C.3   1 <1>  -0.1600 
 13 N       -5.1690    -2.8200     0.5930 N.2   1 <1>  -0.5650 
 14 N       -3.6260    -2.2710    -0.8980 N.pl3 1 <1>   0.0330 
 15 O       -6.2950     1.5770     1.5670 O.3   1 <1>  -0.6800 
 16 C       -0.6490     4.1660    -1.1810 C.3   1 <1>  -0.1600 
 17 C       -5.5530    -3.2080    -0.6400 C.2   1 <1>   0.0770 
 18 C       -4.6240    -2.8790    -1.5640 C.2   1 <1>  -0.3020 
 19 H       -2.6990     2.3850     0.6750 H     1 <1>   0.0800 
 20 H       -3.5480    -1.8650     2.4370 H     1 <1>   0.0800 
 21 H       -2.1550    -2.0820     1.4230 H     1 <1>   0.0800 
 22 H       -3.7700     1.5400     2.2830 H     1 <1>   0.0800 
 23 H       -4.5280     0.0510     2.7530 H     1 <1>   0.0800 
 24 H       -3.2090     1.8910    -1.6640 H     1 <1>   0.0800 
 25 H       -1.5200     1.6390    -1.9910 H     1 <1>   0.0800 
 26 H        0.1720     1.7720     0.0160 H     1 <1>   0.0800 
 27 H       -0.4520     2.1180     1.6010 H     1 <1>   0.0800 
 28 H       -5.7200    -0.0650     0.5700 H     1 <1>   0.0800 
 29 H       -4.9560     1.4470     0.0930 H     1 <1>   0.0800 
 30 H       -2.7940     4.2390    -1.1060 H     1 <1>   0.0800 
 31 H       -2.1570     3.8910    -2.6870 H     1 <1>   0.0800 
 32 H        0.6030     4.1130     0.5640 H     1 <1>   0.0800 
 33 H       -1.0810     4.3800     0.9100 H     1 <1>   0.0800 
 34 H       -2.7510    -1.8550    -1.2480 H     1 <1>   0.2700 
 35 H       -6.8400     0.9850     2.1210 H     1 <1>   0.4000 
 36 H       -0.5690     5.2300    -1.3230 H     1 <1>   0.0800 
 37 H        0.1050     3.6950    -1.7890 H     1 <1>   0.0800 
 38 H       -6.4920    -3.7100    -0.8000 H     1 <1>   0.1500 
 39 H       -4.6170    -3.0380    -2.6270 H     1 <1>   0.1500 
@<TRIPOS>BOND
  1   1   2  2   
  2   2   3  am  
  3   2   4  1   
  4   3   5  1   
  5   3   6  1   
  6   4   7  1   
  7   4   8  1   
  8   4  19  1   
  9   5   9  1   
 10   5  20  1   
 11   5  21  1   
 12   6  10  1   
 13   6  22  1   
 14   6  23  1   
 15   7  11  1   
 16   7  24  1   
 17   7  25  1   
 18   8  12  1   
 19   8  26  1   
 20   8  27  1   
 21   9  13  2   
 22   9  14  1   
 23  10  15  1   
 24  10  28  1   
 25  10  29  1   
 26  11  16  1   
 27  11  30  1   
 28  11  31  1   
 29  12  16  1   
 30  12  32  1   
 31  12  33  1   
 32  13  17  1   
 33  14  18  1   
 34  14  34  1   
 35  15  35  1   
 36  16  36  1   
 37  16  37  1   
 38  17  18  2   
 39  17  38  1   
 40  18  39  1   
@<TRIPOS>SUBSTRUCTURE
  1 ****   2 GROUP 4 **** **** 0

# MOE 2024.06 (io_trps.svl 2023.06)
