@<TRIPOS>MOLECULE
NONAME
51 53 1 0 0 
SMALL
USER_CHARGES


@<TRIPOS>ATOM
  1 O       -1.5290    -0.9770     0.2480 O.2   1 <1>  -0.5700 
  2 C       -0.6620    -1.8360     0.3160 C.2   1 <1>   0.7670 
  3 N        0.2450    -1.7260     1.3320 N.2   1 <1>  -0.6610 
  4 C       -0.5990    -2.9180    -0.6210 C.2   1 <1>  -0.1240 
  5 C        1.1700    -2.6040     1.4020 C.2   1 <1>   0.4390 
  6 C        0.4120    -3.8180    -0.5040 C.2   1 <1>  -0.0380 
  7 C       -1.6850    -3.0210    -1.6990 C.3   1 <1>   0.0390 
  8 N        1.2920    -3.6370     0.5250 N.pl3 1 <1>  -0.5500 
  9 C        2.1980    -2.5250     2.5020 C.3   1 <1>  -0.1790 
 10 C        0.6800    -5.0260    -1.3880 C.3   1 <1>  -0.1020 
 11 C       -2.6050    -4.2140    -1.4660 C.2   1 <1>   0.5690 
 12 O       -2.5490    -5.1080    -2.2790 O.2   1 <1>  -0.5700 
 13 N       -3.4470    -4.2950    -0.3810 N.am  1 <1>  -0.6600 
 14 C       -4.0870    -5.6090    -0.0580 C.3   1 <1>   0.1400 
 15 C       -3.7610    -3.1380     0.5130 C.3   1 <1>   0.1400 
 16 C       -5.4620    -5.7220    -0.7240 C.3   1 <1>   0.1400 
 17 C       -5.1990    -3.1030     1.0490 C.3   1 <1>  -0.1600 
 18 N       -6.4860    -4.9270     0.0160 N.am  1 <1>  -0.6600 
 19 C       -6.2700    -3.4560     0.0120 C.3   1 <1>   0.1400 
 20 C       -7.5110    -5.5010     0.7490 C.2   1 <1>   0.7150 
 21 O       -8.4490    -4.7910     1.0750 O.2   1 <1>  -0.5700 
 22 C       -7.5130    -6.8990     1.1460 C.2   1 <1>   0.0550 
 23 O       -6.3800    -7.5200     1.4780 O.3   1 <1>  -0.2800 
 24 C       -8.5390    -7.7900     1.2890 C.2   1 <1>  -0.1810 
 25 C       -6.6520    -8.7570     1.8180 C.2   1 <1>  -0.0100 
 26 C       -7.9760    -8.9910     1.7220 C.2   1 <1>  -0.1500 
 27 C      -10.0250    -7.5930     1.0490 C.3   1 <1>  -0.0590 
 28 H       -1.2100    -3.1370    -2.6550 H     1 <1>   0.0800 
 29 H       -2.2760    -2.1280    -1.7720 H     1 <1>   0.0800 
 30 H        2.0630    -4.2940     0.6600 H     1 <1>   0.4000 
 31 H        2.1580    -3.4120     3.1060 H     1 <1>   0.0800 
 32 H        2.0010    -1.6730     3.1280 H     1 <1>   0.0800 
 33 H        3.1800    -2.4210     2.0800 H     1 <1>   0.0800 
 34 H        1.7050    -5.0250    -1.7140 H     1 <1>   0.0800 
 35 H        0.0610    -5.0340    -2.2650 H     1 <1>   0.0800 
 36 H        0.4920    -5.9300    -0.8370 H     1 <1>   0.0800 
 37 H       -4.1750    -5.7370     1.0070 H     1 <1>   0.0800 
 38 H       -3.4630    -6.4050    -0.4260 H     1 <1>   0.0800 
 39 H       -3.6190    -2.2260    -0.0370 H     1 <1>   0.0800 
 40 H       -3.0730    -3.1330     1.3420 H     1 <1>   0.0800 
 41 H       -5.7530    -6.7560    -0.7630 H     1 <1>   0.0800 
 42 H       -5.3970    -5.3750    -1.7410 H     1 <1>   0.0800 
 43 H       -5.3830    -2.1020     1.3930 H     1 <1>   0.0800 
 44 H       -5.2930    -3.7430     1.9090 H     1 <1>   0.0800 
 45 H       -5.9760    -3.1260    -0.9710 H     1 <1>   0.0800 
 46 H       -7.1860    -2.9500     0.2640 H     1 <1>   0.0800 
 47 H       -5.8490    -9.4080     2.1180 H     1 <1>   0.1500 
 48 H       -8.5130    -9.8990     1.9320 H     1 <1>   0.1500 
 49 H      -10.2200    -6.6300     0.6140 H     1 <1>   0.0800 
 50 H      -10.5570    -7.6610     1.9810 H     1 <1>   0.0800 
 51 H      -10.3930    -8.3500     0.3800 H     1 <1>   0.0800 
@<TRIPOS>BOND
  1   1   2  2   
  2   2   3  1   
  3   2   4  1   
  4   3   5  2   
  5   4   6  2   
  6   4   7  1   
  7   5   8  1   
  8   5   9  1   
  9   6   8  1   
 10   6  10  1   
 11   7  11  1   
 12   7  28  1   
 13   7  29  1   
 14   8  30  1   
 15   9  31  1   
 16   9  32  1   
 17   9  33  1   
 18  10  34  1   
 19  10  35  1   
 20  10  36  1   
 21  11  12  2   
 22  11  13  am  
 23  13  14  1   
 24  13  15  1   
 25  14  16  1   
 26  14  37  1   
 27  14  38  1   
 28  15  17  1   
 29  15  39  1   
 30  15  40  1   
 31  16  18  1   
 32  16  41  1   
 33  16  42  1   
 34  17  19  1   
 35  17  43  1   
 36  17  44  1   
 37  18  19  1   
 38  18  20  am  
 39  19  45  1   
 40  19  46  1   
 41  20  21  2   
 42  20  22  1   
 43  22  23  1   
 44  22  24  2   
 45  23  25  1   
 46  24  26  1   
 47  24  27  1   
 48  25  26  2   
 49  25  47  1   
 50  26  48  1   
 51  27  49  1   
 52  27  50  1   
 53  27  51  1   
@<TRIPOS>SUBSTRUCTURE
  1 ****  13 GROUP 4 **** **** 0

# MOE 2024.06 (io_trps.svl 2023.06)
