@<TRIPOS>MOLECULE
NONAME
53 55 1 0 0 
SMALL
USER_CHARGES


@<TRIPOS>ATOM
  1 S       -0.1630     0.0950    -0.2860 S.o2  1 <1>   1.3330 
  2 O       -1.5820    -0.1710    -0.2370 O.2   1 <1>  -0.6500 
  3 O        0.5760    -0.1110    -1.5100 O.2   1 <1>  -0.6500 
  4 N        0.0920     1.6930     0.2160 N.am  1 <1>  -0.8490 
  5 C        0.6110    -0.8370     1.0180 C.3   1 <1>  -0.1350 
  6 C        1.3400     2.2690    -0.3160 C.3   1 <1>   0.1960 
  7 C       -1.0360     2.5710    -0.1340 C.3   1 <1>   0.1960 
  8 C        1.5450     3.7220     0.1600 C.3   1 <1>   0.2000 
  9 C       -0.7840     4.0170     0.3350 C.3   1 <1>   0.1200 
 10 O        0.4230     4.5080    -0.1790 O.3   1 <1>  -0.5600 
 11 C        2.8050     4.3450    -0.4640 C.3   1 <1>   0.2090 
 12 N        2.8140     5.8120    -0.2380 N.pl3 1 <1>  -0.8690 
 13 C        3.8770     6.6290    -0.1010 C.ar  1 <1>   0.4100 
 14 N        5.0720     6.0780    -0.1530 N.ar  1 <1>  -0.6200 
 15 C        3.6900     8.0180     0.0910 C.ar  1 <1>  -0.1430 
 16 C        6.1290     6.8660    -0.0200 C.ar  1 <1>   0.7710 
 17 C        4.7940     8.7940     0.2520 C.ar  1 <1>   0.2180 
 18 C        2.2800     8.6130     0.1270 C.3   1 <1>  -0.0160 
 19 N        6.0010     8.1860     0.1870 N.ar  1 <1>  -0.1790 
 20 N        7.3820     6.3310    -0.0880 N.pl3 1 <1>  -0.8380 
 21 C        4.7480    10.3000     0.4930 C.3   1 <1>  -0.0170 
 22 C        2.2790    10.1430     0.0000 C.3   1 <1>  -0.1600 
 23 C        7.5810     4.8450    -0.1590 C.3   1 <1>   0.1290 
 24 C        8.6770     7.0760    -0.1810 C.3   1 <1>   0.1290 
 25 C        3.3460    10.7740     0.9000 C.3   1 <1>  -0.1600 
 26 H        0.5040    -1.8870     0.8290 H     1 <1>   0.0800 
 27 H        0.1480    -0.6070     1.9570 H     1 <1>   0.0800 
 28 H        1.6540    -0.6010     1.0760 H     1 <1>   0.0800 
 29 H        1.3180     2.2590    -1.3940 H     1 <1>   0.0800 
 30 H        2.1750     1.6700     0.0030 H     1 <1>   0.0800 
 31 H       -1.9350     2.2120     0.3380 H     1 <1>   0.0800 
 32 H       -1.1960     2.5620    -1.2000 H     1 <1>   0.0800 
 33 H        1.6480     3.7340     1.2310 H     1 <1>   0.0800 
 34 H       -0.7450     4.0600     1.4090 H     1 <1>   0.0800 
 35 H       -1.5740     4.6600    -0.0090 H     1 <1>   0.0800 
 36 H        2.8110     4.1580    -1.5240 H     1 <1>   0.0800 
 37 H        3.6840     3.8950    -0.0370 H     1 <1>   0.0800 
 38 H        1.8530     6.1750    -0.2230 H     1 <1>   0.4000 
 39 H        1.8130     8.3330     1.0570 H     1 <1>   0.0800 
 40 H        1.6850     8.2070    -0.6740 H     1 <1>   0.0800 
 41 H        6.8680     8.6880     0.3110 H     1 <1>   0.4570 
 42 H        5.0390    10.8040    -0.4130 H     1 <1>   0.0800 
 43 H        5.4420    10.5760     1.2690 H     1 <1>   0.0800 
 44 H        1.3060    10.5220     0.2660 H     1 <1>   0.0800 
 45 H        2.4660    10.4170    -1.0250 H     1 <1>   0.0800 
 46 H        6.7610     4.3170     0.2980 H     1 <1>   0.0800 
 47 H        8.4820     4.5630     0.3590 H     1 <1>   0.0800 
 48 H        7.6580     4.5360    -1.1880 H     1 <1>   0.0800 
 49 H        8.5340     8.0960    -0.4890 H     1 <1>   0.0800 
 50 H        9.3160     6.6040    -0.9110 H     1 <1>   0.0800 
 51 H        9.1800     7.0570     0.7720 H     1 <1>   0.0800 
 52 H        3.2930    11.8480     0.8320 H     1 <1>   0.0800 
 53 H        3.1530    10.5000     1.9240 H     1 <1>   0.0800 
@<TRIPOS>BOND
  1   1   2  2   
  2   1   3  2   
  3   1   4  am  
  4   1   5  1   
  5   4   6  1   
  6   4   7  1   
  7   5  26  1   
  8   5  27  1   
  9   5  28  1   
 10   6   8  1   
 11   6  29  1   
 12   6  30  1   
 13   7   9  1   
 14   7  31  1   
 15   7  32  1   
 16   8  10  1   
 17   8  11  1   
 18   8  33  1   
 19   9  10  1   
 20   9  34  1   
 21   9  35  1   
 22  11  12  1   
 23  11  36  1   
 24  11  37  1   
 25  12  13  1   
 26  12  38  1   
 27  13  14  ar  
 28  13  15  ar  
 29  14  16  ar  
 30  15  17  ar  
 31  15  18  1   
 32  16  19  ar  
 33  16  20  1   
 34  17  19  ar  
 35  17  21  1   
 36  18  22  1   
 37  18  39  1   
 38  18  40  1   
 39  19  41  1   
 40  20  23  1   
 41  20  24  1   
 42  21  25  1   
 43  21  42  1   
 44  21  43  1   
 45  22  25  1   
 46  22  44  1   
 47  22  45  1   
 48  23  46  1   
 49  23  47  1   
 50  23  48  1   
 51  24  49  1   
 52  24  50  1   
 53  24  51  1   
 54  25  52  1   
 55  25  53  1   
@<TRIPOS>SUBSTRUCTURE
  1 ****  12 GROUP 4 **** **** 0

# MOE 2024.06 (io_trps.svl 2023.06)
