@<TRIPOS>MOLECULE
NONAME
38 40 1 0 0 
SMALL
USER_CHARGES


@<TRIPOS>ATOM
  1 O       -0.5060     0.2760     1.4320 O.2   1 <1>  -0.5700 
  2 C       -1.3830     0.9160     0.8700 C.2   1 <1>   0.5440 
  3 N       -2.4880     0.1900     0.4500 N.am  1 <1>  -0.6600 
  4 C       -1.2260     2.3670     0.7030 C.ar  1 <1>   0.3960 
  5 C       -3.7150     0.7440    -0.1860 C.3   1 <1>   0.1400 
  6 C       -2.5100    -1.2920     0.3880 C.3   1 <1>   0.1400 
  7 N       -1.9680     3.0380    -0.1840 N.ar  1 <1>  -0.6200 
  8 C       -0.2770     3.0210     1.4980 C.ar  1 <1>   0.1600 
  9 C       -4.6940    -0.4280    -0.2040 C.3   1 <1>   0.2000 
 10 C       -3.7800    -1.6410    -0.3950 C.3   1 <1>  -0.0800 
 11 C       -1.7280     4.3500    -0.2040 C.ar  1 <1>   0.1390 
 12 N       -0.0100     4.3290     1.4930 N.ar  1 <1>  -0.6200 
 13 O       -5.2980    -0.5010     1.0440 O.3   1 <1>  -0.6800 
 14 C       -4.3900    -3.0000    -0.0110 C.3   1 <1>   0.0210 
 15 O       -2.4080     5.0370    -0.9950 O.3   1 <1>  -0.8290 
 16 C       -0.7610     4.9620     0.6240 C.ar  1 <1>   0.1600 
 17 C       -3.3860    -4.1180    -0.2150 C.2   1 <1>   0.1080 
 18 N       -2.8920    -4.4180    -1.3760 N.2   1 <1>  -0.7070 
 19 C       -2.8790    -4.9260     0.7970 C.2   1 <1>  -0.1500 
 20 N       -2.0470    -5.4370    -1.1320 N.pl3 1 <1>   0.3000 
 21 C       -2.0210    -5.7630     0.1770 C.2   1 <1>  -0.3320 
 22 C       -1.1640    -6.8690     0.7650 C.3   1 <1>  -0.0600 
 23 H       -4.1060     1.5890     0.3550 H     1 <1>   0.0800 
 24 H       -3.4810     1.0480    -1.1930 H     1 <1>   0.0800 
 25 H       -1.6300    -1.6680    -0.1050 H     1 <1>   0.0800 
 26 H       -2.5510    -1.6830     1.3900 H     1 <1>   0.0800 
 27 H        0.2970     2.4300     2.1860 H     1 <1>   0.1500 
 28 H       -5.4570    -0.3360    -0.9570 H     1 <1>   0.0800 
 29 H       -3.5070    -1.6820    -1.4350 H     1 <1>   0.0800 
 30 H       -4.6130    -0.2970     1.7140 H     1 <1>   0.4000 
 31 H       -5.2520    -3.1930    -0.6230 H     1 <1>   0.0800 
 32 H       -4.7050    -2.9970     1.0170 H     1 <1>   0.0800 
 33 H       -0.6560     6.0240     0.5120 H     1 <1>   0.1500 
 34 H       -3.1340    -4.8720     1.8400 H     1 <1>   0.1500 
 35 H       -1.5040    -5.8870    -1.8790 H     1 <1>   0.2700 
 36 H       -1.3180    -6.9310     1.8270 H     1 <1>   0.0800 
 37 H       -0.1230    -6.6700     0.5810 H     1 <1>   0.0800 
 38 H       -1.4250    -7.8150     0.3250 H     1 <1>   0.0800 
@<TRIPOS>BOND
  1   1   2  2   
  2   2   3  am  
  3   2   4  1   
  4   3   5  1   
  5   3   6  1   
  6   4   7  ar  
  7   4   8  ar  
  8   5   9  1   
  9   5  23  1   
 10   5  24  1   
 11   6  10  1   
 12   6  25  1   
 13   6  26  1   
 14   7  11  ar  
 15   8  12  ar  
 16   8  27  1   
 17   9  10  1   
 18   9  13  1   
 19   9  28  1   
 20  10  14  1   
 21  10  29  1   
 22  11  15  1   
 23  11  16  ar  
 24  12  16  ar  
 25  13  30  1   
 26  14  17  1   
 27  14  31  1   
 28  14  32  1   
 29  16  33  1   
 30  17  18  2   
 31  17  19  1   
 32  18  20  1   
 33  19  21  2   
 34  19  34  1   
 35  20  21  1   
 36  20  35  1   
 37  21  22  1   
 38  22  36  1   
 39  22  37  1   
 40  22  38  1   
@<TRIPOS>SUBSTRUCTURE
  1 ****   3 GROUP 4 **** **** 0

# MOE 2024.06 (io_trps.svl 2023.06)
