@<TRIPOS>MOLECULE
NONAME
55 58 1 0 0 
SMALL
USER_CHARGES


@<TRIPOS>ATOM
  1 O       -1.1600     0.4410    -0.3980 O.2   1 <1>  -0.5700 
  2 C       -2.2640     0.8430    -0.1160 C.2   1 <1>   0.5690 
  3 N       -3.3510     0.0140    -0.2040 N.am  1 <1>  -0.6600 
  4 C       -2.4250     2.3040     0.3210 C.3   1 <1>  -0.0190 
  5 C       -4.7800     0.3780    -0.0370 C.3   1 <1>   0.1400 
  6 C       -3.2150    -1.4060    -0.6080 C.3   1 <1>   0.1400 
  7 C       -2.4330     3.2430    -0.8990 C.3   1 <1>  -0.1600 
  8 C       -1.3230     2.7410     1.3060 C.3   1 <1>  -0.1600 
  9 C       -5.5580    -0.8430    -0.5300 C.3   1 <1>   0.2000 
 10 C       -4.5990    -2.0230    -0.3980 C.3   1 <1>  -0.0800 
 11 C       -2.5750     4.7100    -0.4830 C.3   1 <1>   0.1400 
 12 C       -1.4760     4.2100     1.7090 C.3   1 <1>   0.1400 
 13 O       -6.6920    -1.0640     0.2350 O.3   1 <1>  -0.6800 
 14 C       -4.9150    -3.1640    -1.3790 C.3   1 <1>  -0.0170 
 15 N       -1.5030     5.0650     0.4890 N.am  1 <1>  -0.6600 
 16 C       -3.9590    -4.3360    -1.1850 C.ar  1 <1>  -0.1440 
 17 C       -0.5930     6.0790     0.3230 C.2   1 <1>   0.5690 
 18 C       -4.1060    -5.2650    -0.1270 C.ar  1 <1>   0.0000 
 19 C       -2.9120    -4.5160    -2.0400 C.ar  1 <1>  -0.1500 
 20 O        0.2180     6.3650     1.1710 O.2   1 <1>  -0.5700 
 21 C       -0.5700     6.8950    -0.9490 C.3   1 <1>  -0.1790 
 22 C       -3.1470    -6.3030    -0.0250 C.ar  1 <1>   0.3100 
 23 C       -5.1460    -5.2280     0.8320 C.ar  1 <1>  -0.1500 
 24 C       -2.0230    -5.5820    -1.8530 C.ar  1 <1>   0.1600 
 25 N       -2.1160    -6.4470    -0.8940 N.ar  1 <1>  -0.6200 
 26 C       -3.2600    -7.2320     1.0220 C.ar  1 <1>  -0.1500 
 27 C       -5.2280    -6.1510     1.8390 C.ar  1 <1>  -0.1500 
 28 C       -4.2730    -7.1650     1.9390 C.ar  1 <1>  -0.1500 
 29 H       -3.3610     2.4100     0.8340 H     1 <1>   0.0800 
 30 H       -4.9780     0.5630     1.0040 H     1 <1>   0.0800 
 31 H       -5.0220     1.2440    -0.6270 H     1 <1>   0.0800 
 32 H       -2.9250    -1.4440    -1.6440 H     1 <1>   0.0800 
 33 H       -2.4670    -1.9030    -0.0130 H     1 <1>   0.0800 
 34 H       -3.2440     2.9800    -1.5540 H     1 <1>   0.0800 
 35 H       -1.5160     3.1240    -1.4510 H     1 <1>   0.0800 
 36 H       -0.3530     2.6100     0.8570 H     1 <1>   0.0800 
 37 H       -1.3590     2.1250     2.1870 H     1 <1>   0.0800 
 38 H       -5.8610    -0.6940    -1.5520 H     1 <1>   0.0800 
 39 H       -4.6250    -2.3930     0.6110 H     1 <1>   0.0800 
 40 H       -3.5310     4.8640    -0.0130 H     1 <1>   0.0800 
 41 H       -2.5340     5.3330    -1.3570 H     1 <1>   0.0800 
 42 H       -0.6580     4.4890     2.3530 H     1 <1>   0.0800 
 43 H       -2.3910     4.3520     2.2580 H     1 <1>   0.0800 
 44 H       -6.4480    -1.2520     1.1630 H     1 <1>   0.4000 
 45 H       -4.8370    -2.7980    -2.3890 H     1 <1>   0.0800 
 46 H       -5.9310    -3.4940    -1.2490 H     1 <1>   0.0800 
 47 H       -2.7370    -3.8550    -2.8690 H     1 <1>   0.1500 
 48 H       -0.4120     6.2500    -1.7920 H     1 <1>   0.0800 
 49 H        0.2340     7.6070    -0.9060 H     1 <1>   0.0800 
 50 H       -1.4950     7.4270    -1.0580 H     1 <1>   0.0800 
 51 H       -5.8930    -4.4600     0.7730 H     1 <1>   0.1500 
 52 H       -1.2090    -5.6860    -2.5500 H     1 <1>   0.1500 
 53 H       -2.5150    -8.0040     1.0770 H     1 <1>   0.1500 
 54 H       -6.0240    -6.1110     2.5630 H     1 <1>   0.1500 
 55 H       -4.3470    -7.8850     2.7360 H     1 <1>   0.1500 
@<TRIPOS>BOND
  1   1   2  2   
  2   2   3  am  
  3   2   4  1   
  4   3   5  1   
  5   3   6  1   
  6   4   7  1   
  7   4   8  1   
  8   4  29  1   
  9   5   9  1   
 10   5  30  1   
 11   5  31  1   
 12   6  10  1   
 13   6  32  1   
 14   6  33  1   
 15   7  11  1   
 16   7  34  1   
 17   7  35  1   
 18   8  12  1   
 19   8  36  1   
 20   8  37  1   
 21   9  10  1   
 22   9  13  1   
 23   9  38  1   
 24  10  14  1   
 25  10  39  1   
 26  11  15  1   
 27  11  40  1   
 28  11  41  1   
 29  12  15  1   
 30  12  42  1   
 31  12  43  1   
 32  13  44  1   
 33  14  16  1   
 34  14  45  1   
 35  14  46  1   
 36  15  17  am  
 37  16  18  ar  
 38  16  19  ar  
 39  17  20  2   
 40  17  21  1   
 41  18  22  ar  
 42  18  23  ar  
 43  19  24  ar  
 44  19  47  1   
 45  21  48  1   
 46  21  49  1   
 47  21  50  1   
 48  22  25  ar  
 49  22  26  ar  
 50  23  27  ar  
 51  23  51  1   
 52  24  25  ar  
 53  24  52  1   
 54  26  28  ar  
 55  26  53  1   
 56  27  28  ar  
 57  27  54  1   
 58  28  55  1   
@<TRIPOS>SUBSTRUCTURE
  1 ****   6 GROUP 4 **** **** 0

# MOE 2024.06 (io_trps.svl 2023.06)
