@<TRIPOS>MOLECULE
NONAME
47 50 1 0 0 
SMALL
USER_CHARGES


@<TRIPOS>ATOM
  1 O       -2.7110     0.0850    -2.6850 O.2   1 <1>  -0.5700 
  2 C       -2.6230    -0.5450    -1.6670 C.2   1 <1>   0.5690 
  3 N       -2.3010     0.0690    -0.5160 N.am  1 <1>  -0.7300 
  4 C       -2.9130    -2.0210    -1.6770 C.3   1 <1>  -0.0190 
  5 C       -2.1840    -0.5870     0.8080 C.3   1 <1>   0.2200 
  6 C       -1.6850    -2.8460    -1.2340 C.3   1 <1>   0.1200 
  7 C       -4.2230    -2.2710    -0.9180 C.3   1 <1>   0.3430 
  8 C       -1.0850    -1.6780     0.7760 C.3   1 <1>   0.1200 
  9 C       -3.5700    -1.1080     1.2820 C.3   1 <1>   0.3430 
 10 O       -1.5030    -2.8680     0.1570 O.3   1 <1>  -0.5600 
 11 N       -4.0700    -2.3380     0.5740 N.4   1 <1>  -0.9590 
 12 C       -5.2380    -2.9570     1.2500 C.3   1 <1>   0.4860 
 13 C       -5.3620    -4.3870     0.7640 C.ar  1 <1>  -0.1440 
 14 C       -4.3880    -5.2790     1.1480 C.ar  1 <1>   0.0820 
 15 C       -6.4350    -4.7830    -0.0740 C.ar  1 <1>   0.0000 
 16 O       -3.3750    -4.8200     1.9300 O.3   1 <1>  -0.3620 
 17 C       -4.4520    -6.6150     0.7170 C.ar  1 <1>  -0.1500 
 18 C       -6.4790    -6.1290    -0.5080 C.ar  1 <1>   0.0000 
 19 C       -7.4680    -3.9200    -0.5160 C.ar  1 <1>  -0.1500 
 20 C       -2.2270    -5.6010     2.1970 C.3   1 <1>   0.0400 
 21 C       -5.4740    -7.0200    -0.0900 C.ar  1 <1>  -0.1500 
 22 C       -7.5270    -6.5510    -1.3490 C.ar  1 <1>  -0.1500 
 23 C       -8.4720    -4.3580    -1.3340 C.ar  1 <1>  -0.1500 
 24 C       -8.5040    -5.6890    -1.7570 C.ar  1 <1>  -0.1500 
 25 H       -2.0620     1.0640    -0.5870 H     1 <1>   0.3700 
 26 H       -3.0980    -2.2750    -2.7050 H     1 <1>   0.0800 
 27 H       -1.8660     0.1710     1.5030 H     1 <1>   0.0800 
 28 H       -0.7840    -2.4740    -1.6950 H     1 <1>   0.0800 
 29 H       -1.8160    -3.8700    -1.5420 H     1 <1>   0.0800 
 30 H       -4.6210    -3.2110    -1.2660 H     1 <1>   0.0800 
 31 H       -4.9350    -1.5040    -1.1790 H     1 <1>   0.0800 
 32 H       -0.8190    -1.9380     1.7860 H     1 <1>   0.0800 
 33 H       -0.1980    -1.3180     0.2830 H     1 <1>   0.0800 
 34 H       -4.2890    -0.3130     1.1810 H     1 <1>   0.0800 
 35 H       -3.4850    -1.3370     2.3310 H     1 <1>   0.0800 
 36 H       -3.3060    -3.0380     0.7080 H     1 <1>   0.4500 
 37 H       -5.0710    -2.9770     2.3150 H     1 <1>   0.0800 
 38 H       -6.1310    -2.3900     1.0600 H     1 <1>   0.0800 
 39 H       -3.7070    -7.3290     1.0170 H     1 <1>   0.1500 
 40 H       -7.4890    -2.8920    -0.2120 H     1 <1>   0.1500 
 41 H       -1.5350    -5.0020     2.7610 H     1 <1>   0.0800 
 42 H       -1.7760    -5.8950     1.2650 H     1 <1>   0.0800 
 43 H       -2.5150    -6.4620     2.7740 H     1 <1>   0.0800 
 44 H       -5.5280    -8.0420    -0.4220 H     1 <1>   0.1500 
 45 H       -7.5480    -7.5780    -1.6690 H     1 <1>   0.1500 
 46 H       -9.2540    -3.6930    -1.6630 H     1 <1>   0.1500 
 47 H       -9.3030    -6.0190    -2.4000 H     1 <1>   0.1500 
@<TRIPOS>BOND
  1   1   2  2   
  2   2   3  am  
  3   2   4  1   
  4   3   5  1   
  5   3  25  1   
  6   4   6  1   
  7   4   7  1   
  8   4  26  1   
  9   5   8  1   
 10   5   9  1   
 11   5  27  1   
 12   6  10  1   
 13   6  28  1   
 14   6  29  1   
 15   7  11  1   
 16   7  30  1   
 17   7  31  1   
 18   8  10  1   
 19   8  32  1   
 20   8  33  1   
 21   9  11  1   
 22   9  34  1   
 23   9  35  1   
 24  11  12  1   
 25  11  36  1   
 26  12  13  1   
 27  12  37  1   
 28  12  38  1   
 29  13  14  ar  
 30  13  15  ar  
 31  14  16  1   
 32  14  17  ar  
 33  15  18  ar  
 34  15  19  ar  
 35  16  20  1   
 36  17  21  ar  
 37  17  39  1   
 38  18  21  ar  
 39  18  22  ar  
 40  19  23  ar  
 41  19  40  1   
 42  20  41  1   
 43  20  42  1   
 44  20  43  1   
 45  21  44  1   
 46  22  24  ar  
 47  22  45  1   
 48  23  24  ar  
 49  23  46  1   
 50  24  47  1   
@<TRIPOS>SUBSTRUCTURE
  1 ****  11 GROUP 4 **** **** 0

# MOE 2024.06 (io_trps.svl 2023.06)
