@<TRIPOS>MOLECULE
NONAME
55 56 1 0 0 
SMALL
USER_CHARGES


@<TRIPOS>ATOM
  1 O        1.6490     0.7740     2.5100 O.co2 1 <1>  -0.9000 
  2 C        1.6200     0.3160     1.3630 C.2   1 <1>   0.9060 
  3 O        1.1430    -0.8050     1.1240 O.co2 1 <1>  -0.9000 
  4 C        2.2700     1.0700     0.2000 C.3   1 <1>  -0.1060 
  5 C        3.4880     0.1790    -0.1480 C.3   1 <1>   0.2000 
  6 C        2.7760     2.4970     0.5810 C.3   1 <1>  -0.1600 
  7 C        1.2640     1.2000    -0.9830 C.3   1 <1>  -0.0160 
  8 O        3.0970    -0.8920    -0.9360 O.3   1 <1>  -0.6800 
  9 C        4.6160     0.9720    -0.8210 C.3   1 <1>   0.1100 
 10 C        4.2050     2.4730     1.1270 C.3   1 <1>   0.1100 
 11 C        0.1680     2.2430    -0.7750 C.ar  1 <1>  -0.1430 
 12 N        5.1620     2.0380     0.0720 N.3   1 <1>  -0.8100 
 13 C       -0.8520     2.0150     0.1360 C.ar  1 <1>  -0.1500 
 14 C        0.1740     3.4270    -1.4990 C.ar  1 <1>  -0.1500 
 15 C        6.4610     1.6250     0.6920 C.3   1 <1>   0.1710 
 16 C       -1.8490     2.9560     0.3240 C.ar  1 <1>  -0.1500 
 17 C       -0.8240     4.3690    -1.3140 C.ar  1 <1>  -0.1500 
 18 C        7.3080     2.7860     1.2230 C.2   1 <1>   0.5690 
 19 C       -1.8370     4.1340    -0.4010 C.ar  1 <1>  -0.1500 
 20 O        8.2160     2.5570     1.9880 O.2   1 <1>  -0.5700 
 21 N        6.9970     4.0310     0.7770 N.am  1 <1>  -0.7300 
 22 C        7.5810     5.3390     1.0740 C.3   1 <1>   0.3000 
 23 C        6.7530     6.4020     0.3210 C.3   1 <1>  -0.1600 
 24 C        7.4800     5.6000     2.5790 C.3   1 <1>  -0.2400 
 25 C        9.0450     5.3470     0.6270 C.3   1 <1>  -0.2400 
 26 C        6.6590     6.2250    -1.2070 C.3   1 <1>  -0.2400 
 27 H        3.8910    -0.2480     0.7560 H     1 <1>   0.0800 
 28 H        2.1160     2.9330     1.3110 H     1 <1>   0.0800 
 29 H        2.7710     3.1460    -0.2750 H     1 <1>   0.0800 
 30 H        1.8100     1.4440    -1.8760 H     1 <1>   0.0800 
 31 H        0.7870     0.2530    -1.1660 H     1 <1>   0.0800 
 32 H        2.3300    -1.3010    -0.4540 H     1 <1>   0.4000 
 33 H        4.2190     1.4420    -1.7020 H     1 <1>   0.0800 
 34 H        5.3940     0.2960    -1.1280 H     1 <1>   0.0800 
 35 H        4.2360     1.8020     1.9710 H     1 <1>   0.0800 
 36 H        4.4700     3.4550     1.4780 H     1 <1>   0.0800 
 37 H       -0.8680     1.1000     0.7070 H     1 <1>   0.1500 
 38 H        0.9590     3.6170    -2.2080 H     1 <1>   0.1500 
 39 H        6.2800     0.9300     1.4920 H     1 <1>   0.0800 
 40 H        7.0630     1.1250    -0.0450 H     1 <1>   0.0800 
 41 H       -2.6290     2.7640     1.0400 H     1 <1>   0.1500 
 42 H       -0.8090     5.2840    -1.8790 H     1 <1>   0.1500 
 43 H       -2.6120     4.8640    -0.2530 H     1 <1>   0.1500 
 44 H        6.1840     4.0540     0.1550 H     1 <1>   0.3700 
 45 H        5.7550     6.4090     0.7240 H     1 <1>   0.0800 
 46 H        7.1760     7.3710     0.5230 H     1 <1>   0.0800 
 47 H        7.8470     6.5830     2.8110 H     1 <1>   0.0800 
 48 H        8.0700     4.8880     3.1270 H     1 <1>   0.0800 
 49 H        6.4580     5.5280     2.9050 H     1 <1>   0.0800 
 50 H        9.4630     6.3300     0.7420 H     1 <1>   0.0800 
 51 H        9.1330     5.0510    -0.4010 H     1 <1>   0.0800 
 52 H        9.6220     4.6670     1.2270 H     1 <1>   0.0800 
 53 H        6.2170     5.2780    -1.4630 H     1 <1>   0.0800 
 54 H        7.6300     6.2880    -1.6620 H     1 <1>   0.0800 
 55 H        6.0440     7.0040    -1.6240 H     1 <1>   0.0800 
@<TRIPOS>BOND
  1   1   2  ar  
  2   2   3  ar  
  3   2   4  1   
  4   4   5  1   
  5   4   6  1   
  6   4   7  1   
  7   5   8  1   
  8   5   9  1   
  9   5  27  1   
 10   6  10  1   
 11   6  28  1   
 12   6  29  1   
 13   7  11  1   
 14   7  30  1   
 15   7  31  1   
 16   8  32  1   
 17   9  12  1   
 18   9  33  1   
 19   9  34  1   
 20  10  12  1   
 21  10  35  1   
 22  10  36  1   
 23  11  13  ar  
 24  11  14  ar  
 25  12  15  1   
 26  13  16  ar  
 27  13  37  1   
 28  14  17  ar  
 29  14  38  1   
 30  15  18  1   
 31  15  39  1   
 32  15  40  1   
 33  16  19  ar  
 34  16  41  1   
 35  17  19  ar  
 36  17  42  1   
 37  18  20  2   
 38  18  21  am  
 39  19  43  1   
 40  21  22  1   
 41  21  44  1   
 42  22  23  1   
 43  22  24  1   
 44  22  25  1   
 45  23  26  1   
 46  23  45  1   
 47  23  46  1   
 48  24  47  1   
 49  24  48  1   
 50  24  49  1   
 51  25  50  1   
 52  25  51  1   
 53  25  52  1   
 54  26  53  1   
 55  26  54  1   
 56  26  55  1   
@<TRIPOS>SUBSTRUCTURE
  1 ****   6 GROUP 4 **** **** 0

# MOE 2024.06 (io_trps.svl 2023.06)
