@<TRIPOS>MOLECULE
NONAME
59 61 1 0 0 
SMALL
USER_CHARGES


@<TRIPOS>ATOM
  1 O       -4.6790     1.8520    -1.0900 O.2   1 <1>  -0.5700 
  2 C       -3.8980     1.0310    -0.6640 C.2   1 <1>   0.5690 
  3 N       -3.9990    -0.2890    -1.0490 N.am  1 <1>  -0.6600 
  4 C       -2.8440     1.5390     0.3210 C.3   1 <1>   0.1810 
  5 C       -3.2750    -1.4250    -0.3630 C.3   1 <1>   0.3640 
  6 C       -5.0200    -0.6370    -2.0830 C.3   1 <1>   0.1400 
  7 O       -1.6830     1.9640    -0.3760 O.3   1 <1>  -0.3630 
  8 C       -1.7630    -1.2380    -0.4950 C.ar  1 <1>  -0.1440 
  9 C       -3.6330    -2.8720    -0.8400 C.3   1 <1>   0.2000 
 10 C       -4.8080    -2.0250    -2.6820 C.3   1 <1>   0.1200 
 11 C       -0.6080     2.4520     0.2880 C.ar  1 <1>   0.0830 
 12 C       -0.9490    -1.3780     0.6210 C.ar  1 <1>  -0.1500 
 13 C       -1.1800    -0.9220    -1.7160 C.ar  1 <1>  -0.1500 
 14 O       -4.7760    -2.9500    -1.6480 O.3   1 <1>  -0.5600 
 15 C       -3.8810    -3.8340     0.3320 C.3   1 <1>   0.1200 
 16 C        0.1820     3.3690    -0.3840 C.ar  1 <1>  -0.1500 
 17 C       -0.2660     2.0740     1.5800 C.ar  1 <1>  -0.1500 
 18 C        0.4200    -1.1960     0.5400 C.ar  1 <1>   0.0830 
 19 C        0.1870    -0.7260    -1.8110 C.ar  1 <1>  -0.1500 
 20 O       -2.8020    -3.8550     1.2110 O.3   1 <1>  -0.6800 
 21 C        1.3020     3.9230     0.2160 C.ar  1 <1>  -0.1440 
 22 C        0.8500     2.6240     2.1840 C.ar  1 <1>  -0.1500 
 23 O        1.1190    -1.3770     1.6930 O.3   1 <1>  -0.3620 
 24 C        0.9890    -0.8400    -0.6890 C.ar  1 <1>   0.0830 
 25 C        1.6390     3.5480     1.5130 C.ar  1 <1>  -0.1430 
 26 C        2.1340     4.9290    -0.5650 C.3   1 <1>  -0.0970 
 27 C        2.3380    -2.0860     1.6510 C.3   1 <1>   0.0400 
 28 O        2.3070    -0.5690    -0.8340 O.3   1 <1>  -0.3630 
 29 C        2.8580     4.1270     2.2170 C.3   1 <1>  -0.0970 
 30 C        2.6800     0.7350    -0.4510 C.3   1 <1>   0.0400 
 31 H       -2.5800     0.7740     1.0210 H     1 <1>   0.0800 
 32 H       -3.2330     2.3870     0.8540 H     1 <1>   0.0800 
 33 H       -3.5260    -1.3640     0.6820 H     1 <1>   0.0800 
 34 H       -5.9980    -0.5920    -1.6360 H     1 <1>   0.0800 
 35 H       -4.9890     0.0940    -2.8730 H     1 <1>   0.0800 
 36 H       -2.8210    -3.2610    -1.4280 H     1 <1>   0.0800 
 37 H       -3.8910    -2.0770    -3.2430 H     1 <1>   0.0800 
 38 H       -5.6300    -2.2780    -3.3270 H     1 <1>   0.0800 
 39 H       -1.3690    -1.6330     1.5780 H     1 <1>   0.1500 
 40 H       -1.7890    -0.8070    -2.5950 H     1 <1>   0.1500 
 41 H       -4.0380    -4.8350    -0.0310 H     1 <1>   0.0800 
 42 H       -4.7460    -3.5180     0.8890 H     1 <1>   0.0800 
 43 H       -0.0990     3.6420    -1.3840 H     1 <1>   0.1500 
 44 H       -0.8410     1.3500     2.1220 H     1 <1>   0.1500 
 45 H        0.6340    -0.4660    -2.7520 H     1 <1>   0.1500 
 46 H       -2.0110    -4.2480     0.7890 H     1 <1>   0.4000 
 47 H        1.1020     2.3200     3.1840 H     1 <1>   0.1500 
 48 H        1.7200     5.0950    -1.5430 H     1 <1>   0.0800 
 49 H        3.1390     4.5660    -0.6800 H     1 <1>   0.0800 
 50 H        2.1560     5.8700    -0.0450 H     1 <1>   0.0800 
 51 H        2.5310    -2.4810     2.6310 H     1 <1>   0.0800 
 52 H        3.1260    -1.4120     1.3700 H     1 <1>   0.0800 
 53 H        2.2560    -2.8880     0.9380 H     1 <1>   0.0800 
 54 H        2.9620     3.7200     3.2070 H     1 <1>   0.0800 
 55 H        2.7610     5.1940     2.3000 H     1 <1>   0.0800 
 56 H        3.7490     3.8960     1.6620 H     1 <1>   0.0800 
 57 H        3.7390     0.8420    -0.5920 H     1 <1>   0.0800 
 58 H        2.4260     0.8820     0.5840 H     1 <1>   0.0800 
 59 H        2.1500     1.4420    -1.0640 H     1 <1>   0.0800 
@<TRIPOS>BOND
  1   1   2  2   
  2   2   3  am  
  3   2   4  1   
  4   3   5  1   
  5   3   6  1   
  6   4   7  1   
  7   4  31  1   
  8   4  32  1   
  9   5   8  1   
 10   5   9  1   
 11   5  33  1   
 12   6  10  1   
 13   6  34  1   
 14   6  35  1   
 15   7  11  1   
 16   8  12  ar  
 17   8  13  ar  
 18   9  14  1   
 19   9  15  1   
 20   9  36  1   
 21  10  14  1   
 22  10  37  1   
 23  10  38  1   
 24  11  16  ar  
 25  11  17  ar  
 26  12  18  ar  
 27  12  39  1   
 28  13  19  ar  
 29  13  40  1   
 30  15  20  1   
 31  15  41  1   
 32  15  42  1   
 33  16  21  ar  
 34  16  43  1   
 35  17  22  ar  
 36  17  44  1   
 37  18  23  1   
 38  18  24  ar  
 39  19  24  ar  
 40  19  45  1   
 41  20  46  1   
 42  21  25  ar  
 43  21  26  1   
 44  22  25  ar  
 45  22  47  1   
 46  23  27  1   
 47  24  28  1   
 48  25  29  1   
 49  26  48  1   
 50  26  49  1   
 51  26  50  1   
 52  27  51  1   
 53  27  52  1   
 54  27  53  1   
 55  28  30  1   
 56  29  54  1   
 57  29  55  1   
 58  29  56  1   
 59  30  57  1   
 60  30  58  1   
 61  30  59  1   
@<TRIPOS>SUBSTRUCTURE
  1 ****   8 GROUP 4 **** **** 0

# MOE 2024.06 (io_trps.svl 2023.06)
