@<TRIPOS>MOLECULE
NONAME
53 56 1 0 0 
SMALL
USER_CHARGES


@<TRIPOS>ATOM
  1 S       -0.5410     0.2250    -1.0890 S.3   1 <1>  -0.0800 
  2 C        0.6090     1.3040    -0.3010 C.2   1 <1>   0.3250 
  3 C       -1.8580     1.2620    -0.6360 C.2   1 <1>  -0.1400 
  4 N        0.0180     2.3180     0.2310 N.2   1 <1>  -0.5650 
  5 C        2.0230     0.9860    -0.3140 C.ar  1 <1>   0.0530 
  6 C       -1.3440     2.2960     0.0480 C.2   1 <1>   0.0770 
  7 C       -3.2340     0.8060    -1.0820 C.3   1 <1>   0.5230 
  8 C        2.9310     1.8380     0.3150 C.ar  1 <1>  -0.1500 
  9 C        2.5500    -0.1520    -0.9330 C.ar  1 <1>  -0.1500 
 10 N       -4.3160     1.7610    -0.7020 N.4   1 <1>  -0.9590 
 11 C        4.2910     1.5840     0.3330 C.ar  1 <1>   0.0830 
 12 C        3.9070    -0.4190    -0.9230 C.ar  1 <1>  -0.1500 
 13 C       -4.2100     3.0860    -1.3680 C.3   1 <1>   0.3430 
 14 C       -4.5450     1.8570     0.7720 C.3   1 <1>   0.3430 
 15 O        5.0720     2.4870     0.9760 O.3   1 <1>  -0.3620 
 16 C        4.7830     0.4440    -0.2920 C.ar  1 <1>  -0.1500 
 17 C       -5.5250     3.8620    -1.2020 C.3   1 <1>  -0.1600 
 18 C       -5.6210     2.9050     1.0920 C.3   1 <1>  -0.1600 
 19 C        6.4710     2.3240     1.0540 C.3   1 <1>   0.0400 
 20 C       -6.4780     3.2910    -0.1320 C.3   1 <1>   0.2800 
 21 O       -7.0270     2.1290    -0.7250 O.3   1 <1>  -0.5600 
 22 C       -7.5700     4.3510     0.1830 C.3   1 <1>   0.1400 
 23 C       -7.9160     1.2870    -0.0300 C.3   1 <1>   0.1200 
 24 N       -8.4760     3.9670     1.2920 N.am  1 <1>  -0.7300 
 25 C       -9.2900     1.9260     0.1610 C.3   1 <1>  -0.0990 
 26 C       -9.2750     2.8840     1.3250 C.2   1 <1>   0.5690 
 27 O       -9.9520     2.6600     2.2920 O.2   1 <1>  -0.5700 
 28 H       -1.8910     3.1190     0.4730 H     1 <1>   0.1500 
 29 H       -3.4370    -0.1590    -0.6470 H     1 <1>   0.0800 
 30 H       -3.2250     0.6850    -2.1530 H     1 <1>   0.0800 
 31 H        2.5740     2.7260     0.8050 H     1 <1>   0.1500 
 32 H        1.9040    -0.8480    -1.4350 H     1 <1>   0.1500 
 33 H       -5.2150     1.3890    -1.0620 H     1 <1>   0.4500 
 34 H        4.2840    -1.3030    -1.4080 H     1 <1>   0.1500 
 35 H       -4.0010     2.9610    -2.4180 H     1 <1>   0.0800 
 36 H       -3.4020     3.6490    -0.9310 H     1 <1>   0.0800 
 37 H       -3.6320     2.1110     1.2850 H     1 <1>   0.0800 
 38 H       -4.8740     0.8980     1.1390 H     1 <1>   0.0800 
 39 H        5.8310     0.2150    -0.2980 H     1 <1>   0.1500 
 40 H       -6.0370     3.9030    -2.1480 H     1 <1>   0.0800 
 41 H       -5.2640     4.8750    -0.9530 H     1 <1>   0.0800 
 42 H       -5.1310     3.7890     1.4600 H     1 <1>   0.0800 
 43 H       -6.2350     2.5540     1.9020 H     1 <1>   0.0800 
 44 H        6.8730     3.1550     1.6050 H     1 <1>   0.0800 
 45 H        6.8770     2.3160     0.0580 H     1 <1>   0.0800 
 46 H        6.6870     1.4050     1.5690 H     1 <1>   0.0800 
 47 H       -8.1520     4.5390    -0.7030 H     1 <1>   0.0800 
 48 H       -7.0930     5.2760     0.4570 H     1 <1>   0.0800 
 49 H       -7.4920     0.9930     0.9140 H     1 <1>   0.0800 
 50 H       -8.0340     0.4030    -0.6320 H     1 <1>   0.0800 
 51 H       -8.5760     4.6150     2.0790 H     1 <1>   0.3700 
 52 H      -10.0030     1.1530     0.3820 H     1 <1>   0.0800 
 53 H       -9.6110     2.4230    -0.7360 H     1 <1>   0.0800 
@<TRIPOS>BOND
  1   1   2  1   
  2   1   3  1   
  3   2   4  2   
  4   2   5  1   
  5   3   6  2   
  6   3   7  1   
  7   4   6  1   
  8   5   8  ar  
  9   5   9  ar  
 10   6  28  1   
 11   7  10  1   
 12   7  29  1   
 13   7  30  1   
 14   8  11  ar  
 15   8  31  1   
 16   9  12  ar  
 17   9  32  1   
 18  10  13  1   
 19  10  14  1   
 20  10  33  1   
 21  11  15  1   
 22  11  16  ar  
 23  12  16  ar  
 24  12  34  1   
 25  13  17  1   
 26  13  35  1   
 27  13  36  1   
 28  14  18  1   
 29  14  37  1   
 30  14  38  1   
 31  15  19  1   
 32  16  39  1   
 33  17  20  1   
 34  17  40  1   
 35  17  41  1   
 36  18  20  1   
 37  18  42  1   
 38  18  43  1   
 39  19  44  1   
 40  19  45  1   
 41  19  46  1   
 42  20  21  1   
 43  20  22  1   
 44  21  23  1   
 45  22  24  1   
 46  22  47  1   
 47  22  48  1   
 48  23  25  1   
 49  23  49  1   
 50  23  50  1   
 51  24  26  am  
 52  24  51  1   
 53  25  26  1   
 54  25  52  1   
 55  25  53  1   
 56  26  27  2   
@<TRIPOS>SUBSTRUCTURE
  1 ****   6 GROUP 4 **** **** 0

# MOE 2024.06 (io_trps.svl 2023.06)
