@<TRIPOS>MOLECULE
NONAME
48 50 1 0 0 
SMALL
USER_CHARGES


@<TRIPOS>ATOM
  1 O        1.2970     0.0180     1.3530 O.2   1 <1>  -0.5700 
  2 C        1.7480    -0.4770     0.3380 C.2   1 <1>   0.5440 
  3 N        2.3210     0.3420    -0.6170 N.am  1 <1>  -0.6600 
  4 C        1.7010    -1.9110     0.1800 C.ar  1 <1>   0.0860 
  5 C        3.3620    -0.1530    -1.5690 C.3   1 <1>   0.1400 
  6 C        2.1690     1.8260    -0.5510 C.3   1 <1>   0.1400 
  7 C        1.1160    -2.4920    -0.9410 C.ar  1 <1>   0.1600 
  8 C        2.2300    -2.7720     1.1330 C.ar  1 <1>  -0.1500 
  9 C        4.7080    -0.3740    -0.8600 C.3   1 <1>   0.1400 
 10 C        3.5040     2.5540    -0.3340 C.3   1 <1>  -0.1600 
 11 N        1.0500    -3.7860    -1.1990 N.ar  1 <1>  -0.6200 
 12 C        2.1640    -4.1260     0.8920 C.ar  1 <1>  -0.1500 
 13 N        5.3540     0.8970    -0.3920 N.am  1 <1>  -0.6600 
 14 C        4.5280     1.7700     0.4960 C.3   1 <1>   0.1400 
 15 C        1.5720    -4.5890    -0.2830 C.ar  1 <1>   0.3930 
 16 C        6.7110     1.0900    -0.5590 C.2   1 <1>   0.7150 
 17 O        1.4830    -5.8980    -0.5790 O.3   1 <1>  -0.3630 
 18 O        7.3950     0.1530    -0.9310 O.2   1 <1>  -0.5700 
 19 C        7.3450     2.3590    -0.2950 C.2   1 <1>  -0.2370 
 20 C        1.9260    -6.9220     0.2830 C.3   1 <1>   0.0400 
 21 N        8.5450     2.4870     0.3570 N.pl3 1 <1>   0.0480 
 22 C        6.9290     3.6240    -0.6270 C.2   1 <1>  -0.1500 
 23 C        8.8460     3.8030     0.4320 C.2   1 <1>  -0.3020 
 24 C        9.3850     1.3950     0.8900 C.3   1 <1>   0.0160 
 25 C        7.8700     4.5470    -0.1660 C.2   1 <1>   0.0190 
 26 C        7.7900     5.9730    -0.3150 C.1   1 <1>   0.5380 
 27 N        7.7140     7.1050    -0.4310 N.1   1 <1>  -0.5570 
 28 H        3.4930     0.5480    -2.3750 H     1 <1>   0.0800 
 29 H        3.0460    -1.0820    -2.0060 H     1 <1>   0.0800 
 30 H        1.5010     2.0870     0.2520 H     1 <1>   0.0800 
 31 H        1.7130     2.1730    -1.4630 H     1 <1>   0.0800 
 32 H        0.6780    -1.8330    -1.6710 H     1 <1>   0.1500 
 33 H        2.6740    -2.3770     2.0300 H     1 <1>   0.1500 
 34 H        5.3590    -0.8740    -1.5560 H     1 <1>   0.0800 
 35 H        4.5740    -1.0320    -0.0200 H     1 <1>   0.0800 
 36 H        3.2860     3.4760     0.1730 H     1 <1>   0.0800 
 37 H        3.9300     2.8150    -1.2860 H     1 <1>   0.0800 
 38 H        2.5690    -4.8060     1.6150 H     1 <1>   0.1500 
 39 H        4.0310     1.1720     1.2410 H     1 <1>   0.0800 
 40 H        5.1620     2.4610     1.0230 H     1 <1>   0.0800 
 41 H        1.7140    -7.8660    -0.1860 H     1 <1>   0.0800 
 42 H        1.3910    -6.8510     1.2140 H     1 <1>   0.0800 
 43 H        2.9850    -6.8190     0.4350 H     1 <1>   0.0800 
 44 H        6.0340     3.8880    -1.1620 H     1 <1>   0.1500 
 45 H        9.7430     4.1650     0.9040 H     1 <1>   0.1500 
 46 H        8.7880     0.7600     1.5180 H     1 <1>   0.0800 
 47 H       10.1970     1.8040     1.4620 H     1 <1>   0.0800 
 48 H        9.7760     0.8190     0.0720 H     1 <1>   0.0800 
@<TRIPOS>BOND
  1   1   2  2   
  2   2   3  am  
  3   2   4  1   
  4   3   5  1   
  5   3   6  1   
  6   4   7  ar  
  7   4   8  ar  
  8   5   9  1   
  9   5  28  1   
 10   5  29  1   
 11   6  10  1   
 12   6  30  1   
 13   6  31  1   
 14   7  11  ar  
 15   7  32  1   
 16   8  12  ar  
 17   8  33  1   
 18   9  13  1   
 19   9  34  1   
 20   9  35  1   
 21  10  14  1   
 22  10  36  1   
 23  10  37  1   
 24  11  15  ar  
 25  12  15  ar  
 26  12  38  1   
 27  13  14  1   
 28  13  16  am  
 29  14  39  1   
 30  14  40  1   
 31  15  17  1   
 32  16  18  2   
 33  16  19  1   
 34  17  20  1   
 35  19  21  1   
 36  19  22  2   
 37  20  41  1   
 38  20  42  1   
 39  20  43  1   
 40  21  23  1   
 41  21  24  1   
 42  22  25  1   
 43  22  44  1   
 44  23  25  2   
 45  23  45  1   
 46  24  46  1   
 47  24  47  1   
 48  24  48  1   
 49  25  26  1   
 50  26  27  3   
@<TRIPOS>SUBSTRUCTURE
  1 ****   9 GROUP 4 **** **** 0

# MOE 2024.06 (io_trps.svl 2023.06)
