@<TRIPOS>MOLECULE
NONAME
38 40 1 0 0 
SMALL
USER_CHARGES


@<TRIPOS>ATOM
  1 F       -1.0430    -1.4160    -1.3950 F     1 <1>  -0.3400 
  2 C       -0.4050    -1.7180    -0.2670 C.3   1 <1>   1.1640 
  3 F        0.7700    -1.0960    -0.3470 F     1 <1>  -0.3400 
  4 F       -1.0660    -1.1010     0.7090 F     1 <1>  -0.3400 
  5 C       -0.2730    -3.2500    -0.0370 C.ar  1 <1>   0.1660 
  6 N       -1.3920    -3.9760     0.0480 N.ar  1 <1>  -0.6200 
  7 C        0.9910    -3.8220     0.0720 C.ar  1 <1>  -0.1500 
  8 C       -1.2760    -5.2850     0.2400 C.ar  1 <1>   0.4100 
  9 C        1.1220    -5.1790     0.2790 C.ar  1 <1>  -0.1500 
 10 N       -2.4570    -6.0100     0.3240 N.pl3 1 <1>  -0.8380 
 11 C       -0.0360    -5.9090     0.3650 C.ar  1 <1>  -0.1500 
 12 C       -3.7810    -5.3720     0.0630 C.3   1 <1>   0.2090 
 13 C       -2.5210    -7.4480    -0.0340 C.3   1 <1>   0.2090 
 14 C       -4.6970    -6.4970    -0.4290 C.3   1 <1>   0.2000 
 15 C       -4.0070    -7.7990    -0.0320 C.3   1 <1>  -0.0800 
 16 O       -5.9540    -6.4410     0.1570 O.3   1 <1>  -0.6800 
 17 C       -4.3760    -8.9710    -0.9580 C.3   1 <1>  -0.0170 
 18 C       -3.7070   -10.2670    -0.5280 C.ar  1 <1>   0.1670 
 19 N       -2.4360   -10.4210    -0.8670 N.ar  1 <1>  -0.6200 
 20 C       -4.4320   -11.2200     0.1860 C.ar  1 <1>   0.1600 
 21 C       -1.9480   -11.5790    -0.4540 C.ar  1 <1>   0.1600 
 22 N       -3.9440   -12.3760     0.6030 N.ar  1 <1>  -0.6200 
 23 C       -2.6770   -12.5240     0.2570 C.ar  1 <1>   0.1600 
 24 H        1.8830    -3.2250     0.0010 H     1 <1>   0.1500 
 25 H        2.0890    -5.6430     0.3710 H     1 <1>   0.1500 
 26 H        0.0150    -6.9660     0.5360 H     1 <1>   0.1500 
 27 H       -4.1470    -4.9360     0.9750 H     1 <1>   0.0800 
 28 H       -3.7000    -4.6130    -0.6960 H     1 <1>   0.0800 
 29 H       -2.0950    -7.5900    -1.0140 H     1 <1>   0.0800 
 30 H       -1.9870    -8.0500     0.6820 H     1 <1>   0.0800 
 31 H       -4.8150    -6.4240    -1.4960 H     1 <1>   0.0800 
 32 H       -4.2680    -8.0460     0.9820 H     1 <1>   0.0800 
 33 H       -5.8670    -6.4140     1.1300 H     1 <1>   0.4000 
 34 H       -4.0830    -8.7470    -1.9690 H     1 <1>   0.0800 
 35 H       -5.4440    -9.0980    -0.9530 H     1 <1>   0.0800 
 36 H       -5.4620   -11.0170     0.4230 H     1 <1>   0.1500 
 37 H       -0.9200   -11.7920    -0.6890 H     1 <1>   0.1500 
 38 H       -2.1920   -13.4390     0.5500 H     1 <1>   0.1500 
@<TRIPOS>BOND
  1   1   2  1   
  2   2   3  1   
  3   2   4  1   
  4   2   5  1   
  5   5   6  ar  
  6   5   7  ar  
  7   6   8  ar  
  8   7   9  ar  
  9   7  24  1   
 10   8  10  1   
 11   8  11  ar  
 12   9  11  ar  
 13   9  25  1   
 14  10  12  1   
 15  10  13  1   
 16  11  26  1   
 17  12  14  1   
 18  12  27  1   
 19  12  28  1   
 20  13  15  1   
 21  13  29  1   
 22  13  30  1   
 23  14  15  1   
 24  14  16  1   
 25  14  31  1   
 26  15  17  1   
 27  15  32  1   
 28  16  33  1   
 29  17  18  1   
 30  17  34  1   
 31  17  35  1   
 32  18  19  ar  
 33  18  20  ar  
 34  19  21  ar  
 35  20  22  ar  
 36  20  36  1   
 37  21  23  ar  
 38  21  37  1   
 39  22  23  ar  
 40  23  38  1   
@<TRIPOS>SUBSTRUCTURE
  1 ****  10 GROUP 4 **** **** 0

# MOE 2024.06 (io_trps.svl 2023.06)
