@<TRIPOS>MOLECULE
NONAME
58 62 1 0 0 
SMALL
USER_CHARGES


@<TRIPOS>ATOM
  1 O       -0.1330    -0.7150     1.4950 O.2   1 <1>  -0.5700 
  2 C        0.9960    -0.2560     1.4240 C.2   1 <1>   0.6900 
  3 N        1.9410    -0.5970     0.4990 N.am  1 <1>  -0.4770 
  4 N        1.5060     0.6650     2.2720 N.am  1 <1>  -0.5470 
  5 C        3.0900     0.1330     0.7900 C.ar  1 <1>   0.1170 
  6 C        1.7450    -1.5560    -0.6040 C.3   1 <1>   0.1400 
  7 C        2.8150     0.9220     1.8960 C.ar  1 <1>   0.1170 
  8 C        4.3400     0.1720     0.1890 C.ar  1 <1>  -0.1500 
  9 C        2.1150    -2.9610    -0.1370 C.3   1 <1>  -0.0990 
 10 C        3.7760     1.7680     2.4270 C.ar  1 <1>  -0.1500 
 11 C        5.3040     1.0160     0.7160 C.ar  1 <1>  -0.1500 
 12 C        1.6750    -3.9690    -1.1750 C.2   1 <1>   0.5690 
 13 C        5.0240     1.8090     1.8270 C.ar  1 <1>  -0.1500 
 14 O        2.5170    -4.3410    -1.9580 O.2   1 <1>  -0.5700 
 15 N        0.3770    -4.4160    -1.2270 N.am  1 <1>  -0.6600 
 16 C       -0.7420    -3.9580    -0.3510 C.3   1 <1>   0.1400 
 17 C       -0.0390    -5.4670    -2.1980 C.3   1 <1>   0.1400 
 18 C       -1.2710    -5.1490     0.4510 C.3   1 <1>  -0.1600 
 19 C       -0.5740    -6.6820    -1.4340 C.3   1 <1>  -0.1600 
 20 C       -1.7130    -6.3070    -0.4680 C.3   1 <1>   0.4240 
 21 O       -2.7150    -5.7920    -1.3190 O.3   1 <1>  -0.5600 
 22 C       -2.2220    -7.5430     0.3310 C.ar  1 <1>  -0.1430 
 23 C       -4.0190    -5.7550    -0.8400 C.3   1 <1>   0.1200 
 24 C       -1.3890    -8.2700     1.1920 C.ar  1 <1>   0.0830 
 25 C       -3.5490    -7.9540     0.2020 C.ar  1 <1>  -0.1430 
 26 C       -4.5040    -7.1880    -0.6900 C.3   1 <1>  -0.0170 
 27 O       -0.0990    -7.8710     1.3550 O.3   1 <1>  -0.3620 
 28 C       -1.8820    -9.3810     1.8740 C.ar  1 <1>  -0.1500 
 29 C       -4.0270    -9.0600     0.8830 C.ar  1 <1>  -0.1500 
 30 C        0.8400    -8.6020     2.1100 C.3   1 <1>   0.0400 
 31 C       -3.1950    -9.7760     1.7180 C.ar  1 <1>  -0.1500 
 32 H        0.9750     1.0600     3.0440 H     1 <1>   0.3700 
 33 H        2.3500    -1.2730    -1.4480 H     1 <1>   0.0800 
 34 H        0.7120    -1.5260    -0.9070 H     1 <1>   0.0800 
 35 H        4.5490    -0.4440    -0.6670 H     1 <1>   0.1500 
 36 H        1.6610    -3.1900     0.8070 H     1 <1>   0.0800 
 37 H        3.1810    -3.0270    -0.0180 H     1 <1>   0.0800 
 38 H        3.5490     2.3740     3.2850 H     1 <1>   0.1500 
 39 H        6.2810     1.0610     0.2640 H     1 <1>   0.1500 
 40 H        5.7870     2.4590     2.2210 H     1 <1>   0.1500 
 41 H       -1.5270    -3.5570    -0.9690 H     1 <1>   0.0800 
 42 H       -0.4340    -3.1800     0.3240 H     1 <1>   0.0800 
 43 H        0.7890    -5.7680    -2.8150 H     1 <1>   0.0800 
 44 H       -0.8040    -5.0680    -2.8420 H     1 <1>   0.0800 
 45 H       -2.0870    -4.8410     1.0740 H     1 <1>   0.0800 
 46 H       -0.4870    -5.4730     1.1060 H     1 <1>   0.0800 
 47 H        0.2500    -7.1170    -0.9070 H     1 <1>   0.0800 
 48 H       -0.9330    -7.4200    -2.1270 H     1 <1>   0.0800 
 49 H       -4.6200    -5.2240    -1.5560 H     1 <1>   0.0800 
 50 H       -4.0420    -5.2340     0.1010 H     1 <1>   0.0800 
 51 H       -4.5530    -7.6540    -1.6580 H     1 <1>   0.0800 
 52 H       -5.4910    -7.1830    -0.2640 H     1 <1>   0.0800 
 53 H       -1.2630    -9.9540     2.5360 H     1 <1>   0.1500 
 54 H       -5.0510    -9.3700     0.7670 H     1 <1>   0.1500 
 55 H        1.7890    -8.1020     2.0350 H     1 <1>   0.0800 
 56 H        0.9180    -9.5950     1.7040 H     1 <1>   0.0800 
 57 H        0.5210    -8.6260     3.1370 H     1 <1>   0.0800 
 58 H       -3.5700   -10.6360     2.2460 H     1 <1>   0.1500 
@<TRIPOS>BOND
  1   1   2  2   
  2   2   3  am  
  3   2   4  am  
  4   3   5  1   
  5   3   6  1   
  6   4   7  1   
  7   4  32  1   
  8   5   7  ar  
  9   5   8  ar  
 10   6   9  1   
 11   6  33  1   
 12   6  34  1   
 13   7  10  ar  
 14   8  11  ar  
 15   8  35  1   
 16   9  12  1   
 17   9  36  1   
 18   9  37  1   
 19  10  13  ar  
 20  10  38  1   
 21  11  13  ar  
 22  11  39  1   
 23  12  14  2   
 24  12  15  am  
 25  13  40  1   
 26  15  16  1   
 27  15  17  1   
 28  16  18  1   
 29  16  41  1   
 30  16  42  1   
 31  17  19  1   
 32  17  43  1   
 33  17  44  1   
 34  18  20  1   
 35  18  45  1   
 36  18  46  1   
 37  19  20  1   
 38  19  47  1   
 39  19  48  1   
 40  20  21  1   
 41  20  22  1   
 42  21  23  1   
 43  22  24  ar  
 44  22  25  ar  
 45  23  26  1   
 46  23  49  1   
 47  23  50  1   
 48  24  27  1   
 49  24  28  ar  
 50  25  26  1   
 51  25  29  ar  
 52  26  51  1   
 53  26  52  1   
 54  27  30  1   
 55  28  31  ar  
 56  28  53  1   
 57  29  31  ar  
 58  29  54  1   
 59  30  55  1   
 60  30  56  1   
 61  30  57  1   
 62  31  58  1   
@<TRIPOS>SUBSTRUCTURE
  1 ****  16 GROUP 4 **** **** 0

# MOE 2024.06 (io_trps.svl 2023.06)
