@<TRIPOS>MOLECULE
NONAME
39 40 1 0 0 
SMALL
USER_CHARGES


@<TRIPOS>ATOM
  1 O        0.5820    -0.2340    -0.9710 O.2   1 <1>  -0.5700 
  2 C        1.6740    -0.4470    -0.4990 C.2   1 <1>   0.5690 
  3 N        2.5080     0.5440    -0.0520 N.am  1 <1>  -0.4940 
  4 C        2.1610    -1.8870    -0.3900 C.3   1 <1>  -0.0190 
  5 C        2.3080     1.9490    -0.0500 C.2   1 <1>  -0.0880 
  6 C        2.2850    -2.6100    -1.7480 C.3   1 <1>  -0.0220 
  7 C        1.2690    -2.7830     0.4970 C.3   1 <1>  -0.0220 
  8 N        3.1760     2.8650     0.4600 N.pl3 1 <1>   0.3140 
  9 C        1.2640     2.6610    -0.5350 C.2   1 <1>  -0.1500 
 10 C        1.9070    -4.0290    -1.3990 C.2   1 <1>  -0.2880 
 11 C        1.3610    -4.1220    -0.1930 C.2   1 <1>  -0.2880 
 12 N        2.7150     4.1260     0.3130 N.2   1 <1>  -0.7070 
 13 C        4.4680     2.6080     1.1260 C.3   1 <1>   0.0960 
 14 C        1.5740     3.9900    -0.2820 C.2   1 <1>   0.1080 
 15 C        5.5740     2.3320     0.0960 C.3   1 <1>  -0.1600 
 16 C        0.7050     5.1710    -0.6450 C.3   1 <1>  -0.0590 
 17 C        6.9140     2.0450     0.7840 C.3   1 <1>  -0.1600 
 18 C        8.0120     1.7730    -0.2470 C.3   1 <1>  -0.2400 
 19 H        3.4000     0.2230     0.3180 H     1 <1>   0.3700 
 20 H        3.1400    -1.8920     0.0530 H     1 <1>   0.0800 
 21 H        3.2870    -2.5470    -2.1330 H     1 <1>   0.0800 
 22 H        1.5890    -2.2200    -2.4720 H     1 <1>   0.0800 
 23 H        0.2450    -2.4490     0.4990 H     1 <1>   0.0800 
 24 H        1.6410    -2.8280     1.5060 H     1 <1>   0.0800 
 25 H        0.3750     2.2940    -1.0160 H     1 <1>   0.1500 
 26 H        2.0840    -4.8080    -2.1230 H     1 <1>   0.1500 
 27 H        0.9820    -4.9950     0.3110 H     1 <1>   0.1500 
 28 H        4.3510     1.7750     1.7930 H     1 <1>   0.0800 
 29 H        4.7200     3.4760     1.7080 H     1 <1>   0.0800 
 30 H        5.6770     3.1960    -0.5400 H     1 <1>   0.0800 
 31 H        5.2990     1.4920    -0.5170 H     1 <1>   0.0800 
 32 H       -0.1970     4.8390    -1.1250 H     1 <1>   0.0800 
 33 H        1.2430     5.8200    -1.3100 H     1 <1>   0.0800 
 34 H        0.4510     5.7150     0.2460 H     1 <1>   0.0800 
 35 H        6.8200     1.1910     1.4330 H     1 <1>   0.0800 
 36 H        7.2010     2.8920     1.3860 H     1 <1>   0.0800 
 37 H        7.7630     0.9170    -0.8500 H     1 <1>   0.0800 
 38 H        8.9460     1.5790     0.2520 H     1 <1>   0.0800 
 39 H        8.1430     2.6250    -0.8920 H     1 <1>   0.0800 
@<TRIPOS>BOND
  1   1   2  2   
  2   2   3  am  
  3   2   4  1   
  4   3   5  1   
  5   3  19  1   
  6   4   6  1   
  7   4   7  1   
  8   4  20  1   
  9   5   8  1   
 10   5   9  2   
 11   6  10  1   
 12   6  21  1   
 13   6  22  1   
 14   7  11  1   
 15   7  23  1   
 16   7  24  1   
 17   8  12  1   
 18   8  13  1   
 19   9  14  1   
 20   9  25  1   
 21  10  11  2   
 22  10  26  1   
 23  11  27  1   
 24  12  14  2   
 25  13  15  1   
 26  13  28  1   
 27  13  29  1   
 28  14  16  1   
 29  15  17  1   
 30  15  30  1   
 31  15  31  1   
 32  16  32  1   
 33  16  33  1   
 34  16  34  1   
 35  17  18  1   
 36  17  35  1   
 37  17  36  1   
 38  18  37  1   
 39  18  38  1   
 40  18  39  1   
@<TRIPOS>SUBSTRUCTURE
  1 ****   3 GROUP 4 **** **** 0

# MOE 2024.06 (io_trps.svl 2023.06)
