@<TRIPOS>MOLECULE
NONAME
44 46 1 0 0 
SMALL
USER_CHARGES


@<TRIPOS>ATOM
  1 S        0.3420     0.3210    -0.9290 S.3   1 <1>  -0.0800 
  2 C       -1.3290     0.2970    -0.3950 C.2   1 <1>   0.1980 
  3 C        0.7770     1.1230     0.5510 C.2   1 <1>  -0.1100 
  4 N       -1.5160     0.8410     0.7440 N.2   1 <1>  -0.5650 
  5 C       -2.3600    -0.3170    -1.3400 C.3   1 <1>   0.2900 
  6 C       -0.3300     1.3030     1.2860 C.2   1 <1>   0.0460 
  7 N       -2.6110    -1.7650    -1.1250 N.3   1 <1>  -0.8100 
  8 C       -0.4130     1.9590     2.6460 C.3   1 <1>  -0.0590 
  9 C       -3.7190    -2.2400    -1.9770 C.3   1 <1>   0.2900 
 10 C       -1.4000    -2.5810    -1.3160 C.3   1 <1>   0.0300 
 11 C       -4.3130    -3.5330    -1.4500 C.2   1 <1>  -0.0400 
 12 O       -5.1170    -4.2280    -2.2090 O.3   1 <1>  -0.0190 
 13 C       -4.1970    -4.1760    -0.2780 C.2   1 <1>  -0.1500 
 14 N       -5.5400    -5.3050    -1.6110 N.2   1 <1>  -0.4100 
 15 C       -5.0010    -5.3010    -0.4400 C.2   1 <1>   0.1080 
 16 C       -5.2070    -6.3700     0.6270 C.3   1 <1>   0.1010 
 17 C       -4.6870    -7.7350     0.1460 C.3   1 <1>  -0.1600 
 18 C       -6.6870    -6.4650     1.0350 C.3   1 <1>  -0.1600 
 19 C       -4.9110    -8.8300     1.2010 C.3   1 <1>  -0.1600 
 20 C       -6.9150    -7.5570     2.0910 C.3   1 <1>  -0.1600 
 21 C       -6.3890    -8.9140     1.6050 C.3   1 <1>  -0.1600 
 22 H        1.8100     1.3720     0.7090 H     1 <1>   0.1500 
 23 H       -2.0490    -0.1470    -2.3550 H     1 <1>   0.0800 
 24 H       -3.2810     0.2160    -1.1830 H     1 <1>   0.0800 
 25 H        0.5600     2.2780     2.9710 H     1 <1>   0.0800 
 26 H       -0.8100     1.2600     3.3590 H     1 <1>   0.0800 
 27 H       -1.0650     2.8120     2.5960 H     1 <1>   0.0800 
 28 H       -3.3690    -2.3870    -2.9840 H     1 <1>   0.0800 
 29 H       -4.5070    -1.5060    -1.9970 H     1 <1>   0.0800 
 30 H       -0.6700    -2.3350    -0.5640 H     1 <1>   0.0800 
 31 H       -0.9750    -2.4110    -2.2900 H     1 <1>   0.0800 
 32 H       -1.6310    -3.6280    -1.2150 H     1 <1>   0.0800 
 33 H       -3.6250    -3.8980     0.5880 H     1 <1>   0.1500 
 34 H       -4.6400    -6.0840     1.4960 H     1 <1>   0.0800 
 35 H       -3.6380    -7.6590    -0.0800 H     1 <1>   0.0800 
 36 H       -5.1990    -8.0080    -0.7610 H     1 <1>   0.0800 
 37 H       -7.2800    -6.6860     0.1640 H     1 <1>   0.0800 
 38 H       -7.0140    -5.5140     1.4200 H     1 <1>   0.0800 
 39 H       -4.3150    -8.6160     2.0710 H     1 <1>   0.0800 
 40 H       -4.5910    -9.7790     0.8070 H     1 <1>   0.0800 
 41 H       -7.9660    -7.6340     2.3070 H     1 <1>   0.0800 
 42 H       -6.4100    -7.2840     3.0030 H     1 <1>   0.0800 
 43 H       -6.5090    -9.6480     2.3840 H     1 <1>   0.0800 
 44 H       -6.9700    -9.2360     0.7570 H     1 <1>   0.0800 
@<TRIPOS>BOND
  1   1   2  1   
  2   1   3  1   
  3   2   4  2   
  4   2   5  1   
  5   3   6  2   
  6   3  22  1   
  7   4   6  1   
  8   5   7  1   
  9   5  23  1   
 10   5  24  1   
 11   6   8  1   
 12   7   9  1   
 13   7  10  1   
 14   8  25  1   
 15   8  26  1   
 16   8  27  1   
 17   9  11  1   
 18   9  28  1   
 19   9  29  1   
 20  10  30  1   
 21  10  31  1   
 22  10  32  1   
 23  11  12  1   
 24  11  13  2   
 25  12  14  1   
 26  13  15  1   
 27  13  33  1   
 28  14  15  2   
 29  15  16  1   
 30  16  17  1   
 31  16  18  1   
 32  16  34  1   
 33  17  19  1   
 34  17  35  1   
 35  17  36  1   
 36  18  20  1   
 37  18  37  1   
 38  18  38  1   
 39  19  21  1   
 40  19  39  1   
 41  19  40  1   
 42  20  21  1   
 43  20  41  1   
 44  20  42  1   
 45  21  43  1   
 46  21  44  1   
@<TRIPOS>SUBSTRUCTURE
  1 ****  13 GROUP 4 **** **** 0

# MOE 2024.06 (io_trps.svl 2023.06)
