@<TRIPOS>MOLECULE
NONAME
48 51 1 0 0 
SMALL
USER_CHARGES


@<TRIPOS>ATOM
  1 S       -0.6490    -0.3050    -1.6740 S.3   1 <1>  -0.0800 
  2 C       -1.3740     0.8880    -0.6070 C.2   1 <1>  -0.1400 
  3 C       -2.1290    -1.2550    -1.6720 C.2   1 <1>  -0.1100 
  4 C       -2.6380     0.5540    -0.3140 C.2   1 <1>  -0.1810 
  5 C       -0.6240     2.1200    -0.1110 C.3   1 <1>   0.4600 
  6 C       -3.0750    -0.6700    -0.9120 C.2   1 <1>  -0.1500 
  7 C       -3.4600     1.4540     0.5810 C.3   1 <1>   0.0210 
  8 O       -1.4270     2.7700     0.8570 O.3   1 <1>  -0.5600 
  9 C       -0.3220     3.0950    -1.2560 C.3   1 <1>  -0.1600 
 10 C        0.6690     1.7200     0.6060 C.3   1 <1>  -0.1600 
 11 C       -2.8130     2.8520     0.6220 C.3   1 <1>   0.1200 
 12 C        0.4730     4.3030    -0.7650 C.3   1 <1>   0.2090 
 13 C        1.4440     2.9500     1.0750 C.3   1 <1>   0.2090 
 14 N        1.7120     3.8260    -0.0940 N.pl3 1 <1>  -0.8380 
 15 C        2.8270     4.6350    -0.0750 C.ar  1 <1>   0.4100 
 16 N        2.6360     5.9490    -0.1120 N.ar  1 <1>  -0.6200 
 17 C        4.0970     4.0680    -0.0110 C.ar  1 <1>  -0.1500 
 18 C        3.7230     6.7010    -0.0770 C.ar  1 <1>   0.1600 
 19 C        5.2160     4.8650     0.0220 C.ar  1 <1>  -0.1500 
 20 C        5.0390     6.2460    -0.0180 C.ar  1 <1>   0.0860 
 21 C        6.1400     7.1840     0.0000 C.2   1 <1>   0.5440 
 22 O        5.9620     8.3400     0.3310 O.2   1 <1>  -0.5700 
 23 N        7.4010     6.8000    -0.3690 N.am  1 <1>  -0.7300 
 24 C        8.5910     7.6740    -0.3610 C.3   1 <1>   0.1400 
 25 C        9.8010     6.8440     0.0510 C.3   1 <1>  -0.2400 
 26 H       -2.1330    -2.1630    -2.2470 H     1 <1>   0.1500 
 27 H       -4.0680    -1.0500    -0.7450 H     1 <1>   0.1500 
 28 H       -3.5000     1.0410     1.5730 H     1 <1>   0.0800 
 29 H       -4.4630     1.5360     0.2050 H     1 <1>   0.0800 
 30 H       -1.2320     3.4160    -1.7250 H     1 <1>   0.0800 
 31 H        0.2620     2.5910    -2.0040 H     1 <1>   0.0800 
 32 H        1.2960     1.1580    -0.0610 H     1 <1>   0.0800 
 33 H        0.4310     1.0920     1.4440 H     1 <1>   0.0800 
 34 H       -3.2450     3.4380     1.4140 H     1 <1>   0.0800 
 35 H       -2.9710     3.3650    -0.3100 H     1 <1>   0.0800 
 36 H       -0.1100     4.8810    -0.0680 H     1 <1>   0.0800 
 37 H        0.7300     4.9330    -1.5990 H     1 <1>   0.0800 
 38 H        2.3670     2.6480     1.5380 H     1 <1>   0.0800 
 39 H        0.8660     3.4970     1.8020 H     1 <1>   0.0800 
 40 H        4.1790     2.9980     0.0070 H     1 <1>   0.1500 
 41 H        3.5660     7.7670    -0.1000 H     1 <1>   0.1500 
 42 H        6.1960     4.4300     0.0820 H     1 <1>   0.1500 
 43 H        7.5430     5.8790    -0.7820 H     1 <1>   0.3700 
 44 H        8.4460     8.4860     0.3340 H     1 <1>   0.0800 
 45 H        8.7360     8.0870    -1.3450 H     1 <1>   0.0800 
 46 H        9.6520     6.4350     1.0340 H     1 <1>   0.0800 
 47 H       10.6740     7.4710     0.0740 H     1 <1>   0.0800 
 48 H        9.9710     6.0480    -0.6520 H     1 <1>   0.0800 
@<TRIPOS>BOND
  1   1   2  1   
  2   1   3  1   
  3   2   4  2   
  4   2   5  1   
  5   3   6  2   
  6   3  26  1   
  7   4   6  1   
  8   4   7  1   
  9   5   8  1   
 10   5   9  1   
 11   5  10  1   
 12   6  27  1   
 13   7  11  1   
 14   7  28  1   
 15   7  29  1   
 16   8  11  1   
 17   9  12  1   
 18   9  30  1   
 19   9  31  1   
 20  10  13  1   
 21  10  32  1   
 22  10  33  1   
 23  11  34  1   
 24  11  35  1   
 25  12  14  1   
 26  12  36  1   
 27  12  37  1   
 28  13  14  1   
 29  13  38  1   
 30  13  39  1   
 31  14  15  1   
 32  15  16  ar  
 33  15  17  ar  
 34  16  18  ar  
 35  17  19  ar  
 36  17  40  1   
 37  18  20  ar  
 38  18  41  1   
 39  19  20  ar  
 40  19  42  1   
 41  20  21  1   
 42  21  22  2   
 43  21  23  am  
 44  23  24  1   
 45  23  43  1   
 46  24  25  1   
 47  24  44  1   
 48  24  45  1   
 49  25  46  1   
 50  25  47  1   
 51  25  48  1   
@<TRIPOS>SUBSTRUCTURE
  1 ****  14 GROUP 4 **** **** 0

# MOE 2024.06 (io_trps.svl 2023.06)
