@<TRIPOS>MOLECULE
NONAME
50 52 1 0 0 
SMALL
USER_CHARGES


@<TRIPOS>ATOM
  1 N        0.1010    -0.4770     0.9070 N.ar  1 <1>  -0.6200 
  2 C        1.1040     0.3890     0.8350 C.ar  1 <1>   0.7710 
  3 C        0.2890    -1.6900     0.4460 C.ar  1 <1>   0.4100 
  4 N        2.2870     0.0430     0.2950 N.ar  1 <1>  -0.1790 
  5 N        0.9380     1.6550     1.3060 N.pl3 1 <1>  -0.8380 
  6 N       -0.7640    -2.5080     0.5730 N.pl3 1 <1>  -0.8690 
  7 C        1.5090    -2.0920    -0.1270 C.ar  1 <1>  -0.1500 
  8 C        2.5230    -1.1960    -0.1980 C.ar  1 <1>   0.2170 
  9 C        1.9780     2.7250     1.4220 C.3   1 <1>   0.2090 
 10 C       -0.4010     2.1560     1.7640 C.3   1 <1>   0.2090 
 11 C       -0.9980    -3.8630     0.0760 C.3   1 <1>   0.4690 
 12 C        3.8860    -1.5080    -0.7900 C.3   1 <1>  -0.0970 
 13 C        1.6030     3.8880     0.4990 C.3   1 <1>  -0.1600 
 14 C       -0.8330     3.3180     0.8640 C.3   1 <1>  -0.1600 
 15 C       -2.4970    -3.9750    -0.1240 C.2   1 <1>  -0.3320 
 16 C       -0.4360    -4.8630     1.0970 C.3   1 <1>  -0.1600 
 17 C        0.2120     4.4430     0.8390 C.3   1 <1>  -0.1600 
 18 N       -3.1560    -3.3550    -1.1300 N.pl3 1 <1>   0.3140 
 19 C       -3.4330    -4.6430     0.5900 C.2   1 <1>  -0.1500 
 20 C       -0.4520    -6.3140     0.5890 C.3   1 <1>  -0.2400 
 21 N       -4.4730    -3.6110    -1.0860 N.2   1 <1>  -0.7070 
 22 C       -2.6030    -2.4810    -2.1750 C.3   1 <1>   0.0160 
 23 C       -4.6330    -4.3810    -0.0560 C.2   1 <1>   0.1390 
 24 H        2.9790     0.7790     0.2650 H     1 <1>   0.4570 
 25 H       -1.5870    -2.1410     1.0610 H     1 <1>   0.4000 
 26 H        1.6110    -3.0970    -0.4890 H     1 <1>   0.1500 
 27 H        2.9610     2.3680     1.1760 H     1 <1>   0.0800 
 28 H        2.0090     3.0770     2.4410 H     1 <1>   0.0800 
 29 H       -0.3260     2.4950     2.7840 H     1 <1>   0.0800 
 30 H       -1.1580     1.3910     1.7350 H     1 <1>   0.0800 
 31 H       -0.4970    -3.9980    -0.8680 H     1 <1>   0.0800 
 32 H        4.0900    -0.8630    -1.6270 H     1 <1>   0.0800 
 33 H        3.9220    -2.5260    -1.1370 H     1 <1>   0.0800 
 34 H        4.6570    -1.3790    -0.0510 H     1 <1>   0.0800 
 35 H        1.6190     3.5550    -0.5240 H     1 <1>   0.0800 
 36 H        2.3310     4.6740     0.5990 H     1 <1>   0.0800 
 37 H       -1.7720     3.7090     1.2180 H     1 <1>   0.0800 
 38 H       -0.9940     2.9450    -0.1320 H     1 <1>   0.0800 
 39 H       -1.0000    -4.7960     2.0100 H     1 <1>   0.0800 
 40 H        0.5810    -4.5990     1.3220 H     1 <1>   0.0800 
 41 H       -0.0720     5.1890     0.1160 H     1 <1>   0.0800 
 42 H        0.2440     4.9170     1.8050 H     1 <1>   0.0800 
 43 H       -3.3220    -5.2540     1.4680 H     1 <1>   0.1500 
 44 H       -1.4550    -6.6340     0.3670 H     1 <1>   0.0800 
 45 H       -0.0470    -6.9700     1.3400 H     1 <1>   0.0800 
 46 H        0.1430    -6.4100    -0.3030 H     1 <1>   0.0800 
 47 H       -2.1150    -1.6430    -1.7140 H     1 <1>   0.0800 
 48 H       -3.4050    -2.1290    -2.7980 H     1 <1>   0.0800 
 49 H       -1.9060    -3.0370    -2.7710 H     1 <1>   0.0800 
 50 H       -5.5910    -4.7650     0.2530 H     1 <1>   0.1500 
@<TRIPOS>BOND
  1   1   2  ar  
  2   1   3  ar  
  3   2   4  ar  
  4   2   5  1   
  5   3   6  1   
  6   3   7  ar  
  7   4   8  ar  
  8   4  24  1   
  9   5   9  1   
 10   5  10  1   
 11   6  11  1   
 12   6  25  1   
 13   7   8  ar  
 14   7  26  1   
 15   8  12  1   
 16   9  13  1   
 17   9  27  1   
 18   9  28  1   
 19  10  14  1   
 20  10  29  1   
 21  10  30  1   
 22  11  15  1   
 23  11  16  1   
 24  11  31  1   
 25  12  32  1   
 26  12  33  1   
 27  12  34  1   
 28  13  17  1   
 29  13  35  1   
 30  13  36  1   
 31  14  17  1   
 32  14  37  1   
 33  14  38  1   
 34  15  18  1   
 35  15  19  2   
 36  16  20  1   
 37  16  39  1   
 38  16  40  1   
 39  17  41  1   
 40  17  42  1   
 41  18  21  1   
 42  18  22  1   
 43  19  23  1   
 44  19  43  1   
 45  20  44  1   
 46  20  45  1   
 47  20  46  1   
 48  21  23  2   
 49  22  47  1   
 50  22  48  1   
 51  22  49  1   
 52  23  50  1   
@<TRIPOS>SUBSTRUCTURE
  1 ****   3 GROUP 4 **** **** 0

# MOE 2024.06 (io_trps.svl 2023.06)
