@<TRIPOS>MOLECULE
NONAME
57 60 1 0 0 
SMALL
USER_CHARGES


@<TRIPOS>ATOM
  1 O       -2.2770     0.1550    -0.5520 O.3   1 <1>  -0.6800 
  2 C       -2.1460    -1.0870     0.0490 C.3   1 <1>   0.2000 
  3 C       -3.0170    -2.1190    -0.6910 C.3   1 <1>   0.2090 
  4 C       -2.5800    -0.9450     1.5110 C.3   1 <1>  -0.1600 
  5 N       -2.9910    -3.4410     0.0230 N.pl3 1 <1>  -0.8380 
  6 C       -2.6160    -2.3190     2.2010 C.3   1 <1>  -0.1600 
  7 C       -2.7060    -4.6330    -0.5620 C.ar  1 <1>   0.4100 
  8 C       -3.4780    -3.3300     1.4340 C.3   1 <1>   0.2090 
  9 N       -3.2990    -5.7120    -0.0810 N.ar  1 <1>  -0.6200 
 10 C       -1.8080    -4.7220    -1.6450 C.ar  1 <1>  -0.1500 
 11 C       -3.0580    -6.8670    -0.6590 C.ar  1 <1>   0.7710 
 12 C       -1.5750    -5.9260    -2.2170 C.ar  1 <1>   0.2110 
 13 N       -2.2230    -7.0030    -1.7070 N.ar  1 <1>  -0.1790 
 14 N       -3.7130    -7.9040    -0.1190 N.pl3 1 <1>  -0.8690 
 15 C       -3.8140    -9.3510    -0.3790 C.3   1 <1>   0.2890 
 16 C       -5.2720    -9.6680    -0.7140 C.3   1 <1>  -0.1600 
 17 C       -3.3760   -10.0900     0.8880 C.3   1 <1>  -0.1600 
 18 C       -5.5330   -11.1730    -0.7740 C.3   1 <1>   0.3430 
 19 C       -3.6630   -11.5900     0.8050 C.3   1 <1>   0.3430 
 20 N       -5.1070   -11.8090     0.5090 N.4   1 <1>  -0.9590 
 21 C       -5.4550   -13.2640     0.5500 C.3   1 <1>   0.4860 
 22 C       -6.9570   -13.4140     0.4390 C.ar  1 <1>  -0.1430 
 23 C       -7.7660   -13.1300     1.5300 C.ar  1 <1>   0.1600 
 24 C       -7.5500   -13.8250    -0.7410 C.ar  1 <1>  -0.1500 
 25 N       -9.0830   -13.1890     1.5250 N.ar  1 <1>  -0.6200 
 26 C       -8.9260   -13.9040    -0.7540 C.ar  1 <1>  -0.1500 
 27 C       -9.6370   -13.5780     0.3880 C.ar  1 <1>   0.1600 
 28 H       -1.7950     0.1910    -1.3990 H     1 <1>   0.4000 
 29 H       -1.1100    -1.3740    -0.0010 H     1 <1>   0.0800 
 30 H       -2.6840    -2.2190    -1.7060 H     1 <1>   0.0800 
 31 H       -4.0330    -1.7630    -0.7080 H     1 <1>   0.0800 
 32 H       -3.5630    -0.5070     1.5490 H     1 <1>   0.0800 
 33 H       -1.8960    -0.2970     2.0300 H     1 <1>   0.0800 
 34 H       -3.0060    -2.2080     3.1970 H     1 <1>   0.0800 
 35 H       -1.6170    -2.7100     2.2840 H     1 <1>   0.0800 
 36 H       -3.4300    -4.2800     1.9370 H     1 <1>   0.0800 
 37 H       -4.5060    -3.0070     1.4300 H     1 <1>   0.0800 
 38 H       -1.3120    -3.8350    -1.9900 H     1 <1>   0.1500 
 39 H       -0.8990    -6.0580    -3.0470 H     1 <1>   0.1500 
 40 H       -2.0950    -7.9320    -2.0880 H     1 <1>   0.4570 
 41 H       -4.3020    -7.5900     0.6630 H     1 <1>   0.4000 
 42 H       -3.1810    -9.6360    -1.2030 H     1 <1>   0.0800 
 43 H       -5.5250    -9.2370    -1.6670 H     1 <1>   0.0800 
 44 H       -5.9280    -9.2370     0.0220 H     1 <1>   0.0800 
 45 H       -3.8850    -9.6910     1.7480 H     1 <1>   0.0800 
 46 H       -2.3200    -9.9490     1.0390 H     1 <1>   0.0800 
 47 H       -4.9890   -11.6080    -1.5980 H     1 <1>   0.0800 
 48 H       -6.5860   -11.3420    -0.9400 H     1 <1>   0.0800 
 49 H       -3.4030   -12.0550     1.7440 H     1 <1>   0.0800 
 50 H       -3.0590   -12.0360     0.0310 H     1 <1>   0.0800 
 51 H       -5.6610   -11.3660     1.2560 H     1 <1>   0.4500 
 52 H       -5.1240   -13.7010     1.4780 H     1 <1>   0.0800 
 53 H       -4.9760   -13.7870    -0.2620 H     1 <1>   0.0800 
 54 H       -7.3190   -12.8320     2.4640 H     1 <1>   0.1500 
 55 H       -6.9840   -14.0810    -1.6210 H     1 <1>   0.1500 
 56 H       -9.4520   -14.2190    -1.6380 H     1 <1>   0.1500 
 57 H      -10.7130   -13.6420     0.3660 H     1 <1>   0.1500 
@<TRIPOS>BOND
  1   1   2  1   
  2   1  28  1   
  3   2   3  1   
  4   2   4  1   
  5   2  29  1   
  6   3   5  1   
  7   3  30  1   
  8   3  31  1   
  9   4   6  1   
 10   4  32  1   
 11   4  33  1   
 12   5   7  1   
 13   5   8  1   
 14   6   8  1   
 15   6  34  1   
 16   6  35  1   
 17   7   9  ar  
 18   7  10  ar  
 19   8  36  1   
 20   8  37  1   
 21   9  11  ar  
 22  10  12  ar  
 23  10  38  1   
 24  11  13  ar  
 25  11  14  1   
 26  12  13  ar  
 27  12  39  1   
 28  13  40  1   
 29  14  15  1   
 30  14  41  1   
 31  15  16  1   
 32  15  17  1   
 33  15  42  1   
 34  16  18  1   
 35  16  43  1   
 36  16  44  1   
 37  17  19  1   
 38  17  45  1   
 39  17  46  1   
 40  18  20  1   
 41  18  47  1   
 42  18  48  1   
 43  19  20  1   
 44  19  49  1   
 45  19  50  1   
 46  20  21  1   
 47  20  51  1   
 48  21  22  1   
 49  21  52  1   
 50  21  53  1   
 51  22  23  ar  
 52  22  24  ar  
 53  23  25  ar  
 54  23  54  1   
 55  24  26  ar  
 56  24  55  1   
 57  25  27  ar  
 58  26  27  ar  
 59  26  56  1   
 60  27  57  1   
@<TRIPOS>SUBSTRUCTURE
  1 ****  14 GROUP 4 **** **** 0

# MOE 2024.06 (io_trps.svl 2023.06)
