@<TRIPOS>MOLECULE
NONAME
48 51 1 0 0 
SMALL
USER_CHARGES


@<TRIPOS>ATOM
  1 O       -0.9840     0.0270     2.5740 O.co2 1 <1>  -0.9000 
  2 C       -1.4930    -0.2420     1.4690 C.2   1 <1>   0.9790 
  3 O       -1.0960    -1.2510     0.8600 O.co2 1 <1>  -0.9000 
  4 C       -2.5290     0.5780     0.9150 C.ar  1 <1>  -0.1790 
  5 C       -2.2850     1.7830     0.2660 C.ar  1 <1>   0.1000 
  6 C       -3.8500     0.1240     1.0350 C.ar  1 <1>   0.1600 
  7 N       -1.0100     2.2890     0.0760 N.pl3 1 <1>  -0.8380 
  8 C       -3.4170     2.4680    -0.2030 C.ar  1 <1>   0.0000 
  9 N       -4.9240     0.7420     0.6030 N.ar  1 <1>  -0.5670 
 10 C       -0.2920     2.7100     1.3160 C.3   1 <1>   0.2090 
 11 C       -0.1460     1.5140    -0.8500 C.3   1 <1>   0.2090 
 12 C       -4.6610     1.9160    -0.0100 C.ar  1 <1>   0.1050 
 13 C       -3.6820     3.6740    -0.8810 C.2   1 <1>   0.1080 
 14 C        0.3010     4.1200     1.1840 C.3   1 <1>   0.1400 
 15 C        0.8360     2.4210    -1.5930 C.3   1 <1>  -0.1600 
 16 N       -5.5510     2.7870    -0.5590 N.pl3 1 <1>   0.3140 
 17 N       -4.9420     3.8730    -1.0950 N.2   1 <1>  -0.7070 
 18 C       -2.6170     4.6530    -1.3200 C.3   1 <1>  -0.0590 
 19 N        1.0930     4.3800    -0.0690 N.am  1 <1>  -0.6600 
 20 C        1.7850     3.2090    -0.6810 C.3   1 <1>   0.1400 
 21 C       -7.0060     2.6120    -0.5910 C.3   1 <1>   0.0160 
 22 C        1.0600     5.6000    -0.7240 C.2   1 <1>   0.7150 
 23 O        1.4770     5.6540    -1.8710 O.2   1 <1>  -0.5700 
 24 C        0.5540     6.8230    -0.1270 C.2   1 <1>   0.0550 
 25 O        0.5350     7.0350     1.1890 O.3   1 <1>  -0.2800 
 26 C        0.0570     7.9340    -0.7400 C.2   1 <1>  -0.1500 
 27 C        0.0390     8.2290     1.4230 C.2   1 <1>  -0.0100 
 28 C       -0.2800     8.8420     0.2640 C.2   1 <1>  -0.1500 
 29 H       -3.9870    -0.8220     1.5320 H     1 <1>   0.1500 
 30 H        0.4840     2.0030     1.5550 H     1 <1>   0.0800 
 31 H       -0.9770     2.7000     2.1470 H     1 <1>   0.0800 
 32 H       -0.7690     1.0020    -1.5640 H     1 <1>   0.0800 
 33 H        0.3910     0.7600    -0.2960 H     1 <1>   0.0800 
 34 H        0.9270     4.3110     2.0360 H     1 <1>   0.0800 
 35 H       -0.5270     4.8030     1.2300 H     1 <1>   0.0800 
 36 H        0.2980     3.0940    -2.2350 H     1 <1>   0.0800 
 37 H        1.4330     1.7900    -2.2260 H     1 <1>   0.0800 
 38 H       -1.8620     4.1370    -1.8830 H     1 <1>   0.0800 
 39 H       -2.1640     5.0990    -0.4560 H     1 <1>   0.0800 
 40 H       -3.0480     5.4220    -1.9310 H     1 <1>   0.0800 
 41 H        2.6160     3.5620    -1.2670 H     1 <1>   0.0800 
 42 H        2.1840     2.5710     0.0880 H     1 <1>   0.0800 
 43 H       -7.2360     1.7230    -1.1460 H     1 <1>   0.0800 
 44 H       -7.4550     3.4660    -1.0620 H     1 <1>   0.0800 
 45 H       -7.3660     2.5160     0.4160 H     1 <1>   0.0800 
 46 H       -0.0540     8.0940    -1.7990 H     1 <1>   0.1500 
 47 H       -0.0540     8.5670     2.4400 H     1 <1>   0.1500 
 48 H       -0.7020     9.8200     0.1130 H     1 <1>   0.1500 
@<TRIPOS>BOND
  1   1   2  ar  
  2   2   3  ar  
  3   2   4  1   
  4   4   5  ar  
  5   4   6  ar  
  6   5   7  1   
  7   5   8  ar  
  8   6   9  ar  
  9   6  29  1   
 10   7  10  1   
 11   7  11  1   
 12   8  12  ar  
 13   8  13  1   
 14   9  12  ar  
 15  10  14  1   
 16  10  30  1   
 17  10  31  1   
 18  11  15  1   
 19  11  32  1   
 20  11  33  1   
 21  12  16  1   
 22  13  17  2   
 23  13  18  1   
 24  14  19  1   
 25  14  34  1   
 26  14  35  1   
 27  15  20  1   
 28  15  36  1   
 29  15  37  1   
 30  16  17  1   
 31  16  21  1   
 32  18  38  1   
 33  18  39  1   
 34  18  40  1   
 35  19  20  1   
 36  19  22  am  
 37  20  41  1   
 38  20  42  1   
 39  21  43  1   
 40  21  44  1   
 41  21  45  1   
 42  22  23  2   
 43  22  24  1   
 44  24  25  1   
 45  24  26  2   
 46  25  27  1   
 47  26  28  1   
 48  26  46  1   
 49  27  28  2   
 50  27  47  1   
 51  28  48  1   
@<TRIPOS>SUBSTRUCTURE
  1 ****   7 GROUP 4 **** **** 0

# MOE 2024.06 (io_trps.svl 2023.06)
