@<TRIPOS>MOLECULE
NONAME
31 33 1 0 0 
SMALL
USER_CHARGES


@<TRIPOS>ATOM
  1 CL       0.1100     0.0570    -0.0980 Cl    1 <1>  -0.1770 
  2 C        1.5710     1.0070    -0.1140 C.ar  1 <1>   0.1770 
  3 C        1.5210     2.3420     0.1970 C.ar  1 <1>  -0.1500 
  4 C        2.7710     0.3840    -0.4440 C.ar  1 <1>  -0.1500 
  5 C        2.6950     3.1100     0.1860 C.ar  1 <1>   0.0000 
  6 C        3.9330     1.1220    -0.4600 C.ar  1 <1>  -0.1500 
  7 C        3.9130     2.4890    -0.1480 C.ar  1 <1>   0.3610 
  8 C        2.7150     4.4950     0.4980 C.ar  1 <1>  -0.1500 
  9 N        5.0680     3.2560    -0.1560 N.ar  1 <1>  -0.1790 
 10 C        3.8860     5.1870     0.4730 C.ar  1 <1>  -0.1500 
 11 C        5.1150     4.5610     0.1350 C.ar  1 <1>   0.4610 
 12 N        6.2940     5.2180     0.1030 N.pl3 1 <1>  -0.8380 
 13 C        7.6680     4.6550    -0.1640 C.3   1 <1>   0.2090 
 14 C        6.4740     6.6590     0.5100 C.3   1 <1>   0.2090 
 15 C        8.6710     5.7250     0.2820 C.3   1 <1>   0.2600 
 16 C        7.9100     7.0370     0.1290 C.3   1 <1>   0.2000 
 17 F        8.8890     5.5380     1.5810 F     1 <1>  -0.3400 
 18 O        7.9350     7.4310    -1.2090 O.3   1 <1>  -0.6800 
 19 H        0.5780     2.7960     0.4480 H     1 <1>   0.1500 
 20 H        2.7630    -0.6680    -0.6800 H     1 <1>   0.1500 
 21 H        4.8590     0.6360    -0.7160 H     1 <1>   0.1500 
 22 H        1.7840     4.9760     0.7560 H     1 <1>   0.1500 
 23 H        5.9440     2.8040    -0.3880 H     1 <1>   0.4570 
 24 H        3.8880     6.2340     0.7140 H     1 <1>   0.1500 
 25 H        7.8440     3.7350     0.3670 H     1 <1>   0.0800 
 26 H        7.7830     4.4930    -1.2230 H     1 <1>   0.0800 
 27 H        5.7660     7.3130     0.0300 H     1 <1>   0.0800 
 28 H        6.3630     6.7370     1.5790 H     1 <1>   0.0800 
 29 H        9.6280     5.6980    -0.2080 H     1 <1>   0.0800 
 30 H        8.3240     7.8330     0.7240 H     1 <1>   0.0800 
 31 H        7.3060     6.9050    -1.7410 H     1 <1>   0.4000 
@<TRIPOS>BOND
  1   1   2  1   
  2   2   3  ar  
  3   2   4  ar  
  4   3   5  ar  
  5   3  19  1   
  6   4   6  ar  
  7   4  20  1   
  8   5   7  ar  
  9   5   8  ar  
 10   6   7  ar  
 11   6  21  1   
 12   7   9  ar  
 13   8  10  ar  
 14   8  22  1   
 15   9  11  ar  
 16   9  23  1   
 17  10  11  ar  
 18  10  24  1   
 19  11  12  1   
 20  12  13  1   
 21  12  14  1   
 22  13  15  1   
 23  13  25  1   
 24  13  26  1   
 25  14  16  1   
 26  14  27  1   
 27  14  28  1   
 28  15  16  1   
 29  15  17  1   
 30  15  29  1   
 31  16  18  1   
 32  16  30  1   
 33  18  31  1   
@<TRIPOS>SUBSTRUCTURE
  1 ****  11 GROUP 4 **** **** 0

# MOE 2024.06 (io_trps.svl 2023.06)
