@<TRIPOS>MOLECULE
NONAME
58 63 1 0 0 
SMALL
USER_CHARGES


@<TRIPOS>ATOM
  1 O        1.3080    -1.3270     1.9330 O.3   1 <1>  -0.5600 
  2 C        2.1120    -1.2660     0.7750 C.3   1 <1>   0.4600 
  3 C       -0.0770    -1.5270     1.7700 C.3   1 <1>   0.1200 
  4 C        1.6290    -2.2950    -0.2390 C.2   1 <1>  -0.3320 
  5 C        3.5310    -1.5980     1.2400 C.3   1 <1>  -0.1600 
  6 C        2.0610     0.1540     0.2050 C.3   1 <1>  -0.1600 
  7 C       -0.3680    -2.8940     1.1280 C.3   1 <1>   0.0210 
  8 N        2.2220    -2.6180    -1.4290 N.pl3 1 <1>   0.0330 
  9 C        0.5160    -3.0400    -0.0840 C.2   1 <1>  -0.1810 
 10 C        4.0390    -0.5600     2.2410 C.3   1 <1>   0.2090 
 11 C        2.5990     1.1700     1.2110 C.3   1 <1>   0.2090 
 12 C        1.4670    -3.5960    -2.0300 C.ar  1 <1>  -0.1520 
 13 C        0.3840    -3.8860    -1.2040 C.ar  1 <1>   0.0000 
 14 N        4.0020     0.7950     1.6000 N.pl3 1 <1>  -0.8380 
 15 C        1.6390    -4.2630    -3.2450 C.ar  1 <1>  -0.1500 
 16 C       -0.5420    -4.8590    -1.5930 C.ar  1 <1>  -0.1500 
 17 C        5.0550     1.6240     1.3600 C.ar  1 <1>   0.7710 
 18 C        0.7210    -5.2180    -3.6160 C.ar  1 <1>  -0.1500 
 19 C       -0.3700    -5.5160    -2.7890 C.ar  1 <1>  -0.1500 
 20 N        4.8870     2.6910     0.5930 N.ar  1 <1>  -0.6200 
 21 N        6.2490     1.3400     1.9120 N.ar  1 <1>  -0.1790 
 22 C        5.9160     3.4840     0.3640 C.ar  1 <1>   0.4100 
 23 C        7.3340     2.1240     1.7060 C.ar  1 <1>   0.2110 
 24 N        5.7120     4.5710    -0.4240 N.pl3 1 <1>  -0.8380 
 25 C        7.1810     3.2150     0.9220 C.ar  1 <1>  -0.1500 
 26 C        6.7020     5.6400    -0.7420 C.3   1 <1>   0.2090 
 27 C        4.4040     4.9000    -1.0500 C.3   1 <1>   0.2090 
 28 C        5.9760     6.6320    -1.6570 C.3   1 <1>   0.2000 
 29 C        4.7210     5.9170    -2.1400 C.3   1 <1>  -0.1600 
 30 O        6.7600     6.9700    -2.7470 O.3   1 <1>  -0.6800 
 31 H       -0.4680    -0.7360     1.1550 H     1 <1>   0.0800 
 32 H       -0.5360    -1.4690     2.7410 H     1 <1>   0.0800 
 33 H        4.1930    -1.6330     0.3960 H     1 <1>   0.0800 
 34 H        3.5250    -2.5740     1.6920 H     1 <1>   0.0800 
 35 H        1.0520     0.4020    -0.0670 H     1 <1>   0.0800 
 36 H        2.6520     0.2070    -0.6890 H     1 <1>   0.0800 
 37 H       -1.4030    -2.9470     0.8420 H     1 <1>   0.0800 
 38 H       -0.1620    -3.6830     1.8280 H     1 <1>   0.0800 
 39 H        3.0740    -2.2150    -1.8290 H     1 <1>   0.2700 
 40 H        5.0290    -0.8360     2.5520 H     1 <1>   0.0800 
 41 H        3.4060    -0.5600     3.1150 H     1 <1>   0.0800 
 42 H        1.9760     1.1720     2.0900 H     1 <1>   0.0800 
 43 H        2.5460     2.1560     0.7820 H     1 <1>   0.0800 
 44 H        2.4790    -4.0290    -3.8740 H     1 <1>   0.1500 
 45 H       -1.3720    -5.0780    -0.9480 H     1 <1>   0.1500 
 46 H        0.8310    -5.7460    -4.5460 H     1 <1>   0.1500 
 47 H       -1.0740    -6.2680    -3.1020 H     1 <1>   0.1500 
 48 H        6.2700     0.5230     2.5090 H     1 <1>   0.4570 
 49 H        8.2730     1.8610     2.1680 H     1 <1>   0.1500 
 50 H        8.0010     3.8760     0.7180 H     1 <1>   0.1500 
 51 H        7.5500     5.2120    -1.2460 H     1 <1>   0.0800 
 52 H        7.0170     6.1350     0.1600 H     1 <1>   0.0800 
 53 H        3.7580     5.3350    -0.3060 H     1 <1>   0.0800 
 54 H        3.9350     4.0220    -1.4620 H     1 <1>   0.0800 
 55 H        5.7350     7.5310    -1.1160 H     1 <1>   0.0800 
 56 H        3.9030     6.5990    -2.2820 H     1 <1>   0.0800 
 57 H        4.9070     5.3840    -3.0550 H     1 <1>   0.0800 
 58 H        6.8600     6.2030    -3.3430 H     1 <1>   0.4000 
@<TRIPOS>BOND
  1   1   2  1   
  2   1   3  1   
  3   2   4  1   
  4   2   5  1   
  5   2   6  1   
  6   3   7  1   
  7   3  31  1   
  8   3  32  1   
  9   4   8  1   
 10   4   9  2   
 11   5  10  1   
 12   5  33  1   
 13   5  34  1   
 14   6  11  1   
 15   6  35  1   
 16   6  36  1   
 17   7   9  1   
 18   7  37  1   
 19   7  38  1   
 20   8  12  1   
 21   8  39  1   
 22   9  13  1   
 23  10  14  1   
 24  10  40  1   
 25  10  41  1   
 26  11  14  1   
 27  11  42  1   
 28  11  43  1   
 29  12  13  ar  
 30  12  15  ar  
 31  13  16  ar  
 32  14  17  1   
 33  15  18  ar  
 34  15  44  1   
 35  16  19  ar  
 36  16  45  1   
 37  17  20  ar  
 38  17  21  ar  
 39  18  19  ar  
 40  18  46  1   
 41  19  47  1   
 42  20  22  ar  
 43  21  23  ar  
 44  21  48  1   
 45  22  24  1   
 46  22  25  ar  
 47  23  25  ar  
 48  23  49  1   
 49  24  26  1   
 50  24  27  1   
 51  25  50  1   
 52  26  28  1   
 53  26  51  1   
 54  26  52  1   
 55  27  29  1   
 56  27  53  1   
 57  27  54  1   
 58  28  29  1   
 59  28  30  1   
 60  28  55  1   
 61  29  56  1   
 62  29  57  1   
 63  30  58  1   
@<TRIPOS>SUBSTRUCTURE
  1 ****   6 GROUP 4 **** **** 0

# MOE 2024.06 (io_trps.svl 2023.06)
