@<TRIPOS>MOLECULE
NONAME
47 49 1 0 0 
SMALL
USER_CHARGES


@<TRIPOS>ATOM
  1 O        1.0970     1.7930    -1.8810 O.2   1 <1>  -0.5700 
  2 C        0.7420     2.9330    -1.7200 C.2   1 <1>   0.5690 
  3 N        0.1630     3.3200    -0.5620 N.am  1 <1>  -0.7300 
  4 C        0.9090     3.9580    -2.8450 C.3   1 <1>   0.1810 
  5 C       -0.3620     4.6860    -0.3180 C.3   1 <1>   0.3640 
  6 O        0.8080     5.2900    -2.3870 O.3   1 <1>  -0.5600 
  7 C       -1.7640     4.5640     0.2720 C.ar  1 <1>  -0.1440 
  8 C       -0.3510     5.5520    -1.6030 C.3   1 <1>   0.2610 
  9 C       -2.7040     3.6970    -0.2740 C.ar  1 <1>  -0.1500 
 10 C       -2.1190     5.3330     1.3720 C.ar  1 <1>  -0.1500 
 11 C       -0.4140     7.0320    -1.2190 C.2   1 <1>   0.5690 
 12 C       -3.9710     3.5990     0.2730 C.ar  1 <1>  -0.1500 
 13 C       -3.3860     5.2350     1.9190 C.ar  1 <1>  -0.1500 
 14 O       -1.4850     7.5550    -1.0250 O.2   1 <1>  -0.5700 
 15 N        0.7410     7.7320    -1.0930 N.am  1 <1>  -0.7300 
 16 C       -4.3140     4.3680     1.3710 C.ar  1 <1>  -0.1500 
 17 C        0.8500     9.1360    -0.6740 C.3   1 <1>   0.3210 
 18 C        2.0520     9.2510     0.2390 C.2   1 <1>  -0.1810 
 19 C        3.3320     9.5950    -0.0280 C.2   1 <1>  -0.3320 
 20 C        2.0300     8.9950     1.6040 C.2   1 <1>   0.1390 
 21 N        4.0020     9.5390     1.1490 N.pl3 1 <1>   0.3140 
 22 C        3.9650     9.9780    -1.3580 C.3   1 <1>  -0.0600 
 23 N        3.1910     9.1630     2.1540 N.2   1 <1>  -0.7070 
 24 C        5.4310     9.8300     1.3970 C.3   1 <1>   0.0960 
 25 C        5.6530    11.3200     1.6860 C.3   1 <1>  -0.2400 
 26 H        0.0190     2.6280     0.1750 H     1 <1>   0.3700 
 27 H        0.1560     3.7970    -3.5940 H     1 <1>   0.0800 
 28 H        1.8780     3.8380    -3.2950 H     1 <1>   0.0800 
 29 H        0.2790     5.1550     0.4090 H     1 <1>   0.0800 
 30 H       -1.2140     5.3250    -2.2030 H     1 <1>   0.0800 
 31 H       -2.4570     3.0900    -1.1280 H     1 <1>   0.1500 
 32 H       -1.4150     6.0190     1.8090 H     1 <1>   0.1500 
 33 H       -4.6920     2.9240    -0.1550 H     1 <1>   0.1500 
 34 H       -3.6520     5.8380     2.7700 H     1 <1>   0.1500 
 35 H        1.6270     7.2780    -1.3260 H     1 <1>   0.3700 
 36 H       -5.2990     4.2920     1.7960 H     1 <1>   0.1500 
 37 H        0.9780     9.7600    -1.5410 H     1 <1>   0.0800 
 38 H       -0.0430     9.4450    -0.1560 H     1 <1>   0.0800 
 39 H        1.1560     8.6900     2.1530 H     1 <1>   0.1500 
 40 H        3.2400     9.9330    -2.1510 H     1 <1>   0.0800 
 41 H        4.7670     9.3020    -1.5960 H     1 <1>   0.0800 
 42 H        4.3530    10.9800    -1.3100 H     1 <1>   0.0800 
 43 H        5.7460     9.2450     2.2420 H     1 <1>   0.0800 
 44 H        6.0010     9.5240     0.5400 H     1 <1>   0.0800 
 45 H        5.0870    11.6120     2.5530 H     1 <1>   0.0800 
 46 H        5.3470    11.9170     0.8460 H     1 <1>   0.0800 
 47 H        6.6950    11.5040     1.8790 H     1 <1>   0.0800 
@<TRIPOS>BOND
  1   1   2  2   
  2   2   3  am  
  3   2   4  1   
  4   3   5  1   
  5   3  26  1   
  6   4   6  1   
  7   4  27  1   
  8   4  28  1   
  9   5   7  1   
 10   5   8  1   
 11   5  29  1   
 12   6   8  1   
 13   7   9  ar  
 14   7  10  ar  
 15   8  11  1   
 16   8  30  1   
 17   9  12  ar  
 18   9  31  1   
 19  10  13  ar  
 20  10  32  1   
 21  11  14  2   
 22  11  15  am  
 23  12  16  ar  
 24  12  33  1   
 25  13  16  ar  
 26  13  34  1   
 27  15  17  1   
 28  15  35  1   
 29  16  36  1   
 30  17  18  1   
 31  17  37  1   
 32  17  38  1   
 33  18  19  2   
 34  18  20  1   
 35  19  21  1   
 36  19  22  1   
 37  20  23  2   
 38  20  39  1   
 39  21  23  1   
 40  21  24  1   
 41  22  40  1   
 42  22  41  1   
 43  22  42  1   
 44  24  25  1   
 45  24  43  1   
 46  24  44  1   
 47  25  45  1   
 48  25  46  1   
 49  25  47  1   
@<TRIPOS>SUBSTRUCTURE
  1 ****  11 GROUP 4 **** **** 0

# MOE 2024.06 (io_trps.svl 2023.06)
