@<TRIPOS>MOLECULE
NONAME
44 44 1 0 0 
SMALL
USER_CHARGES


@<TRIPOS>ATOM
  1 BR      -0.9570    -0.6180     0.8070 Br    1 <1>  -0.1110 
  2 C        0.6190     0.4550     0.5690 C.ar  1 <1>   0.4210 
  3 N        0.5150     1.4480    -0.2910 N.ar  1 <1>  -0.6200 
  4 C        1.7490     0.1240     1.3020 C.ar  1 <1>   0.1600 
  5 C        1.6530     2.1290    -0.3840 C.ar  1 <1>   0.3830 
  6 N        2.8870     0.7930     1.2200 N.ar  1 <1>  -0.6200 
  7 C        1.6480     3.2280    -1.3070 C.1   1 <1>  -0.0730 
  8 C        2.8180     1.8140     0.3620 C.ar  1 <1>   0.4270 
  9 C        1.6600     4.1450    -2.0690 C.1   1 <1>  -0.1770 
 10 N        3.9830     2.5600     0.2350 N.am  1 <1>  -0.2370 
 11 C        4.0310     3.8370     0.7260 C.2   1 <1>   0.7800 
 12 C        5.0000     2.0580    -0.5210 C.2   1 <1>   0.7800 
 13 O        3.2720     4.2130     1.5940 O.2   1 <1>  -0.5700 
 14 O        4.9090     4.6760     0.1710 O.3   1 <1>  -0.4300 
 15 O        4.7860     1.4920    -1.5720 O.2   1 <1>  -0.5700 
 16 O        6.2390     2.2130    -0.0490 O.3   1 <1>  -0.4300 
 17 C        5.1280     6.0330     0.4810 C.3   1 <1>   0.2800 
 18 C        7.4500     1.8450    -0.6690 C.3   1 <1>   0.2800 
 19 C        6.2600     6.4720    -0.4490 C.3   1 <1>  -0.2400 
 20 C        5.5840     6.1750     1.9370 C.3   1 <1>  -0.2400 
 21 C        3.8700     6.8510     0.1740 C.3   1 <1>  -0.2400 
 22 C        7.5140     0.3230    -0.8390 C.3   1 <1>  -0.2400 
 23 C        7.6070     2.5920    -1.9980 C.3   1 <1>  -0.2400 
 24 C        8.5440     2.2960     0.2970 C.3   1 <1>  -0.2400 
 25 H        1.7040    -0.7150     1.9730 H     1 <1>   0.1500 
 26 H        1.6610     4.9680    -2.7610 H     1 <1>   0.1770 
 27 H        7.1440     5.8880    -0.2620 H     1 <1>   0.0800 
 28 H        6.4970     7.5070    -0.2850 H     1 <1>   0.0800 
 29 H        5.9690     6.3490    -1.4770 H     1 <1>   0.0800 
 30 H        6.4200     5.5290     2.1330 H     1 <1>   0.0800 
 31 H        4.7870     5.9400     2.6190 H     1 <1>   0.0800 
 32 H        5.8850     7.1890     2.1290 H     1 <1>   0.0800 
 33 H        3.5420     6.6730    -0.8340 H     1 <1>   0.0800 
 34 H        4.0800     7.9000     0.2820 H     1 <1>   0.0800 
 35 H        3.0730     6.6100     0.8530 H     1 <1>   0.0800 
 36 H        6.7990    -0.0180    -1.5660 H     1 <1>   0.0800 
 37 H        7.3260    -0.1670     0.0990 H     1 <1>   0.0800 
 38 H        8.4890     0.0340    -1.1850 H     1 <1>   0.0800 
 39 H        6.8960     2.2470    -2.7260 H     1 <1>   0.0800 
 40 H        8.5890     2.4220    -2.4000 H     1 <1>   0.0800 
 41 H        7.4780     3.6490    -1.8510 H     1 <1>   0.0800 
 42 H        8.4330     1.8000     1.2450 H     1 <1>   0.0800 
 43 H        8.4930     3.3590     0.4500 H     1 <1>   0.0800 
 44 H        9.5150     2.0560    -0.0980 H     1 <1>   0.0800 
@<TRIPOS>BOND
  1   1   2  1   
  2   2   3  ar  
  3   2   4  ar  
  4   3   5  ar  
  5   4   6  ar  
  6   4  25  1   
  7   5   7  1   
  8   5   8  ar  
  9   6   8  ar  
 10   7   9  3   
 11   8  10  1   
 12   9  26  1   
 13  10  11  am  
 14  10  12  am  
 15  11  13  2   
 16  11  14  1   
 17  12  15  2   
 18  12  16  1   
 19  14  17  1   
 20  16  18  1   
 21  17  19  1   
 22  17  20  1   
 23  17  21  1   
 24  18  22  1   
 25  18  23  1   
 26  18  24  1   
 27  19  27  1   
 28  19  28  1   
 29  19  29  1   
 30  20  30  1   
 31  20  31  1   
 32  20  32  1   
 33  21  33  1   
 34  21  34  1   
 35  21  35  1   
 36  22  36  1   
 37  22  37  1   
 38  22  38  1   
 39  23  39  1   
 40  23  40  1   
 41  23  41  1   
 42  24  42  1   
 43  24  43  1   
 44  24  44  1   
@<TRIPOS>SUBSTRUCTURE
  1 ****  10 GROUP 4 **** **** 0

# MOE 2024.06 (io_trps.svl 2023.06)
