@<TRIPOS>MOLECULE
NONAME
49 51 1 0 0 
SMALL
USER_CHARGES


@<TRIPOS>ATOM
  1 S        0.9120    -2.5140     1.4020 S.3   1 <1>  -0.3320 
  2 C       -0.4550    -1.6390     0.6260 C.ar  1 <1>   0.1020 
  3 C        2.4050    -1.4420     1.2190 C.3   1 <1>  -0.0100 
  4 C       -1.6950    -2.2450     0.6940 C.ar  1 <1>  -0.1500 
  5 C       -0.2910    -0.4230    -0.0170 C.ar  1 <1>  -0.1500 
  6 C       -2.7950    -1.6380     0.1050 C.ar  1 <1>  -0.1430 
  7 C       -1.3900     0.1880    -0.5950 C.ar  1 <1>  -0.1500 
  8 C       -2.6360    -0.4160    -0.5350 C.ar  1 <1>  -0.1500 
  9 C       -4.1520    -2.3100     0.1560 C.3   1 <1>   0.4860 
 10 N       -4.3940    -2.9690    -1.1620 N.4   1 <1>  -0.9590 
 11 C       -5.8070    -3.3460    -1.4490 C.3   1 <1>   0.4230 
 12 C       -3.4780    -4.1390    -1.3490 C.3   1 <1>   0.2630 
 13 C       -6.4660    -4.2140    -0.3780 C.3   1 <1>  -0.1600 
 14 C       -6.7310    -2.1400    -1.5790 C.3   1 <1>  -0.1600 
 15 C       -7.9690    -4.0710    -0.6530 C.3   1 <1>  -0.0800 
 16 C       -8.1400    -2.7180    -1.3840 C.3   1 <1>  -0.0800 
 17 C       -8.8400    -4.2520     0.6080 C.3   1 <1>   0.1400 
 18 C       -9.1030    -1.7490    -0.6740 C.3   1 <1>  -0.0990 
 19 N      -10.1930    -3.6940     0.3750 N.am  1 <1>  -0.6600 
 20 C      -10.3550    -2.4790    -0.2330 C.2   1 <1>   0.5690 
 21 C      -11.3440    -4.4870     0.8880 C.3   1 <1>   0.0600 
 22 O      -11.4290    -1.9680    -0.4320 O.2   1 <1>  -0.5700 
 23 H        3.2250    -1.9430     1.7020 H     1 <1>   0.0800 
 24 H        2.2000    -0.5010     1.6960 H     1 <1>   0.0800 
 25 H        2.6000    -1.3180     0.1690 H     1 <1>   0.0800 
 26 H       -1.7760    -3.1850     1.2120 H     1 <1>   0.1500 
 27 H        0.6680     0.0540    -0.0730 H     1 <1>   0.1500 
 28 H       -1.2720     1.1370    -1.0920 H     1 <1>   0.1500 
 29 H       -3.4740     0.0870    -0.9890 H     1 <1>   0.1500 
 30 H       -4.9020    -1.5630     0.3540 H     1 <1>   0.0800 
 31 H       -4.1760    -3.0370     0.9510 H     1 <1>   0.0800 
 32 H       -4.1200    -2.2680    -1.8630 H     1 <1>   0.4500 
 33 H       -5.8470    -3.8860    -2.3830 H     1 <1>   0.0800 
 34 H       -3.6760    -4.8950    -0.6070 H     1 <1>   0.0800 
 35 H       -2.4490    -3.8290    -1.2590 H     1 <1>   0.0800 
 36 H       -3.6160    -4.5710    -2.3270 H     1 <1>   0.0800 
 37 H       -6.1580    -5.2430    -0.4510 H     1 <1>   0.0800 
 38 H       -6.2530    -3.8410     0.6070 H     1 <1>   0.0800 
 39 H       -6.5360    -1.4130    -0.8130 H     1 <1>   0.0800 
 40 H       -6.6390    -1.6750    -2.5450 H     1 <1>   0.0800 
 41 H       -8.2560    -4.8470    -1.3450 H     1 <1>   0.0800 
 42 H       -8.5610    -2.9320    -2.3540 H     1 <1>   0.0800 
 43 H       -8.4060    -3.7330     1.4460 H     1 <1>   0.0800 
 44 H       -8.9090    -5.2970     0.8570 H     1 <1>   0.0800 
 45 H       -9.3760    -0.9450    -1.3350 H     1 <1>   0.0800 
 46 H       -8.6510    -1.3250     0.2030 H     1 <1>   0.0800 
 47 H      -11.3720    -5.4460     0.4020 H     1 <1>   0.0800 
 48 H      -12.2730    -3.9770     0.6910 H     1 <1>   0.0800 
 49 H      -11.2480    -4.6260     1.9500 H     1 <1>   0.0800 
@<TRIPOS>BOND
  1   1   2  1   
  2   1   3  1   
  3   2   4  ar  
  4   2   5  ar  
  5   3  23  1   
  6   3  24  1   
  7   3  25  1   
  8   4   6  ar  
  9   4  26  1   
 10   5   7  ar  
 11   5  27  1   
 12   6   8  ar  
 13   6   9  1   
 14   7   8  ar  
 15   7  28  1   
 16   8  29  1   
 17   9  10  1   
 18   9  30  1   
 19   9  31  1   
 20  10  11  1   
 21  10  12  1   
 22  10  32  1   
 23  11  13  1   
 24  11  14  1   
 25  11  33  1   
 26  12  34  1   
 27  12  35  1   
 28  12  36  1   
 29  13  15  1   
 30  13  37  1   
 31  13  38  1   
 32  14  16  1   
 33  14  39  1   
 34  14  40  1   
 35  15  16  1   
 36  15  17  1   
 37  15  41  1   
 38  16  18  1   
 39  16  42  1   
 40  17  19  1   
 41  17  43  1   
 42  17  44  1   
 43  18  20  1   
 44  18  45  1   
 45  18  46  1   
 46  19  20  am  
 47  19  21  1   
 48  20  22  2   
 49  21  47  1   
 50  21  48  1   
 51  21  49  1   
@<TRIPOS>SUBSTRUCTURE
  1 ****   9 GROUP 4 **** **** 0

# MOE 2024.06 (io_trps.svl 2023.06)
