@<TRIPOS>MOLECULE
NONAME
53 54 1 0 0 
SMALL
USER_CHARGES


@<TRIPOS>ATOM
  1 S        0.3640     0.3130    -0.7950 S.o2  1 <1>   1.3330 
  2 O       -0.7920     1.1210    -1.1110 O.2   1 <1>  -0.6500 
  3 O        0.6080    -0.9050    -1.5360 O.2   1 <1>  -0.6500 
  4 N        0.2540    -0.0970     0.8500 N.am  1 <1>  -0.8490 
  5 C        1.8390     1.3280    -0.8970 C.3   1 <1>  -0.0550 
  6 C       -0.3170     0.9720     1.6780 C.3   1 <1>   0.1160 
  7 C       -0.4960    -1.3390     1.0590 C.3   1 <1>   0.1160 
  8 C        3.1540     0.5740    -0.6030 C.3   1 <1>  -0.0800 
  9 C        4.4150     1.3770    -0.8770 C.3   1 <1>   0.2200 
 10 C        3.3430     0.1400     0.8540 C.3   1 <1>   0.1200 
 11 N        4.2680     2.7730    -0.4000 N.am  1 <1>  -0.7300 
 12 C        5.4180     0.6470     0.0070 C.3   1 <1>   0.1200 
 13 O        4.7060     0.2580     1.1420 O.3   1 <1>  -0.5600 
 14 C        4.0910     3.8650    -1.1990 C.2   1 <1>   0.6160 
 15 O        3.8670     3.6570    -2.3780 O.2   1 <1>  -0.5700 
 16 C        4.1260     5.2090    -0.6710 C.2   1 <1>   0.0290 
 17 C        5.1400     5.5230     0.2970 C.2   1 <1>   0.6160 
 18 C        3.2490     6.2030    -1.0520 C.2   1 <1>  -0.1380 
 19 O        5.9070     4.6630     0.7280 O.2   1 <1>  -0.5700 
 20 N        5.2600     6.8260     0.7840 N.am  1 <1>  -0.4690 
 21 C        3.4000     7.5020    -0.5300 C.2   1 <1>  -0.1500 
 22 C        2.0960     5.9880    -2.0290 C.3   1 <1>  -0.1020 
 23 C        4.3810     7.8050     0.3620 C.2   1 <1>  -0.0290 
 24 C        6.3700     7.1220     1.7440 C.3   1 <1>   0.1400 
 25 C        4.5010     9.2290     0.8920 C.3   1 <1>  -0.1020 
 26 C        7.6470     7.4620     0.9750 C.3   1 <1>  -0.2400 
 27 H        1.9030     1.7260    -1.8920 H     1 <1>   0.0800 
 28 H        1.7420     2.1610    -0.2290 H     1 <1>   0.0800 
 29 H       -0.2830     0.6920     2.7170 H     1 <1>   0.0800 
 30 H       -1.3420     1.1590     1.3990 H     1 <1>   0.0800 
 31 H        0.2460     1.8810     1.5540 H     1 <1>   0.0800 
 32 H       -0.5370    -1.5790     2.1070 H     1 <1>   0.0800 
 33 H       -0.0110    -2.1530     0.5470 H     1 <1>   0.0800 
 34 H       -1.4990    -1.2390     0.6760 H     1 <1>   0.0800 
 35 H        3.1870    -0.3110    -1.2150 H     1 <1>   0.0800 
 36 H        4.7040     1.3570    -1.9150 H     1 <1>   0.0800 
 37 H        3.0350    -0.8790     1.0140 H     1 <1>   0.0800 
 38 H        2.8160     0.7890     1.5320 H     1 <1>   0.0800 
 39 H        4.6990     2.9420     0.5180 H     1 <1>   0.3700 
 40 H        6.2510     1.2650     0.2930 H     1 <1>   0.0800 
 41 H        5.7720    -0.2460    -0.4790 H     1 <1>   0.0800 
 42 H        2.7130     8.2630    -0.8590 H     1 <1>   0.1500 
 43 H        1.3000     6.6870    -1.8450 H     1 <1>   0.0800 
 44 H        1.6870     4.9980    -1.9340 H     1 <1>   0.0800 
 45 H        2.4450     6.1200    -3.0380 H     1 <1>   0.0800 
 46 H        6.1030     7.9350     2.3920 H     1 <1>   0.0800 
 47 H        6.5450     6.2680     2.3770 H     1 <1>   0.0800 
 48 H        5.4780     9.6260     0.6850 H     1 <1>   0.0800 
 49 H        4.3250     9.2470     1.9520 H     1 <1>   0.0800 
 50 H        3.7770     9.8730     0.4260 H     1 <1>   0.0800 
 51 H        7.4910     8.3100     0.3350 H     1 <1>   0.0800 
 52 H        7.9540     6.6200     0.3800 H     1 <1>   0.0800 
 53 H        8.4360     7.6920     1.6680 H     1 <1>   0.0800 
@<TRIPOS>BOND
  1   1   2  2   
  2   1   3  2   
  3   1   4  am  
  4   1   5  1   
  5   4   6  1   
  6   4   7  1   
  7   5   8  1   
  8   5  27  1   
  9   5  28  1   
 10   6  29  1   
 11   6  30  1   
 12   6  31  1   
 13   7  32  1   
 14   7  33  1   
 15   7  34  1   
 16   8   9  1   
 17   8  10  1   
 18   8  35  1   
 19   9  11  1   
 20   9  12  1   
 21   9  36  1   
 22  10  13  1   
 23  10  37  1   
 24  10  38  1   
 25  11  14  am  
 26  11  39  1   
 27  12  13  1   
 28  12  40  1   
 29  12  41  1   
 30  14  15  2   
 31  14  16  1   
 32  16  17  1   
 33  16  18  2   
 34  17  19  2   
 35  17  20  am  
 36  18  21  1   
 37  18  22  1   
 38  20  23  1   
 39  20  24  1   
 40  21  23  2   
 41  21  42  1   
 42  22  43  1   
 43  22  44  1   
 44  22  45  1   
 45  23  25  1   
 46  24  26  1   
 47  24  46  1   
 48  24  47  1   
 49  25  48  1   
 50  25  49  1   
 51  25  50  1   
 52  26  51  1   
 53  26  52  1   
 54  26  53  1   
@<TRIPOS>SUBSTRUCTURE
  1 ****  11 GROUP 4 **** **** 0

# MOE 2024.06 (io_trps.svl 2023.06)
