@<TRIPOS>MOLECULE
NONAME
54 56 1 0 0 
SMALL
USER_CHARGES


@<TRIPOS>ATOM
  1 O        2.7070    -1.4330     1.5910 O.2   1 <1>  -0.5700 
  2 C        2.3510    -0.9940     0.5240 C.2   1 <1>   0.5690 
  3 N        1.0560    -1.0020     0.1150 N.am  1 <1>  -0.5790 
  4 C        3.3970    -0.3990    -0.3980 C.3   1 <1>  -0.0990 
  5 C       -0.0770    -1.5250     0.8910 C.3   1 <1>   0.0490 
  6 C        3.4890     1.1290    -0.2290 C.3   1 <1>  -0.1600 
  7 C       -1.1980    -2.1710     0.1480 C.3   1 <1>  -0.2000 
  8 C       -1.3880    -0.8230     0.7760 C.3   1 <1>  -0.2000 
  9 C        4.5410     1.7930    -1.1380 C.3   1 <1>  -0.0800 
 10 C        5.9760     1.3520    -0.7810 C.3   1 <1>  -0.1600 
 11 C        4.4160     3.3240    -1.0340 C.3   1 <1>  -0.1600 
 12 C        7.0250     2.1280    -1.5810 C.3   1 <1>   0.2090 
 13 C        5.5070     4.0530    -1.8230 C.3   1 <1>   0.2090 
 14 N        6.8440     3.5890    -1.3310 N.pl3 1 <1>  -0.8380 
 15 C        7.7070     4.4380    -0.7060 C.ar  1 <1>   0.7710 
 16 N        7.4440     5.7330    -0.6720 N.ar  1 <1>  -0.6200 
 17 N        8.8080     3.9350    -0.1250 N.ar  1 <1>  -0.1790 
 18 C        8.2820     6.5400    -0.0500 C.ar  1 <1>   0.4100 
 19 C        9.7160     4.7270     0.4920 C.ar  1 <1>   0.2110 
 20 N        7.9330     7.8520    -0.0100 N.pl3 1 <1>  -0.8380 
 21 C        9.4800     6.0610     0.5390 C.ar  1 <1>  -0.1440 
 22 C        7.7670     8.6020     1.2660 C.3   1 <1>   0.1290 
 23 C        7.3150     8.5240    -1.1890 C.3   1 <1>   0.1290 
 24 C       10.5000     7.0020     1.1760 C.3   1 <1>  -0.0970 
 25 H        0.8100    -0.6180    -0.7950 H     1 <1>   0.3700 
 26 H        3.1560    -0.6480    -1.4140 H     1 <1>   0.0800 
 27 H        4.3360    -0.8600    -0.1570 H     1 <1>   0.0800 
 28 H        0.2120    -1.9310     1.8490 H     1 <1>   0.1000 
 29 H        3.7100     1.3520     0.8020 H     1 <1>   0.0800 
 30 H        2.5230     1.5520    -0.4460 H     1 <1>   0.0800 
 31 H       -1.6920    -3.0150     0.5960 H     1 <1>   0.1000 
 32 H       -1.1380    -2.2480    -0.9230 H     1 <1>   0.1000 
 33 H       -1.4620     0.0450     0.1450 H     1 <1>   0.1000 
 34 H       -2.0110    -0.7530     1.6510 H     1 <1>   0.1000 
 35 H        4.3400     1.5120    -2.1590 H     1 <1>   0.0800 
 36 H        6.0990     0.3050    -0.9930 H     1 <1>   0.0800 
 37 H        6.1520     1.4970     0.2700 H     1 <1>   0.0800 
 38 H        4.4780     3.6320    -0.0050 H     1 <1>   0.0800 
 39 H        3.4560     3.6340    -1.4070 H     1 <1>   0.0800 
 40 H        6.8890     1.9320    -2.6330 H     1 <1>   0.0800 
 41 H        8.0100     1.7900    -1.3170 H     1 <1>   0.0800 
 42 H        5.3730     5.1150    -1.7070 H     1 <1>   0.0800 
 43 H        5.4130     3.8290    -2.8720 H     1 <1>   0.0800 
 44 H        8.9030     2.9300    -0.1740 H     1 <1>   0.4570 
 45 H       10.5970     4.2750     0.9180 H     1 <1>   0.1500 
 46 H        7.9060     7.9480     2.1080 H     1 <1>   0.0800 
 47 H        6.7740     9.0140     1.3220 H     1 <1>   0.0800 
 48 H        8.4830     9.4040     1.3140 H     1 <1>   0.0800 
 49 H        7.5380     7.9780    -2.0900 H     1 <1>   0.0800 
 50 H        7.7040     9.5220    -1.2890 H     1 <1>   0.0800 
 51 H        6.2470     8.5680    -1.0660 H     1 <1>   0.0800 
 52 H       10.6480     7.8640     0.5480 H     1 <1>   0.0800 
 53 H       11.4520     6.5190     1.3050 H     1 <1>   0.0800 
 54 H       10.1580     7.3340     2.1400 H     1 <1>   0.0800 
@<TRIPOS>BOND
  1   1   2  2   
  2   2   3  am  
  3   2   4  1   
  4   3   5  1   
  5   3  25  1   
  6   4   6  1   
  7   4  26  1   
  8   4  27  1   
  9   5   7  1   
 10   5   8  1   
 11   5  28  1   
 12   6   9  1   
 13   6  29  1   
 14   6  30  1   
 15   7   8  1   
 16   7  31  1   
 17   7  32  1   
 18   8  33  1   
 19   8  34  1   
 20   9  10  1   
 21   9  11  1   
 22   9  35  1   
 23  10  12  1   
 24  10  36  1   
 25  10  37  1   
 26  11  13  1   
 27  11  38  1   
 28  11  39  1   
 29  12  14  1   
 30  12  40  1   
 31  12  41  1   
 32  13  14  1   
 33  13  42  1   
 34  13  43  1   
 35  14  15  1   
 36  15  16  ar  
 37  15  17  ar  
 38  16  18  ar  
 39  17  19  ar  
 40  17  44  1   
 41  18  20  1   
 42  18  21  ar  
 43  19  21  ar  
 44  19  45  1   
 45  20  22  1   
 46  20  23  1   
 47  21  24  1   
 48  22  46  1   
 49  22  47  1   
 50  22  48  1   
 51  23  49  1   
 52  23  50  1   
 53  23  51  1   
 54  24  52  1   
 55  24  53  1   
 56  24  54  1   
@<TRIPOS>SUBSTRUCTURE
  1 ****  11 GROUP 4 **** **** 0

# MOE 2024.06 (io_trps.svl 2023.06)
