@<TRIPOS>MOLECULE
NONAME
44 46 1 0 0 
SMALL
USER_CHARGES


@<TRIPOS>ATOM
  1 O        0.3670     2.0250    -0.8750 O.co2 1 <1>  -0.9000 
  2 C        1.1860     1.5210    -0.0930 C.2   1 <1>   0.9470 
  3 O        0.8210     0.7310     0.7890 O.co2 1 <1>  -0.9000 
  4 C        2.6300     2.0300    -0.0810 C.3   1 <1>  -0.2420 
  5 C        3.8910     1.4540    -0.6780 C.3   1 <1>  -0.2420 
  6 C        2.9810     2.6160     1.2750 C.3   1 <1>   0.2350 
  7 C        3.2070     2.6230    -1.3410 C.3   1 <1>  -0.2000 
  8 C        4.1380     0.1770    -1.4880 C.2   1 <1>   0.9470 
  9 C        5.0230     1.6950     0.3040 C.3   1 <1>   0.2350 
 10 N        4.4700     2.6120     1.3460 N.am  1 <1>  -0.6600 
 11 O        4.5110    -0.8450    -0.8920 O.co2 1 <1>  -0.9000 
 12 O        4.1260     0.2200    -2.7260 O.co2 1 <1>  -0.9000 
 13 C        5.1620     3.3470     2.2750 C.2   1 <1>   0.5690 
 14 O        4.5580     4.0700     3.0430 O.2   1 <1>  -0.5700 
 15 C        6.7180     3.2840     2.4250 C.3   1 <1>   0.3410 
 16 O        7.4150     3.3840     1.1860 O.3   1 <1>  -0.3630 
 17 C        7.1320     1.9240     3.0110 C.3   1 <1>  -0.2400 
 18 C        7.2970     4.3720     3.3560 C.3   1 <1>  -0.2400 
 19 C        7.3630     4.4240     0.3110 C.ar  1 <1>   0.0820 
 20 C        8.3070     4.4080    -0.7030 C.ar  1 <1>  -0.1500 
 21 C        6.4470     5.4720     0.3620 C.ar  1 <1>  -0.1500 
 22 C        8.3510     5.4200    -1.6460 C.ar  1 <1>  -0.1500 
 23 C        6.4920     6.4820    -0.5830 C.ar  1 <1>  -0.1500 
 24 C        7.4440     6.4650    -1.5890 C.ar  1 <1>  -0.1440 
 25 C        7.4840     7.5740    -2.6240 C.3   1 <1>  -0.0970 
 26 H        2.5880     1.9950     2.0620 H     1 <1>   0.0800 
 27 H        2.5890     3.6130     1.3720 H     1 <1>   0.0800 
 28 H        3.6710     3.5910    -1.3100 H     1 <1>   0.1000 
 29 H        2.6840     2.4420    -2.2650 H     1 <1>   0.1000 
 30 H        5.8610     2.1260    -0.2100 H     1 <1>   0.0800 
 31 H        5.3100     0.7660     0.7630 H     1 <1>   0.0800 
 32 H        6.6520     1.7750     3.9610 H     1 <1>   0.0800 
 33 H        8.1970     1.8790     3.1500 H     1 <1>   0.0800 
 34 H        6.8350     1.1240     2.3600 H     1 <1>   0.0800 
 35 H        6.9110     4.2430     4.3510 H     1 <1>   0.0800 
 36 H        7.0130     5.3520     3.0240 H     1 <1>   0.0800 
 37 H        8.3690     4.3090     3.3910 H     1 <1>   0.0800 
 38 H        9.0050     3.5930    -0.7510 H     1 <1>   0.1500 
 39 H        5.6870     5.5230     1.1160 H     1 <1>   0.1500 
 40 H        9.0910     5.3850    -2.4250 H     1 <1>   0.1500 
 41 H        5.7720     7.2800    -0.5320 H     1 <1>   0.1500 
 42 H        8.4840     7.7070    -2.9960 H     1 <1>   0.0800 
 43 H        7.1550     8.5020    -2.1930 H     1 <1>   0.0800 
 44 H        6.8370     7.3240    -3.4460 H     1 <1>   0.0800 
@<TRIPOS>BOND
  1   1   2  ar  
  2   2   3  ar  
  3   2   4  1   
  4   4   5  1   
  5   4   6  1   
  6   4   7  1   
  7   5   7  1   
  8   5   8  1   
  9   5   9  1   
 10   6  10  1   
 11   6  26  1   
 12   6  27  1   
 13   7  28  1   
 14   7  29  1   
 15   8  11  ar  
 16   8  12  ar  
 17   9  10  1   
 18   9  30  1   
 19   9  31  1   
 20  10  13  am  
 21  13  14  2   
 22  13  15  1   
 23  15  16  1   
 24  15  17  1   
 25  15  18  1   
 26  16  19  1   
 27  17  32  1   
 28  17  33  1   
 29  17  34  1   
 30  18  35  1   
 31  18  36  1   
 32  18  37  1   
 33  19  20  ar  
 34  19  21  ar  
 35  20  22  ar  
 36  20  38  1   
 37  21  23  ar  
 38  21  39  1   
 39  22  24  ar  
 40  22  40  1   
 41  23  24  ar  
 42  23  41  1   
 43  24  25  1   
 44  25  42  1   
 45  25  43  1   
 46  25  44  1   
@<TRIPOS>SUBSTRUCTURE
  1 ****   9 GROUP 4 **** **** 0

# MOE 2024.06 (io_trps.svl 2023.06)
