@<TRIPOS>MOLECULE
NONAME
50 53 1 0 0 
SMALL
USER_CHARGES


@<TRIPOS>ATOM
  1 O       -0.7320     0.2530    -2.3510 O.2   1 <1>  -0.5700 
  2 C       -1.5620     0.9050    -1.7400 C.2   1 <1>   0.5440 
  3 N       -2.7530     0.2750    -1.4190 N.am  1 <1>  -0.6600 
  4 C       -1.2520     2.2930    -1.3960 C.ar  1 <1>   0.3960 
  5 C       -3.9870     0.9520    -0.9180 C.3   1 <1>   0.1400 
  6 C       -2.8610    -1.2120    -1.3210 C.3   1 <1>   0.1400 
  7 N       -1.6390     2.8360    -0.2590 N.ar  1 <1>  -0.6200 
  8 C       -0.4960     3.0370    -2.3410 C.ar  1 <1>   0.1600 
  9 C       -4.3150     0.4620     0.5080 C.3   1 <1>   0.2950 
 10 C       -3.2860    -1.6270     0.1060 C.3   1 <1>   0.2000 
 11 C       -1.2720     4.1290    -0.0810 C.ar  1 <1>   0.3100 
 12 N       -0.1310     4.2750    -2.2120 N.ar  1 <1>  -0.6200 
 13 O       -4.4400    -0.9330     0.4960 O.3   1 <1>  -0.5600 
 14 C       -5.6170     1.0250     1.1050 C.3   1 <1>  -0.1950 
 15 C       -3.6090    -3.1220     0.2280 C.3   1 <1>  -0.1600 
 16 C       -0.5260     4.8480    -1.0480 C.ar  1 <1>   0.3100 
 17 C       -1.6450     4.7860     1.1030 C.ar  1 <1>  -0.1500 
 18 C       -6.8820     1.2150     0.3250 C.3   1 <1>  -0.2000 
 19 C       -6.1230     2.4100     0.8350 C.3   1 <1>  -0.2000 
 20 C       -2.3890    -4.0250    -0.0200 C.3   1 <1>  -0.1600 
 21 C       -0.1920     6.1850    -0.7890 C.ar  1 <1>  -0.1500 
 22 C       -1.3050     6.0940     1.3310 C.ar  1 <1>  -0.1500 
 23 C       -2.7420    -5.4990     0.2090 C.3   1 <1>  -0.1600 
 24 C       -0.5710     6.8020     0.3760 C.ar  1 <1>  -0.1500 
 25 C       -1.5300    -6.4000    -0.0390 C.3   1 <1>  -0.2400 
 26 H       -3.8770     2.0190    -0.9270 H     1 <1>   0.0800 
 27 H       -4.8050     0.7070    -1.5710 H     1 <1>   0.0800 
 28 H       -3.5880    -1.5630    -2.0310 H     1 <1>   0.0800 
 29 H       -1.9180    -1.6710    -1.5590 H     1 <1>   0.0800 
 30 H       -0.2060     2.5200    -3.2400 H     1 <1>   0.1500 
 31 H       -3.5000     0.7220     1.1620 H     1 <1>   0.0800 
 32 H       -2.5010    -1.3770     0.8000 H     1 <1>   0.0800 
 33 H       -5.7330     0.6780     2.1170 H     1 <1>   0.1000 
 34 H       -3.9770    -3.3030     1.2230 H     1 <1>   0.0800 
 35 H       -4.3900    -3.3720    -0.4690 H     1 <1>   0.0800 
 36 H       -2.2090     4.2290     1.8290 H     1 <1>   0.1500 
 37 H       -6.8910     1.0140    -0.7310 H     1 <1>   0.1000 
 38 H       -7.8110     0.9450     0.7960 H     1 <1>   0.1000 
 39 H       -6.5420     2.9720     1.6520 H     1 <1>   0.1000 
 40 H       -5.6360     3.0440     0.1160 H     1 <1>   0.1000 
 41 H       -2.0400    -3.9030    -1.0300 H     1 <1>   0.0800 
 42 H       -1.5930    -3.7420     0.6480 H     1 <1>   0.0800 
 43 H        0.3750     6.7120    -1.5350 H     1 <1>   0.1500 
 44 H       -1.5960     6.5890     2.2430 H     1 <1>   0.1500 
 45 H       -3.0840    -5.6360     1.2210 H     1 <1>   0.0800 
 46 H       -3.5400    -5.7870    -0.4540 H     1 <1>   0.0800 
 47 H       -0.3080     7.8290     0.5660 H     1 <1>   0.1500 
 48 H       -0.7270    -6.1430     0.6280 H     1 <1>   0.0800 
 49 H       -1.1860    -6.2970    -1.0530 H     1 <1>   0.0800 
 50 H       -1.7970    -7.4290     0.1280 H     1 <1>   0.0800 
@<TRIPOS>BOND
  1   1   2  2   
  2   2   3  am  
  3   2   4  1   
  4   3   5  1   
  5   3   6  1   
  6   4   7  ar  
  7   4   8  ar  
  8   5   9  1   
  9   5  26  1   
 10   5  27  1   
 11   6  10  1   
 12   6  28  1   
 13   6  29  1   
 14   7  11  ar  
 15   8  12  ar  
 16   8  30  1   
 17   9  13  1   
 18   9  14  1   
 19   9  31  1   
 20  10  13  1   
 21  10  15  1   
 22  10  32  1   
 23  11  16  ar  
 24  11  17  ar  
 25  12  16  ar  
 26  14  18  1   
 27  14  19  1   
 28  14  33  1   
 29  15  20  1   
 30  15  34  1   
 31  15  35  1   
 32  16  21  ar  
 33  17  22  ar  
 34  17  36  1   
 35  18  19  1   
 36  18  37  1   
 37  18  38  1   
 38  19  39  1   
 39  19  40  1   
 40  20  23  1   
 41  20  41  1   
 42  20  42  1   
 43  21  24  ar  
 44  21  43  1   
 45  22  24  ar  
 46  22  44  1   
 47  23  25  1   
 48  23  45  1   
 49  23  46  1   
 50  24  47  1   
 51  25  48  1   
 52  25  49  1   
 53  25  50  1   
@<TRIPOS>SUBSTRUCTURE
  1 ****   3 GROUP 4 **** **** 0

# MOE 2024.06 (io_trps.svl 2023.06)
