@<TRIPOS>MOLECULE
NONAME
49 52 1 0 0 
SMALL
USER_CHARGES


@<TRIPOS>ATOM
  1 O       -0.0640     0.0110     0.9240 O.2   1 <1>  -0.5700 
  2 C       -1.0760     0.6800     0.8260 C.2   1 <1>   0.5440 
  3 N       -2.2610     0.0350     0.5460 N.am  1 <1>  -0.6600 
  4 C       -1.0120     2.1200     0.9790 C.ar  1 <1>   0.0860 
  5 C       -3.4270     0.6830    -0.1070 C.3   1 <1>   0.1400 
  6 C       -2.3330    -1.4400     0.3970 C.3   1 <1>   0.1400 
  7 C       -0.0370     2.8620     0.3330 C.ar  1 <1>  -0.1500 
  8 C       -1.9420     2.8070     1.7900 C.ar  1 <1>  -0.1500 
  9 C       -4.0920    -0.4350    -0.9080 C.3   1 <1>   0.2000 
 10 C       -3.7190    -1.7250    -0.1840 C.3   1 <1>  -0.0800 
 11 C        0.0080     4.2510     0.4590 C.ar  1 <1>   0.0000 
 12 C       -1.9140     4.1730     1.9290 C.ar  1 <1>  -0.1500 
 13 O       -5.4700    -0.2890    -0.9490 O.3   1 <1>  -0.6800 
 14 C       -3.7590    -2.9600    -1.0970 C.3   1 <1>   0.0200 
 15 C       -0.9320     4.8980     1.2510 C.ar  1 <1>  -0.1520 
 16 C        0.8490     5.2580    -0.0680 C.2   1 <1>  -0.1810 
 17 C       -3.3130    -4.2010    -0.3500 C.2   1 <1>  -0.0400 
 18 N       -0.6760     6.2410     1.2080 N.pl3 1 <1>   0.0330 
 19 C        0.4090     6.4520     0.4030 C.2   1 <1>  -0.3320 
 20 C        2.0160     4.9520    -0.9880 C.3   1 <1>  -0.0590 
 21 O       -4.0050    -4.6330     0.6710 O.3   1 <1>  -0.0190 
 22 C       -2.2660    -5.0230    -0.5160 C.2   1 <1>  -0.1500 
 23 C        0.9360     7.8560     0.1630 C.3   1 <1>  -0.0600 
 24 N       -3.4750    -5.6980     1.1990 N.2   1 <1>  -0.4100 
 25 C       -2.4260    -5.9570     0.5040 C.2   1 <1>   0.1080 
 26 C       -1.4970    -7.1200     0.7680 C.3   1 <1>  -0.0590 
 27 H       -4.0930     1.0560     0.6510 H     1 <1>   0.0800 
 28 H       -3.1110     1.4830    -0.7540 H     1 <1>   0.0800 
 29 H       -1.5570    -1.7620    -0.2770 H     1 <1>   0.0800 
 30 H       -2.1960    -1.9240     1.3490 H     1 <1>   0.0800 
 31 H        0.6980     2.3680    -0.2750 H     1 <1>   0.1500 
 32 H       -2.6820     2.2290     2.3140 H     1 <1>   0.1500 
 33 H       -3.7190    -0.4260    -1.9180 H     1 <1>   0.0800 
 34 H       -4.3850    -1.8760     0.6480 H     1 <1>   0.0800 
 35 H       -2.6280     4.6870     2.5490 H     1 <1>   0.1500 
 36 H       -5.8500    -0.3800    -0.0540 H     1 <1>   0.4000 
 37 H       -3.1160    -2.8090    -1.9470 H     1 <1>   0.0800 
 38 H       -4.7610    -3.1090    -1.4590 H     1 <1>   0.0800 
 39 H       -1.2090     6.9610     1.7050 H     1 <1>   0.2700 
 40 H        2.7100     4.3020    -0.4870 H     1 <1>   0.0800 
 41 H        2.5300     5.8490    -1.2750 H     1 <1>   0.0800 
 42 H        1.6580     4.4610    -1.8750 H     1 <1>   0.0800 
 43 H       -1.4760    -4.9980    -1.2430 H     1 <1>   0.1500 
 44 H        1.7880     7.8410    -0.4910 H     1 <1>   0.0800 
 45 H        1.2320     8.3020     1.0950 H     1 <1>   0.0800 
 46 H        0.1720     8.4630    -0.2900 H     1 <1>   0.0800 
 47 H       -1.4550    -7.7570    -0.0960 H     1 <1>   0.0800 
 48 H       -1.8530    -7.6910     1.6060 H     1 <1>   0.0800 
 49 H       -0.5110    -6.7550     0.9890 H     1 <1>   0.0800 
@<TRIPOS>BOND
  1   1   2  2   
  2   2   3  am  
  3   2   4  1   
  4   3   5  1   
  5   3   6  1   
  6   4   7  ar  
  7   4   8  ar  
  8   5   9  1   
  9   5  27  1   
 10   5  28  1   
 11   6  10  1   
 12   6  29  1   
 13   6  30  1   
 14   7  11  ar  
 15   7  31  1   
 16   8  12  ar  
 17   8  32  1   
 18   9  10  1   
 19   9  13  1   
 20   9  33  1   
 21  10  14  1   
 22  10  34  1   
 23  11  15  ar  
 24  11  16  1   
 25  12  15  ar  
 26  12  35  1   
 27  13  36  1   
 28  14  17  1   
 29  14  37  1   
 30  14  38  1   
 31  15  18  1   
 32  16  19  2   
 33  16  20  1   
 34  17  21  1   
 35  17  22  2   
 36  18  19  1   
 37  18  39  1   
 38  19  23  1   
 39  20  40  1   
 40  20  41  1   
 41  20  42  1   
 42  21  24  1   
 43  22  25  1   
 44  22  43  1   
 45  23  44  1   
 46  23  45  1   
 47  23  46  1   
 48  24  25  2   
 49  25  26  1   
 50  26  47  1   
 51  26  48  1   
 52  26  49  1   
@<TRIPOS>SUBSTRUCTURE
  1 ****   3 GROUP 4 **** **** 0

# MOE 2024.06 (io_trps.svl 2023.06)
