@<TRIPOS>MOLECULE
NONAME
52 54 1 0 0 
SMALL
USER_CHARGES


@<TRIPOS>ATOM
  1 O        0.5750     0.2110     1.5100 O.2   1 <1>  -0.5700 
  2 C        0.9800     0.7440     0.4880 C.2   1 <1>   0.5440 
  3 N        1.9640     0.1400    -0.2630 N.am  1 <1>  -0.4200 
  4 C        0.4660     2.0060     0.0340 C.ar  1 <1>   0.0860 
  5 C        2.4020     0.7410    -1.4180 C.2   1 <1>   0.4500 
  6 C        2.5390    -1.1660     0.1460 C.3   1 <1>   0.1400 
  7 C        1.0010     2.5330    -1.1490 C.ar  1 <1>   0.1790 
  8 C       -0.5250     2.7270     0.7060 C.ar  1 <1>  -0.1500 
  9 N        1.9790     1.8640    -1.8590 N.2   1 <1>  -0.6290 
 10 C        1.7620    -2.3100    -0.4960 C.3   1 <1>  -0.0990 
 11 C        0.5400     3.7560    -1.6230 C.ar  1 <1>  -0.1500 
 12 C       -0.9740     3.9390     0.2230 C.ar  1 <1>  -0.1500 
 13 C        2.1500    -3.6100     0.1670 C.2   1 <1>   0.5690 
 14 C       -0.4380     4.4570    -0.9480 C.ar  1 <1>  -0.1500 
 15 O        3.2780    -4.0170     0.0020 O.2   1 <1>  -0.5700 
 16 N        1.2480    -4.2730     0.9480 N.am  1 <1>  -0.6600 
 17 C        0.9910    -5.7100     0.6480 C.3   1 <1>   0.1400 
 18 C        0.2900    -3.5980     1.8630 C.3   1 <1>   0.1400 
 19 C       -0.4520    -5.9500     0.1440 C.3   1 <1>  -0.1060 
 20 C       -1.1450    -3.8200     1.3940 C.3   1 <1>  -0.1600 
 21 C       -0.6600    -5.3010    -1.2400 C.2   1 <1>   0.9060 
 22 C       -1.4090    -5.3110     1.1830 C.3   1 <1>   0.2000 
 23 C       -0.7300    -7.4810     0.0700 C.3   1 <1>  -0.1600 
 24 O       -1.8190    -5.0660    -1.6210 O.co2 1 <1>  -0.9000 
 25 O        0.3050    -5.0340    -1.9670 O.co2 1 <1>  -0.9000 
 26 O       -2.7200    -5.4430     0.7780 O.3   1 <1>  -0.6800 
 27 C        0.2020    -8.2610    -0.8740 C.3   1 <1>  -0.1600 
 28 C       -0.1980    -9.7370    -0.9420 C.3   1 <1>  -0.2400 
 29 H        3.1580     0.2100    -1.9710 H     1 <1>   0.0600 
 30 H        3.5740    -1.2230    -0.1460 H     1 <1>   0.0800 
 31 H        2.5000    -1.2570     1.2180 H     1 <1>   0.0800 
 32 H       -0.9390     2.3210     1.6140 H     1 <1>   0.1500 
 33 H        1.9970    -2.3880    -1.5410 H     1 <1>   0.0800 
 34 H        0.7030    -2.1580    -0.4050 H     1 <1>   0.0800 
 35 H        0.9620     4.1460    -2.5310 H     1 <1>   0.1500 
 36 H       -1.7380     4.4870     0.7500 H     1 <1>   0.1500 
 37 H       -0.7870     5.4030    -1.3260 H     1 <1>   0.1500 
 38 H        1.6910    -6.0420    -0.1000 H     1 <1>   0.0800 
 39 H        1.1680    -6.2820     1.5410 H     1 <1>   0.0800 
 40 H        0.4140    -4.0110     2.8490 H     1 <1>   0.0800 
 41 H        0.4980    -2.5430     1.9170 H     1 <1>   0.0800 
 42 H       -1.3080    -3.2790     0.4790 H     1 <1>   0.0800 
 43 H       -1.8200    -3.4360     2.1360 H     1 <1>   0.0800 
 44 H       -1.3190    -5.8220     2.1260 H     1 <1>   0.0800 
 45 H       -0.6640    -7.9030     1.0560 H     1 <1>   0.0800 
 46 H       -1.7420    -7.6220    -0.2720 H     1 <1>   0.0800 
 47 H       -2.7020    -5.2660    -0.2130 H     1 <1>   0.4000 
 48 H        0.1510    -7.8370    -1.8650 H     1 <1>   0.0800 
 49 H        1.2210    -8.1920    -0.5390 H     1 <1>   0.0800 
 50 H       -1.2050    -9.8320    -1.3100 H     1 <1>   0.0800 
 51 H       -0.1380   -10.1880     0.0330 H     1 <1>   0.0800 
 52 H        0.4610   -10.2640    -1.6080 H     1 <1>   0.0800 
@<TRIPOS>BOND
  1   1   2  2   
  2   2   3  am  
  3   2   4  1   
  4   3   5  1   
  5   3   6  1   
  6   4   7  ar  
  7   4   8  ar  
  8   5   9  2   
  9   5  29  1   
 10   6  10  1   
 11   6  30  1   
 12   6  31  1   
 13   7   9  1   
 14   7  11  ar  
 15   8  12  ar  
 16   8  32  1   
 17  10  13  1   
 18  10  33  1   
 19  10  34  1   
 20  11  14  ar  
 21  11  35  1   
 22  12  14  ar  
 23  12  36  1   
 24  13  15  2   
 25  13  16  am  
 26  14  37  1   
 27  16  17  1   
 28  16  18  1   
 29  17  19  1   
 30  17  38  1   
 31  17  39  1   
 32  18  20  1   
 33  18  40  1   
 34  18  41  1   
 35  19  21  1   
 36  19  22  1   
 37  19  23  1   
 38  20  22  1   
 39  20  42  1   
 40  20  43  1   
 41  21  24  ar  
 42  21  25  ar  
 43  22  26  1   
 44  22  44  1   
 45  23  27  1   
 46  23  45  1   
 47  23  46  1   
 48  26  47  1   
 49  27  28  1   
 50  27  48  1   
 51  27  49  1   
 52  28  50  1   
 53  28  51  1   
 54  28  52  1   
@<TRIPOS>SUBSTRUCTURE
  1 ****  10 GROUP 4 **** **** 0

# MOE 2024.06 (io_trps.svl 2023.06)
