@<TRIPOS>MOLECULE
NONAME
17 17 1 0 0 
SMALL
USER_CHARGES


@<TRIPOS>ATOM
  1 CL       0.1050     0.0730    -0.7860 Cl    1 <1>  -0.1770 
  2 C        1.5510     0.9450    -0.3870 C.ar  1 <1>   0.7970 
  3 N        1.4260     2.2320    -0.2700 N.ar  1 <1>  -0.6200 
  4 N        2.6310     0.2170    -0.2430 N.ar  1 <1>  -0.6200 
  5 C        2.5540     2.8200     0.0310 C.ar  1 <1>   0.7200 
  6 C        3.6810     0.9330     0.0560 C.ar  1 <1>   0.4770 
  7 N        2.5730     4.1600     0.1850 N.pl3 1 <1>  -0.8690 
  8 N        3.7080     2.2260     0.2060 N.ar  1 <1>  -0.6200 
  9 C        4.9780     0.1830     0.2420 C.3   1 <1>  -0.0970 
 10 C        1.4400     5.1110     0.0550 C.3   1 <1>   0.1290 
 11 H        3.4870     4.5470     0.4190 H     1 <1>   0.4000 
 12 H        4.8700    -0.5280     1.0400 H     1 <1>   0.0800 
 13 H        5.7760     0.8610     0.4830 H     1 <1>   0.0800 
 14 H        5.2250    -0.3390    -0.6630 H     1 <1>   0.0800 
 15 H        0.5290     4.5940    -0.1930 H     1 <1>   0.0800 
 16 H        1.6540     5.8240    -0.7220 H     1 <1>   0.0800 
 17 H        1.2980     5.6340     0.9850 H     1 <1>   0.0800 
@<TRIPOS>BOND
  1   1   2  1   
  2   2   3  ar  
  3   2   4  ar  
  4   3   5  ar  
  5   4   6  ar  
  6   5   7  1   
  7   5   8  ar  
  8   6   8  ar  
  9   6   9  1   
 10   7  10  1   
 11   7  11  1   
 12   9  12  1   
 13   9  13  1   
 14   9  14  1   
 15  10  15  1   
 16  10  16  1   
 17  10  17  1   
@<TRIPOS>SUBSTRUCTURE
  1 ****   5 GROUP 4 **** **** 0

# MOE 2024.06 (io_trps.svl 2023.06)
