@<TRIPOS>MOLECULE
NONAME
51 53 1 0 0 
SMALL
USER_CHARGES


@<TRIPOS>ATOM
  1 S        1.2030     0.0330    -2.6090 S.3   1 <1>  -0.0800 
  2 C        1.2730    -0.5050    -0.9490 C.2   1 <1>   0.1980 
  3 C        0.5270    -1.5000    -3.0470 C.2   1 <1>  -0.1100 
  4 N        0.8360    -1.6850    -0.7650 N.2   1 <1>  -0.5650 
  5 C        1.8380     0.4600     0.0770 C.3   1 <1>   0.0200 
  6 C        0.3990    -2.2900    -1.9580 C.2   1 <1>   0.1410 
  7 C        0.8470     1.5870     0.4000 C.3   1 <1>  -0.1600 
  8 C       -0.1290    -3.6530    -1.9860 C.2   1 <1>   0.7160 
  9 C        1.4110     2.5480     1.4530 C.3   1 <1>  -0.2400 
 10 O       -0.4300    -4.1680    -3.0490 O.2   1 <1>  -0.5700 
 11 N       -0.3630    -4.4120    -0.8540 N.am  1 <1>  -0.6600 
 12 C       -1.0490    -3.8590     0.3530 C.3   1 <1>   0.1400 
 13 C       -0.3840    -5.9000    -0.9300 C.3   1 <1>   0.1400 
 14 C       -2.4980    -4.3910     0.4630 C.3   1 <1>   0.4230 
 15 C       -1.8330    -6.4120    -0.8690 C.3   1 <1>   0.3430 
 16 N       -2.5680    -5.9070     0.3550 N.4   1 <1>  -0.9590 
 17 C       -3.4040    -3.7220    -0.5970 C.3   1 <1>   0.1200 
 18 C       -4.0100    -6.3370     0.4030 C.3   1 <1>   0.4230 
 19 O       -4.7150    -4.1960    -0.4820 O.3   1 <1>  -0.5600 
 20 C       -4.8610    -5.5780    -0.6450 C.3   1 <1>   0.1200 
 21 C       -4.1250    -7.8650     0.2740 C.3   1 <1>  -0.1600 
 22 C       -5.5080    -8.3860     0.6930 C.3   1 <1>  -0.1600 
 23 C       -5.5560    -9.9150     0.6310 C.3   1 <1>  -0.2400 
 24 H        0.2900    -1.6750    -4.0820 H     1 <1>   0.1500 
 25 H        2.0640    -0.0880     0.9740 H     1 <1>   0.0800 
 26 H        2.7570     0.8730    -0.3010 H     1 <1>   0.0800 
 27 H        0.6220     2.1390    -0.4970 H     1 <1>   0.0800 
 28 H       -0.0710     1.1590     0.7640 H     1 <1>   0.0800 
 29 H        2.3190     3.0050     1.1000 H     1 <1>   0.0800 
 30 H        1.6190     2.0250     2.3700 H     1 <1>   0.0800 
 31 H        0.6970     3.3260     1.6600 H     1 <1>   0.0800 
 32 H       -0.4910    -4.1300     1.2310 H     1 <1>   0.0800 
 33 H       -1.0840    -2.7850     0.3160 H     1 <1>   0.0800 
 34 H        0.0750    -6.2330    -1.8470 H     1 <1>   0.0800 
 35 H        0.1890    -6.3100    -0.1170 H     1 <1>   0.0800 
 36 H       -2.8780    -4.0910     1.4260 H     1 <1>   0.0800 
 37 H       -1.8190    -7.4890    -0.8730 H     1 <1>   0.0800 
 38 H       -2.3400    -6.0860    -1.7620 H     1 <1>   0.0800 
 39 H       -2.1010    -6.2950     1.1830 H     1 <1>   0.4500 
 40 H       -3.0520    -3.9110    -1.5970 H     1 <1>   0.0800 
 41 H       -3.4310    -2.6570    -0.4440 H     1 <1>   0.0800 
 42 H       -4.4050    -6.0720     1.3700 H     1 <1>   0.0800 
 43 H       -5.9050    -5.8030    -0.5130 H     1 <1>   0.0800 
 44 H       -4.5820    -5.8420    -1.6500 H     1 <1>   0.0800 
 45 H       -3.9400    -8.1700    -0.7420 H     1 <1>   0.0800 
 46 H       -3.3910    -8.3280     0.9110 H     1 <1>   0.0800 
 47 H       -5.7330    -8.0740     1.7000 H     1 <1>   0.0800 
 48 H       -6.2740    -7.9960     0.0450 H     1 <1>   0.0800 
 49 H       -4.8290   -10.3500     1.2950 H     1 <1>   0.0800 
 50 H       -5.3640   -10.2640    -0.3690 H     1 <1>   0.0800 
 51 H       -6.5310   -10.2640     0.9260 H     1 <1>   0.0800 
@<TRIPOS>BOND
  1   1   2  1   
  2   1   3  1   
  3   2   4  2   
  4   2   5  1   
  5   3   6  2   
  6   3  24  1   
  7   4   6  1   
  8   5   7  1   
  9   5  25  1   
 10   5  26  1   
 11   6   8  1   
 12   7   9  1   
 13   7  27  1   
 14   7  28  1   
 15   8  10  2   
 16   8  11  am  
 17   9  29  1   
 18   9  30  1   
 19   9  31  1   
 20  11  12  1   
 21  11  13  1   
 22  12  14  1   
 23  12  32  1   
 24  12  33  1   
 25  13  15  1   
 26  13  34  1   
 27  13  35  1   
 28  14  16  1   
 29  14  17  1   
 30  14  36  1   
 31  15  16  1   
 32  15  37  1   
 33  15  38  1   
 34  16  18  1   
 35  16  39  1   
 36  17  19  1   
 37  17  40  1   
 38  17  41  1   
 39  18  20  1   
 40  18  21  1   
 41  18  42  1   
 42  19  20  1   
 43  20  43  1   
 44  20  44  1   
 45  21  22  1   
 46  21  45  1   
 47  21  46  1   
 48  22  23  1   
 49  22  47  1   
 50  22  48  1   
 51  23  49  1   
 52  23  50  1   
 53  23  51  1   
@<TRIPOS>SUBSTRUCTURE
  1 ****  12 GROUP 4 **** **** 0

# MOE 2024.06 (io_trps.svl 2023.06)
