@<TRIPOS>MOLECULE
NONAME
63 66 1 0 0 
SMALL
USER_CHARGES


@<TRIPOS>ATOM
  1 O       -0.5290     0.5920     1.0700 O.2   1 <1>  -0.5700 
  2 C       -1.4030     0.8680     0.2810 C.2   1 <1>   0.5690 
  3 N       -2.4920     0.0410     0.1260 N.am  1 <1>  -0.6600 
  4 C       -1.1790     2.1550    -0.5410 C.3   1 <1>   0.0610 
  5 C       -2.7170    -1.0960     1.0700 C.3   1 <1>   0.1400 
  6 C       -3.3780    -0.0580    -1.0720 C.3   1 <1>   0.1400 
  7 C       -0.3560     3.1770     0.2920 C.3   1 <1>   0.4230 
  8 C       -2.4470     3.0120    -0.8330 C.3   1 <1>  -0.1600 
  9 C       -0.4300     1.7250    -1.8450 C.3   1 <1>  -0.1600 
 10 C       -4.1710    -1.0860     1.5510 C.3   1 <1>  -0.1600 
 11 C       -4.8440    -0.0120    -0.6320 C.3   1 <1>  -0.1600 
 12 N       -0.6660     4.4240    -0.4270 N.4   1 <1>  -0.9590 
 13 C       -0.9960     3.4930     1.6660 C.3   1 <1>  -0.1600 
 14 C       -2.1170     4.3890    -0.2400 C.3   1 <1>   0.4230 
 15 C        0.0400     2.8000    -2.8440 C.3   1 <1>  -0.2400 
 16 C       -5.1600    -1.1220     0.3790 C.3   1 <1>   0.2800 
 17 C        0.0330     5.7070    -0.0330 C.3   1 <1>   0.4040 
 18 C       -2.2410     4.3080     1.2840 C.3   1 <1>  -0.1600 
 19 O       -4.9980    -2.3360    -0.2900 O.3   1 <1>  -0.5600 
 20 C       -6.6220    -1.0830     0.8370 C.3   1 <1>  -0.1600 
 21 C       -0.2630     6.8660    -1.0030 C.2   1 <1>   0.5690 
 22 C       -6.1680    -3.0910    -0.3070 C.3   1 <1>   0.1200 
 23 C       -7.2960    -2.1090    -0.0500 C.3   1 <1>  -0.1600 
 24 O       -0.7270     6.5590    -2.0800 O.2   1 <1>  -0.5700 
 25 N       -0.0200     8.1750    -0.6570 N.am  1 <1>  -0.6600 
 26 C       -0.3330     9.2950    -1.5960 C.3   1 <1>   0.0600 
 27 C        0.5880     8.6370     0.6250 C.3   1 <1>   0.0600 
 28 H       -2.5080    -2.0230     0.5630 H     1 <1>   0.0800 
 29 H       -2.0620    -1.0280     1.9210 H     1 <1>   0.0800 
 30 H       -3.1840     0.7240    -1.7800 H     1 <1>   0.0800 
 31 H       -3.1860    -0.9960    -1.5670 H     1 <1>   0.0800 
 32 H        0.6940     2.9360     0.3420 H     1 <1>   0.0800 
 33 H       -3.3290     2.6170    -0.3630 H     1 <1>   0.0800 
 34 H       -2.6450     3.1000    -1.8860 H     1 <1>   0.0800 
 35 H        0.4390     1.1560    -1.5560 H     1 <1>   0.0800 
 36 H       -1.0590     1.0410    -2.3870 H     1 <1>   0.0800 
 37 H       -4.3340    -0.1980     2.1350 H     1 <1>   0.0800 
 38 H       -4.3390    -1.9330     2.1900 H     1 <1>   0.0800 
 39 H       -5.4810    -0.1200    -1.4920 H     1 <1>   0.0800 
 40 H       -5.0500     0.9450    -0.1910 H     1 <1>   0.0800 
 41 H       -0.5010     4.2980    -1.4370 H     1 <1>   0.4500 
 42 H       -1.2550     2.6210     2.2390 H     1 <1>   0.0800 
 43 H       -0.3190     4.0780     2.2620 H     1 <1>   0.0800 
 44 H       -2.6490     5.2090    -0.6980 H     1 <1>   0.0800 
 45 H        0.8260     3.4070    -2.4310 H     1 <1>   0.0800 
 46 H       -0.7690     3.4250    -3.1800 H     1 <1>   0.0800 
 47 H        0.4470     2.3120    -3.7140 H     1 <1>   0.0800 
 48 H       -0.2640     6.0010     0.9570 H     1 <1>   0.0800 
 49 H        1.0970     5.5460    -0.0330 H     1 <1>   0.0800 
 50 H       -2.2200     5.2890     1.7240 H     1 <1>   0.0800 
 51 H       -3.1530     3.8200     1.5860 H     1 <1>   0.0800 
 52 H       -6.6940    -1.3930     1.8650 H     1 <1>   0.0800 
 53 H       -7.0630    -0.1070     0.7440 H     1 <1>   0.0800 
 54 H       -6.2570    -3.5870    -1.2580 H     1 <1>   0.0800 
 55 H       -6.1000    -3.8180     0.4850 H     1 <1>   0.0800 
 56 H       -7.6030    -1.6660    -0.9810 H     1 <1>   0.0800 
 57 H       -8.1430    -2.5780     0.4210 H     1 <1>   0.0800 
 58 H       -1.0070     9.9900    -1.1270 H     1 <1>   0.0800 
 59 H       -0.7950     8.9310    -2.4980 H     1 <1>   0.0800 
 60 H        0.5730     9.8110    -1.8640 H     1 <1>   0.0800 
 61 H        1.4570     9.2380     0.4160 H     1 <1>   0.0800 
 62 H        0.8870     7.8140     1.2480 H     1 <1>   0.0800 
 63 H       -0.1230     9.2400     1.1660 H     1 <1>   0.0800 
@<TRIPOS>BOND
  1   1   2  2   
  2   2   3  am  
  3   2   4  1   
  4   3   5  1   
  5   3   6  1   
  6   4   7  1   
  7   4   8  1   
  8   4   9  1   
  9   5  10  1   
 10   5  28  1   
 11   5  29  1   
 12   6  11  1   
 13   6  30  1   
 14   6  31  1   
 15   7  12  1   
 16   7  13  1   
 17   7  32  1   
 18   8  14  1   
 19   8  33  1   
 20   8  34  1   
 21   9  15  1   
 22   9  35  1   
 23   9  36  1   
 24  10  16  1   
 25  10  37  1   
 26  10  38  1   
 27  11  16  1   
 28  11  39  1   
 29  11  40  1   
 30  12  14  1   
 31  12  17  1   
 32  12  41  1   
 33  13  18  1   
 34  13  42  1   
 35  13  43  1   
 36  14  18  1   
 37  14  44  1   
 38  15  45  1   
 39  15  46  1   
 40  15  47  1   
 41  16  19  1   
 42  16  20  1   
 43  17  21  1   
 44  17  48  1   
 45  17  49  1   
 46  18  50  1   
 47  18  51  1   
 48  19  22  1   
 49  20  23  1   
 50  20  52  1   
 51  20  53  1   
 52  21  24  2   
 53  21  25  am  
 54  22  23  1   
 55  22  54  1   
 56  22  55  1   
 57  23  56  1   
 58  23  57  1   
 59  25  26  1   
 60  25  27  1   
 61  26  58  1   
 62  26  59  1   
 63  26  60  1   
 64  27  61  1   
 65  27  62  1   
 66  27  63  1   
@<TRIPOS>SUBSTRUCTURE
  1 ****   8 GROUP 4 **** **** 0

# MOE 2024.06 (io_trps.svl 2023.06)
