@<TRIPOS>MOLECULE
NONAME
50 52 1 0 0 
SMALL
USER_CHARGES


@<TRIPOS>ATOM
  1 O       -0.3610    -0.1670     0.4020 O.2   1 <1>  -0.5700 
  2 C       -0.2690    -1.3340     0.7240 C.2   1 <1>   0.5440 
  3 N       -1.1530    -1.7580     1.6550 N.am  1 <1>  -0.8000 
  4 C        0.7400    -2.2030     0.1580 C.ar  1 <1>   0.0860 
  5 C        0.5810    -3.6000     0.0350 C.ar  1 <1>   0.4100 
  6 C        1.9410    -1.6600    -0.2750 C.ar  1 <1>  -0.1500 
  7 N        1.5410    -4.4090    -0.4110 N.ar  1 <1>  -0.6200 
  8 N       -0.6060    -4.2510     0.3440 N.pl3 1 <1>  -0.8380 
  9 C        2.9250    -2.4930    -0.7610 C.ar  1 <1>  -0.1430 
 10 C        2.6740    -3.8600    -0.7950 C.ar  1 <1>   0.1670 
 11 C       -0.5530    -5.5300     1.1270 C.3   1 <1>   0.2090 
 12 C       -1.7750    -4.0570    -0.5640 C.3   1 <1>   0.2090 
 13 C        4.2400    -1.8900    -1.2360 C.3   1 <1>  -0.0970 
 14 C        3.7210    -4.8350    -1.3010 C.3   1 <1>  -0.0970 
 15 C       -0.6570    -6.7860     0.2500 C.3   1 <1>   0.1400 
 16 C       -1.6320    -4.9050    -1.8340 C.3   1 <1>  -0.1600 
 17 N       -2.0210    -6.9100    -0.3520 N.am  1 <1>  -0.6600 
 18 C       -2.1550    -6.3460    -1.7240 C.3   1 <1>   0.1400 
 19 C       -3.0450    -7.4460     0.3920 C.2   1 <1>   0.5770 
 20 O       -2.8530    -7.8290     1.5240 O.2   1 <1>  -0.5700 
 21 C       -4.4570    -7.5600    -0.1860 C.3   1 <1>   0.0530 
 22 C       -5.2600    -6.2310    -0.1660 C.3   1 <1>   0.0000 
 23 C       -5.5630    -8.1400     0.7440 C.3   1 <1>   0.0000 
 24 C       -6.5190    -7.0880     0.1260 C.3   1 <1>   0.0000 
 25 H       -1.8840    -1.1320     1.9870 H     1 <1>   0.3700 
 26 H       -1.2750    -2.7670     1.7950 H     1 <1>   0.3700 
 27 H        2.0910    -0.5960    -0.2180 H     1 <1>   0.1500 
 28 H       -1.3450    -5.5400     1.8560 H     1 <1>   0.0800 
 29 H        0.3780    -5.5690     1.6650 H     1 <1>   0.0800 
 30 H       -1.8220    -3.0200    -0.8500 H     1 <1>   0.0800 
 31 H       -2.6890    -4.2950    -0.0460 H     1 <1>   0.0800 
 32 H        4.1870    -0.8160    -1.2510 H     1 <1>   0.0800 
 33 H        4.4670    -2.2270    -2.2310 H     1 <1>   0.0800 
 34 H        5.0380    -2.1790    -0.5760 H     1 <1>   0.0800 
 35 H        3.4510    -5.8430    -1.0410 H     1 <1>   0.0800 
 36 H        4.6780    -4.6220    -0.8630 H     1 <1>   0.0800 
 37 H        3.7920    -4.7660    -2.3700 H     1 <1>   0.0800 
 38 H       -0.4620    -7.6500     0.8610 H     1 <1>   0.0800 
 39 H        0.0960    -6.7560    -0.5180 H     1 <1>   0.0800 
 40 H       -0.6020    -4.9180    -2.1430 H     1 <1>   0.0800 
 41 H       -2.1780    -4.4250    -2.6250 H     1 <1>   0.0800 
 42 H       -1.6130    -6.9720    -2.4130 H     1 <1>   0.0800 
 43 H       -3.1840    -6.3540    -2.0300 H     1 <1>   0.0800 
 44 H       -4.4790    -8.0330    -1.1540 H     1 <1>   0.0000 
 45 H       -5.2930    -5.7220    -1.1130 H     1 <1>   0.0000 
 46 H       -4.9950    -5.5910     0.6580 H     1 <1>   0.0000 
 47 H       -5.3980    -7.9620     1.7930 H     1 <1>   0.0000 
 48 H       -5.8340    -9.1560     0.5180 H     1 <1>   0.0000 
 49 H       -7.0010    -7.4390    -0.7710 H     1 <1>   0.0000 
 50 H       -7.1950    -6.6420     0.8340 H     1 <1>   0.0000 
@<TRIPOS>BOND
  1   1   2  2   
  2   2   3  am  
  3   2   4  1   
  4   3  25  1   
  5   3  26  1   
  6   4   5  ar  
  7   4   6  ar  
  8   5   7  ar  
  9   5   8  1   
 10   6   9  ar  
 11   6  27  1   
 12   7  10  ar  
 13   8  11  1   
 14   8  12  1   
 15   9  10  ar  
 16   9  13  1   
 17  10  14  1   
 18  11  15  1   
 19  11  28  1   
 20  11  29  1   
 21  12  16  1   
 22  12  30  1   
 23  12  31  1   
 24  13  32  1   
 25  13  33  1   
 26  13  34  1   
 27  14  35  1   
 28  14  36  1   
 29  14  37  1   
 30  15  17  1   
 31  15  38  1   
 32  15  39  1   
 33  16  18  1   
 34  16  40  1   
 35  16  41  1   
 36  17  18  1   
 37  17  19  am  
 38  18  42  1   
 39  18  43  1   
 40  19  20  2   
 41  19  21  1   
 42  21  22  1   
 43  21  23  1   
 44  21  44  1   
 45  22  24  1   
 46  22  45  1   
 47  22  46  1   
 48  23  24  1   
 49  23  47  1   
 50  23  48  1   
 51  24  49  1   
 52  24  50  1   
@<TRIPOS>SUBSTRUCTURE
  1 ****   8 GROUP 4 **** **** 0

# MOE 2024.06 (io_trps.svl 2023.06)
