@<TRIPOS>MOLECULE
NONAME
50 52 1 0 0 
SMALL
USER_CHARGES


@<TRIPOS>ATOM
  1 O       -2.5020     0.1790     2.4290 O.2   1 <1>  -0.5700 
  2 C       -2.1860     0.9140     1.5100 C.2   1 <1>   0.7150 
  3 N       -2.1210     0.3810     0.2370 N.am  1 <1>  -0.6600 
  4 C       -1.9140     2.3070     1.8130 C.2   1 <1>   0.0550 
  5 C       -2.2160    -1.1060     0.0130 C.3   1 <1>   0.3640 
  6 C       -2.1840     1.2340    -0.9950 C.3   1 <1>   0.1400 
  7 O       -1.3120     3.1350     0.9600 O.3   1 <1>  -0.2800 
  8 C       -2.1810     3.0040     2.9530 C.2   1 <1>  -0.1500 
  9 C       -0.8500    -1.7280    -0.3260 C.ar  1 <1>  -0.1440 
 10 C       -3.2800    -1.4670    -1.0730 C.3   1 <1>   0.2000 
 11 C       -2.5120     0.4280    -2.2590 C.3   1 <1>   0.1200 
 12 C       -1.1930     4.3280     1.5060 C.2   1 <1>   0.1600 
 13 C       -1.7200     4.3030     2.7530 C.2   1 <1>  -0.1500 
 14 C        0.2910    -0.9900    -0.6270 C.ar  1 <1>  -0.1500 
 15 C       -0.7510    -3.1140    -0.3150 C.ar  1 <1>  -0.1500 
 16 O       -3.5690    -0.4360    -1.9910 O.3   1 <1>  -0.5600 
 17 C       -4.6130    -1.8690    -0.4310 C.3   1 <1>   0.1200 
 18 C       -0.5800     5.3900     0.7740 C.1   1 <1>  -0.0200 
 19 C        1.4840    -1.6210    -0.9320 C.ar  1 <1>  -0.1500 
 20 C        0.4410    -3.7480    -0.6180 C.ar  1 <1>  -0.1500 
 21 O       -4.5030    -3.1320     0.1460 O.3   1 <1>  -0.6800 
 22 C       -0.0690     6.2800     0.1690 C.1   1 <1>  -0.2000 
 23 C        1.5610    -3.0010    -0.9310 C.ar  1 <1>  -0.1500 
 24 C        0.5750     7.3930    -0.5790 C.3   1 <1>   0.4800 
 25 O       -0.4210     8.1580    -1.1220 O.3   1 <1>  -0.6800 
 26 C        1.3770     8.2910     0.3550 C.3   1 <1>  -0.2400 
 27 C        1.4220     6.8660    -1.7320 C.3   1 <1>  -0.2400 
 28 H       -2.5230    -1.5860     0.9260 H     1 <1>   0.0800 
 29 H       -2.9430     1.9860    -0.8620 H     1 <1>   0.0800 
 30 H       -1.2440     1.7370    -1.1370 H     1 <1>   0.0800 
 31 H       -2.6550     2.6290     3.8440 H     1 <1>   0.1500 
 32 H       -2.9280    -2.2970    -1.6590 H     1 <1>   0.0800 
 33 H       -1.6630    -0.1460    -2.5910 H     1 <1>   0.0800 
 34 H       -2.8130     1.0880    -3.0530 H     1 <1>   0.0800 
 35 H       -1.7790     5.1120     3.4580 H     1 <1>   0.1500 
 36 H        0.2740     0.0840    -0.6220 H     1 <1>   0.1500 
 37 H       -1.6090    -3.7140    -0.0620 H     1 <1>   0.1500 
 38 H       -5.3960    -1.9060    -1.1680 H     1 <1>   0.0800 
 39 H       -4.8780    -1.1700     0.3440 H     1 <1>   0.0800 
 40 H        2.3570    -1.0360    -1.1650 H     1 <1>   0.1500 
 41 H        0.4970    -4.8230    -0.6070 H     1 <1>   0.1500 
 42 H       -4.6040    -3.8300    -0.5310 H     1 <1>   0.4000 
 43 H        2.4890    -3.4910    -1.1680 H     1 <1>   0.1500 
 44 H       -0.0230     8.9060    -1.5990 H     1 <1>   0.4000 
 45 H        2.1600     7.7200     0.8220 H     1 <1>   0.0800 
 46 H        0.7400     8.6810     1.1290 H     1 <1>   0.0800 
 47 H        1.8260     9.1050    -0.1840 H     1 <1>   0.0800 
 48 H        2.2070     6.2400    -1.3470 H     1 <1>   0.0800 
 49 H        1.8690     7.6740    -2.2810 H     1 <1>   0.0800 
 50 H        0.8140     6.2750    -2.3940 H     1 <1>   0.0800 
@<TRIPOS>BOND
  1   1   2  2   
  2   2   3  am  
  3   2   4  1   
  4   3   5  1   
  5   3   6  1   
  6   4   7  1   
  7   4   8  2   
  8   5   9  1   
  9   5  10  1   
 10   5  28  1   
 11   6  11  1   
 12   6  29  1   
 13   6  30  1   
 14   7  12  1   
 15   8  13  1   
 16   8  31  1   
 17   9  14  ar  
 18   9  15  ar  
 19  10  16  1   
 20  10  17  1   
 21  10  32  1   
 22  11  16  1   
 23  11  33  1   
 24  11  34  1   
 25  12  13  2   
 26  12  18  1   
 27  13  35  1   
 28  14  19  ar  
 29  14  36  1   
 30  15  20  ar  
 31  15  37  1   
 32  17  21  1   
 33  17  38  1   
 34  17  39  1   
 35  18  22  3   
 36  19  23  ar  
 37  19  40  1   
 38  20  23  ar  
 39  20  41  1   
 40  21  42  1   
 41  22  24  1   
 42  23  43  1   
 43  24  25  1   
 44  24  26  1   
 45  24  27  1   
 46  25  44  1   
 47  26  45  1   
 48  26  46  1   
 49  26  47  1   
 50  27  48  1   
 51  27  49  1   
 52  27  50  1   
@<TRIPOS>SUBSTRUCTURE
  1 ****   3 GROUP 4 **** **** 0

# MOE 2024.06 (io_trps.svl 2023.06)
