@<TRIPOS>MOLECULE
NONAME
58 60 1 0 0 
SMALL
USER_CHARGES


@<TRIPOS>ATOM
  1 S       -0.3270    -4.1000     2.1030 S.3   1 <1>  -0.4600 
  2 C       -1.1580    -2.8970     1.0370 C.3   1 <1>   0.0700 
  3 C        1.0040    -3.1330     2.8630 C.3   1 <1>  -0.0100 
  4 C       -2.2960    -3.6320     0.3260 C.3   1 <1>  -0.1600 
  5 C       -3.0810    -2.7180    -0.6260 C.3   1 <1>   0.2810 
  6 N       -3.7360    -1.6270     0.1550 N.am  1 <1>  -0.7300 
  7 C       -4.0200    -3.5280    -1.5530 C.2   1 <1>   0.5690 
  8 C       -4.5270    -0.6320    -0.2980 C.2   1 <1>   0.5690 
  9 O       -3.7080    -3.5450    -2.7230 O.2   1 <1>  -0.5700 
 10 N       -5.1350    -4.2100    -1.1100 N.am  1 <1>  -0.6600 
 11 O       -5.0800     0.0870     0.4910 O.2   1 <1>  -0.5700 
 12 C       -4.7360    -0.4020    -1.7750 C.3   1 <1>  -0.1790 
 13 C       -5.8600    -5.1560    -2.0040 C.3   1 <1>   0.1400 
 14 C       -5.7300    -4.1600     0.2550 C.3   1 <1>   0.1400 
 15 C       -5.7560    -6.5670    -1.4190 C.3   1 <1>  -0.1600 
 16 C       -5.6380    -5.5450     0.8980 C.3   1 <1>  -0.1600 
 17 C       -6.2870    -6.6380     0.0240 C.3   1 <1>   0.4240 
 18 O       -7.6490    -6.2910    -0.1050 O.3   1 <1>  -0.5600 
 19 C       -6.1050    -8.0620     0.6230 C.ar  1 <1>  -0.1430 
 20 C       -8.5250    -6.7010     0.8930 C.3   1 <1>   0.1200 
 21 C       -4.8400    -8.6370     0.8070 C.ar  1 <1>   0.0820 
 22 C       -7.2240    -8.8040     1.0010 C.ar  1 <1>  -0.1430 
 23 C       -8.6130    -8.2180     0.8520 C.3   1 <1>  -0.0170 
 24 O       -3.7330    -7.9230     0.4710 O.3   1 <1>  -0.3620 
 25 C       -4.7230    -9.9220     1.3330 C.ar  1 <1>  -0.1500 
 26 C       -7.0950   -10.0800     1.5230 C.ar  1 <1>  -0.1500 
 27 C       -2.4350    -8.2890     0.8850 C.3   1 <1>   0.0400 
 28 C       -5.8460   -10.6410     1.6880 C.ar  1 <1>  -0.1500 
 29 H       -1.5150    -2.1020     1.6690 H     1 <1>   0.0800 
 30 H       -0.4270    -2.5220     0.3410 H     1 <1>   0.0800 
 31 H        1.5480    -3.7870     3.5220 H     1 <1>   0.0800 
 32 H        0.5580    -2.3230     3.4120 H     1 <1>   0.0800 
 33 H        1.6400    -2.7660     2.0780 H     1 <1>   0.0800 
 34 H       -1.8740    -4.4380    -0.2480 H     1 <1>   0.0800 
 35 H       -2.9570    -4.0620     1.0540 H     1 <1>   0.0800 
 36 H       -2.3610    -2.2500    -1.2760 H     1 <1>   0.0800 
 37 H       -3.6810    -1.7090     1.1710 H     1 <1>   0.3700 
 38 H       -3.8070    -0.4880    -2.3060 H     1 <1>   0.0800 
 39 H       -5.1340     0.5840    -1.9330 H     1 <1>   0.0800 
 40 H       -5.4360    -1.1210    -2.1570 H     1 <1>   0.0800 
 41 H       -6.8920    -4.8570    -2.0760 H     1 <1>   0.0800 
 42 H       -5.4440    -5.1480    -2.9960 H     1 <1>   0.0800 
 43 H       -5.2350    -3.4440     0.8810 H     1 <1>   0.0800 
 44 H       -6.7620    -3.8630     0.1750 H     1 <1>   0.0800 
 45 H       -4.7270    -6.8620    -1.4660 H     1 <1>   0.0800 
 46 H       -6.3100    -7.2560    -2.0290 H     1 <1>   0.0800 
 47 H       -6.0970    -5.5320     1.8680 H     1 <1>   0.0800 
 48 H       -4.6020    -5.7610     1.0540 H     1 <1>   0.0800 
 49 H       -8.1680    -6.3560     1.8470 H     1 <1>   0.0800 
 50 H       -9.4850    -6.2610     0.6920 H     1 <1>   0.0800 
 51 H       -9.2490    -8.5570     1.6490 H     1 <1>   0.0800 
 52 H       -9.0420    -8.5300    -0.0840 H     1 <1>   0.0800 
 53 H       -3.7650   -10.3840     1.4700 H     1 <1>   0.1500 
 54 H       -7.9680   -10.6430     1.8040 H     1 <1>   0.1500 
 55 H       -1.7610    -7.4960     0.6110 H     1 <1>   0.0800 
 56 H       -2.1510    -9.1970     0.3830 H     1 <1>   0.0800 
 57 H       -2.4310    -8.4170     1.9530 H     1 <1>   0.0800 
 58 H       -5.7490   -11.6340     2.0920 H     1 <1>   0.1500 
@<TRIPOS>BOND
  1   1   2  1   
  2   1   3  1   
  3   2   4  1   
  4   2  29  1   
  5   2  30  1   
  6   3  31  1   
  7   3  32  1   
  8   3  33  1   
  9   4   5  1   
 10   4  34  1   
 11   4  35  1   
 12   5   6  1   
 13   5   7  1   
 14   5  36  1   
 15   6   8  am  
 16   6  37  1   
 17   7   9  2   
 18   7  10  am  
 19   8  11  2   
 20   8  12  1   
 21  10  13  1   
 22  10  14  1   
 23  12  38  1   
 24  12  39  1   
 25  12  40  1   
 26  13  15  1   
 27  13  41  1   
 28  13  42  1   
 29  14  16  1   
 30  14  43  1   
 31  14  44  1   
 32  15  17  1   
 33  15  45  1   
 34  15  46  1   
 35  16  17  1   
 36  16  47  1   
 37  16  48  1   
 38  17  18  1   
 39  17  19  1   
 40  18  20  1   
 41  19  21  ar  
 42  19  22  ar  
 43  20  23  1   
 44  20  49  1   
 45  20  50  1   
 46  21  24  1   
 47  21  25  ar  
 48  22  23  1   
 49  22  26  ar  
 50  23  51  1   
 51  23  52  1   
 52  24  27  1   
 53  25  28  ar  
 54  25  53  1   
 55  26  28  ar  
 56  26  54  1   
 57  27  55  1   
 58  27  56  1   
 59  27  57  1   
 60  28  58  1   
@<TRIPOS>SUBSTRUCTURE
  1 ****  16 GROUP 4 **** **** 0

# MOE 2024.06 (io_trps.svl 2023.06)
