@<TRIPOS>MOLECULE
NONAME
60 64 1 0 0 
SMALL
USER_CHARGES


@<TRIPOS>ATOM
  1 O       -0.4100    -1.0340    -0.9070 O.2   1 <1>  -0.5700 
  2 C       -0.1820    -2.2090    -1.1210 C.2   1 <1>   0.5440 
  3 N        1.1380    -2.5740    -1.2460 N.am  1 <1>  -0.6600 
  4 C       -1.2580    -3.1830    -1.1790 C.ar  1 <1>   0.0860 
  5 C        2.1020    -1.5830    -1.8100 C.3   1 <1>   0.1400 
  6 C        1.7400    -3.4630    -0.2110 C.3   1 <1>   0.1400 
  7 C       -2.4960    -2.9470    -0.6130 C.ar  1 <1>  -0.1500 
  8 C       -1.1320    -4.4170    -1.8060 C.ar  1 <1>  -0.1500 
  9 C        2.7070    -0.7310    -0.6780 C.3   1 <1>   0.3430 
 10 C        2.3780    -2.6160     0.9130 C.3   1 <1>   0.3430 
 11 C       -3.5110    -3.8930    -0.6700 C.ar  1 <1>   0.4100 
 12 C       -2.1890    -5.3040    -1.8110 C.ar  1 <1>   0.1600 
 13 N        3.3490    -1.5870     0.3870 N.4   1 <1>  -0.9590 
 14 N       -3.3630    -5.0750    -1.2530 N.ar  1 <1>  -0.6200 
 15 N       -4.7380    -3.6080    -0.1030 N.pl3 1 <1>  -0.8380 
 16 C        3.8740    -0.7340     1.4960 C.3   1 <1>   0.2630 
 17 C       -5.5250    -2.4700    -0.6740 C.3   1 <1>   0.2090 
 18 C       -5.5980    -4.7270     0.3720 C.3   1 <1>   0.2090 
 19 C       -6.4870    -1.8890     0.3800 C.3   1 <1>   0.1430 
 20 C       -6.5820    -4.2110     1.4300 C.3   1 <1>  -0.1600 
 21 C       -7.2690    -0.7500    -0.2480 C.ar  1 <1>   0.1670 
 22 C       -7.4030    -3.0120     0.9180 C.3   1 <1>  -0.1600 
 23 C       -5.7140    -1.1730     1.5210 C.3   1 <1>  -0.1600 
 24 N       -8.2420    -0.8790    -1.1200 N.ar  1 <1>  -0.6200 
 25 C       -6.8310     0.4630     0.1980 C.ar  1 <1>  -0.1430 
 26 C       -5.6920     0.3260     1.1770 C.3   1 <1>  -0.0170 
 27 C       -8.7610     0.2710    -1.5230 C.ar  1 <1>   0.7200 
 28 C       -7.4530     1.5880    -0.2860 C.ar  1 <1>   0.1600 
 29 N       -8.4370     1.5030    -1.1530 N.ar  1 <1>  -0.6200 
 30 N       -9.7630     0.1770    -2.3970 N.pl3 1 <1>  -0.9000 
 31 H        1.5900    -0.9370    -2.5050 H     1 <1>   0.0800 
 32 H        2.8780    -2.0950    -2.3500 H     1 <1>   0.0800 
 33 H        2.4820    -4.0950    -0.6660 H     1 <1>   0.0800 
 34 H        0.9810    -4.0990     0.2140 H     1 <1>   0.0800 
 35 H       -2.6890    -2.0180    -0.1120 H     1 <1>   0.1500 
 36 H       -0.2140    -4.6840    -2.2960 H     1 <1>   0.1500 
 37 H        1.9130    -0.1430    -0.2440 H     1 <1>   0.0800 
 38 H        3.4320    -0.0510    -1.0950 H     1 <1>   0.0800 
 39 H        2.8780    -3.2700     1.6080 H     1 <1>   0.0800 
 40 H        1.5840    -2.1160     1.4450 H     1 <1>   0.0800 
 41 H       -2.0680    -6.2550    -2.3010 H     1 <1>   0.1500 
 42 H        4.1360    -2.0870    -0.0490 H     1 <1>   0.4500 
 43 H        3.0660    -0.1960     1.9680 H     1 <1>   0.0800 
 44 H        4.5860    -0.0190     1.1160 H     1 <1>   0.0800 
 45 H        4.3630    -1.3420     2.2400 H     1 <1>   0.0800 
 46 H       -6.0940    -2.8270    -1.5160 H     1 <1>   0.0800 
 47 H       -4.8650    -1.6980    -1.0280 H     1 <1>   0.0800 
 48 H       -4.9840    -5.5040     0.7950 H     1 <1>   0.0800 
 49 H       -6.1350    -5.1400    -0.4660 H     1 <1>   0.0800 
 50 H       -6.0260    -3.9310     2.3060 H     1 <1>   0.0800 
 51 H       -7.2470    -5.0090     1.7080 H     1 <1>   0.0800 
 52 H       -8.0420    -3.3490     0.1200 H     1 <1>   0.0800 
 53 H       -8.0370    -2.6330     1.7000 H     1 <1>   0.0800 
 54 H       -4.7210    -1.5660     1.6540 H     1 <1>   0.0800 
 55 H       -6.2480    -1.2940     2.4470 H     1 <1>   0.0800 
 56 H       -4.7660     0.5930     0.6960 H     1 <1>   0.0800 
 57 H       -5.8400     0.9350     2.0520 H     1 <1>   0.0800 
 58 H       -7.1420     2.5660     0.0400 H     1 <1>   0.1500 
 59 H      -10.3600     0.9970    -2.4590 H     1 <1>   0.4000 
 60 H      -10.2180    -0.7300    -2.4350 H     1 <1>   0.4000 
@<TRIPOS>BOND
  1   1   2  2   
  2   2   3  am  
  3   2   4  1   
  4   3   5  1   
  5   3   6  1   
  6   4   7  ar  
  7   4   8  ar  
  8   5   9  1   
  9   5  31  1   
 10   5  32  1   
 11   6  10  1   
 12   6  33  1   
 13   6  34  1   
 14   7  11  ar  
 15   7  35  1   
 16   8  12  ar  
 17   8  36  1   
 18   9  13  1   
 19   9  37  1   
 20   9  38  1   
 21  10  13  1   
 22  10  39  1   
 23  10  40  1   
 24  11  14  ar  
 25  11  15  1   
 26  12  14  ar  
 27  12  41  1   
 28  13  16  1   
 29  13  42  1   
 30  15  17  1   
 31  15  18  1   
 32  16  43  1   
 33  16  44  1   
 34  16  45  1   
 35  17  19  1   
 36  17  46  1   
 37  17  47  1   
 38  18  20  1   
 39  18  48  1   
 40  18  49  1   
 41  19  21  1   
 42  19  22  1   
 43  19  23  1   
 44  20  22  1   
 45  20  50  1   
 46  20  51  1   
 47  21  24  ar  
 48  21  25  ar  
 49  22  52  1   
 50  22  53  1   
 51  23  26  1   
 52  23  54  1   
 53  23  55  1   
 54  24  27  ar  
 55  25  26  1   
 56  25  28  ar  
 57  26  56  1   
 58  26  57  1   
 59  27  29  ar  
 60  27  30  1   
 61  28  29  ar  
 62  28  58  1   
 63  30  59  1   
 64  30  60  1   
@<TRIPOS>SUBSTRUCTURE
  1 ****   7 GROUP 4 **** **** 0

# MOE 2024.06 (io_trps.svl 2023.06)
