@<TRIPOS>MOLECULE
NONAME
35 37 1 0 0 
SMALL
USER_CHARGES


@<TRIPOS>ATOM
  1 CL       1.1940    -0.0580     2.2680 Cl    1 <1>  -0.1770 
  2 C        1.7330    -0.9160     0.8410 C.ar  1 <1>   0.1770 
  3 C        2.1740    -0.2140    -0.2740 C.ar  1 <1>   0.0820 
  4 C        1.7080    -2.2970     0.8550 C.ar  1 <1>  -0.1500 
  5 O        2.2060     1.1360    -0.2880 O.3   1 <1>  -0.3630 
  6 C        2.6060    -0.9480    -1.3720 C.ar  1 <1>   0.1770 
  7 C        2.1290    -3.0350    -0.2530 C.ar  1 <1>   0.0860 
  8 C        1.0150     1.7940    -0.6570 C.3   1 <1>   0.0400 
  9 CL       3.1790    -0.1280    -2.8080 Cl    1 <1>  -0.1770 
 10 C        2.5880    -2.3290    -1.3650 C.ar  1 <1>  -0.1500 
 11 C        2.1030    -4.4840    -0.2570 C.2   1 <1>   0.5440 
 12 O        3.1030    -5.0910    -0.5940 O.2   1 <1>  -0.5700 
 13 N        0.9790    -5.1730     0.1100 N.am  1 <1>  -0.6600 
 14 C       -0.3890    -4.5860     0.1980 C.3   1 <1>   0.2350 
 15 C        0.8870    -6.6620     0.1380 C.3   1 <1>   0.2350 
 16 C       -1.3400    -5.6920    -0.2090 C.3   1 <1>  -0.2420 
 17 C       -0.5550    -6.9830    -0.2210 C.3   1 <1>  -0.2420 
 18 C       -2.7680    -5.3410     0.2220 C.2   1 <1>   0.9470 
 19 C       -1.1470    -6.4490    -1.4990 C.3   1 <1>  -0.2000 
 20 C       -0.9390    -8.3830     0.2630 C.2   1 <1>   0.9470 
 21 O       -3.6760    -5.3250    -0.6190 O.co2 1 <1>  -0.9000 
 22 O       -2.9500    -4.8960     1.3640 O.co2 1 <1>  -0.9000 
 23 O       -1.2880    -9.2390    -0.5620 O.co2 1 <1>  -0.9000 
 24 O       -0.7440    -8.6790     1.4500 O.co2 1 <1>  -0.9000 
 25 H        1.3600    -2.8130     1.7340 H     1 <1>   0.1500 
 26 H        1.1930     2.8540    -0.6230 H     1 <1>   0.0800 
 27 H        0.2370     1.5290     0.0370 H     1 <1>   0.0800 
 28 H        0.7480     1.4970    -1.6560 H     1 <1>   0.0800 
 29 H        2.9300    -2.8740    -2.2270 H     1 <1>   0.1500 
 30 H       -0.5820    -4.2930     1.2160 H     1 <1>   0.0800 
 31 H       -0.5050    -3.7400    -0.4550 H     1 <1>   0.0800 
 32 H        1.5640    -7.1130    -0.5660 H     1 <1>   0.0800 
 33 H        1.1110    -7.0120     1.1310 H     1 <1>   0.0800 
 34 H       -0.4990    -6.0520    -2.2580 H     1 <1>   0.1000 
 35 H       -1.9940    -6.9720    -1.9110 H     1 <1>   0.1000 
@<TRIPOS>BOND
  1   1   2  1   
  2   2   3  ar  
  3   2   4  ar  
  4   3   5  1   
  5   3   6  ar  
  6   4   7  ar  
  7   4  25  1   
  8   5   8  1   
  9   6   9  1   
 10   6  10  ar  
 11   7  10  ar  
 12   7  11  1   
 13   8  26  1   
 14   8  27  1   
 15   8  28  1   
 16  10  29  1   
 17  11  12  2   
 18  11  13  am  
 19  13  14  1   
 20  13  15  1   
 21  14  16  1   
 22  14  30  1   
 23  14  31  1   
 24  15  17  1   
 25  15  32  1   
 26  15  33  1   
 27  16  17  1   
 28  16  18  1   
 29  16  19  1   
 30  17  19  1   
 31  17  20  1   
 32  18  21  ar  
 33  18  22  ar  
 34  19  34  1   
 35  19  35  1   
 36  20  23  ar  
 37  20  24  ar  
@<TRIPOS>SUBSTRUCTURE
  1 ****  14 GROUP 4 **** **** 0

# MOE 2024.06 (io_trps.svl 2023.06)
