@<TRIPOS>MOLECULE
NONAME
55 56 1 0 0 
SMALL
USER_CHARGES


@<TRIPOS>ATOM
  1 F       -1.3130     0.3780     1.2590 F     1 <1>  -0.1900 
  2 C       -2.4490     0.6590     0.6730 C.ar  1 <1>   0.1900 
  3 C       -3.1900     1.8000     0.9990 C.ar  1 <1>   0.0830 
  4 C       -2.8830    -0.2370    -0.2860 C.ar  1 <1>  -0.1500 
  5 O       -2.8680     2.7540     1.9200 O.3   1 <1>  -0.3630 
  6 C       -4.3850     2.0040     0.3290 C.ar  1 <1>  -0.1500 
  7 C       -4.0810    -0.0040    -0.9360 C.ar  1 <1>  -0.1500 
  8 C       -1.6520     2.7520     2.6360 C.3   1 <1>   0.0400 
  9 C       -4.8580     1.1160    -0.6370 C.ar  1 <1>   0.0530 
 10 C       -6.1080     1.3630    -1.3060 C.2   1 <1>   0.0870 
 11 O       -6.3400     2.5380    -1.8310 O.3   1 <1>  -0.0190 
 12 C       -7.2100     0.5970    -1.5380 C.2   1 <1>  -0.0860 
 13 N       -7.5090     2.6170    -2.4090 N.2   1 <1>  -0.4100 
 14 C       -8.0510     1.4620    -2.2490 C.2   1 <1>   0.3720 
 15 C       -7.5130    -0.7450    -1.1450 C.2   1 <1>   0.7160 
 16 N       -9.3270     1.1440    -2.7430 N.pl3 1 <1>  -0.8210 
 17 O       -6.7230    -1.4320    -0.5240 O.2   1 <1>  -0.5700 
 18 N       -8.7280    -1.2910    -1.4220 N.am  1 <1>  -0.7300 
 19 C       -9.3530     1.0950    -4.2330 C.3   1 <1>   0.1290 
 20 C      -10.3810     2.0710    -2.2380 C.3   1 <1>   0.1290 
 21 C       -9.2020    -2.7040    -1.2720 C.3   1 <1>   0.1400 
 22 C       -9.4530    -3.1660     0.1990 C.3   1 <1>   0.5030 
 23 N       -8.1590    -3.2420     0.9570 N.4   1 <1>  -0.9590 
 24 C      -10.3900    -2.1560     0.8820 C.3   1 <1>  -0.2400 
 25 C      -10.1380    -4.5390     0.2000 C.3   1 <1>  -0.2400 
 26 C       -7.2140    -4.3050     0.4880 C.3   1 <1>   0.2630 
 27 C       -8.2630    -3.2870     2.4500 C.3   1 <1>   0.2630 
 28 H       -2.2870    -1.1010    -0.5180 H     1 <1>   0.1500 
 29 H       -4.9630     2.8790     0.5650 H     1 <1>   0.1500 
 30 H       -4.4200    -0.6970    -1.6860 H     1 <1>   0.1500 
 31 H       -1.6290     3.6290     3.2570 H     1 <1>   0.0800 
 32 H       -0.8340     2.7780     1.9380 H     1 <1>   0.0800 
 33 H       -1.6090     1.8710     3.2500 H     1 <1>   0.0800 
 34 H       -9.3380    -0.6540    -1.9680 H     1 <1>   0.3700 
 35 H       -8.5770     0.4410    -4.5930 H     1 <1>   0.0800 
 36 H       -9.1900     2.0790    -4.6410 H     1 <1>   0.0800 
 37 H      -10.3040     0.7250    -4.5750 H     1 <1>   0.0800 
 38 H      -10.3180     2.1510    -1.1660 H     1 <1>   0.0800 
 39 H      -11.3570     1.7020    -2.5010 H     1 <1>   0.0800 
 40 H      -10.2490     3.0530    -2.6630 H     1 <1>   0.0800 
 41 H       -8.4990    -3.3630    -1.7510 H     1 <1>   0.0800 
 42 H      -10.1270    -2.7930    -1.8160 H     1 <1>   0.0800 
 43 H       -7.6780    -2.3530     0.7000 H     1 <1>   0.4500 
 44 H       -9.8980    -1.2100     1.0280 H     1 <1>   0.0800 
 45 H      -10.7480    -2.5200     1.8270 H     1 <1>   0.0800 
 46 H      -11.2530    -1.9840     0.2630 H     1 <1>   0.0800 
 47 H       -9.5790    -5.2610    -0.3660 H     1 <1>   0.0800 
 48 H      -11.1100    -4.4620    -0.2540 H     1 <1>   0.0800 
 49 H      -10.2760    -4.9030     1.2020 H     1 <1>   0.0800 
 50 H       -7.6170    -5.2840     0.6850 H     1 <1>   0.0800 
 51 H       -6.2700    -4.2100     1.0010 H     1 <1>   0.0800 
 52 H       -7.0300    -4.2030    -0.5680 H     1 <1>   0.0800 
 53 H       -8.7930    -4.1710     2.7620 H     1 <1>   0.0800 
 54 H       -8.7840    -2.4190     2.8190 H     1 <1>   0.0800 
 55 H       -7.2790    -3.3010     2.8900 H     1 <1>   0.0800 
@<TRIPOS>BOND
  1   1   2  1   
  2   2   3  ar  
  3   2   4  ar  
  4   3   5  1   
  5   3   6  ar  
  6   4   7  ar  
  7   4  28  1   
  8   5   8  1   
  9   6   9  ar  
 10   6  29  1   
 11   7   9  ar  
 12   7  30  1   
 13   8  31  1   
 14   8  32  1   
 15   8  33  1   
 16   9  10  1   
 17  10  11  1   
 18  10  12  2   
 19  11  13  1   
 20  12  14  1   
 21  12  15  1   
 22  13  14  2   
 23  14  16  1   
 24  15  17  2   
 25  15  18  am  
 26  16  19  1   
 27  16  20  1   
 28  18  21  1   
 29  18  34  1   
 30  19  35  1   
 31  19  36  1   
 32  19  37  1   
 33  20  38  1   
 34  20  39  1   
 35  20  40  1   
 36  21  22  1   
 37  21  41  1   
 38  21  42  1   
 39  22  23  1   
 40  22  24  1   
 41  22  25  1   
 42  23  26  1   
 43  23  27  1   
 44  23  43  1   
 45  24  44  1   
 46  24  45  1   
 47  24  46  1   
 48  25  47  1   
 49  25  48  1   
 50  25  49  1   
 51  26  50  1   
 52  26  51  1   
 53  26  52  1   
 54  27  53  1   
 55  27  54  1   
 56  27  55  1   
@<TRIPOS>SUBSTRUCTURE
  1 ****  15 GROUP 4 **** **** 0

# MOE 2024.06 (io_trps.svl 2023.06)
