@<TRIPOS>MOLECULE
NONAME
46 49 1 0 0 
SMALL
USER_CHARGES


@<TRIPOS>ATOM
  1 O       -4.2150    -0.8550    -2.8880 O.2   1 <1>  -0.5700 
  2 C       -3.8680    -1.1390    -1.7660 C.2   1 <1>   0.5690 
  3 N       -3.5310    -0.1870    -0.8490 N.am  1 <1>  -0.6600 
  4 C       -3.7950    -2.6040    -1.4000 C.3   1 <1>  -0.0190 
  5 C       -3.2840    -0.5340     0.5780 C.3   1 <1>   0.2200 
  6 C       -3.5030     1.2640    -1.1910 C.3   1 <1>   0.0600 
  7 C       -2.3630    -2.9910    -0.9860 C.3   1 <1>   0.1200 
  8 C       -4.9320    -3.0280    -0.4480 C.3   1 <1>   0.1400 
  9 C       -1.9910    -1.3730     0.7510 C.3   1 <1>   0.1200 
 10 C       -4.5660    -1.1200     1.2140 C.3   1 <1>   0.1400 
 11 O       -2.0750    -2.7150     0.3480 O.3   1 <1>  -0.5600 
 12 N       -4.7860    -2.5860     0.9800 N.am  1 <1>  -0.6600 
 13 C       -4.6180    -3.4830     2.0280 C.2   1 <1>   0.7150 
 14 O       -4.1030    -3.0750     3.0590 O.2   1 <1>  -0.5700 
 15 C       -5.0320    -4.8700     1.9840 C.2   1 <1>   0.0550 
 16 O       -6.0360    -5.2960     1.2110 O.3   1 <1>  -0.2800 
 17 C       -4.5570    -5.9370     2.6900 C.2   1 <1>  -0.1500 
 18 C       -6.1950    -6.5890     1.4060 C.2   1 <1>   0.2030 
 19 C       -5.3060    -7.0510     2.3130 C.2   1 <1>  -0.1500 
 20 O       -7.1380    -7.2900     0.7340 O.3   1 <1>  -0.1460 
 21 C       -8.1390    -6.7030     0.0290 C.ar  1 <1>   0.0820 
 22 C       -8.4820    -7.2570    -1.1950 C.ar  1 <1>  -0.1500 
 23 C       -8.8370    -5.5980     0.5050 C.ar  1 <1>  -0.1500 
 24 C       -9.5050    -6.7050    -1.9470 C.ar  1 <1>  -0.1500 
 25 C       -9.8570    -5.0450    -0.2500 C.ar  1 <1>  -0.1500 
 26 C      -10.1910    -5.5980    -1.4750 C.ar  1 <1>  -0.1500 
 27 H       -3.9770    -3.1300    -2.3190 H     1 <1>   0.0800 
 28 H       -3.1020     0.3930     1.0930 H     1 <1>   0.0800 
 29 H       -2.5490     1.6840    -0.9240 H     1 <1>   0.0800 
 30 H       -4.2820     1.7800    -0.6570 H     1 <1>   0.0800 
 31 H       -3.6550     1.4120    -2.2460 H     1 <1>   0.0800 
 32 H       -1.6360    -2.4940    -1.6050 H     1 <1>   0.0800 
 33 H       -2.2380    -4.0530    -1.1080 H     1 <1>   0.0800 
 34 H       -4.9780    -4.0990    -0.4970 H     1 <1>   0.0800 
 35 H       -5.8670    -2.6540    -0.8280 H     1 <1>   0.0800 
 36 H       -1.7390    -1.3940     1.7960 H     1 <1>   0.0800 
 37 H       -1.1770    -0.9110     0.2210 H     1 <1>   0.0800 
 38 H       -5.4180    -0.5790     0.8430 H     1 <1>   0.0800 
 39 H       -4.5230    -0.9280     2.2710 H     1 <1>   0.0800 
 40 H       -3.7560    -5.9270     3.4090 H     1 <1>   0.1500 
 41 H       -5.1890    -8.0550     2.6750 H     1 <1>   0.1500 
 42 H       -7.9470    -8.1170    -1.5550 H     1 <1>   0.1500 
 43 H       -8.5880    -5.1720     1.4600 H     1 <1>   0.1500 
 44 H       -9.7680    -7.1360    -2.8980 H     1 <1>   0.1500 
 45 H      -10.3930    -4.1870     0.1180 H     1 <1>   0.1500 
 46 H      -10.9850    -5.1680    -2.0600 H     1 <1>   0.1500 
@<TRIPOS>BOND
  1   1   2  2   
  2   2   3  am  
  3   2   4  1   
  4   3   5  1   
  5   3   6  1   
  6   4   7  1   
  7   4   8  1   
  8   4  27  1   
  9   5   9  1   
 10   5  10  1   
 11   5  28  1   
 12   6  29  1   
 13   6  30  1   
 14   6  31  1   
 15   7  11  1   
 16   7  32  1   
 17   7  33  1   
 18   8  12  1   
 19   8  34  1   
 20   8  35  1   
 21   9  11  1   
 22   9  36  1   
 23   9  37  1   
 24  10  12  1   
 25  10  38  1   
 26  10  39  1   
 27  12  13  am  
 28  13  14  2   
 29  13  15  1   
 30  15  16  1   
 31  15  17  2   
 32  16  18  1   
 33  17  19  1   
 34  17  40  1   
 35  18  19  2   
 36  18  20  1   
 37  19  41  1   
 38  20  21  1   
 39  21  22  ar  
 40  21  23  ar  
 41  22  24  ar  
 42  22  42  1   
 43  23  25  ar  
 44  23  43  1   
 45  24  26  ar  
 46  24  44  1   
 47  25  26  ar  
 48  25  45  1   
 49  26  46  1   
@<TRIPOS>SUBSTRUCTURE
  1 ****   8 GROUP 4 **** **** 0

# MOE 2024.06 (io_trps.svl 2023.06)
