@<TRIPOS>MOLECULE
NONAME
43 45 1 0 0 
SMALL
USER_CHARGES


@<TRIPOS>ATOM
  1 O       -1.8100    -2.6420    -3.6570 O.co2 1 <1>  -0.9000 
  2 C       -2.2200    -3.5870    -2.9670 C.2   1 <1>   0.9790 
  3 O       -2.4600    -4.6870    -3.5030 O.co2 1 <1>  -0.9000 
  4 C       -2.4700    -3.4330    -1.5430 C.ar  1 <1>  -0.1790 
  5 C       -2.6060    -4.5650    -0.7490 C.ar  1 <1>  -0.1500 
  6 C       -2.6310    -2.1950    -0.9240 C.ar  1 <1>  -0.1500 
  7 C       -2.9950    -4.4940     0.5780 C.ar  1 <1>  -0.1440 
  8 C       -2.9660    -2.1030     0.4150 C.ar  1 <1>  -0.1500 
  9 C       -3.1620    -3.2500     1.1670 C.ar  1 <1>  -0.1500 
 10 C       -3.2820    -5.7750     1.3360 C.3   1 <1>   0.4870 
 11 N       -4.0750    -6.6780     0.4470 N.4   1 <1>  -0.9590 
 12 C       -5.2800    -6.0320    -0.1810 C.3   1 <1>   0.3430 
 13 C       -4.5190    -7.9580     1.0470 C.3   1 <1>   0.3430 
 14 C       -6.3960    -7.0890    -0.1520 C.3   1 <1>   0.2000 
 15 C       -5.6870    -8.4070     0.1640 C.3   1 <1>  -0.0800 
 16 O       -7.2840    -6.8080     0.8810 O.3   1 <1>  -0.6800 
 17 C       -5.2320    -9.1080    -1.1350 C.3   1 <1>   0.0200 
 18 C       -4.3200   -10.2840    -0.8480 C.2   1 <1>  -0.0400 
 19 O       -3.0750   -10.0720    -0.5150 O.3   1 <1>  -0.0190 
 20 C       -4.5230   -11.6100    -0.8610 C.2   1 <1>  -0.1500 
 21 N       -2.4410   -11.1790    -0.2790 N.2   1 <1>  -0.4100 
 22 C       -3.2840   -12.1270    -0.4880 C.2   1 <1>   0.1080 
 23 C       -2.9650   -13.5990    -0.3450 C.3   1 <1>  -0.0590 
 24 H       -2.4170    -5.5100    -1.2280 H     1 <1>   0.1500 
 25 H       -2.4970    -1.3060    -1.5190 H     1 <1>   0.1500 
 26 H       -3.0810    -1.1320     0.8650 H     1 <1>   0.1500 
 27 H       -3.4460    -3.1540     2.2000 H     1 <1>   0.1500 
 28 H       -3.8400    -5.5490     2.2280 H     1 <1>   0.0800 
 29 H       -2.3530    -6.2460     1.6140 H     1 <1>   0.0800 
 30 H       -3.4430    -6.9010    -0.3380 H     1 <1>   0.4500 
 31 H       -5.5860    -5.1480     0.3540 H     1 <1>   0.0800 
 32 H       -5.0510    -5.7570    -1.2000 H     1 <1>   0.0800 
 33 H       -3.7220    -8.6810     1.0910 H     1 <1>   0.0800 
 34 H       -4.8810    -7.7830     2.0470 H     1 <1>   0.0800 
 35 H       -6.9600    -7.1120    -1.0700 H     1 <1>   0.0800 
 36 H       -6.3300    -9.0820     0.7040 H     1 <1>   0.0800 
 37 H       -6.8530    -6.7370     1.7530 H     1 <1>   0.4000 
 38 H       -4.7140    -8.4280    -1.7900 H     1 <1>   0.0800 
 39 H       -6.1000    -9.4660    -1.6630 H     1 <1>   0.0800 
 40 H       -5.4060   -12.1760    -1.0920 H     1 <1>   0.1500 
 41 H       -3.5950   -14.0400     0.4050 H     1 <1>   0.0800 
 42 H       -1.9380   -13.7270    -0.0550 H     1 <1>   0.0800 
 43 H       -3.1260   -14.1000    -1.2820 H     1 <1>   0.0800 
@<TRIPOS>BOND
  1   1   2  ar  
  2   2   3  ar  
  3   2   4  1   
  4   4   5  ar  
  5   4   6  ar  
  6   5   7  ar  
  7   5  24  1   
  8   6   8  ar  
  9   6  25  1   
 10   7   9  ar  
 11   7  10  1   
 12   8   9  ar  
 13   8  26  1   
 14   9  27  1   
 15  10  11  1   
 16  10  28  1   
 17  10  29  1   
 18  11  12  1   
 19  11  13  1   
 20  11  30  1   
 21  12  14  1   
 22  12  31  1   
 23  12  32  1   
 24  13  15  1   
 25  13  33  1   
 26  13  34  1   
 27  14  15  1   
 28  14  16  1   
 29  14  35  1   
 30  15  17  1   
 31  15  36  1   
 32  16  37  1   
 33  17  18  1   
 34  17  38  1   
 35  17  39  1   
 36  18  19  1   
 37  18  20  2   
 38  19  21  1   
 39  20  22  1   
 40  20  40  1   
 41  21  22  2   
 42  22  23  1   
 43  23  41  1   
 44  23  42  1   
 45  23  43  1   
@<TRIPOS>SUBSTRUCTURE
  1 ****  11 GROUP 4 **** **** 0

# MOE 2024.06 (io_trps.svl 2023.06)
