@<TRIPOS>MOLECULE
NONAME
46 48 1 0 0 
SMALL
USER_CHARGES


@<TRIPOS>ATOM
  1 S       -0.8630     0.2300    -1.2680 S.3   1 <1>  -0.0800 
  2 C       -0.1310     0.9820     0.1300 C.2   1 <1>   0.4620 
  3 C       -1.8980    -0.7160    -0.2160 C.2   1 <1>  -0.0450 
  4 N       -0.5990     0.5760     1.2520 N.2   1 <1>  -0.5650 
  5 N        0.8370     1.9040    -0.0490 N.pl3 1 <1>  -0.8840 
  6 C       -2.8440    -1.6350    -0.7830 C.2   1 <1>   0.7150 
  7 C       -1.5690    -0.3700     1.0510 C.2   1 <1>   0.0770 
  8 O       -2.6250    -2.1460    -1.8680 O.2   1 <1>  -0.5700 
  9 N       -4.0170    -1.9670    -0.1340 N.am  1 <1>  -0.6600 
 10 C       -4.7470    -3.2170    -0.5050 C.3   1 <1>   0.1400 
 11 C       -4.8120    -0.9600     0.6250 C.3   1 <1>   0.1400 
 12 C       -5.9510    -2.9370    -1.4160 C.3   1 <1>   0.1400 
 13 C       -5.6970    -0.1670    -0.3430 C.3   1 <1>  -0.1600 
 14 N       -7.0650    -2.2930    -0.6490 N.am  1 <1>  -0.6600 
 15 C       -7.0690    -0.7980    -0.6280 C.3   1 <1>   0.1400 
 16 C       -8.0760    -2.9940    -0.0360 C.2   1 <1>   0.5690 
 17 O       -8.9690    -2.4320     0.5540 O.2   1 <1>  -0.5700 
 18 C       -8.0990    -4.5170    -0.0860 C.3   1 <1>  -0.0990 
 19 C       -9.1780    -5.1550     0.8010 C.3   1 <1>  -0.0170 
 20 C       -9.0990    -6.6700     0.7160 C.ar  1 <1>  -0.1430 
 21 C       -8.3300    -7.4110     1.5910 C.ar  1 <1>  -0.1500 
 22 C       -9.7870    -7.3830    -0.2450 C.ar  1 <1>  -0.1500 
 23 C       -8.2840    -8.7890     1.4640 C.ar  1 <1>   0.1600 
 24 C       -9.6730    -8.7630    -0.2850 C.ar  1 <1>   0.1600 
 25 N       -8.9360    -9.4830     0.5450 N.ar  1 <1>  -0.6200 
 26 H        1.2880     2.3350     0.7580 H     1 <1>   0.4000 
 27 H        1.1910     2.1640    -0.9700 H     1 <1>   0.4000 
 28 H       -2.0260    -0.8020     1.9250 H     1 <1>   0.1500 
 29 H       -5.0720    -3.7190     0.3890 H     1 <1>   0.0800 
 30 H       -4.0760    -3.8840    -1.0190 H     1 <1>   0.0800 
 31 H       -4.1550    -0.2750     1.1290 H     1 <1>   0.0800 
 32 H       -5.4120    -1.4470     1.3760 H     1 <1>   0.0800 
 33 H       -6.2890    -3.8630    -1.8430 H     1 <1>   0.0800 
 34 H       -5.6460    -2.3070    -2.2330 H     1 <1>   0.0800 
 35 H       -5.1740    -0.0010    -1.2690 H     1 <1>   0.0800 
 36 H       -5.8790     0.8040     0.0810 H     1 <1>   0.0800 
 37 H       -7.4400    -0.4360    -1.5710 H     1 <1>   0.0800 
 38 H       -7.7510    -0.4550     0.1320 H     1 <1>   0.0800 
 39 H       -7.1420    -4.8900     0.2270 H     1 <1>   0.0800 
 40 H       -8.2670    -4.8200    -1.1030 H     1 <1>   0.0800 
 41 H      -10.1530    -4.8240     0.4850 H     1 <1>   0.0800 
 42 H       -9.0440    -4.8400     1.8220 H     1 <1>   0.0800 
 43 H       -7.7680    -6.9300     2.3700 H     1 <1>   0.1500 
 44 H      -10.4100    -6.8790    -0.9610 H     1 <1>   0.1500 
 45 H       -7.6800    -9.3500     2.1560 H     1 <1>   0.1500 
 46 H      -10.2180    -9.3030    -1.0410 H     1 <1>   0.1500 
@<TRIPOS>BOND
  1   1   2  1   
  2   1   3  1   
  3   2   4  2   
  4   2   5  1   
  5   3   6  1   
  6   3   7  2   
  7   4   7  1   
  8   5  26  1   
  9   5  27  1   
 10   6   8  2   
 11   6   9  am  
 12   7  28  1   
 13   9  10  1   
 14   9  11  1   
 15  10  12  1   
 16  10  29  1   
 17  10  30  1   
 18  11  13  1   
 19  11  31  1   
 20  11  32  1   
 21  12  14  1   
 22  12  33  1   
 23  12  34  1   
 24  13  15  1   
 25  13  35  1   
 26  13  36  1   
 27  14  15  1   
 28  14  16  am  
 29  15  37  1   
 30  15  38  1   
 31  16  17  2   
 32  16  18  1   
 33  18  19  1   
 34  18  39  1   
 35  18  40  1   
 36  19  20  1   
 37  19  41  1   
 38  19  42  1   
 39  20  21  ar  
 40  20  22  ar  
 41  21  23  ar  
 42  21  43  1   
 43  22  24  ar  
 44  22  44  1   
 45  23  25  ar  
 46  23  45  1   
 47  24  25  ar  
 48  24  46  1   
@<TRIPOS>SUBSTRUCTURE
  1 ****  10 GROUP 4 **** **** 0

# MOE 2024.06 (io_trps.svl 2023.06)
