@<TRIPOS>MOLECULE
NONAME
45 47 1 0 0 
SMALL
USER_CHARGES


@<TRIPOS>ATOM
  1 CL      -9.7040    -1.7790     2.4980 Cl    1 <1>  -0.1400 
  2 C       -8.0030    -1.9650     2.1200 C.2   1 <1>   0.1540 
  3 C       -7.0470    -1.7710     3.1640 C.2   1 <1>   0.6160 
  4 C       -7.6250    -2.3030     0.8610 C.2   1 <1>  -0.1500 
  5 O       -7.3120    -1.5010     4.3260 O.2   1 <1>  -0.5700 
  6 N       -5.7280    -1.9200     2.8240 N.am  1 <1>  -0.5390 
  7 C       -6.2410    -2.4660     0.5380 C.2   1 <1>   0.0140 
  8 C       -5.3360    -2.2680     1.5540 C.2   1 <1>  -0.0410 
  9 C       -5.8240    -2.8640    -0.7890 C.2   1 <1>   0.6160 
 10 O       -4.7550    -3.4280    -0.9450 O.2   1 <1>  -0.5700 
 11 N       -6.5910    -2.6180    -1.9050 N.am  1 <1>  -0.6600 
 12 C       -6.6370    -3.6090    -3.0170 C.3   1 <1>   0.1400 
 13 C       -7.0750    -1.2530    -2.2470 C.3   1 <1>   0.1400 
 14 C       -7.9460    -4.4160    -2.9890 C.3   1 <1>   0.1400 
 15 C       -8.5970    -1.1730    -2.4490 C.3   1 <1>  -0.1600 
 16 N       -9.1590    -3.5870    -2.6790 N.am  1 <1>  -0.6600 
 17 C       -9.2160    -2.2540    -3.3460 C.3   1 <1>   0.1400 
 18 C      -10.1380    -3.9380    -1.7760 C.2   1 <1>   0.5690 
 19 O      -11.0300    -3.1720    -1.4930 O.2   1 <1>  -0.5700 
 20 C      -10.1820    -5.3010    -1.0990 C.3   1 <1>   0.0810 
 21 C       -9.4000    -5.3200     0.2020 C.2   1 <1>  -0.0400 
 22 O       -8.1070    -5.5010     0.1960 O.3   1 <1>  -0.0190 
 23 C       -9.7900    -5.1830     1.4790 C.2   1 <1>  -0.1500 
 24 N       -7.6110    -5.4960     1.4000 N.2   1 <1>  -0.4100 
 25 C       -8.6010    -5.3010     2.1940 C.2   1 <1>   0.1080 
 26 C       -8.4780    -5.2050     3.6990 C.3   1 <1>  -0.0590 
 27 H       -8.3590    -2.4870     0.1000 H     1 <1>   0.1500 
 28 H       -5.0690    -1.7870     3.5930 H     1 <1>   0.3700 
 29 H       -4.2790    -2.3970     1.3750 H     1 <1>   0.1500 
 30 H       -5.8090    -4.2930    -2.9440 H     1 <1>   0.0800 
 31 H       -6.5430    -3.1000    -3.9600 H     1 <1>   0.0800 
 32 H       -6.5830    -0.9380    -3.1510 H     1 <1>   0.0800 
 33 H       -6.7860    -0.5640    -1.4710 H     1 <1>   0.0800 
 34 H       -7.8250    -5.1910    -2.2570 H     1 <1>   0.0800 
 35 H       -8.0820    -4.8940    -3.9430 H     1 <1>   0.0800 
 36 H       -8.8110    -0.2180    -2.8920 H     1 <1>   0.0800 
 37 H       -9.0980    -1.1750    -1.4990 H     1 <1>   0.0800 
 38 H       -8.7160    -2.2910    -4.2980 H     1 <1>   0.0800 
 39 H      -10.2470    -2.0020    -3.5340 H     1 <1>   0.0800 
 40 H       -9.8270    -6.0670    -1.7600 H     1 <1>   0.0800 
 41 H      -11.2090    -5.5230    -0.8790 H     1 <1>   0.0800 
 42 H      -10.7700    -5.0150     1.8870 H     1 <1>   0.1500 
 43 H       -9.0880    -4.4010     4.0690 H     1 <1>   0.0800 
 44 H       -7.4550    -5.0170     3.9710 H     1 <1>   0.0800 
 45 H       -8.7960    -6.1270     4.1490 H     1 <1>   0.0800 
@<TRIPOS>BOND
  1   1   2  1   
  2   2   3  1   
  3   2   4  2   
  4   3   5  2   
  5   3   6  am  
  6   4   7  1   
  7   4  27  1   
  8   6   8  1   
  9   6  28  1   
 10   7   8  2   
 11   7   9  1   
 12   8  29  1   
 13   9  10  2   
 14   9  11  am  
 15  11  12  1   
 16  11  13  1   
 17  12  14  1   
 18  12  30  1   
 19  12  31  1   
 20  13  15  1   
 21  13  32  1   
 22  13  33  1   
 23  14  16  1   
 24  14  34  1   
 25  14  35  1   
 26  15  17  1   
 27  15  36  1   
 28  15  37  1   
 29  16  17  1   
 30  16  18  am  
 31  17  38  1   
 32  17  39  1   
 33  18  19  2   
 34  18  20  1   
 35  20  21  1   
 36  20  40  1   
 37  20  41  1   
 38  21  22  1   
 39  21  23  2   
 40  22  24  1   
 41  23  25  1   
 42  23  42  1   
 43  24  25  2   
 44  25  26  1   
 45  26  43  1   
 46  26  44  1   
 47  26  45  1   
@<TRIPOS>SUBSTRUCTURE
  1 ****   4 GROUP 4 **** **** 0

# MOE 2024.06 (io_trps.svl 2023.06)
