@<TRIPOS>MOLECULE
NONAME
51 54 1 0 0 
SMALL
USER_CHARGES


@<TRIPOS>ATOM
  1 N        0.5190     0.3850     0.5700 N.ar  1 <1>  -0.6200 
  2 C       -0.4510     1.2370     0.9190 C.ar  1 <1>   0.7200 
  3 C        1.3380     0.8340    -0.3450 C.ar  1 <1>   0.1660 
  4 N       -0.6330     2.4680     0.4310 N.ar  1 <1>  -0.6200 
  5 N       -1.3430     0.8030     1.8780 N.pl3 1 <1>  -0.8380 
  6 C        1.2410     2.0680    -0.9080 C.ar  1 <1>  -0.1430 
  7 C        2.5100     0.0560    -0.8890 C.3   1 <1>   0.1430 
  8 C        0.2160     2.8750    -0.4840 C.ar  1 <1>   0.1600 
  9 C       -2.2550     1.7500     2.5790 C.3   1 <1>   0.1290 
 10 C       -1.6140    -0.6390     2.1250 C.3   1 <1>   0.1290 
 11 C        2.3300     2.3070    -1.9240 C.3   1 <1>  -0.0160 
 12 C        3.2970    -0.5140     0.3030 C.3   1 <1>   0.3430 
 13 C        2.0130    -1.0840    -1.8040 C.3   1 <1>  -0.1600 
 14 C        3.3040     1.1380    -1.6710 C.3   1 <1>  -0.1600 
 15 N        4.4000    -1.4360    -0.1400 N.4   1 <1>  -0.9590 
 16 C        3.1350    -2.0770    -2.1570 C.3   1 <1>  -0.1600 
 17 C        3.8610    -2.5910    -0.9100 C.3   1 <1>   0.3430 
 18 C        5.2200    -1.8550     1.0140 C.3   1 <1>   0.5230 
 19 C        6.1270    -0.6900     1.3090 C.2   1 <1>  -0.3320 
 20 N        7.3190    -0.4520     0.7160 N.pl3 1 <1>   0.0480 
 21 C        5.9340     0.3100     2.1990 C.2   1 <1>   0.0770 
 22 C        7.7550     0.6950     1.2820 C.2   1 <1>   0.0360 
 23 C        8.0570    -1.2610    -0.2760 C.3   1 <1>   0.0160 
 24 N        6.9490     1.1840     2.1660 N.2   1 <1>  -0.5650 
 25 H        0.0900     3.8630    -0.8940 H     1 <1>   0.1500 
 26 H       -1.7820     2.7110     2.6940 H     1 <1>   0.0800 
 27 H       -2.4990     1.3740     3.5570 H     1 <1>   0.0800 
 28 H       -3.1580     1.8730     2.0070 H     1 <1>   0.0800 
 29 H       -1.2510    -1.2420     1.3110 H     1 <1>   0.0800 
 30 H       -2.6740    -0.8030     2.2170 H     1 <1>   0.0800 
 31 H       -1.1280    -0.9460     3.0340 H     1 <1>   0.0800 
 32 H        2.8060     3.2620    -1.7790 H     1 <1>   0.0800 
 33 H        1.9140     2.2540    -2.9160 H     1 <1>   0.0800 
 34 H        2.6100    -1.0490     0.9390 H     1 <1>   0.0800 
 35 H        3.7010     0.3070     0.8740 H     1 <1>   0.0800 
 36 H        1.5800    -0.6760    -2.7010 H     1 <1>   0.0800 
 37 H        1.2300    -1.6200    -1.2920 H     1 <1>   0.0800 
 38 H        3.7130     0.7730    -2.5960 H     1 <1>   0.0800 
 39 H        4.1110     1.5080    -1.0630 H     1 <1>   0.0800 
 40 H        5.0210    -0.8850    -0.7420 H     1 <1>   0.4500 
 41 H        3.8450    -1.6180    -2.8230 H     1 <1>   0.0800 
 42 H        2.7080    -2.9150    -2.6800 H     1 <1>   0.0800 
 43 H        3.1690    -3.1480    -0.2980 H     1 <1>   0.0800 
 44 H        4.6620    -3.2500    -1.2060 H     1 <1>   0.0800 
 45 H        5.8080    -2.7260     0.7760 H     1 <1>   0.0800 
 46 H        4.5930    -2.0750     1.8630 H     1 <1>   0.0800 
 47 H        5.1080     0.4640     2.8760 H     1 <1>   0.1500 
 48 H        8.6950     1.1480     1.0150 H     1 <1>   0.1500 
 49 H        7.4840    -1.3420    -1.1810 H     1 <1>   0.0800 
 50 H        8.2470    -2.2390     0.1280 H     1 <1>   0.0800 
 51 H        8.9970    -0.7870    -0.4970 H     1 <1>   0.0800 
@<TRIPOS>BOND
  1   1   2  ar  
  2   1   3  ar  
  3   2   4  ar  
  4   2   5  1   
  5   3   6  ar  
  6   3   7  1   
  7   4   8  ar  
  8   5   9  1   
  9   5  10  1   
 10   6   8  ar  
 11   6  11  1   
 12   7  12  1   
 13   7  13  1   
 14   7  14  1   
 15   8  25  1   
 16   9  26  1   
 17   9  27  1   
 18   9  28  1   
 19  10  29  1   
 20  10  30  1   
 21  10  31  1   
 22  11  14  1   
 23  11  32  1   
 24  11  33  1   
 25  12  15  1   
 26  12  34  1   
 27  12  35  1   
 28  13  16  1   
 29  13  36  1   
 30  13  37  1   
 31  14  38  1   
 32  14  39  1   
 33  15  17  1   
 34  15  18  1   
 35  15  40  1   
 36  16  17  1   
 37  16  41  1   
 38  16  42  1   
 39  17  43  1   
 40  17  44  1   
 41  18  19  1   
 42  18  45  1   
 43  18  46  1   
 44  19  20  1   
 45  19  21  2   
 46  20  22  1   
 47  20  23  1   
 48  21  24  1   
 49  21  47  1   
 50  22  24  2   
 51  22  48  1   
 52  23  49  1   
 53  23  50  1   
 54  23  51  1   
@<TRIPOS>SUBSTRUCTURE
  1 ****  12 GROUP 4 **** **** 0

# MOE 2024.06 (io_trps.svl 2023.06)
