@<TRIPOS>MOLECULE
NONAME
38 40 1 0 0 
SMALL
USER_CHARGES


@<TRIPOS>ATOM
  1 O       -0.2400     0.9550    -1.3120 O.co2 1 <1>  -0.9000 
  2 C       -1.0300     0.1520    -0.7860 C.2   1 <1>   0.9060 
  3 O       -0.9000    -1.0710    -0.8180 O.co2 1 <1>  -0.9000 
  4 C       -2.2180     0.7920    -0.0440 C.3   1 <1>   0.3170 
  5 N       -2.0720     2.2950    -0.0150 N.4   1 <1>  -0.9590 
  6 C       -3.5740     0.5270    -0.7050 C.3   1 <1>  -0.1600 
  7 C       -3.3360     2.8960    -0.5200 C.3   1 <1>   0.3430 
  8 C       -1.6300     2.7750     1.3030 C.3   1 <1>   0.5240 
  9 C       -4.3810     1.7820    -0.4220 C.3   1 <1>   0.2000 
 10 C       -1.3160     4.2500     1.1840 C.2   1 <1>  -0.1810 
 11 O       -4.8410     1.7120     0.8880 O.3   1 <1>  -0.6800 
 12 C       -1.9530     5.2740     1.8700 C.2   1 <1>   0.1390 
 13 C       -0.3990     4.8770     0.4150 C.2   1 <1>  -0.3020 
 14 N       -1.4820     6.4360     1.5530 N.2   1 <1>  -0.7070 
 15 N       -0.4930     6.2120     0.6450 N.pl3 1 <1>   0.5930 
 16 C        0.2810     7.2520     0.0450 C.ar  1 <1>  -0.0230 
 17 C       -0.2310     8.5430    -0.0630 C.ar  1 <1>  -0.1500 
 18 C        1.5630     7.0080    -0.4460 C.ar  1 <1>  -0.1500 
 19 C        0.5080     9.5560    -0.6490 C.ar  1 <1>  -0.1500 
 20 C        2.3020     8.0200    -1.0330 C.ar  1 <1>  -0.1500 
 21 C        1.7750     9.2950    -1.1360 C.ar  1 <1>  -0.1500 
 22 H       -2.2350     0.4050     0.9590 H     1 <1>   0.0800 
 23 H       -1.2780     2.4310    -0.6830 H     1 <1>   0.4500 
 24 H       -4.0300    -0.3730    -0.3350 H     1 <1>   0.0800 
 25 H       -3.4280     0.4190    -1.7670 H     1 <1>   0.0800 
 26 H       -3.6330     3.7630     0.0470 H     1 <1>   0.0800 
 27 H       -3.2060     3.1720    -1.5530 H     1 <1>   0.0800 
 28 H       -2.4060     2.6120     2.0320 H     1 <1>   0.0800 
 29 H       -0.7440     2.2410     1.6060 H     1 <1>   0.0800 
 30 H       -5.2180     1.9280    -1.0850 H     1 <1>   0.0800 
 31 H       -5.5170     1.0080     0.9780 H     1 <1>   0.4000 
 32 H       -2.7510     5.1400     2.5840 H     1 <1>   0.1500 
 33 H        0.3080     4.4610    -0.2800 H     1 <1>   0.1500 
 34 H       -1.2160     8.7600     0.3160 H     1 <1>   0.1500 
 35 H        1.9980     6.0270    -0.3710 H     1 <1>   0.1500 
 36 H        0.0960    10.5480    -0.7230 H     1 <1>   0.1500 
 37 H        3.2910     7.8180    -1.4090 H     1 <1>   0.1500 
 38 H        2.3510    10.0830    -1.5910 H     1 <1>   0.1500 
@<TRIPOS>BOND
  1   1   2  ar  
  2   2   3  ar  
  3   2   4  1   
  4   4   5  1   
  5   4   6  1   
  6   4  22  1   
  7   5   7  1   
  8   5   8  1   
  9   5  23  1   
 10   6   9  1   
 11   6  24  1   
 12   6  25  1   
 13   7   9  1   
 14   7  26  1   
 15   7  27  1   
 16   8  10  1   
 17   8  28  1   
 18   8  29  1   
 19   9  11  1   
 20   9  30  1   
 21  10  12  1   
 22  10  13  2   
 23  11  31  1   
 24  12  14  2   
 25  12  32  1   
 26  13  15  1   
 27  13  33  1   
 28  14  15  1   
 29  15  16  1   
 30  16  17  ar  
 31  16  18  ar  
 32  17  19  ar  
 33  17  34  1   
 34  18  20  ar  
 35  18  35  1   
 36  19  21  ar  
 37  19  36  1   
 38  20  21  ar  
 39  20  37  1   
 40  21  38  1   
@<TRIPOS>SUBSTRUCTURE
  1 ****  13 GROUP 4 **** **** 0

# MOE 2024.06 (io_trps.svl 2023.06)
