@<TRIPOS>MOLECULE
NONAME
55 58 1 0 0 
SMALL
USER_CHARGES


@<TRIPOS>ATOM
  1 O       -2.9360     0.9240    -1.7910 O.2   1 <1>  -0.5700 
  2 C       -2.9410     0.9890    -0.5750 C.2   1 <1>   0.7160 
  3 N       -3.2440    -0.1400     0.1590 N.am  1 <1>  -0.6600 
  4 C       -2.5520     2.2010     0.0700 C.2   1 <1>  -0.0860 
  5 C       -3.4150    -1.4860    -0.4840 C.3   1 <1>   0.1400 
  6 C       -3.5060    -0.1250     1.6250 C.3   1 <1>   0.1400 
  7 C       -3.2870     3.3820     0.1830 C.2   1 <1>   0.3720 
  8 C       -1.4200     2.4610     0.7710 C.2   1 <1>   0.0870 
  9 C       -2.5160    -2.5530     0.1830 C.3   1 <1>   0.2800 
 10 C       -2.5940    -1.1390     2.3240 C.3   1 <1>  -0.1600 
 11 N       -2.6520     4.2530     0.8900 N.2   1 <1>  -0.4100 
 12 N       -4.5580     3.5940    -0.3660 N.pl3 1 <1>  -0.8210 
 13 O       -1.5270     3.6800     1.2320 O.3   1 <1>  -0.0190 
 14 C       -0.2740     1.6420     1.0610 C.ar  1 <1>   0.0530 
 15 O       -1.2000    -2.2020    -0.0380 O.3   1 <1>  -0.6800 
 16 C       -2.7270    -2.5460     1.7090 C.3   1 <1>  -0.1600 
 17 C       -2.7320    -3.9670    -0.3930 C.3   1 <1>  -0.1600 
 18 C       -5.4210     4.6190     0.3040 C.3   1 <1>   0.2090 
 19 C       -4.5840     3.7490    -1.8560 C.3   1 <1>   0.2090 
 20 C        0.3800     1.7330     2.2890 C.ar  1 <1>  -0.1500 
 21 C        0.2080     0.7120     0.1390 C.ar  1 <1>  -0.1500 
 22 C       -2.4720    -4.1080    -1.9030 C.3   1 <1>  -0.2400 
 23 C       -5.1740     6.0370    -0.2480 C.3   1 <1>   0.1200 
 24 C       -4.3750     5.2140    -2.2820 C.3   1 <1>   0.1200 
 25 C        1.4530     0.9160     2.5940 C.ar  1 <1>  -0.1500 
 26 C        1.2760    -0.1110     0.4410 C.ar  1 <1>  -0.1500 
 27 O       -5.2910     6.0580    -1.6430 O.3   1 <1>  -0.5600 
 28 C        1.9000    -0.0120     1.6710 C.ar  1 <1>  -0.1500 
 29 H       -3.1850    -1.4360    -1.5340 H     1 <1>   0.0800 
 30 H       -4.4450    -1.7820    -0.3910 H     1 <1>   0.0800 
 31 H       -4.5360    -0.3890     1.7940 H     1 <1>   0.0800 
 32 H       -3.3470     0.8540     2.0430 H     1 <1>   0.0800 
 33 H       -2.8490    -1.1810     3.3680 H     1 <1>   0.0800 
 34 H       -1.5730    -0.8020     2.2600 H     1 <1>   0.0800 
 35 H       -1.0810    -1.2810     0.2680 H     1 <1>   0.4000 
 36 H       -2.0250    -3.2170     2.1730 H     1 <1>   0.0800 
 37 H       -3.7140    -2.9180     1.9200 H     1 <1>   0.0800 
 38 H       -3.7430    -4.2730    -0.1920 H     1 <1>   0.0800 
 39 H       -2.0850    -4.6490     0.1310 H     1 <1>   0.0800 
 40 H       -5.2390     4.6120     1.3650 H     1 <1>   0.0800 
 41 H       -6.4540     4.3600     0.1510 H     1 <1>   0.0800 
 42 H       -5.5300     3.4020    -2.2300 H     1 <1>   0.0800 
 43 H       -3.8150     3.1490    -2.3080 H     1 <1>   0.0800 
 44 H        0.0390     2.4510     3.0150 H     1 <1>   0.1500 
 45 H       -0.2540     0.6300    -0.8310 H     1 <1>   0.1500 
 46 H       -3.1660    -3.5180    -2.4740 H     1 <1>   0.0800 
 47 H       -2.5830    -5.1370    -2.1980 H     1 <1>   0.0800 
 48 H       -1.4710    -3.7950    -2.1430 H     1 <1>   0.0800 
 49 H       -4.1910     6.3800     0.0220 H     1 <1>   0.0800 
 50 H       -5.9000     6.7210     0.1530 H     1 <1>   0.0800 
 51 H       -4.5210     5.3150    -3.3430 H     1 <1>   0.0800 
 52 H       -3.3780     5.5370    -2.0370 H     1 <1>   0.0800 
 53 H        1.9410     1.0000     3.5500 H     1 <1>   0.1500 
 54 H        1.6230    -0.8300    -0.2820 H     1 <1>   0.1500 
 55 H        2.7320    -0.6540     1.9070 H     1 <1>   0.1500 
@<TRIPOS>BOND
  1   1   2  2   
  2   2   3  am  
  3   2   4  1   
  4   3   5  1   
  5   3   6  1   
  6   4   7  1   
  7   4   8  2   
  8   5   9  1   
  9   5  29  1   
 10   5  30  1   
 11   6  10  1   
 12   6  31  1   
 13   6  32  1   
 14   7  11  2   
 15   7  12  1   
 16   8  13  1   
 17   8  14  1   
 18   9  15  1   
 19   9  16  1   
 20   9  17  1   
 21  10  16  1   
 22  10  33  1   
 23  10  34  1   
 24  11  13  1   
 25  12  18  1   
 26  12  19  1   
 27  14  20  ar  
 28  14  21  ar  
 29  15  35  1   
 30  16  36  1   
 31  16  37  1   
 32  17  22  1   
 33  17  38  1   
 34  17  39  1   
 35  18  23  1   
 36  18  40  1   
 37  18  41  1   
 38  19  24  1   
 39  19  42  1   
 40  19  43  1   
 41  20  25  ar  
 42  20  44  1   
 43  21  26  ar  
 44  21  45  1   
 45  22  46  1   
 46  22  47  1   
 47  22  48  1   
 48  23  27  1   
 49  23  49  1   
 50  23  50  1   
 51  24  27  1   
 52  24  51  1   
 53  24  52  1   
 54  25  28  ar  
 55  25  53  1   
 56  26  28  ar  
 57  26  54  1   
 58  28  55  1   
@<TRIPOS>SUBSTRUCTURE
  1 ****   2 GROUP 4 **** **** 0

# MOE 2024.06 (io_trps.svl 2023.06)
