@<TRIPOS>MOLECULE
NONAME
53 54 1 0 0 
SMALL
USER_CHARGES


@<TRIPOS>ATOM
  1 O        0.0700    -0.3950    -0.0810 O.3   1 <1>  -0.6800 
  2 C        1.3300    -0.4630     0.4970 C.3   1 <1>   0.2000 
  3 C        2.3810     0.3510    -0.3300 C.3   1 <1>   0.4230 
  4 C        1.6800    -1.9530     0.5780 C.3   1 <1>  -0.1600 
  5 N        2.1940     1.8550    -0.4190 N.4   1 <1>  -0.9590 
  6 C        3.7870     0.0970     0.2510 C.3   1 <1>  -0.1600 
  7 C        3.0880    -2.1680     1.1410 C.3   1 <1>  -0.1600 
  8 C        2.9850     2.4280    -1.5500 C.3   1 <1>   0.4860 
  9 C        0.7860     2.3560    -0.5020 C.3   1 <1>   0.3430 
 10 C        4.1280    -1.3980     0.3220 C.3   1 <1>  -0.1600 
 11 C        3.2570     3.8860    -1.2680 C.ar  1 <1>  -0.1430 
 12 C        0.2850     2.7760     0.8840 C.3   1 <1>  -0.1600 
 13 C        4.2020     4.2700    -0.3430 C.ar  1 <1>   0.1600 
 14 C        2.5720     4.8920    -1.9110 C.ar  1 <1>   0.1600 
 15 C        1.1460     3.8590     1.5580 C.3   1 <1>  -0.2400 
 16 N        4.4200     5.5250    -0.0520 N.ar  1 <1>  -0.6200 
 17 N        2.7730     6.1550    -1.6380 N.ar  1 <1>  -0.6200 
 18 C        3.6840     6.4120    -0.7120 C.ar  1 <1>   0.7200 
 19 N        3.8520     7.7220    -0.4380 N.pl3 1 <1>  -0.8690 
 20 C        5.0120     8.2910     0.2720 C.3   1 <1>   0.2090 
 21 C        4.7110     9.7470     0.6230 C.3   1 <1>  -0.1600 
 22 C        5.8770    10.3970     1.3760 C.3   1 <1>  -0.2400 
 23 H       -0.5410    -1.0260     0.3560 H     1 <1>   0.4000 
 24 H        1.2660    -0.0660     1.4960 H     1 <1>   0.0800 
 25 H        2.3560    -0.0590    -1.3270 H     1 <1>   0.0800 
 26 H        0.9740    -2.4620     1.2130 H     1 <1>   0.0800 
 27 H        1.6280    -2.3920    -0.4050 H     1 <1>   0.0800 
 28 H        2.5600     2.2590     0.4500 H     1 <1>   0.4500 
 29 H        4.5470     0.5670    -0.3440 H     1 <1>   0.0800 
 30 H        3.8410     0.5030     1.2470 H     1 <1>   0.0800 
 31 H        3.1230    -1.8440     2.1680 H     1 <1>   0.0800 
 32 H        3.3260    -3.2190     1.1250 H     1 <1>   0.0800 
 33 H        3.9260     1.9160    -1.6570 H     1 <1>   0.0800 
 34 H        2.4410     2.3190    -2.4740 H     1 <1>   0.0800 
 35 H        0.7450     3.2270    -1.1340 H     1 <1>   0.0800 
 36 H        0.1360     1.6190    -0.9410 H     1 <1>   0.0800 
 37 H        4.1760    -1.8110    -0.6730 H     1 <1>   0.0800 
 38 H        5.0990    -1.5280     0.7720 H     1 <1>   0.0800 
 39 H       -0.7100     3.1670     0.7620 H     1 <1>   0.0800 
 40 H        0.2000     1.9220     1.5300 H     1 <1>   0.0800 
 41 H        4.7950     3.5390     0.1800 H     1 <1>   0.1500 
 42 H        1.8350     4.6670    -2.6650 H     1 <1>   0.1500 
 43 H        1.2550     4.7170     0.9160 H     1 <1>   0.0800 
 44 H        2.1210     3.4940     1.8230 H     1 <1>   0.0800 
 45 H        0.6650     4.1880     2.4630 H     1 <1>   0.0800 
 46 H        3.3780     8.3360    -1.0970 H     1 <1>   0.4000 
 47 H        5.1980     7.7270     1.1720 H     1 <1>   0.0800 
 48 H        5.8830     8.2300    -0.3590 H     1 <1>   0.0800 
 49 H        4.5240    10.3000    -0.2810 H     1 <1>   0.0800 
 50 H        3.8290     9.7840     1.2390 H     1 <1>   0.0800 
 51 H        6.7690    10.3840     0.7740 H     1 <1>   0.0800 
 52 H        6.0710     9.8710     2.2950 H     1 <1>   0.0800 
 53 H        5.6380    11.4190     1.6120 H     1 <1>   0.0800 
@<TRIPOS>BOND
  1   1   2  1   
  2   1  23  1   
  3   2   3  1   
  4   2   4  1   
  5   2  24  1   
  6   3   5  1   
  7   3   6  1   
  8   3  25  1   
  9   4   7  1   
 10   4  26  1   
 11   4  27  1   
 12   5   8  1   
 13   5   9  1   
 14   5  28  1   
 15   6  10  1   
 16   6  29  1   
 17   6  30  1   
 18   7  10  1   
 19   7  31  1   
 20   7  32  1   
 21   8  11  1   
 22   8  33  1   
 23   8  34  1   
 24   9  12  1   
 25   9  35  1   
 26   9  36  1   
 27  10  37  1   
 28  10  38  1   
 29  11  13  ar  
 30  11  14  ar  
 31  12  15  1   
 32  12  39  1   
 33  12  40  1   
 34  13  16  ar  
 35  13  41  1   
 36  14  17  ar  
 37  14  42  1   
 38  15  43  1   
 39  15  44  1   
 40  15  45  1   
 41  16  18  ar  
 42  17  18  ar  
 43  18  19  1   
 44  19  20  1   
 45  19  46  1   
 46  20  21  1   
 47  20  47  1   
 48  20  48  1   
 49  21  22  1   
 50  21  49  1   
 51  21  50  1   
 52  22  51  1   
 53  22  52  1   
 54  22  53  1   
@<TRIPOS>SUBSTRUCTURE
  1 ****  11 GROUP 4 **** **** 0

# MOE 2024.06 (io_trps.svl 2023.06)
