@<TRIPOS>MOLECULE
NONAME
45 47 1 0 0 
SMALL
USER_CHARGES


@<TRIPOS>ATOM
  1 O        1.4120    -0.4220    -2.0650 O.2   1 <1>  -0.5700 
  2 C        2.0400    -0.7350    -1.0730 C.2   1 <1>   0.7160 
  3 N        2.9970     0.1430    -0.6000 N.am  1 <1>  -0.6600 
  4 C        1.7850    -2.0020    -0.4310 C.2   1 <1>  -0.0860 
  5 C        3.6030    -0.0010     0.7790 C.3   1 <1>   0.2200 
  6 C        3.3490     1.3430    -1.4300 C.3   1 <1>   0.1400 
  7 C        0.6080    -2.5170     0.0170 C.2   1 <1>  -0.0400 
  8 C        2.7350    -3.0020    -0.1270 C.2   1 <1>  -0.1500 
  9 C        3.3960     1.2570     1.6400 C.3   1 <1>   0.1200 
 10 C        5.0970    -0.3970     0.7030 C.3   1 <1>   0.3430 
 11 C        4.5940     2.1320    -0.9770 C.3   1 <1>  -0.0800 
 12 O        0.7860    -3.6920     0.5670 O.3   1 <1>  -0.2800 
 13 C       -0.7980    -1.9540    -0.0310 C.3   1 <1>  -0.0600 
 14 C        2.0610    -3.9960     0.4830 C.2   1 <1>  -0.0400 
 15 O        4.4100     2.1910     1.4330 O.3   1 <1>  -0.5600 
 16 N        5.6880    -0.1420    -0.6570 N.4   1 <1>  -0.9590 
 17 C        4.3190     2.9640     0.2840 C.3   1 <1>   0.1200 
 18 C        5.9040     1.3230    -0.8690 C.3   1 <1>   0.3430 
 19 C        2.5240    -5.3260     1.0370 C.3   1 <1>  -0.0600 
 20 C        7.0300    -0.8560    -0.7510 C.3   1 <1>   0.2370 
 21 C        8.0310    -0.4590     0.3360 C.2   1 <1>   0.9060 
 22 O        8.7520     0.5190     0.1250 O.co2 1 <1>  -0.9000 
 23 O        7.9650    -1.0530     1.4160 O.co2 1 <1>  -0.9000 
 24 H        3.0930    -0.7840     1.3090 H     1 <1>   0.0800 
 25 H        3.5030     1.0160    -2.4460 H     1 <1>   0.0800 
 26 H        2.4980     2.0040    -1.4450 H     1 <1>   0.0800 
 27 H        3.7830    -2.9600    -0.3580 H     1 <1>   0.1500 
 28 H        3.4530     0.9800     2.6780 H     1 <1>   0.0800 
 29 H        2.4350     1.7080     1.4630 H     1 <1>   0.0800 
 30 H        5.1860    -1.4440     0.9360 H     1 <1>   0.0800 
 31 H        5.6590     0.1350     1.4560 H     1 <1>   0.0800 
 32 H        4.7670     2.8630    -1.7460 H     1 <1>   0.0800 
 33 H       -0.8080    -0.9930    -0.5130 H     1 <1>   0.0800 
 34 H       -1.1840    -1.8520     0.9660 H     1 <1>   0.0800 
 35 H       -1.4340    -2.6230    -0.5830 H     1 <1>   0.0800 
 36 H        5.0200    -0.4860    -1.3560 H     1 <1>   0.4500 
 37 H        3.3510     3.4350     0.2520 H     1 <1>   0.0800 
 38 H        5.0650     3.7350     0.3760 H     1 <1>   0.0800 
 39 H        6.5090     1.7180    -0.0660 H     1 <1>   0.0800 
 40 H        6.4640     1.4560    -1.7790 H     1 <1>   0.0800 
 41 H        3.5820    -5.4440     0.8950 H     1 <1>   0.0800 
 42 H        2.0100    -6.1250     0.5340 H     1 <1>   0.0800 
 43 H        2.3020    -5.3780     2.0880 H     1 <1>   0.0800 
 44 H        6.8840    -1.9170    -0.6690 H     1 <1>   0.0800 
 45 H        7.4910    -0.6470    -1.6990 H     1 <1>   0.0800 
@<TRIPOS>BOND
  1   1   2  2   
  2   2   3  am  
  3   2   4  1   
  4   3   5  1   
  5   3   6  1   
  6   4   7  2   
  7   4   8  1   
  8   5   9  1   
  9   5  10  1   
 10   5  24  1   
 11   6  11  1   
 12   6  25  1   
 13   6  26  1   
 14   7  12  1   
 15   7  13  1   
 16   8  14  2   
 17   8  27  1   
 18   9  15  1   
 19   9  28  1   
 20   9  29  1   
 21  10  16  1   
 22  10  30  1   
 23  10  31  1   
 24  11  17  1   
 25  11  18  1   
 26  11  32  1   
 27  12  14  1   
 28  13  33  1   
 29  13  34  1   
 30  13  35  1   
 31  14  19  1   
 32  15  17  1   
 33  16  18  1   
 34  16  20  1   
 35  16  36  1   
 36  17  37  1   
 37  17  38  1   
 38  18  39  1   
 39  18  40  1   
 40  19  41  1   
 41  19  42  1   
 42  19  43  1   
 43  20  21  1   
 44  20  44  1   
 45  20  45  1   
 46  21  22  ar  
 47  21  23  ar  
@<TRIPOS>SUBSTRUCTURE
  1 ****   5 GROUP 4 **** **** 0

# MOE 2024.06 (io_trps.svl 2023.06)
