@<TRIPOS>MOLECULE
NONAME
58 61 1 0 0 
SMALL
USER_CHARGES


@<TRIPOS>ATOM
  1 O       -0.4020     0.8780    -1.7750 O.2   1 <1>  -0.5700 
  2 C       -1.1750     1.2840    -0.9300 C.2   1 <1>   0.5440 
  3 N       -1.8970     0.3710    -0.1910 N.am  1 <1>  -0.6600 
  4 C       -1.3050     2.7130    -0.7240 C.ar  1 <1>   0.0860 
  5 C       -1.9130    -1.0840    -0.5310 C.3   1 <1>   0.1400 
  6 C       -2.6400     0.6800     1.0660 C.3   1 <1>   0.1400 
  7 C       -0.2030     3.4940    -0.3830 C.ar  1 <1>  -0.1500 
  8 C       -2.5280     3.3660    -0.8650 C.ar  1 <1>  -0.1500 
  9 C       -3.3460    -1.6380    -0.4610 C.3   1 <1>   0.1200 
 10 C       -4.0370     0.0390     1.0350 C.3   1 <1>   0.1200 
 11 C       -0.3180     4.8550    -0.1750 C.ar  1 <1>  -0.1500 
 12 C       -2.6440     4.7280    -0.6580 C.ar  1 <1>  -0.1500 
 13 O       -3.9430    -1.3320     0.7700 O.3   1 <1>  -0.5600 
 14 C       -1.5440     5.5130    -0.3110 C.ar  1 <1>   0.0860 
 15 C       -1.6850     6.9420    -0.1010 C.2   1 <1>   0.5440 
 16 O       -2.7350     7.3990     0.3060 O.2   1 <1>  -0.5700 
 17 N       -0.6230     7.7740    -0.3640 N.am  1 <1>  -0.4940 
 18 C       -0.3860     9.1400    -0.0900 C.2   1 <1>  -0.0880 
 19 N       -1.2620    10.1820    -0.0910 N.pl3 1 <1>   0.3140 
 20 C        0.8400     9.6610     0.1970 C.2   1 <1>  -0.0540 
 21 N       -0.6370    11.3490     0.1850 N.2   1 <1>  -0.7070 
 22 C       -2.6930    10.1930    -0.4190 C.3   1 <1>   0.0160 
 23 C        2.0900     8.9540     0.3090 C.ar  1 <1>   0.0540 
 24 C        0.6020    11.0290     0.3600 C.2   1 <1>   0.1080 
 25 C        3.1600     9.2380    -0.5350 C.ar  1 <1>  -0.1500 
 26 C        2.2550     7.9510     1.2610 C.ar  1 <1>  -0.1500 
 27 C        1.6510    12.0600     0.7100 C.3   1 <1>  -0.0590 
 28 C        4.3540     8.5460    -0.4400 C.ar  1 <1>  -0.1500 
 29 C        3.4440     7.2540     1.3610 C.ar  1 <1>  -0.1500 
 30 C        4.5010     7.5430     0.5140 C.ar  1 <1>   0.0830 
 31 O        5.6330     6.8130     0.6770 O.3   1 <1>  -0.3620 
 32 C        6.7860     7.0670    -0.0950 C.3   1 <1>   0.0400 
 33 H       -1.2900    -1.6180     0.1650 H     1 <1>   0.0800 
 34 H       -1.5210    -1.2460    -1.5200 H     1 <1>   0.0800 
 35 H       -2.7340     1.7400     1.2140 H     1 <1>   0.0800 
 36 H       -2.0930     0.2800     1.9030 H     1 <1>   0.0800 
 37 H        0.7550     3.0110    -0.2810 H     1 <1>   0.1500 
 38 H       -3.3950     2.7910    -1.1430 H     1 <1>   0.1500 
 39 H       -3.3340    -2.7080    -0.5640 H     1 <1>   0.0800 
 40 H       -3.9490    -1.2220    -1.2490 H     1 <1>   0.0800 
 41 H       -4.6490     0.4960     0.2770 H     1 <1>   0.0800 
 42 H       -4.5210     0.1550     1.9880 H     1 <1>   0.0800 
 43 H        0.5630     5.4080     0.1040 H     1 <1>   0.1500 
 44 H       -3.6050     5.2030    -0.7690 H     1 <1>   0.1500 
 45 H        0.2100     7.2890    -0.7010 H     1 <1>   0.3700 
 46 H       -2.8820     9.4960    -1.2130 H     1 <1>   0.0800 
 47 H       -2.9780    11.1800    -0.7300 H     1 <1>   0.0800 
 48 H       -3.2530     9.9140     0.4530 H     1 <1>   0.0800 
 49 H        3.0450    10.0100    -1.2760 H     1 <1>   0.1500 
 50 H        1.4410     7.7270     1.9280 H     1 <1>   0.1500 
 51 H        2.4200    11.6210     1.3180 H     1 <1>   0.0800 
 52 H        1.1960    12.8660     1.2560 H     1 <1>   0.0800 
 53 H        2.0860    12.4520    -0.1900 H     1 <1>   0.0800 
 54 H        5.1520     8.7970    -1.1120 H     1 <1>   0.1500 
 55 H        3.5640     6.4820     2.1010 H     1 <1>   0.1500 
 56 H        7.5560     6.3860     0.2210 H     1 <1>   0.0800 
 57 H        7.1030     8.0810     0.0740 H     1 <1>   0.0800 
 58 H        6.5560     6.9010    -1.1320 H     1 <1>   0.0800 
@<TRIPOS>BOND
  1   1   2  2   
  2   2   3  am  
  3   2   4  1   
  4   3   5  1   
  5   3   6  1   
  6   4   7  ar  
  7   4   8  ar  
  8   5   9  1   
  9   5  33  1   
 10   5  34  1   
 11   6  10  1   
 12   6  35  1   
 13   6  36  1   
 14   7  11  ar  
 15   7  37  1   
 16   8  12  ar  
 17   8  38  1   
 18   9  13  1   
 19   9  39  1   
 20   9  40  1   
 21  10  13  1   
 22  10  41  1   
 23  10  42  1   
 24  11  14  ar  
 25  11  43  1   
 26  12  14  ar  
 27  12  44  1   
 28  14  15  1   
 29  15  16  2   
 30  15  17  am  
 31  17  18  1   
 32  17  45  1   
 33  18  19  1   
 34  18  20  2   
 35  19  21  1   
 36  19  22  1   
 37  20  23  1   
 38  20  24  1   
 39  21  24  2   
 40  22  46  1   
 41  22  47  1   
 42  22  48  1   
 43  23  25  ar  
 44  23  26  ar  
 45  24  27  1   
 46  25  28  ar  
 47  25  49  1   
 48  26  29  ar  
 49  26  50  1   
 50  27  51  1   
 51  27  52  1   
 52  27  53  1   
 53  28  30  ar  
 54  28  54  1   
 55  29  30  ar  
 56  29  55  1   
 57  30  31  1   
 58  31  32  1   
 59  32  56  1   
 60  32  57  1   
 61  32  58  1   
@<TRIPOS>SUBSTRUCTURE
  1 ****  11 GROUP 4 **** **** 0

# MOE 2024.06 (io_trps.svl 2023.06)
