@<TRIPOS>MOLECULE
NONAME
54 56 1 0 0 
SMALL
USER_CHARGES


@<TRIPOS>ATOM
  1 O       -0.2240     0.2190     2.0060 O.2   1 <1>  -0.5700 
  2 C        0.4610    -0.4510     1.2700 C.2   1 <1>   0.5690 
  3 N        1.4280     0.0850     0.4830 N.am  1 <1>  -0.7300 
  4 C        0.2340    -1.9640     1.2150 C.3   1 <1>   0.1710 
  5 C        1.7790     1.5190     0.3780 C.3   1 <1>   0.1400 
  6 N        0.5520    -2.6000    -0.1020 N.3   1 <1>  -0.8100 
  7 C        3.1330     1.7730     1.0390 C.3   1 <1>  -0.0170 
  8 C       -0.3680    -2.1710    -1.1730 C.3   1 <1>   0.1100 
  9 C        0.3870    -4.0540    -0.0370 C.3   1 <1>   0.1100 
 10 C        3.5210     3.2410     0.9050 C.ar  1 <1>  -0.1440 
 11 C       -1.5440    -3.1540    -1.1830 C.3   1 <1>   0.2000 
 12 C       -1.0940    -4.3300    -0.3130 C.3   1 <1>  -0.0800 
 13 C        4.0630     3.7380    -0.2790 C.ar  1 <1>   0.0820 
 14 C        3.3240     4.0950     1.9790 C.ar  1 <1>  -0.1500 
 15 O       -2.6660    -2.5700    -0.6180 O.3   1 <1>  -0.6800 
 16 C       -1.3430    -5.6930    -0.9750 C.3   1 <1>  -0.0170 
 17 O        4.2300     2.8700    -1.3130 O.3   1 <1>  -0.3630 
 18 C        4.4070     5.0860    -0.3650 C.ar  1 <1>  -0.1500 
 19 C        3.6660     5.4320     1.8870 C.ar  1 <1>  -0.1500 
 20 C       -0.8290    -6.8220    -0.0950 C.ar  1 <1>  -0.1440 
 21 C        4.8150     3.2720    -2.5320 C.3   1 <1>   0.0400 
 22 C        4.2080     5.9270     0.7150 C.ar  1 <1>  -0.1500 
 23 C       -1.5260    -7.2430     1.0200 C.ar  1 <1>  -0.1500 
 24 C        0.3580    -7.4750    -0.3550 C.ar  1 <1>  -0.1500 
 25 C       -1.0120    -8.2630     1.8030 C.ar  1 <1>   0.1600 
 26 C        0.7840    -8.4840     0.4930 C.ar  1 <1>   0.1600 
 27 N        0.1290    -8.8910     1.5680 N.ar  1 <1>  -0.6200 
 28 H        1.9160    -0.5650    -0.1420 H     1 <1>   0.3700 
 29 H       -0.7860    -2.1610     1.4880 H     1 <1>   0.0800 
 30 H        0.8620    -2.4010     1.9710 H     1 <1>   0.0800 
 31 H        1.8180     1.8010    -0.6600 H     1 <1>   0.0800 
 32 H        1.0260     2.1170     0.8620 H     1 <1>   0.0800 
 33 H        3.0740     1.5030     2.0780 H     1 <1>   0.0800 
 34 H        3.8850     1.1590     0.5760 H     1 <1>   0.0800 
 35 H       -0.6890    -1.1490    -1.0610 H     1 <1>   0.0800 
 36 H        0.1540    -2.2580    -2.1100 H     1 <1>   0.0800 
 37 H        0.9900    -4.4970    -0.8120 H     1 <1>   0.0800 
 38 H        0.7030    -4.4570     0.9110 H     1 <1>   0.0800 
 39 H       -1.7920    -3.4460    -2.1890 H     1 <1>   0.0800 
 40 H       -1.6120    -4.3080     0.6300 H     1 <1>   0.0800 
 41 H        2.9000     3.7220     2.8960 H     1 <1>   0.1500 
 42 H       -2.4260    -2.1230     0.2160 H     1 <1>   0.4000 
 43 H       -0.8590    -5.7310    -1.9350 H     1 <1>   0.0800 
 44 H       -2.4000    -5.8220    -1.1370 H     1 <1>   0.0800 
 45 H        4.8270     5.5000    -1.2610 H     1 <1>   0.1500 
 46 H        3.5100     6.0860     2.7270 H     1 <1>   0.1500 
 47 H        4.8590     2.4150    -3.1800 H     1 <1>   0.0800 
 48 H        5.8090     3.6350    -2.3380 H     1 <1>   0.0800 
 49 H        4.2030     4.0360    -2.9770 H     1 <1>   0.0800 
 50 H        4.4750     6.9670     0.6450 H     1 <1>   0.1500 
 51 H       -2.4620    -6.7870     1.2870 H     1 <1>   0.1500 
 52 H        0.9580    -7.2110    -1.2060 H     1 <1>   0.1500 
 53 H       -1.5680    -8.5790     2.6690 H     1 <1>   0.1500 
 54 H        1.7130    -8.9840     0.2750 H     1 <1>   0.1500 
@<TRIPOS>BOND
  1   1   2  2   
  2   2   3  am  
  3   2   4  1   
  4   3   5  1   
  5   3  28  1   
  6   4   6  1   
  7   4  29  1   
  8   4  30  1   
  9   5   7  1   
 10   5  31  1   
 11   5  32  1   
 12   6   8  1   
 13   6   9  1   
 14   7  10  1   
 15   7  33  1   
 16   7  34  1   
 17   8  11  1   
 18   8  35  1   
 19   8  36  1   
 20   9  12  1   
 21   9  37  1   
 22   9  38  1   
 23  10  13  ar  
 24  10  14  ar  
 25  11  12  1   
 26  11  15  1   
 27  11  39  1   
 28  12  16  1   
 29  12  40  1   
 30  13  17  1   
 31  13  18  ar  
 32  14  19  ar  
 33  14  41  1   
 34  15  42  1   
 35  16  20  1   
 36  16  43  1   
 37  16  44  1   
 38  17  21  1   
 39  18  22  ar  
 40  18  45  1   
 41  19  22  ar  
 42  19  46  1   
 43  20  23  ar  
 44  20  24  ar  
 45  21  47  1   
 46  21  48  1   
 47  21  49  1   
 48  22  50  1   
 49  23  25  ar  
 50  23  51  1   
 51  24  26  ar  
 52  24  52  1   
 53  25  27  ar  
 54  25  53  1   
 55  26  27  ar  
 56  26  54  1   
@<TRIPOS>SUBSTRUCTURE
  1 ****   6 GROUP 4 **** **** 0

# MOE 2024.06 (io_trps.svl 2023.06)
