@<TRIPOS>MOLECULE
NONAME
51 53 1 0 0 
SMALL
USER_CHARGES


@<TRIPOS>ATOM
  1 F        0.2740     0.4560    -1.1370 F     1 <1>  -0.1900 
  2 C        1.1180    -0.4130    -0.6520 C.ar  1 <1>   0.1900 
  3 C        1.1880    -1.6640    -1.2320 C.ar  1 <1>  -0.1500 
  4 C        1.9070    -0.0520     0.4210 C.ar  1 <1>  -0.1500 
  5 C        2.0810    -2.5980    -0.7240 C.ar  1 <1>  -0.1440 
  6 C        2.8000    -0.9810     0.9230 C.ar  1 <1>  -0.1500 
  7 C        2.9050    -2.2530     0.3580 C.ar  1 <1>  -0.0230 
  8 C        2.1420    -3.9790    -1.3700 C.3   1 <1>   0.4870 
  9 N        3.8380    -3.1790     0.9070 N.pl3 1 <1>   0.5930 
 10 N        1.4640    -4.9970    -0.5280 N.4   1 <1>  -0.9590 
 11 N        3.4360    -4.3720     1.4110 N.2   1 <1>  -0.7070 
 12 C        5.1950    -3.1020     0.9180 C.2   1 <1>  -0.3320 
 13 C        1.5370    -6.3620    -1.1160 C.3   1 <1>   0.5240 
 14 C        0.0790    -4.6400    -0.0880 C.3   1 <1>   0.3430 
 15 C        4.5200    -4.9910     1.7490 C.2   1 <1>   0.1080 
 16 C        5.6570    -4.2480     1.4610 C.2   1 <1>  -0.1500 
 17 C        6.0050    -1.9220     0.4010 C.3   1 <1>  -0.0600 
 18 C        1.0310    -7.3870    -0.1080 C.2   1 <1>   0.0460 
 19 C        0.0370    -4.3050     1.4080 C.3   1 <1>   0.1200 
 20 C        4.5200    -6.3660     2.3800 C.3   1 <1>  -0.0590 
 21 N        1.5970    -7.4630     1.1130 N.2   1 <1>  -0.5650 
 22 C        0.0260    -8.2870    -0.2320 C.2   1 <1>  -0.3320 
 23 O       -1.2630    -3.9500     1.7310 O.3   1 <1>  -0.6800 
 24 C        0.9360    -8.4040     1.7050 C.2   1 <1>   0.0360 
 25 N       -0.0330    -8.9480     0.9410 N.pl3 1 <1>   0.0330 
 26 C       -0.9170    -8.5980    -1.3840 C.3   1 <1>  -0.0600 
 27 H        0.5440    -1.8800    -2.0660 H     1 <1>   0.1500 
 28 H        1.8190     0.9320     0.8480 H     1 <1>   0.1500 
 29 H        3.4180    -0.7160     1.7650 H     1 <1>   0.1500 
 30 H        3.1750    -4.2570    -1.5090 H     1 <1>   0.0800 
 31 H        1.6720    -3.9380    -2.3390 H     1 <1>   0.0800 
 32 H        2.0320    -5.0770     0.3470 H     1 <1>   0.4500 
 33 H        2.5590    -6.6020    -1.3580 H     1 <1>   0.0800 
 34 H        0.9450    -6.4160    -2.0130 H     1 <1>   0.0800 
 35 H       -0.5880    -5.4680    -0.2600 H     1 <1>   0.0800 
 36 H       -0.2810    -3.7910    -0.6440 H     1 <1>   0.0800 
 37 H        6.6740    -4.5510     1.6430 H     1 <1>   0.1500 
 38 H        5.7610    -1.7180    -0.6260 H     1 <1>   0.0800 
 39 H        7.0570    -2.1390     0.4650 H     1 <1>   0.0800 
 40 H        5.8070    -1.0440     0.9890 H     1 <1>   0.0800 
 41 H        0.6780    -3.4730     1.6400 H     1 <1>   0.0800 
 42 H        0.3110    -5.1620     2.0000 H     1 <1>   0.0800 
 43 H        3.6880    -6.4560     3.0540 H     1 <1>   0.0800 
 44 H        5.4300    -6.5260     2.9270 H     1 <1>   0.0800 
 45 H        4.4300    -7.1170     1.6170 H     1 <1>   0.0800 
 46 H       -1.3410    -3.7360     2.6850 H     1 <1>   0.4000 
 47 H        1.1250    -8.7400     2.7110 H     1 <1>   0.1500 
 48 H       -0.6720    -9.7050     1.2070 H     1 <1>   0.2700 
 49 H       -0.7140    -7.9680    -2.2310 H     1 <1>   0.0800 
 50 H       -1.9370    -8.4420    -1.0800 H     1 <1>   0.0800 
 51 H       -0.8020    -9.6240    -1.6890 H     1 <1>   0.0800 
@<TRIPOS>BOND
  1   1   2  1   
  2   2   3  ar  
  3   2   4  ar  
  4   3   5  ar  
  5   3  27  1   
  6   4   6  ar  
  7   4  28  1   
  8   5   7  ar  
  9   5   8  1   
 10   6   7  ar  
 11   6  29  1   
 12   7   9  1   
 13   8  10  1   
 14   8  30  1   
 15   8  31  1   
 16   9  11  1   
 17   9  12  1   
 18  10  13  1   
 19  10  14  1   
 20  10  32  1   
 21  11  15  2   
 22  12  16  2   
 23  12  17  1   
 24  13  18  1   
 25  13  33  1   
 26  13  34  1   
 27  14  19  1   
 28  14  35  1   
 29  14  36  1   
 30  15  16  1   
 31  15  20  1   
 32  16  37  1   
 33  17  38  1   
 34  17  39  1   
 35  17  40  1   
 36  18  21  1   
 37  18  22  2   
 38  19  23  1   
 39  19  41  1   
 40  19  42  1   
 41  20  43  1   
 42  20  44  1   
 43  20  45  1   
 44  21  24  2   
 45  22  25  1   
 46  22  26  1   
 47  23  46  1   
 48  24  25  1   
 49  24  47  1   
 50  25  48  1   
 51  26  49  1   
 52  26  50  1   
 53  26  51  1   
@<TRIPOS>SUBSTRUCTURE
  1 ****  10 GROUP 4 **** **** 0

# MOE 2024.06 (io_trps.svl 2023.06)
