@<TRIPOS>MOLECULE
NONAME
41 42 1 0 0 
SMALL
USER_CHARGES


@<TRIPOS>ATOM
  1 S       -0.1450     0.2100     0.0030 S.o2  1 <1>   1.0900 
  2 O        0.7490     0.6870    -1.0260 O.2   1 <1>  -0.6500 
  3 O       -0.1900     0.8140     1.3140 O.2   1 <1>  -0.6500 
  4 C        0.0510    -1.5450     0.1480 C.3   1 <1>  -0.0550 
  5 C       -1.7870     0.1210    -0.6880 C.3   1 <1>  -0.0550 
  6 C       -0.8360    -2.1680    -0.9310 C.3   1 <1>   0.1900 
  7 C       -2.1460    -1.3590    -0.8930 C.3   1 <1>  -0.1600 
  8 N       -1.0850    -3.6070    -0.6890 N.3   1 <1>  -0.8100 
  9 C       -1.9840    -4.2140    -1.7280 C.3   1 <1>   0.1710 
 10 C        0.1650    -4.3980    -0.5970 C.3   1 <1>   0.2480 
 11 C       -2.4150    -5.6710    -1.4860 C.2   1 <1>   0.5690 
 12 C        0.5940    -4.4850     0.8530 C.2   1 <1>  -0.2880 
 13 O       -2.0820    -6.4980    -2.3030 O.2   1 <1>  -0.5700 
 14 N       -3.1570    -6.0090    -0.3860 N.am  1 <1>  -0.6600 
 15 C        1.7950    -4.1510     1.3370 C.2   1 <1>  -0.3000 
 16 C       -3.5560    -7.4000    -0.0850 C.3   1 <1>   0.1400 
 17 C       -3.5140    -5.0970     0.7210 C.3   1 <1>   0.1400 
 18 C       -3.9420    -7.3790     1.3890 C.3   1 <1>  -0.1600 
 19 C       -4.3760    -5.9400     1.6540 C.3   1 <1>  -0.1600 
 20 H       -0.2930    -1.8650     1.1130 H     1 <1>   0.0800 
 21 H        1.0790    -1.8190     0.0210 H     1 <1>   0.0800 
 22 H       -1.8000     0.6320    -1.6320 H     1 <1>   0.0800 
 23 H       -2.5010     0.5900    -0.0370 H     1 <1>   0.0800 
 24 H       -0.3620    -2.0340    -1.8910 H     1 <1>   0.0800 
 25 H       -2.7120    -1.4700    -1.8010 H     1 <1>   0.0800 
 26 H       -2.7390    -1.6910    -0.0580 H     1 <1>   0.0800 
 27 H       -1.4980    -4.1670    -2.6870 H     1 <1>   0.0800 
 28 H       -2.8940    -3.6510    -1.8000 H     1 <1>   0.0800 
 29 H        0.9400    -3.9610    -1.2050 H     1 <1>   0.0800 
 30 H        0.0160    -5.4060    -0.9460 H     1 <1>   0.0800 
 31 H       -0.1970    -4.8640     1.4770 H     1 <1>   0.1500 
 32 H        2.0630    -4.2300     2.3770 H     1 <1>   0.1500 
 33 H        2.6100    -3.7760     0.7420 H     1 <1>   0.1500 
 34 H       -2.7470    -8.0840    -0.2780 H     1 <1>   0.0800 
 35 H       -4.4030    -7.6610    -0.6970 H     1 <1>   0.0800 
 36 H       -4.0470    -4.2360     0.3590 H     1 <1>   0.0800 
 37 H       -2.6150    -4.7840     1.2240 H     1 <1>   0.0800 
 38 H       -3.0730    -7.6140     1.9790 H     1 <1>   0.0800 
 39 H       -4.7170    -8.0910     1.6090 H     1 <1>   0.0800 
 40 H       -5.4100    -5.8150     1.3830 H     1 <1>   0.0800 
 41 H       -4.2470    -5.6550     2.6840 H     1 <1>   0.0800 
@<TRIPOS>BOND
  1   1   2  2   
  2   1   3  2   
  3   1   4  1   
  4   1   5  1   
  5   4   6  1   
  6   4  20  1   
  7   4  21  1   
  8   5   7  1   
  9   5  22  1   
 10   5  23  1   
 11   6   7  1   
 12   6   8  1   
 13   6  24  1   
 14   7  25  1   
 15   7  26  1   
 16   8   9  1   
 17   8  10  1   
 18   9  11  1   
 19   9  27  1   
 20   9  28  1   
 21  10  12  1   
 22  10  29  1   
 23  10  30  1   
 24  11  13  2   
 25  11  14  am  
 26  12  15  2   
 27  12  31  1   
 28  14  16  1   
 29  14  17  1   
 30  15  32  1   
 31  15  33  1   
 32  16  18  1   
 33  16  34  1   
 34  16  35  1   
 35  17  19  1   
 36  17  36  1   
 37  17  37  1   
 38  18  19  1   
 39  18  38  1   
 40  18  39  1   
 41  19  40  1   
 42  19  41  1   
@<TRIPOS>SUBSTRUCTURE
  1 ****   8 GROUP 4 **** **** 0

# MOE 2024.06 (io_trps.svl 2023.06)
