@<TRIPOS>MOLECULE
NONAME
37 38 1 0 0 
SMALL
USER_CHARGES


@<TRIPOS>ATOM
  1 O       -0.3950     0.5710    -0.8950 O.co2 1 <1>  -0.9000 
  2 C       -1.1320     1.0460    -0.0260 C.2   1 <1>   0.9060 
  3 O       -1.9600     0.3530     0.5810 O.co2 1 <1>  -0.9000 
  4 C       -1.0790     2.5220     0.2960 C.3   1 <1>  -0.1860 
  5 C       -2.4430     3.1540     0.0260 C.3   1 <1>   0.2000 
  6 C        0.0120     3.2220    -0.5190 C.3   1 <1>   0.2090 
  7 O       -3.3720     2.5790     0.8670 O.3   1 <1>  -0.6800 
  8 C       -2.4350     4.6580     0.2800 C.3   1 <1>  -0.1600 
  9 N       -0.0380     4.7080    -0.2990 N.pl3 1 <1>  -0.8380 
 10 C       -1.3640     5.3270    -0.5770 C.3   1 <1>   0.2090 
 11 C        1.0880     5.4580    -0.0180 C.ar  1 <1>   0.7200 
 12 N        2.2740     4.8740    -0.1920 N.ar  1 <1>  -0.6200 
 13 N        0.9000     6.7120     0.3970 N.ar  1 <1>  -0.6200 
 14 C        3.3310     5.5970     0.0780 C.ar  1 <1>   0.1600 
 15 C        1.9770     7.4100     0.6600 C.ar  1 <1>   0.1600 
 16 C        3.2440     6.8970     0.5180 C.ar  1 <1>  -0.1430 
 17 C        4.4830     7.7220     0.8270 C.3   1 <1>  -0.0170 
 18 C        4.9590     8.4650    -0.4270 C.3   1 <1>  -0.1600 
 19 C        6.2100     9.3030    -0.1430 C.3   1 <1>  -0.2400 
 20 H       -0.8330     2.6230     1.3350 H     1 <1>   0.0800 
 21 H       -2.7450     2.9430    -0.9870 H     1 <1>   0.0800 
 22 H       -0.1280     3.0190    -1.5670 H     1 <1>   0.0800 
 23 H        0.9660     2.8130    -0.2340 H     1 <1>   0.0800 
 24 H       -3.1200     1.6100     0.9230 H     1 <1>   0.4000 
 25 H       -3.3970     5.0690     0.0360 H     1 <1>   0.0800 
 26 H       -2.2230     4.8530     1.3150 H     1 <1>   0.0800 
 27 H       -1.3590     6.3840    -0.3760 H     1 <1>   0.0800 
 28 H       -1.5950     5.1920    -1.6190 H     1 <1>   0.0800 
 29 H        4.2940     5.1370    -0.0570 H     1 <1>   0.1500 
 30 H        1.8420     8.4220     0.9980 H     1 <1>   0.1500 
 31 H        4.2610     8.4300     1.6060 H     1 <1>   0.0800 
 32 H        5.2660     7.0760     1.1860 H     1 <1>   0.0800 
 33 H        5.1780     7.7520    -1.2040 H     1 <1>   0.0800 
 34 H        4.1730     9.1080    -0.7830 H     1 <1>   0.0800 
 35 H        7.0180     8.6760     0.1900 H     1 <1>   0.0800 
 36 H        6.0070    10.0400     0.6140 H     1 <1>   0.0800 
 37 H        6.5210     9.8120    -1.0390 H     1 <1>   0.0800 
@<TRIPOS>BOND
  1   1   2  ar  
  2   2   3  ar  
  3   2   4  1   
  4   4   5  1   
  5   4   6  1   
  6   4  20  1   
  7   5   7  1   
  8   5   8  1   
  9   5  21  1   
 10   6   9  1   
 11   6  22  1   
 12   6  23  1   
 13   7  24  1   
 14   8  10  1   
 15   8  25  1   
 16   8  26  1   
 17   9  10  1   
 18   9  11  1   
 19  10  27  1   
 20  10  28  1   
 21  11  12  ar  
 22  11  13  ar  
 23  12  14  ar  
 24  13  15  ar  
 25  14  16  ar  
 26  14  29  1   
 27  15  16  ar  
 28  15  30  1   
 29  16  17  1   
 30  17  18  1   
 31  17  31  1   
 32  17  32  1   
 33  18  19  1   
 34  18  33  1   
 35  18  34  1   
 36  19  35  1   
 37  19  36  1   
 38  19  37  1   
@<TRIPOS>SUBSTRUCTURE
  1 ****  11 GROUP 4 **** **** 0

# MOE 2024.06 (io_trps.svl 2023.06)
