@<TRIPOS>MOLECULE
NONAME
45 48 1 0 0 
SMALL
USER_CHARGES


@<TRIPOS>ATOM
  1 CL      -4.6970     1.1400    -0.4420 Cl    1 <1>  -0.1770 
  2 C       -4.2720    -0.5520    -0.2740 C.ar  1 <1>   0.1770 
  3 C       -4.4850    -1.2520     0.9110 C.ar  1 <1>   0.1660 
  4 C       -3.7190    -1.1860    -1.3670 C.ar  1 <1>  -0.1500 
  5 N       -4.1870    -2.5360     1.0630 N.ar  1 <1>  -0.6200 
  6 C       -5.0910    -0.5930     2.1370 C.3   1 <1>  -0.0960 
  7 C       -3.4100    -2.5170    -1.2070 C.ar  1 <1>  -0.1500 
  8 C       -3.6650    -3.1410     0.0100 C.ar  1 <1>   0.4100 
  9 N       -3.4010    -4.4610     0.2050 N.pl3 1 <1>  -0.8690 
 10 C       -4.2710    -5.4490    -0.4720 C.3   1 <1>   0.2890 
 11 C       -5.5910    -5.6110     0.2780 C.3   1 <1>  -0.0800 
 12 C       -3.6610    -6.8540    -0.4530 C.3   1 <1>   0.1200 
 13 C       -5.8310    -7.1150     0.1980 C.3   1 <1>   0.1200 
 14 C       -6.7340    -4.7650    -0.3180 C.3   1 <1>  -0.0160 
 15 O       -4.5640    -7.6820     0.2160 O.3   1 <1>  -0.5600 
 16 C       -8.1030    -4.9110     0.3580 C.ar  1 <1>  -0.1430 
 17 C       -9.2840    -4.5090    -0.3170 C.ar  1 <1>   0.0000 
 18 C       -8.2550    -5.4080     1.6230 C.ar  1 <1>  -0.1500 
 19 C      -10.5240    -4.7000     0.3420 C.ar  1 <1>   0.3100 
 20 C       -9.3100    -3.9160    -1.6020 C.ar  1 <1>  -0.1500 
 21 C       -9.5280    -5.5420     2.1880 C.ar  1 <1>   0.1600 
 22 N      -10.6290    -5.2180     1.5910 N.ar  1 <1>  -0.6200 
 23 C      -11.7100    -4.3330    -0.3130 C.ar  1 <1>  -0.1500 
 24 C      -10.4840    -3.5650    -2.2120 C.ar  1 <1>  -0.1500 
 25 C      -11.7020    -3.7790    -1.5630 C.ar  1 <1>  -0.1500 
 26 H       -3.5420    -0.6570    -2.2860 H     1 <1>   0.1500 
 27 H       -5.0410     0.4770     2.0880 H     1 <1>   0.0800 
 28 H       -4.5610    -0.9120     3.0160 H     1 <1>   0.0800 
 29 H       -6.1190    -0.8910     2.2310 H     1 <1>   0.0800 
 30 H       -2.9690    -3.0860    -2.0030 H     1 <1>   0.1500 
 31 H       -3.3870    -4.6440     1.2120 H     1 <1>   0.4000 
 32 H       -4.4330    -5.1560    -1.4960 H     1 <1>   0.0800 
 33 H       -5.4390    -5.3490     1.3090 H     1 <1>   0.0800 
 34 H       -2.7210    -6.8810     0.0690 H     1 <1>   0.0800 
 35 H       -3.5420    -7.2310    -1.4530 H     1 <1>   0.0800 
 36 H       -6.3070    -7.3930    -0.7270 H     1 <1>   0.0800 
 37 H       -6.3970    -7.4950     1.0300 H     1 <1>   0.0800 
 38 H       -6.8270    -5.0450    -1.3520 H     1 <1>   0.0800 
 39 H       -6.4550    -3.7260    -0.2840 H     1 <1>   0.0800 
 40 H       -7.4240    -5.7100     2.2310 H     1 <1>   0.1500 
 41 H       -8.3900    -3.7270    -2.1200 H     1 <1>   0.1500 
 42 H       -9.5940    -5.9430     3.1850 H     1 <1>   0.1500 
 43 H      -12.6340    -4.5020     0.2090 H     1 <1>   0.1500 
 44 H      -10.4870    -3.1190    -3.1920 H     1 <1>   0.1500 
 45 H      -12.6200    -3.5020    -2.0530 H     1 <1>   0.1500 
@<TRIPOS>BOND
  1   1   2  1   
  2   2   3  ar  
  3   2   4  ar  
  4   3   5  ar  
  5   3   6  1   
  6   4   7  ar  
  7   4  26  1   
  8   5   8  ar  
  9   6  27  1   
 10   6  28  1   
 11   6  29  1   
 12   7   8  ar  
 13   7  30  1   
 14   8   9  1   
 15   9  10  1   
 16   9  31  1   
 17  10  11  1   
 18  10  12  1   
 19  10  32  1   
 20  11  13  1   
 21  11  14  1   
 22  11  33  1   
 23  12  15  1   
 24  12  34  1   
 25  12  35  1   
 26  13  15  1   
 27  13  36  1   
 28  13  37  1   
 29  14  16  1   
 30  14  38  1   
 31  14  39  1   
 32  16  17  ar  
 33  16  18  ar  
 34  17  19  ar  
 35  17  20  ar  
 36  18  21  ar  
 37  18  40  1   
 38  19  22  ar  
 39  19  23  ar  
 40  20  24  ar  
 41  20  41  1   
 42  21  22  ar  
 43  21  42  1   
 44  23  25  ar  
 45  23  43  1   
 46  24  25  ar  
 47  24  44  1   
 48  25  45  1   
@<TRIPOS>SUBSTRUCTURE
  1 ****  14 GROUP 4 **** **** 0

# MOE 2024.06 (io_trps.svl 2023.06)
