@<TRIPOS>MOLECULE
NONAME
48 50 1 0 0 
SMALL
USER_CHARGES


@<TRIPOS>ATOM
  1 O       -1.1030     0.0220     1.0100 O.co2 1 <1>  -0.9000 
  2 C       -1.7910    -0.9540     1.3270 C.2   1 <1>   0.9060 
  3 O       -1.9990    -1.2980     2.4940 O.co2 1 <1>  -0.9000 
  4 C       -2.5350    -1.6960     0.2130 C.3   1 <1>   0.2370 
  5 N       -3.8750    -1.0880    -0.1640 N.4   1 <1>  -0.9590 
  6 C       -4.8170    -1.1700     0.9920 C.3   1 <1>   0.3430 
  7 C       -3.6970     0.3270    -0.5970 C.3   1 <1>   0.3430 
  8 C       -6.2770    -1.0100     0.5020 C.3   1 <1>   0.1900 
  9 C       -4.9800     0.9600    -1.1780 C.3   1 <1>  -0.0800 
 10 N       -6.3720    -1.1850    -0.9930 N.3   1 <1>  -0.8100 
 11 C       -6.8890     0.3060     1.0170 C.3   1 <1>   0.1200 
 12 C       -5.6540     1.9310    -0.1940 C.3   1 <1>   0.1200 
 13 C       -6.0040    -0.0070    -1.8110 C.3   1 <1>   0.1100 
 14 C       -7.6750    -1.7360    -1.4170 C.3   1 <1>   0.2530 
 15 O       -5.9450     1.3360     1.0260 O.3   1 <1>  -0.5600 
 16 C       -7.8770    -3.1360    -0.8520 C.ar  1 <1>  -0.1430 
 17 C       -8.8050    -3.3840     0.1590 C.ar  1 <1>   0.0830 
 18 C       -7.1170    -4.1790    -1.3570 C.ar  1 <1>  -0.1500 
 19 O       -9.5220    -2.3270     0.6360 O.3   1 <1>  -0.3620 
 20 C       -8.9610    -4.6790     0.6520 C.ar  1 <1>  -0.1500 
 21 C       -7.2790    -5.4610    -0.8590 C.ar  1 <1>   0.0830 
 22 C      -10.6100    -2.5180     1.5150 C.3   1 <1>   0.0400 
 23 C       -8.1980    -5.7130     0.1420 C.ar  1 <1>  -0.1500 
 24 O       -6.5460    -6.4750    -1.3440 O.3   1 <1>  -0.5330 
 25 H       -2.6760    -2.7070     0.5460 H     1 <1>   0.0800 
 26 H       -1.8880    -1.7060    -0.6440 H     1 <1>   0.0800 
 27 H       -4.3730    -1.5930    -0.9140 H     1 <1>   0.4500 
 28 H       -4.7190    -2.1340     1.4630 H     1 <1>   0.0800 
 29 H       -4.5730    -0.4250     1.7330 H     1 <1>   0.0800 
 30 H       -3.3430     0.9170     0.2350 H     1 <1>   0.0800 
 31 H       -2.9280     0.3540    -1.3520 H     1 <1>   0.0800 
 32 H       -6.8290    -1.7970     0.9810 H     1 <1>   0.0800 
 33 H       -4.6470     1.5930    -1.9800 H     1 <1>   0.0800 
 34 H       -7.1930     0.1680     2.0400 H     1 <1>   0.0800 
 35 H       -7.7530     0.6010     0.4480 H     1 <1>   0.0800 
 36 H       -6.5640     2.3380    -0.6020 H     1 <1>   0.0800 
 37 H       -4.9880     2.7510     0.0170 H     1 <1>   0.0800 
 38 H       -5.6060    -0.3680    -2.7450 H     1 <1>   0.0800 
 39 H       -6.8930     0.5550    -2.0470 H     1 <1>   0.0800 
 40 H       -8.4700    -1.0740    -1.1180 H     1 <1>   0.0800 
 41 H       -7.7010    -1.8040    -2.4910 H     1 <1>   0.0800 
 42 H       -6.3990    -3.9880    -2.1330 H     1 <1>   0.1500 
 43 H       -9.6650    -4.9040     1.4300 H     1 <1>   0.1500 
 44 H      -11.0720    -1.5630     1.6890 H     1 <1>   0.0800 
 45 H      -10.2450    -2.9200     2.4430 H     1 <1>   0.0800 
 46 H      -11.3170    -3.1870     1.0560 H     1 <1>   0.0800 
 47 H       -8.3100    -6.7160     0.5150 H     1 <1>   0.1500 
 48 H       -5.9590    -6.2070    -2.0720 H     1 <1>   0.4500 
@<TRIPOS>BOND
  1   1   2  ar  
  2   2   3  ar  
  3   2   4  1   
  4   4   5  1   
  5   4  25  1   
  6   4  26  1   
  7   5   6  1   
  8   5   7  1   
  9   5  27  1   
 10   6   8  1   
 11   6  28  1   
 12   6  29  1   
 13   7   9  1   
 14   7  30  1   
 15   7  31  1   
 16   8  10  1   
 17   8  11  1   
 18   8  32  1   
 19   9  12  1   
 20   9  13  1   
 21   9  33  1   
 22  10  13  1   
 23  10  14  1   
 24  11  15  1   
 25  11  34  1   
 26  11  35  1   
 27  12  15  1   
 28  12  36  1   
 29  12  37  1   
 30  13  38  1   
 31  13  39  1   
 32  14  16  1   
 33  14  40  1   
 34  14  41  1   
 35  16  17  ar  
 36  16  18  ar  
 37  17  19  1   
 38  17  20  ar  
 39  18  21  ar  
 40  18  42  1   
 41  19  22  1   
 42  20  23  ar  
 43  20  43  1   
 44  21  23  ar  
 45  21  24  1   
 46  22  44  1   
 47  22  45  1   
 48  22  46  1   
 49  23  47  1   
 50  24  48  1   
@<TRIPOS>SUBSTRUCTURE
  1 ****   8 GROUP 4 **** **** 0

# MOE 2024.06 (io_trps.svl 2023.06)
