@<TRIPOS>MOLECULE
NONAME
49 51 1 0 0 
SMALL
USER_CHARGES


@<TRIPOS>ATOM
  1 O       -0.3870    -0.1240     2.8350 O.2   1 <1>  -0.5700 
  2 C       -0.9430     0.6420     2.0830 C.2   1 <1>   0.5690 
  3 N       -1.6970     0.1870     1.0340 N.am  1 <1>  -0.6600 
  4 C       -0.7930     2.1330     2.3490 C.3   1 <1>   0.0440 
  5 C       -2.3930     1.0230     0.0250 C.3   1 <1>   0.1400 
  6 C       -1.9150    -1.2500     0.7600 C.3   1 <1>   0.1400 
  7 C        0.0100     2.8500     1.2620 C.ar  1 <1>  -0.1440 
  8 C       -3.1690     0.0360    -0.8500 C.3   1 <1>   0.2000 
  9 C       -3.1880    -1.2880    -0.0860 C.3   1 <1>  -0.0800 
 10 C       -0.5440     3.8460     0.4600 C.ar  1 <1>   0.0820 
 11 C        1.3350     2.4840     1.0780 C.ar  1 <1>  -0.1500 
 12 O       -4.4700     0.4640    -1.0690 O.3   1 <1>  -0.6800 
 13 C       -3.2900    -2.5070    -1.0190 C.3   1 <1>  -0.0170 
 14 O       -1.8500     4.1750     0.6570 O.3   1 <1>  -0.3630 
 15 C        0.2400     4.4590    -0.5130 C.ar  1 <1>  -0.1500 
 16 C        2.1100     3.0950     0.1090 C.ar  1 <1>  -0.1500 
 17 C       -3.3480    -3.8090    -0.2380 C.ar  1 <1>   0.1670 
 18 C       -2.4670     5.2170    -0.0660 C.3   1 <1>   0.0400 
 19 C        1.5610     4.0900    -0.6930 C.ar  1 <1>   0.0820 
 20 N       -2.1890    -4.3440     0.1090 N.ar  1 <1>  -0.6200 
 21 C       -4.5820    -4.3750     0.0790 C.ar  1 <1>   0.1600 
 22 O        2.2480     4.7380    -1.6670 O.3   1 <1>  -0.3630 
 23 C       -2.3430    -5.4680     0.7900 C.ar  1 <1>   0.1600 
 24 N       -4.7390    -5.4980     0.7600 N.ar  1 <1>  -0.6200 
 25 C        3.6040     4.4460    -1.9250 C.3   1 <1>   0.0400 
 26 C       -3.5770    -6.0250     1.1050 C.ar  1 <1>   0.1600 
 27 H       -1.7710     2.5550     2.4700 H     1 <1>   0.0800 
 28 H       -0.2830     2.2610     3.2870 H     1 <1>   0.0800 
 29 H       -3.0520     1.7170     0.5160 H     1 <1>   0.0800 
 30 H       -1.6720     1.5550    -0.5700 H     1 <1>   0.0800 
 31 H       -1.0720    -1.6340     0.2090 H     1 <1>   0.0800 
 32 H       -2.0250    -1.8100     1.6740 H     1 <1>   0.0800 
 33 H       -2.6800    -0.0650    -1.8040 H     1 <1>   0.0800 
 34 H       -4.0180    -1.2940     0.6000 H     1 <1>   0.0800 
 35 H        1.7690     1.7130     1.6930 H     1 <1>   0.1500 
 36 H       -4.9230     0.6100    -0.2160 H     1 <1>   0.4000 
 37 H       -2.4450    -2.5330    -1.6840 H     1 <1>   0.0800 
 38 H       -4.1740    -2.4130    -1.6250 H     1 <1>   0.0800 
 39 H       -0.1470     5.2280    -1.1510 H     1 <1>   0.1500 
 40 H        3.1310     2.7830    -0.0030 H     1 <1>   0.1500 
 41 H       -3.4800     5.3130     0.2810 H     1 <1>   0.0800 
 42 H       -2.4620     4.9680    -1.1130 H     1 <1>   0.0800 
 43 H       -1.9310     6.1330     0.1140 H     1 <1>   0.0800 
 44 H       -5.4790    -3.8750    -0.2420 H     1 <1>   0.1500 
 45 H       -1.4510    -5.9720     1.1150 H     1 <1>   0.1500 
 46 H        3.9350     5.0800    -2.7270 H     1 <1>   0.0800 
 47 H        3.6890     3.4140    -2.2150 H     1 <1>   0.0800 
 48 H        4.1790     4.6470    -1.0380 H     1 <1>   0.0800 
 49 H       -3.6000    -6.9430     1.6640 H     1 <1>   0.1500 
@<TRIPOS>BOND
  1   1   2  2   
  2   2   3  am  
  3   2   4  1   
  4   3   5  1   
  5   3   6  1   
  6   4   7  1   
  7   4  27  1   
  8   4  28  1   
  9   5   8  1   
 10   5  29  1   
 11   5  30  1   
 12   6   9  1   
 13   6  31  1   
 14   6  32  1   
 15   7  10  ar  
 16   7  11  ar  
 17   8   9  1   
 18   8  12  1   
 19   8  33  1   
 20   9  13  1   
 21   9  34  1   
 22  10  14  1   
 23  10  15  ar  
 24  11  16  ar  
 25  11  35  1   
 26  12  36  1   
 27  13  17  1   
 28  13  37  1   
 29  13  38  1   
 30  14  18  1   
 31  15  19  ar  
 32  15  39  1   
 33  16  19  ar  
 34  16  40  1   
 35  17  20  ar  
 36  17  21  ar  
 37  18  41  1   
 38  18  42  1   
 39  18  43  1   
 40  19  22  1   
 41  20  23  ar  
 42  21  24  ar  
 43  21  44  1   
 44  22  25  1   
 45  23  26  ar  
 46  23  45  1   
 47  24  26  ar  
 48  25  46  1   
 49  25  47  1   
 50  25  48  1   
 51  26  49  1   
@<TRIPOS>SUBSTRUCTURE
  1 ****   3 GROUP 4 **** **** 0

# MOE 2024.06 (io_trps.svl 2023.06)
