@<TRIPOS>MOLECULE
NONAME
57 59 1 0 0 
SMALL
USER_CHARGES


@<TRIPOS>ATOM
  1 O        0.9510    -0.8650     1.8210 O.2   1 <1>  -0.5700 
  2 C        1.5380    -1.0660     0.7710 C.2   1 <1>   0.6900 
  3 N        1.1180    -2.0750    -0.0630 N.am  1 <1>  -0.6600 
  4 N        2.6060    -0.2670     0.4340 N.am  1 <1>  -0.6600 
  5 C        2.0730    -2.8890    -0.8630 C.3   1 <1>   0.1400 
  6 C       -0.2620    -2.6200     0.0400 C.3   1 <1>   0.1400 
  7 C        2.8100     0.2380    -0.9490 C.3   1 <1>   0.0600 
  8 C        3.3470     0.4770     1.4870 C.3   1 <1>   0.0600 
  9 C        2.0970    -4.3320    -0.3510 C.3   1 <1>  -0.1600 
 10 C       -0.2250    -4.0580     0.5630 C.3   1 <1>  -0.1600 
 11 C        0.6850    -4.9470    -0.3030 C.3   1 <1>  -0.0190 
 12 C        0.6840    -6.3940     0.2070 C.2   1 <1>   0.5690 
 13 O        1.5250    -6.7360     1.0050 O.2   1 <1>  -0.5700 
 14 N       -0.2600    -7.2800    -0.2390 N.am  1 <1>  -0.6600 
 15 C       -1.3500    -7.0350    -1.2180 C.3   1 <1>   0.1400 
 16 C       -0.3820    -8.6440     0.3210 C.3   1 <1>   0.1400 
 17 C       -2.2620    -8.2670    -1.1420 C.3   1 <1>   0.2000 
 18 C       -1.3400    -9.3750    -0.6220 C.3   1 <1>  -0.0800 
 19 O       -3.2760    -8.0440    -0.2040 O.3   1 <1>  -0.5600 
 20 C       -2.0720   -10.5580     0.0380 C.3   1 <1>   0.0200 
 21 C       -4.4200    -7.4230    -0.6990 C.3   1 <1>   0.0400 
 22 C       -1.1520   -11.7180     0.3830 C.2   1 <1>  -0.0400 
 23 O       -1.6520   -12.7470     1.0140 O.3   1 <1>  -0.0190 
 24 C        0.1520   -11.9620     0.1760 C.2   1 <1>  -0.1500 
 25 N       -0.7550   -13.6630     1.2410 N.2   1 <1>  -0.4100 
 26 C        0.3430   -13.2160     0.7480 C.2   1 <1>   0.1080 
 27 C        1.6590   -13.9590     0.7900 C.3   1 <1>  -0.0590 
 28 H        1.7720    -2.8670    -1.8960 H     1 <1>   0.0800 
 29 H        3.0660    -2.4810    -0.7910 H     1 <1>   0.0800 
 30 H       -0.8570    -2.0100     0.6990 H     1 <1>   0.0800 
 31 H       -0.7180    -2.5940    -0.9340 H     1 <1>   0.0800 
 32 H        3.7660    -0.0900    -1.3160 H     1 <1>   0.0800 
 33 H        2.7780     1.3130    -0.9520 H     1 <1>   0.0800 
 34 H        2.0360    -0.1270    -1.6000 H     1 <1>   0.0800 
 35 H        4.3910     0.5290     1.2340 H     1 <1>   0.0800 
 36 H        3.2450    -0.0260     2.4340 H     1 <1>   0.0800 
 37 H        2.9460     1.4710     1.5780 H     1 <1>   0.0800 
 38 H        2.7300    -4.9260    -0.9850 H     1 <1>   0.0800 
 39 H        2.5300    -4.3370     0.6360 H     1 <1>   0.0800 
 40 H        0.1370    -4.0480     1.5770 H     1 <1>   0.0800 
 41 H       -1.2230    -4.4550     0.5800 H     1 <1>   0.0800 
 42 H        0.3070    -4.9460    -1.3070 H     1 <1>   0.0800 
 43 H       -1.8870    -6.1330    -0.9870 H     1 <1>   0.0800 
 44 H       -0.9190    -6.9630    -2.2010 H     1 <1>   0.0800 
 45 H        0.5800    -9.1230     0.3760 H     1 <1>   0.0800 
 46 H       -0.8030    -8.5730     1.3100 H     1 <1>   0.0800 
 47 H       -2.7020    -8.5220    -2.0920 H     1 <1>   0.0800 
 48 H       -0.7670    -9.7430    -1.4550 H     1 <1>   0.0800 
 49 H       -2.8360   -10.9200    -0.6270 H     1 <1>   0.0800 
 50 H       -2.5580   -10.2280     0.9400 H     1 <1>   0.0800 
 51 H       -5.1100    -7.2970     0.1170 H     1 <1>   0.0800 
 52 H       -4.8670    -8.0470    -1.4530 H     1 <1>   0.0800 
 53 H       -4.1640    -6.4600    -1.1050 H     1 <1>   0.0800 
 54 H        0.9060   -11.3700    -0.3080 H     1 <1>   0.1500 
 55 H        2.3890   -13.3760     1.3210 H     1 <1>   0.0800 
 56 H        2.0080   -14.1390    -0.2100 H     1 <1>   0.0800 
 57 H        1.5330   -14.9010     1.2910 H     1 <1>   0.0800 
@<TRIPOS>BOND
  1   1   2  2   
  2   2   3  am  
  3   2   4  am  
  4   3   5  1   
  5   3   6  1   
  6   4   7  1   
  7   4   8  1   
  8   5   9  1   
  9   5  28  1   
 10   5  29  1   
 11   6  10  1   
 12   6  30  1   
 13   6  31  1   
 14   7  32  1   
 15   7  33  1   
 16   7  34  1   
 17   8  35  1   
 18   8  36  1   
 19   8  37  1   
 20   9  11  1   
 21   9  38  1   
 22   9  39  1   
 23  10  11  1   
 24  10  40  1   
 25  10  41  1   
 26  11  12  1   
 27  11  42  1   
 28  12  13  2   
 29  12  14  am  
 30  14  15  1   
 31  14  16  1   
 32  15  17  1   
 33  15  43  1   
 34  15  44  1   
 35  16  18  1   
 36  16  45  1   
 37  16  46  1   
 38  17  18  1   
 39  17  19  1   
 40  17  47  1   
 41  18  20  1   
 42  18  48  1   
 43  19  21  1   
 44  20  22  1   
 45  20  49  1   
 46  20  50  1   
 47  21  51  1   
 48  21  52  1   
 49  21  53  1   
 50  22  23  1   
 51  22  24  2   
 52  23  25  1   
 53  24  26  1   
 54  24  54  1   
 55  25  26  2   
 56  26  27  1   
 57  27  55  1   
 58  27  56  1   
 59  27  57  1   
@<TRIPOS>SUBSTRUCTURE
  1 ****  12 GROUP 4 **** **** 0

# MOE 2024.06 (io_trps.svl 2023.06)
