@<TRIPOS>MOLECULE
NONAME
38 39 1 0 0 
SMALL
USER_CHARGES


@<TRIPOS>ATOM
  1 O       -0.5540    -0.3820    -0.5550 O.2   1 <1>  -0.5700 
  2 C       -0.0450    -1.4730    -0.7280 C.2   1 <1>   0.7800 
  3 O        1.2640    -1.6580    -0.5430 O.3   1 <1>  -0.4300 
  4 N       -0.7720    -2.5630    -1.1220 N.am  1 <1>  -0.6600 
  5 C        2.2080    -0.7140    -0.0870 C.3   1 <1>   0.2800 
  6 C       -2.2490    -2.5260    -1.0700 C.3   1 <1>   0.3200 
  7 C       -0.1440    -3.8660    -1.4800 C.3   1 <1>   0.1400 
  8 C        1.8420    -0.2390     1.3240 C.3   1 <1>  -0.2400 
  9 C        3.5340    -1.4740    -0.0340 C.3   1 <1>  -0.2400 
 10 C        2.3270     0.4440    -1.0840 C.3   1 <1>  -0.2400 
 11 C       -2.7030    -3.0820     0.2650 C.2   1 <1>  -0.3320 
 12 C       -0.1910    -4.8780    -0.3220 C.3   1 <1>   0.2000 
 13 N       -2.3930    -4.3310     0.7140 N.pl3 1 <1>   0.0480 
 14 C       -3.4510    -2.4400     1.2010 C.2   1 <1>  -0.1500 
 15 O        0.5680    -5.9860    -0.6870 O.3   1 <1>  -0.6800 
 16 C       -1.6000    -5.3720     0.0300 C.3   1 <1>   0.0960 
 17 C       -2.9640    -4.4660     1.9410 C.2   1 <1>  -0.3020 
 18 C       -3.6190    -3.3240     2.2690 C.2   1 <1>  -0.1500 
 19 H       -2.6600    -3.1080    -1.8760 H     1 <1>   0.0800 
 20 H       -2.6020    -1.5150    -1.1800 H     1 <1>   0.0800 
 21 H        0.8850    -3.7020    -1.7510 H     1 <1>   0.0800 
 22 H       -0.6500    -4.2690    -2.3390 H     1 <1>   0.0800 
 23 H        1.6940    -1.0810     1.9760 H     1 <1>   0.0800 
 24 H        0.9490     0.3580     1.3130 H     1 <1>   0.0800 
 25 H        2.6330     0.3680     1.7250 H     1 <1>   0.0800 
 26 H        3.4590    -2.3080     0.6410 H     1 <1>   0.0800 
 27 H        4.3220    -0.8290     0.3110 H     1 <1>   0.0800 
 28 H        3.7950    -1.8370    -1.0110 H     1 <1>   0.0800 
 29 H        1.4350     1.0410    -1.0930 H     1 <1>   0.0800 
 30 H        2.5110     0.0670    -2.0740 H     1 <1>   0.0800 
 31 H        3.1430     1.0850    -0.8050 H     1 <1>   0.0800 
 32 H        0.2790    -4.4550     0.5510 H     1 <1>   0.0800 
 33 H       -3.8470    -1.4400     1.1600 H     1 <1>   0.1500 
 34 H        0.2350    -6.3960    -1.5080 H     1 <1>   0.4000 
 35 H       -1.5220    -6.2150     0.6920 H     1 <1>   0.0800 
 36 H       -2.1270    -5.6700    -0.8560 H     1 <1>   0.0800 
 37 H       -2.8750    -5.3660     2.5230 H     1 <1>   0.1500 
 38 H       -4.1680    -3.1090     3.1700 H     1 <1>   0.1500 
@<TRIPOS>BOND
  1   1   2  2   
  2   2   3  1   
  3   2   4  am  
  4   3   5  1   
  5   4   6  1   
  6   4   7  1   
  7   5   8  1   
  8   5   9  1   
  9   5  10  1   
 10   6  11  1   
 11   6  19  1   
 12   6  20  1   
 13   7  12  1   
 14   7  21  1   
 15   7  22  1   
 16   8  23  1   
 17   8  24  1   
 18   8  25  1   
 19   9  26  1   
 20   9  27  1   
 21   9  28  1   
 22  10  29  1   
 23  10  30  1   
 24  10  31  1   
 25  11  13  1   
 26  11  14  2   
 27  12  15  1   
 28  12  16  1   
 29  12  32  1   
 30  13  16  1   
 31  13  17  1   
 32  14  18  1   
 33  14  33  1   
 34  15  34  1   
 35  16  35  1   
 36  16  36  1   
 37  17  18  2   
 38  17  37  1   
 39  18  38  1   
@<TRIPOS>SUBSTRUCTURE
  1 ****   4 GROUP 4 **** **** 0

# MOE 2024.06 (io_trps.svl 2023.06)
