@<TRIPOS>MOLECULE
NONAME
51 53 1 0 0 
SMALL
USER_CHARGES


@<TRIPOS>ATOM
  1 O        3.2620    -0.0230    -1.6140 O.2   1 <1>  -0.5700 
  2 C        3.0840    -0.0640    -0.4210 C.2   1 <1>   0.5690 
  3 N        2.9730     1.0020     0.4020 N.am  1 <1>  -0.6600 
  4 C        2.9580    -1.3480     0.3500 C.3   1 <1>  -0.0990 
  5 C        2.7410     0.6230     1.8050 C.3   1 <1>   0.1400 
  6 C        2.9190     2.4190    -0.0280 C.3   1 <1>   0.1400 
  7 C        2.9730    -0.8950     1.8210 C.3   1 <1>  -0.1600 
  8 C        4.3250     2.9010    -0.3910 C.3   1 <1>  -0.0990 
  9 C        4.3690     4.3780    -0.7500 C.2   1 <1>   0.5690 
 10 O        3.3690     5.0350    -0.5720 O.2   1 <1>  -0.5700 
 11 N        5.5240     4.9430    -1.2390 N.am  1 <1>  -0.6600 
 12 C        6.7980     4.1870    -1.4540 C.3   1 <1>   0.1400 
 13 C        5.5630     6.3930    -1.5990 C.3   1 <1>   0.1400 
 14 C        7.6680     4.1790    -0.1890 C.3   1 <1>   0.1400 
 15 C        6.8020     7.1290    -1.0700 C.3   1 <1>  -0.1600 
 16 N        8.2710     5.5180     0.1010 N.am  1 <1>  -0.6600 
 17 C        7.3010     6.6350     0.2920 C.3   1 <1>   0.1400 
 18 C        9.6450     5.6810     0.2330 C.2   1 <1>   0.5440 
 19 O       10.3320     4.6730     0.2920 O.2   1 <1>  -0.5700 
 20 C       10.3080     6.9850     0.3400 C.ar  1 <1>   0.3960 
 21 N        9.9740     7.9890    -0.4920 N.ar  1 <1>  -0.6200 
 22 C       11.2920     7.1440     1.3170 C.ar  1 <1>  -0.1500 
 23 C       10.6070     9.1280    -0.3290 C.ar  1 <1>   0.4100 
 24 C       11.9500     8.3450     1.4780 C.ar  1 <1>  -0.1500 
 25 N       10.2360    10.0990    -1.1980 N.pl3 1 <1>  -0.9000 
 26 C       11.5870     9.3590     0.6270 C.ar  1 <1>  -0.1500 
 27 H        3.7770    -2.0060     0.1230 H     1 <1>   0.0800 
 28 H        2.0250    -1.8160     0.0950 H     1 <1>   0.0800 
 29 H        1.7260     0.8620     2.0770 H     1 <1>   0.0800 
 30 H        3.4280     1.1350     2.4570 H     1 <1>   0.0800 
 31 H        2.5090     3.0230     0.7650 H     1 <1>   0.0800 
 32 H        2.2750     2.5060    -0.8870 H     1 <1>   0.0800 
 33 H        3.9380    -1.0940     2.2510 H     1 <1>   0.0800 
 34 H        2.2240    -1.3990     2.4050 H     1 <1>   0.0800 
 35 H        4.6580     2.3270    -1.2350 H     1 <1>   0.0800 
 36 H        4.9810     2.7300     0.4400 H     1 <1>   0.0800 
 37 H        7.3540     4.6220    -2.2670 H     1 <1>   0.0800 
 38 H        6.5810     3.1730    -1.7350 H     1 <1>   0.0800 
 39 H        4.6920     6.8840    -1.2000 H     1 <1>   0.0800 
 40 H        5.5180     6.4880    -2.6700 H     1 <1>   0.0800 
 41 H        8.4450     3.4480    -0.3310 H     1 <1>   0.0800 
 42 H        7.0830     3.8630     0.6560 H     1 <1>   0.0800 
 43 H        6.5440     8.1690    -0.9790 H     1 <1>   0.0800 
 44 H        7.5990     7.0740    -1.7900 H     1 <1>   0.0800 
 45 H        6.4760     6.3080     0.9010 H     1 <1>   0.0800 
 46 H        7.7790     7.4470     0.8120 H     1 <1>   0.0800 
 47 H       11.5360     6.3090     1.9500 H     1 <1>   0.1500 
 48 H       12.7070     8.4770     2.2320 H     1 <1>   0.1500 
 49 H       10.9680    10.7250    -1.5340 H     1 <1>   0.4000 
 50 H        9.6420     9.7430    -1.9490 H     1 <1>   0.4000 
 51 H       12.0480    10.3260     0.6910 H     1 <1>   0.1500 
@<TRIPOS>BOND
  1   1   2  2   
  2   2   3  am  
  3   2   4  1   
  4   3   5  1   
  5   3   6  1   
  6   4   7  1   
  7   4  27  1   
  8   4  28  1   
  9   5   7  1   
 10   5  29  1   
 11   5  30  1   
 12   6   8  1   
 13   6  31  1   
 14   6  32  1   
 15   7  33  1   
 16   7  34  1   
 17   8   9  1   
 18   8  35  1   
 19   8  36  1   
 20   9  10  2   
 21   9  11  am  
 22  11  12  1   
 23  11  13  1   
 24  12  14  1   
 25  12  37  1   
 26  12  38  1   
 27  13  15  1   
 28  13  39  1   
 29  13  40  1   
 30  14  16  1   
 31  14  41  1   
 32  14  42  1   
 33  15  17  1   
 34  15  43  1   
 35  15  44  1   
 36  16  17  1   
 37  16  18  am  
 38  17  45  1   
 39  17  46  1   
 40  18  19  2   
 41  18  20  1   
 42  20  21  ar  
 43  20  22  ar  
 44  21  23  ar  
 45  22  24  ar  
 46  22  47  1   
 47  23  25  1   
 48  23  26  ar  
 49  24  26  ar  
 50  24  48  1   
 51  25  49  1   
 52  25  50  1   
 53  26  51  1   
@<TRIPOS>SUBSTRUCTURE
  1 ****  14 GROUP 4 **** **** 0

# MOE 2024.06 (io_trps.svl 2023.06)
