@<TRIPOS>MOLECULE
NONAME
45 47 1 0 0 
SMALL
USER_CHARGES


@<TRIPOS>ATOM
  1 S       -0.0040     0.0280    -1.6390 S.o2  1 <1>   1.5010 
  2 O        0.5450     1.3340    -1.9400 O.2   1 <1>  -0.6500 
  3 O       -0.2090    -0.9230    -2.7100 O.2   1 <1>  -0.6500 
  4 N       -1.5030     0.2780    -0.8860 N.am  1 <1>  -0.8490 
  5 C        0.9700    -0.7460    -0.3420 C.2   1 <1>  -0.0630 
  6 C       -1.4400     1.3340     0.1280 C.3   1 <1>   0.1960 
  7 C       -2.5460     0.5820    -1.8680 C.3   1 <1>   0.1960 
  8 C        2.1910    -0.2620     0.1090 C.2   1 <1>   0.1390 
  9 C        0.7640    -1.8520     0.4160 C.2   1 <1>  -0.3020 
 10 C       -2.7640     1.3970     0.8910 C.3   1 <1>  -0.1600 
 11 C       -3.9120     0.6360    -1.1800 C.3   1 <1>  -0.1600 
 12 N        2.6980    -0.9860     1.0610 N.2   1 <1>  -0.7070 
 13 N        1.8130    -1.9760     1.2470 N.pl3 1 <1>   0.3140 
 14 C       -3.9450     1.6790    -0.0530 C.3   1 <1>   0.2800 
 15 C        2.0360    -3.0280     2.2450 C.3   1 <1>   0.0160 
 16 O       -3.7500     2.9250    -0.6770 O.3   1 <1>  -0.5600 
 17 C       -5.3030     1.6500     0.6930 C.3   1 <1>  -0.1600 
 18 C       -4.0590     4.0760     0.0560 C.3   1 <1>   0.1200 
 19 C       -6.2520     2.7670     0.2510 C.3   1 <1>   0.2800 
 20 C       -5.5560     4.1220     0.4050 C.3   1 <1>  -0.1600 
 21 O       -6.5110     2.5970    -1.0830 O.3   1 <1>  -0.6800 
 22 C       -7.5970     2.7160     0.9700 C.3   1 <1>  -0.2400 
 23 H       -1.2380     2.2860    -0.3390 H     1 <1>   0.0800 
 24 H       -0.6450     1.1250     0.8240 H     1 <1>   0.0800 
 25 H       -2.5740    -0.1860    -2.6240 H     1 <1>   0.0800 
 26 H       -2.3350     1.5230    -2.3530 H     1 <1>   0.0800 
 27 H        2.6700     0.6210    -0.2830 H     1 <1>   0.1500 
 28 H       -0.0650    -2.5370     0.3960 H     1 <1>   0.1500 
 29 H       -2.7030     2.1440     1.6590 H     1 <1>   0.0800 
 30 H       -2.9160     0.4510     1.3800 H     1 <1>   0.0800 
 31 H       -4.1230    -0.3400    -0.7800 H     1 <1>   0.0800 
 32 H       -4.6710     0.8540    -1.9080 H     1 <1>   0.0800 
 33 H        1.1270    -3.5780     2.4000 H     1 <1>   0.0800 
 34 H        2.3490    -2.5730     3.1660 H     1 <1>   0.0800 
 35 H        2.8070    -3.6860     1.8900 H     1 <1>   0.0800 
 36 H       -5.1260     1.7670     1.7460 H     1 <1>   0.0800 
 37 H       -5.7810     0.6940     0.5760 H     1 <1>   0.0800 
 38 H       -3.7910     4.9270    -0.5460 H     1 <1>   0.0800 
 39 H       -3.4570     4.0890     0.9470 H     1 <1>   0.0800 
 40 H       -6.0550     4.8600    -0.1990 H     1 <1>   0.0800 
 41 H       -5.6400     4.4520     1.4240 H     1 <1>   0.0800 
 42 H       -5.6560     2.7180    -1.5490 H     1 <1>   0.4000 
 43 H       -7.4600     2.8380     2.0290 H     1 <1>   0.0800 
 44 H       -8.0770     1.7700     0.7950 H     1 <1>   0.0800 
 45 H       -8.2360     3.5040     0.6160 H     1 <1>   0.0800 
@<TRIPOS>BOND
  1   1   2  2   
  2   1   3  2   
  3   1   4  am  
  4   1   5  1   
  5   4   6  1   
  6   4   7  1   
  7   5   8  1   
  8   5   9  2   
  9   6  10  1   
 10   6  23  1   
 11   6  24  1   
 12   7  11  1   
 13   7  25  1   
 14   7  26  1   
 15   8  12  2   
 16   8  27  1   
 17   9  13  1   
 18   9  28  1   
 19  10  14  1   
 20  10  29  1   
 21  10  30  1   
 22  11  14  1   
 23  11  31  1   
 24  11  32  1   
 25  12  13  1   
 26  13  15  1   
 27  14  16  1   
 28  14  17  1   
 29  15  33  1   
 30  15  34  1   
 31  15  35  1   
 32  16  18  1   
 33  17  19  1   
 34  17  36  1   
 35  17  37  1   
 36  18  20  1   
 37  18  38  1   
 38  18  39  1   
 39  19  20  1   
 40  19  21  1   
 41  19  22  1   
 42  20  40  1   
 43  20  41  1   
 44  21  42  1   
 45  22  43  1   
 46  22  44  1   
 47  22  45  1   
@<TRIPOS>SUBSTRUCTURE
  1 ****   6 GROUP 4 **** **** 0

# MOE 2024.06 (io_trps.svl 2023.06)
