@<TRIPOS>MOLECULE
NONAME
56 59 1 0 0 
SMALL
USER_CHARGES


@<TRIPOS>ATOM
  1 O        2.8540    -1.5110     1.9520 O.2   1 <1>  -0.5700 
  2 C        2.4850    -1.4070     0.7970 C.2   1 <1>   0.5440 
  3 N        2.9070    -0.2870     0.1200 N.am  1 <1>  -0.6600 
  4 C        1.7200    -2.4610     0.1510 C.ar  1 <1>   0.0860 
  5 C        3.0040     1.0270     0.8630 C.3   1 <1>   0.2200 
  6 C        3.7000    -0.4680    -1.1310 C.3   1 <1>   0.1400 
  7 C        1.8180    -3.7860     0.5770 C.ar  1 <1>  -0.1500 
  8 C        0.8630    -2.1990    -0.9190 C.ar  1 <1>  -0.1500 
  9 C        2.9490     2.2500    -0.0670 C.3   1 <1>   0.1200 
 10 C        4.2710     1.0890     1.7530 C.3   1 <1>   0.3430 
 11 C        4.9900     0.3730    -1.1800 C.3   1 <1>  -0.0800 
 12 C        1.1100    -4.7990    -0.0410 C.ar  1 <1>  -0.1500 
 13 C        0.1520    -3.2090    -1.5420 C.ar  1 <1>  -0.1500 
 14 O        4.2300     2.5780    -0.5220 O.3   1 <1>  -0.5600 
 15 N        5.2760     0.0410     1.3750 N.4   1 <1>  -0.9590 
 16 C        4.7090     1.8300    -1.5880 C.3   1 <1>   0.1200 
 17 C        5.9330     0.2670     0.0440 C.3   1 <1>   0.3430 
 18 C        0.2710    -4.5200    -1.1080 C.ar  1 <1>  -0.1430 
 19 C        6.2670    -0.1730     2.4650 C.3   1 <1>   0.2630 
 20 C       -0.5130    -5.6400    -1.7910 C.3   1 <1>   0.2390 
 21 N       -1.2290    -6.5030    -0.8230 N.pl3 1 <1>   0.3140 
 22 N       -0.9510    -7.8200    -0.7350 N.2   1 <1>  -0.7070 
 23 C       -2.2150    -6.1550     0.0390 C.2   1 <1>  -0.3320 
 24 C       -1.7550    -8.2730     0.1720 C.2   1 <1>   0.1080 
 25 C       -2.5720    -7.2790     0.6950 C.2   1 <1>  -0.1500 
 26 C       -2.7800    -4.7540     0.2080 C.3   1 <1>  -0.0600 
 27 C       -1.7710    -9.7250     0.5870 C.3   1 <1>  -0.0590 
 28 H        2.1460     1.0940     1.5100 H     1 <1>   0.0800 
 29 H        3.9660    -1.5080    -1.2260 H     1 <1>   0.0800 
 30 H        3.0760    -0.2230    -1.9750 H     1 <1>   0.0800 
 31 H        2.4560    -4.0260     1.4110 H     1 <1>   0.1500 
 32 H        0.7460    -1.1880    -1.2670 H     1 <1>   0.1500 
 33 H        2.5990     3.1010     0.4910 H     1 <1>   0.0800 
 34 H        2.2830     2.0970    -0.8990 H     1 <1>   0.0800 
 35 H        3.9580     0.9220     2.7700 H     1 <1>   0.0800 
 36 H        4.7100     2.0720     1.7030 H     1 <1>   0.0800 
 37 H        5.5510    -0.0210    -2.0080 H     1 <1>   0.0800 
 38 H        1.2100    -5.8140     0.3150 H     1 <1>   0.1500 
 39 H       -0.4990    -2.9680    -2.3650 H     1 <1>   0.1500 
 40 H        4.6790    -0.8070     1.3040 H     1 <1>   0.4500 
 41 H        4.0030     1.8890    -2.4000 H     1 <1>   0.0800 
 42 H        5.6230     2.3010    -1.9090 H     1 <1>   0.0800 
 43 H        6.5300     1.1630     0.0920 H     1 <1>   0.0800 
 44 H        6.6060    -0.5550    -0.1360 H     1 <1>   0.0800 
 45 H        6.8620     0.7140     2.6100 H     1 <1>   0.0800 
 46 H        6.9200    -0.9940     2.2200 H     1 <1>   0.0800 
 47 H        5.7580    -0.4050     3.3870 H     1 <1>   0.0800 
 48 H        0.1640    -6.2580    -2.3510 H     1 <1>   0.0800 
 49 H       -1.2390    -5.2340    -2.4700 H     1 <1>   0.0800 
 50 H       -3.3180    -7.4080     1.4570 H     1 <1>   0.1500 
 51 H       -3.5810    -4.7640     0.9260 H     1 <1>   0.0800 
 52 H       -3.1630    -4.3890    -0.7270 H     1 <1>   0.0800 
 53 H       -2.0150    -4.0860     0.5630 H     1 <1>   0.0800 
 54 H       -2.5080    -9.8900     1.3500 H     1 <1>   0.0800 
 55 H       -0.8030    -9.9990     0.9640 H     1 <1>   0.0800 
 56 H       -2.0000   -10.3370    -0.2660 H     1 <1>   0.0800 
@<TRIPOS>BOND
  1   1   2  2   
  2   2   3  am  
  3   2   4  1   
  4   3   5  1   
  5   3   6  1   
  6   4   7  ar  
  7   4   8  ar  
  8   5   9  1   
  9   5  10  1   
 10   5  28  1   
 11   6  11  1   
 12   6  29  1   
 13   6  30  1   
 14   7  12  ar  
 15   7  31  1   
 16   8  13  ar  
 17   8  32  1   
 18   9  14  1   
 19   9  33  1   
 20   9  34  1   
 21  10  15  1   
 22  10  35  1   
 23  10  36  1   
 24  11  16  1   
 25  11  17  1   
 26  11  37  1   
 27  12  18  ar  
 28  12  38  1   
 29  13  18  ar  
 30  13  39  1   
 31  14  16  1   
 32  15  17  1   
 33  15  19  1   
 34  15  40  1   
 35  16  41  1   
 36  16  42  1   
 37  17  43  1   
 38  17  44  1   
 39  18  20  1   
 40  19  45  1   
 41  19  46  1   
 42  19  47  1   
 43  20  21  1   
 44  20  48  1   
 45  20  49  1   
 46  21  22  1   
 47  21  23  1   
 48  22  24  2   
 49  23  25  2   
 50  23  26  1   
 51  24  25  1   
 52  24  27  1   
 53  25  50  1   
 54  26  51  1   
 55  26  52  1   
 56  26  53  1   
 57  27  54  1   
 58  27  55  1   
 59  27  56  1   
@<TRIPOS>SUBSTRUCTURE
  1 ****   4 GROUP 4 **** **** 0

# MOE 2024.06 (io_trps.svl 2023.06)
