@<TRIPOS>MOLECULE
NONAME
53 55 1 0 0 
SMALL
USER_CHARGES


@<TRIPOS>ATOM
  1 F       -0.6100    -1.4530     0.7680 F     1 <1>  -0.1900 
  2 C       -1.8490    -1.6450     0.4040 C.ar  1 <1>   0.1900 
  3 C       -2.3600    -0.9000    -0.6420 C.ar  1 <1>  -0.1500 
  4 C       -2.6040    -2.5860     1.0770 C.ar  1 <1>  -0.1500 
  5 C       -3.6740    -1.1080    -1.0250 C.ar  1 <1>  -0.1500 
  6 C       -3.9170    -2.7840     0.6850 C.ar  1 <1>  -0.1500 
  7 C       -4.4560    -2.0500    -0.3650 C.ar  1 <1>  -0.1430 
  8 C       -5.9000    -2.2810    -0.7870 C.3   1 <1>   0.2840 
  9 N       -6.8330    -1.9490     0.3290 N.am  1 <1>  -0.6600 
 10 C       -7.5710    -2.8830     1.0210 C.2   1 <1>   0.5690 
 11 C       -6.8410    -0.5110     0.7430 C.3   1 <1>   0.1400 
 12 O       -8.1010    -2.5990     2.0740 O.2   1 <1>  -0.5700 
 13 C       -7.7700    -4.3050     0.4670 C.3   1 <1>   0.2610 
 14 C       -7.7100     0.3450    -0.1980 C.3   1 <1>  -0.0800 
 15 O       -6.6390    -5.1190     0.7400 O.3   1 <1>  -0.5600 
 16 C       -9.0800    -4.9450     0.9960 C.3   1 <1>   0.3640 
 17 C       -7.6660     1.8120     0.2480 C.3   1 <1>  -0.2400 
 18 C       -9.1700    -0.1330    -0.2400 C.3   1 <1>  -0.2400 
 19 C       -6.6870    -6.4110     0.1730 C.3   1 <1>   0.1810 
 20 N       -9.1040    -6.4100     0.7680 N.am  1 <1>  -0.7300 
 21 C      -10.2870    -4.3140     0.3030 C.ar  1 <1>  -0.1430 
 22 C       -8.0200    -7.1300     0.4090 C.2   1 <1>   0.5690 
 23 C      -11.0060    -3.3180     0.9500 C.ar  1 <1>  -0.1500 
 24 C      -10.6750    -4.6990    -0.9750 C.ar  1 <1>  -0.1500 
 25 O       -8.0990    -8.3200     0.2450 O.2   1 <1>  -0.5700 
 26 C      -12.0900    -2.7180     0.3340 C.ar  1 <1>  -0.1500 
 27 C      -11.7590    -4.1000    -1.5920 C.ar  1 <1>  -0.1500 
 28 C      -12.4670    -3.1080    -0.9380 C.ar  1 <1>  -0.1500 
 29 H       -1.7390    -0.1770    -1.1390 H     1 <1>   0.1500 
 30 H       -2.1740    -3.1450     1.8880 H     1 <1>   0.1500 
 31 H       -4.0830    -0.5320    -1.8370 H     1 <1>   0.1500 
 32 H       -4.5230    -3.5100     1.2030 H     1 <1>   0.1500 
 33 H       -5.9980    -3.3070    -1.0870 H     1 <1>   0.0800 
 34 H       -6.1400    -1.6720    -1.6410 H     1 <1>   0.0800 
 35 H       -7.2190    -0.4190     1.7480 H     1 <1>   0.0800 
 36 H       -5.8340    -0.1340     0.7540 H     1 <1>   0.0800 
 37 H       -7.8600    -4.2300    -0.6000 H     1 <1>   0.0800 
 38 H       -7.2990     0.2940    -1.1920 H     1 <1>   0.0800 
 39 H       -9.1530    -4.7810     2.0580 H     1 <1>   0.0800 
 40 H       -8.0770     1.9180     1.2370 H     1 <1>   0.0800 
 41 H       -8.2370     2.4260    -0.4270 H     1 <1>   0.0800 
 42 H       -6.6520     2.1720     0.2560 H     1 <1>   0.0800 
 43 H       -9.5890    -0.1490     0.7510 H     1 <1>   0.0800 
 44 H       -9.2360    -1.1250    -0.6490 H     1 <1>   0.0800 
 45 H       -9.7640     0.5190    -0.8550 H     1 <1>   0.0800 
 46 H       -6.5120    -6.3240    -0.8830 H     1 <1>   0.0800 
 47 H       -5.8920    -6.9880     0.6090 H     1 <1>   0.0800 
 48 H       -9.9910    -6.8900     0.9250 H     1 <1>   0.3700 
 49 H      -10.7230    -2.9970     1.9390 H     1 <1>   0.1500 
 50 H      -10.1380    -5.4700    -1.5010 H     1 <1>   0.1500 
 51 H      -12.6380    -1.9450     0.8450 H     1 <1>   0.1500 
 52 H      -12.0540    -4.4060    -2.5810 H     1 <1>   0.1500 
 53 H      -13.3110    -2.6410    -1.4170 H     1 <1>   0.1500 
@<TRIPOS>BOND
  1   1   2  1   
  2   2   3  ar  
  3   2   4  ar  
  4   3   5  ar  
  5   3  29  1   
  6   4   6  ar  
  7   4  30  1   
  8   5   7  ar  
  9   5  31  1   
 10   6   7  ar  
 11   6  32  1   
 12   7   8  1   
 13   8   9  1   
 14   8  33  1   
 15   8  34  1   
 16   9  10  am  
 17   9  11  1   
 18  10  12  2   
 19  10  13  1   
 20  11  14  1   
 21  11  35  1   
 22  11  36  1   
 23  13  15  1   
 24  13  16  1   
 25  13  37  1   
 26  14  17  1   
 27  14  18  1   
 28  14  38  1   
 29  15  19  1   
 30  16  20  1   
 31  16  21  1   
 32  16  39  1   
 33  17  40  1   
 34  17  41  1   
 35  17  42  1   
 36  18  43  1   
 37  18  44  1   
 38  18  45  1   
 39  19  22  1   
 40  19  46  1   
 41  19  47  1   
 42  20  22  am  
 43  20  48  1   
 44  21  23  ar  
 45  21  24  ar  
 46  22  25  2   
 47  23  26  ar  
 48  23  49  1   
 49  24  27  ar  
 50  24  50  1   
 51  26  28  ar  
 52  26  51  1   
 53  27  28  ar  
 54  27  52  1   
 55  28  53  1   
@<TRIPOS>SUBSTRUCTURE
  1 ****  10 GROUP 4 **** **** 0

# MOE 2024.06 (io_trps.svl 2023.06)
