@<TRIPOS>MOLECULE
NONAME
50 52 1 0 0 
SMALL
USER_CHARGES


@<TRIPOS>ATOM
  1 CL      -1.7180    -0.2440     3.2040 Cl    1 <1>  -0.1770 
  2 C       -2.7340    -0.7240     1.8710 C.ar  1 <1>   0.1770 
  3 C       -2.7000    -2.0320     1.4290 C.ar  1 <1>  -0.1500 
  4 C       -3.5580     0.2100     1.2770 C.ar  1 <1>  -0.1500 
  5 C       -3.5070    -2.4270     0.3720 C.ar  1 <1>  -0.1440 
  6 C       -4.3640    -0.1780     0.2220 C.ar  1 <1>  -0.1500 
  7 C       -4.3490    -1.4930    -0.2320 C.ar  1 <1>  -0.1430 
  8 C       -3.4330    -3.8760    -0.0940 C.3   1 <1>  -0.0960 
  9 C       -5.2680    -1.8760    -1.3810 C.3   1 <1>   0.4870 
 10 N       -6.6760    -1.8140    -0.9120 N.4   1 <1>  -0.9590 
 11 C       -6.9730    -2.6990     0.2410 C.3   1 <1>   0.3430 
 12 C       -7.6770    -1.9620    -2.0020 C.3   1 <1>   0.3430 
 13 C       -8.2810    -2.2540     0.9010 C.3   1 <1>  -0.1600 
 14 C       -9.1060    -1.9400    -1.4450 C.3   1 <1>  -0.1600 
 15 C       -9.1990    -1.4010    -0.0030 C.3   1 <1>   0.2800 
 16 O       -8.6240    -0.1070    -0.0360 O.3   1 <1>  -0.5600 
 17 C      -10.6530    -1.3960     0.5660 C.3   1 <1>   0.2000 
 18 C       -9.3870     0.9900     0.3880 C.3   1 <1>   0.1200 
 19 O      -11.2540    -2.6500     0.4150 O.3   1 <1>  -0.6800 
 20 C      -11.5560    -0.2480     0.0180 C.3   1 <1>   0.2800 
 21 C      -10.7210     0.9860    -0.3580 C.3   1 <1>  -0.1600 
 22 O      -12.3830     0.1210     1.0600 O.3   1 <1>  -0.6800 
 23 C      -12.5040    -0.6290    -1.1290 C.3   1 <1>  -0.2400 
 24 H       -2.0380    -2.7240     1.9180 H     1 <1>   0.1500 
 25 H       -3.5610     1.2240     1.6380 H     1 <1>   0.1500 
 26 H       -4.9990     0.5610    -0.2380 H     1 <1>   0.1500 
 27 H       -2.7400    -4.4370     0.5090 H     1 <1>   0.0800 
 28 H       -3.0920    -3.9230    -1.1130 H     1 <1>   0.0800 
 29 H       -4.3940    -4.3520    -0.0190 H     1 <1>   0.0800 
 30 H       -5.0390    -2.8670    -1.7330 H     1 <1>   0.0800 
 31 H       -5.1210    -1.1840    -2.1940 H     1 <1>   0.0800 
 32 H       -6.8450    -0.8630    -0.5350 H     1 <1>   0.4500 
 33 H       -7.0660    -3.7170    -0.1010 H     1 <1>   0.0800 
 34 H       -6.1780    -2.6560     0.9690 H     1 <1>   0.0800 
 35 H       -7.5630    -1.1450    -2.6970 H     1 <1>   0.0800 
 36 H       -7.5150    -2.8850    -2.5370 H     1 <1>   0.0800 
 37 H       -8.0640    -1.7070     1.8020 H     1 <1>   0.0800 
 38 H       -8.7990    -3.1470     1.2040 H     1 <1>   0.0800 
 39 H       -9.4920    -2.9440    -1.4720 H     1 <1>   0.0800 
 40 H       -9.7220    -1.3570    -2.1020 H     1 <1>   0.0800 
 41 H      -10.5570    -1.2460     1.6280 H     1 <1>   0.0800 
 42 H       -9.5310     0.9300     1.4550 H     1 <1>   0.0800 
 43 H       -8.8320     1.8850     0.1630 H     1 <1>   0.0800 
 44 H      -12.1440    -2.6170     0.8240 H     1 <1>   0.4000 
 45 H      -10.5040     0.9820    -1.4110 H     1 <1>   0.0800 
 46 H      -11.2630     1.8910    -0.1480 H     1 <1>   0.0800 
 47 H      -13.0500     0.7600     0.7440 H     1 <1>   0.4000 
 48 H      -11.9510    -1.0100    -1.9660 H     1 <1>   0.0800 
 49 H      -13.0600     0.2280    -1.4630 H     1 <1>   0.0800 
 50 H      -13.1970    -1.3910    -0.8180 H     1 <1>   0.0800 
@<TRIPOS>BOND
  1   1   2  1   
  2   2   3  ar  
  3   2   4  ar  
  4   3   5  ar  
  5   3  24  1   
  6   4   6  ar  
  7   4  25  1   
  8   5   7  ar  
  9   5   8  1   
 10   6   7  ar  
 11   6  26  1   
 12   7   9  1   
 13   8  27  1   
 14   8  28  1   
 15   8  29  1   
 16   9  10  1   
 17   9  30  1   
 18   9  31  1   
 19  10  11  1   
 20  10  12  1   
 21  10  32  1   
 22  11  13  1   
 23  11  33  1   
 24  11  34  1   
 25  12  14  1   
 26  12  35  1   
 27  12  36  1   
 28  13  15  1   
 29  13  37  1   
 30  13  38  1   
 31  14  15  1   
 32  14  39  1   
 33  14  40  1   
 34  15  16  1   
 35  15  17  1   
 36  16  18  1   
 37  17  19  1   
 38  17  20  1   
 39  17  41  1   
 40  18  21  1   
 41  18  42  1   
 42  18  43  1   
 43  19  44  1   
 44  20  21  1   
 45  20  22  1   
 46  20  23  1   
 47  21  45  1   
 48  21  46  1   
 49  22  47  1   
 50  23  48  1   
 51  23  49  1   
 52  23  50  1   
@<TRIPOS>SUBSTRUCTURE
  1 ****  10 GROUP 4 **** **** 0

# MOE 2024.06 (io_trps.svl 2023.06)
