@<TRIPOS>MOLECULE
NONAME
51 53 1 0 0 
SMALL
USER_CHARGES


@<TRIPOS>ATOM
  1 F       -0.9200    -2.5500    -2.6260 F     1 <1>  -0.1900 
  2 C       -1.4110    -3.4440    -1.8050 C.ar  1 <1>   0.1900 
  3 C       -0.5970    -4.3640    -1.1360 C.ar  1 <1>   0.0830 
  4 C       -2.7810    -3.4310    -1.6300 C.ar  1 <1>  -0.1500 
  5 O        0.7600    -4.4770    -1.2240 O.3   1 <1>  -0.3630 
  6 C       -1.2140    -5.2690    -0.2870 C.ar  1 <1>  -0.1500 
  7 C       -3.3630    -4.3480    -0.7740 C.ar  1 <1>  -0.1500 
  8 C        1.5500    -3.6450    -2.0450 C.3   1 <1>   0.0400 
  9 C       -2.5970    -5.2900    -0.0840 C.ar  1 <1>   0.0530 
 10 C       -3.1980    -6.2500     0.8130 C.2   1 <1>   0.0870 
 11 O       -2.4630    -6.8360     1.7320 O.3   1 <1>  -0.0190 
 12 C       -4.4520    -6.7590     0.9410 C.2   1 <1>  -0.2330 
 13 N       -3.1360    -7.6900     2.4600 N.2   1 <1>  -0.4100 
 14 C       -4.3370    -7.6350     2.0180 C.2   1 <1>   0.3720 
 15 C       -5.6380    -6.6490     0.1530 C.2   1 <1>   1.0330 
 16 N       -5.3940    -8.3830     2.5160 N.pl3 1 <1>  -0.8520 
 17 O       -5.5640    -6.5300    -1.0810 O.co2 1 <1>  -0.9000 
 18 O       -6.7560    -6.9230     0.6270 O.co2 1 <1>  -0.9000 
 19 C       -5.3200    -9.8510     2.3950 C.3   1 <1>   0.2090 
 20 C       -6.0580   -10.3140     1.1290 C.3   1 <1>  -0.1600 
 21 C       -5.3580    -9.8480    -0.1630 C.3   1 <1>   0.4230 
 22 N       -6.2440    -9.9120    -1.3730 N.4   1 <1>  -0.9590 
 23 C       -4.0860   -10.6760    -0.4200 C.3   1 <1>  -0.1600 
 24 C       -5.5260    -9.3380    -2.5500 C.3   1 <1>   0.3430 
 25 C       -7.4940    -9.0910    -1.2310 C.3   1 <1>   0.2630 
 26 C       -3.3340   -10.2020    -1.6680 C.3   1 <1>  -0.1600 
 27 C       -4.2810   -10.1630    -2.8690 C.3   1 <1>  -0.1600 
 28 H       -3.3850    -2.7150    -2.1570 H     1 <1>   0.1500 
 29 H       -0.5950    -5.9790     0.2300 H     1 <1>   0.1500 
 30 H       -4.4310    -4.3310    -0.6440 H     1 <1>   0.1500 
 31 H        2.5760    -3.9460    -1.9360 H     1 <1>   0.0800 
 32 H        1.4330    -2.6250    -1.7270 H     1 <1>   0.0800 
 33 H        1.2420    -3.7690    -3.0690 H     1 <1>   0.0800 
 34 H       -6.2650    -7.9970     2.0930 H     1 <1>   0.4000 
 35 H       -5.7930   -10.2810     3.2610 H     1 <1>   0.0800 
 36 H       -4.2910   -10.1690     2.3980 H     1 <1>   0.0800 
 37 H       -7.0540    -9.9250     1.2060 H     1 <1>   0.0800 
 38 H       -6.1200   -11.3860     1.1390 H     1 <1>   0.0800 
 39 H       -5.0540    -8.8310    -0.0370 H     1 <1>   0.0800 
 40 H       -6.4770   -10.8900    -1.5560 H     1 <1>   0.4500 
 41 H       -4.3410   -11.7160    -0.5200 H     1 <1>   0.0800 
 42 H       -3.4200   -10.5830     0.4190 H     1 <1>   0.0800 
 43 H       -5.2350    -8.3210    -2.3360 H     1 <1>   0.0800 
 44 H       -6.1780    -9.3210    -3.4070 H     1 <1>   0.0800 
 45 H       -7.2520    -8.0430    -1.1910 H     1 <1>   0.0800 
 46 H       -8.0410    -9.3470    -0.3420 H     1 <1>   0.0800 
 47 H       -8.1370    -9.2450    -2.0810 H     1 <1>   0.0800 
 48 H       -2.5010   -10.8540    -1.8710 H     1 <1>   0.0800 
 49 H       -2.9440    -9.2120    -1.4900 H     1 <1>   0.0800 
 50 H       -3.7730    -9.7150    -3.7060 H     1 <1>   0.0800 
 51 H       -4.5690   -11.1590    -3.1550 H     1 <1>   0.0800 
@<TRIPOS>BOND
  1   1   2  1   
  2   2   3  ar  
  3   2   4  ar  
  4   3   5  1   
  5   3   6  ar  
  6   4   7  ar  
  7   4  28  1   
  8   5   8  1   
  9   6   9  ar  
 10   6  29  1   
 11   7   9  ar  
 12   7  30  1   
 13   8  31  1   
 14   8  32  1   
 15   8  33  1   
 16   9  10  1   
 17  10  11  1   
 18  10  12  2   
 19  11  13  1   
 20  12  14  1   
 21  12  15  1   
 22  13  14  2   
 23  14  16  1   
 24  15  17  ar  
 25  15  18  ar  
 26  16  19  1   
 27  16  34  1   
 28  19  20  1   
 29  19  35  1   
 30  19  36  1   
 31  20  21  1   
 32  20  37  1   
 33  20  38  1   
 34  21  22  1   
 35  21  23  1   
 36  21  39  1   
 37  22  24  1   
 38  22  25  1   
 39  22  40  1   
 40  23  26  1   
 41  23  41  1   
 42  23  42  1   
 43  24  27  1   
 44  24  43  1   
 45  24  44  1   
 46  25  45  1   
 47  25  46  1   
 48  25  47  1   
 49  26  27  1   
 50  26  48  1   
 51  26  49  1   
 52  27  50  1   
 53  27  51  1   
@<TRIPOS>SUBSTRUCTURE
  1 ****  10 GROUP 4 **** **** 0

# MOE 2024.06 (io_trps.svl 2023.06)
