@<TRIPOS>MOLECULE
NONAME
38 41 1 0 0 
SMALL
USER_CHARGES


@<TRIPOS>ATOM
  1 CL      -0.6790    -0.8460    -1.5270 Cl    1 <1>  -0.1230 
  2 C       -1.9830     0.1800    -0.9520 C.2   1 <1>   0.1230 
  3 C       -2.9800    -0.1710    -0.0360 C.2   1 <1>   0.2030 
  4 C       -2.2070     1.4470    -1.3350 C.2   1 <1>  -0.3020 
  5 N       -3.7990     0.8640     0.1210 N.2   1 <1>  -0.7070 
  6 C       -3.0520    -1.4690     0.6220 C.2   1 <1>   0.7160 
  7 N       -3.3090     1.8380    -0.6680 N.pl3 1 <1>   0.3000 
  8 O       -2.0280    -1.9710     1.0590 O.2   1 <1>  -0.5700 
  9 N       -4.2370    -2.1760     0.7790 N.am  1 <1>  -0.6600 
 10 C       -5.5260    -1.7920     0.1400 C.3   1 <1>   0.1400 
 11 C       -4.3340    -3.3750     1.6600 C.3   1 <1>   0.1400 
 12 C       -6.0600    -2.9710    -0.6770 C.3   1 <1>  -0.1600 
 13 C       -4.8560    -4.5630     0.8520 C.3   1 <1>  -0.1600 
 14 C       -6.1920    -4.2400     0.1750 C.3   1 <1>   0.4600 
 15 O       -7.1190    -4.0020     1.2180 O.3   1 <1>  -0.5600 
 16 C       -6.6860    -5.4210    -0.6520 C.2   1 <1>  -0.1400 
 17 C       -8.4920    -4.1220     0.9250 C.3   1 <1>   0.1200 
 18 S       -5.7320    -6.1530    -1.9330 S.3   1 <1>  -0.0800 
 19 C       -7.8670    -6.0420    -0.5280 C.2   1 <1>  -0.1810 
 20 C       -8.8570    -5.5610     0.5100 C.3   1 <1>   0.0210 
 21 C       -7.0040    -7.3250    -2.2540 C.2   1 <1>  -0.1100 
 22 C       -8.0540    -7.1340    -1.4330 C.2   1 <1>  -0.1500 
 23 H       -1.6640     2.0680    -2.0220 H     1 <1>   0.1500 
 24 H       -3.7480     2.7670    -0.7300 H     1 <1>   0.2700 
 25 H       -5.4040    -0.9480    -0.5140 H     1 <1>   0.0800 
 26 H       -6.2320    -1.5220     0.9080 H     1 <1>   0.0800 
 27 H       -5.0080    -3.1590     2.4720 H     1 <1>   0.0800 
 28 H       -3.3760    -3.6230     2.0850 H     1 <1>   0.0800 
 29 H       -5.3770    -3.1610    -1.4850 H     1 <1>   0.0800 
 30 H       -7.0060    -2.7190    -1.1150 H     1 <1>   0.0800 
 31 H       -4.9820    -5.4170     1.4930 H     1 <1>   0.0800 
 32 H       -4.1230    -4.8180     0.1090 H     1 <1>   0.0800 
 33 H       -8.7340    -3.4320     0.1360 H     1 <1>   0.0800 
 34 H       -9.0400    -3.8410     1.8070 H     1 <1>   0.0800 
 35 H       -9.8520    -5.5730     0.1060 H     1 <1>   0.0800 
 36 H       -8.8270    -6.2080     1.3680 H     1 <1>   0.0800 
 37 H       -6.8260    -8.0440    -3.0340 H     1 <1>   0.1500 
 38 H       -8.9580    -7.7170    -1.4260 H     1 <1>   0.1500 
@<TRIPOS>BOND
  1   1   2  1   
  2   2   3  1   
  3   2   4  2   
  4   3   5  2   
  5   3   6  1   
  6   4   7  1   
  7   4  23  1   
  8   5   7  1   
  9   6   8  2   
 10   6   9  am  
 11   7  24  1   
 12   9  10  1   
 13   9  11  1   
 14  10  12  1   
 15  10  25  1   
 16  10  26  1   
 17  11  13  1   
 18  11  27  1   
 19  11  28  1   
 20  12  14  1   
 21  12  29  1   
 22  12  30  1   
 23  13  14  1   
 24  13  31  1   
 25  13  32  1   
 26  14  15  1   
 27  14  16  1   
 28  15  17  1   
 29  16  18  1   
 30  16  19  2   
 31  17  20  1   
 32  17  33  1   
 33  17  34  1   
 34  18  21  1   
 35  19  20  1   
 36  19  22  1   
 37  20  35  1   
 38  20  36  1   
 39  21  22  2   
 40  21  37  1   
 41  22  38  1   
@<TRIPOS>SUBSTRUCTURE
  1 ****  12 GROUP 4 **** **** 0

# MOE 2024.06 (io_trps.svl 2023.06)
