@<TRIPOS>MOLECULE
NONAME
46 48 1 0 0 
SMALL
USER_CHARGES


@<TRIPOS>ATOM
  1 O       -3.7740     0.1090    -2.7590 O.2   1 <1>  -0.5700 
  2 C       -4.0610     0.7750    -1.7690 C.2   1 <1>   0.5410 
  3 C       -4.9820     0.3050    -0.8010 C.2   1 <1>  -0.1360 
  4 C       -3.4860     2.0510    -1.5450 C.2   1 <1>  -0.1360 
  5 C       -5.2990     1.0600     0.2830 C.2   1 <1>  -0.0500 
  6 C       -3.8220     2.7860    -0.4530 C.2   1 <1>  -0.0500 
  7 N       -4.7360     2.3080     0.4650 N.pl3 1 <1>  -0.5690 
  8 C       -5.1280     3.1410     1.6580 C.3   1 <1>   0.2700 
  9 C       -6.6370     3.1970     1.9350 C.2   1 <1>   0.5690 
 10 O       -7.0080     2.8050     3.0190 O.2   1 <1>  -0.5700 
 11 N       -7.5300     3.6780     1.0040 N.am  1 <1>  -0.6600 
 12 C       -9.0070     3.5800     1.2500 C.3   1 <1>   0.1400 
 13 C       -7.1100     4.1560    -0.3490 C.3   1 <1>   0.1400 
 14 C       -9.7830     3.1650    -0.0240 C.3   1 <1>   0.0000 
 15 C       -8.2140     4.9870    -1.0060 C.3   1 <1>  -0.1600 
 16 C      -11.2760     2.9940     0.3270 C.3   1 <1>   0.2000 
 17 C       -9.5400     4.2160    -1.1420 C.3   1 <1>  -0.1600 
 18 C       -9.3900     1.7350    -0.4500 C.3   1 <1>  -0.1600 
 19 O      -12.0340     2.9950    -0.8510 O.3   1 <1>  -0.5600 
 20 C      -11.3840     1.6050     0.9690 C.3   1 <1>  -0.1600 
 21 C      -10.1900     0.7910     0.4520 C.3   1 <1>  -0.1600 
 22 C      -13.3690     3.3600    -0.6950 C.3   1 <1>   0.0400 
 23 H       -5.4070    -0.6650    -0.9690 H     1 <1>   0.1500 
 24 H       -2.7810     2.3950    -2.2760 H     1 <1>   0.1500 
 25 H       -5.9980     0.7080     1.0270 H     1 <1>   0.1500 
 26 H       -3.3860     3.7560    -0.2750 H     1 <1>   0.1500 
 27 H       -4.6420     2.7340     2.5250 H     1 <1>   0.0800 
 28 H       -4.7740     4.1460     1.5280 H     1 <1>   0.0800 
 29 H       -9.1970     2.8730     2.0380 H     1 <1>   0.0800 
 30 H       -9.3590     4.5390     1.5860 H     1 <1>   0.0800 
 31 H       -6.2200     4.7530    -0.2660 H     1 <1>   0.0800 
 32 H       -6.8880     3.3040    -0.9700 H     1 <1>   0.0800 
 33 H       -8.3700     5.8690    -0.4090 H     1 <1>   0.0800 
 34 H       -7.8890     5.3130    -1.9790 H     1 <1>   0.0800 
 35 H      -11.6250     3.7820     0.9730 H     1 <1>   0.0800 
 36 H       -9.5790     3.7320    -2.1030 H     1 <1>   0.0800 
 37 H      -10.3370     4.9410    -1.1340 H     1 <1>   0.0800 
 38 H       -9.7030     1.5680    -1.4660 H     1 <1>   0.0800 
 39 H       -8.3340     1.5430    -0.3860 H     1 <1>   0.0800 
 40 H      -11.3080     1.7000     2.0370 H     1 <1>   0.0800 
 41 H      -12.3170     1.1250     0.7350 H     1 <1>   0.0800 
 42 H       -9.5820     0.4690     1.2810 H     1 <1>   0.0800 
 43 H      -10.5160    -0.0730    -0.1000 H     1 <1>   0.0800 
 44 H      -13.8470     3.2910    -1.6560 H     1 <1>   0.0800 
 45 H      -13.4180     4.3740    -0.3380 H     1 <1>   0.0800 
 46 H      -13.8480     2.6910    -0.0030 H     1 <1>   0.0800 
@<TRIPOS>BOND
  1   1   2  2   
  2   2   3  1   
  3   2   4  1   
  4   3   5  2   
  5   3  23  1   
  6   4   6  2   
  7   4  24  1   
  8   5   7  1   
  9   5  25  1   
 10   6   7  1   
 11   6  26  1   
 12   7   8  1   
 13   8   9  1   
 14   8  27  1   
 15   8  28  1   
 16   9  10  2   
 17   9  11  am  
 18  11  12  1   
 19  11  13  1   
 20  12  14  1   
 21  12  29  1   
 22  12  30  1   
 23  13  15  1   
 24  13  31  1   
 25  13  32  1   
 26  14  16  1   
 27  14  17  1   
 28  14  18  1   
 29  15  17  1   
 30  15  33  1   
 31  15  34  1   
 32  16  19  1   
 33  16  20  1   
 34  16  35  1   
 35  17  36  1   
 36  17  37  1   
 37  18  21  1   
 38  18  38  1   
 39  18  39  1   
 40  19  22  1   
 41  20  21  1   
 42  20  40  1   
 43  20  41  1   
 44  21  42  1   
 45  21  43  1   
 46  22  44  1   
 47  22  45  1   
 48  22  46  1   
@<TRIPOS>SUBSTRUCTURE
  1 ****  11 GROUP 4 **** **** 0

# MOE 2024.06 (io_trps.svl 2023.06)
