@<TRIPOS>MOLECULE
NONAME
46 47 1 0 0 
SMALL
USER_CHARGES


@<TRIPOS>ATOM
  1 O       -0.1310    -0.0920     0.2260 O.2   1 <1>  -0.5700 
  2 C       -1.0950     0.6320     0.0810 C.2   1 <1>   0.5690 
  3 N       -2.3100     0.0610    -0.2360 N.am  1 <1>  -0.6600 
  4 C       -0.9080     2.1730     0.3230 C.3   1 <1>   0.3410 
  5 C       -3.5920     0.7600    -0.5130 C.3   1 <1>   0.1400 
  6 C       -2.4900    -1.4070    -0.3420 C.3   1 <1>   0.1400 
  7 O       -1.7030     2.9080    -0.5920 O.3   1 <1>  -0.5600 
  8 C        0.5660     2.5930     0.1300 C.3   1 <1>  -0.2400 
  9 C       -1.3570     2.5060     1.7570 C.3   1 <1>  -0.2400 
 10 C       -4.5930    -0.3460    -0.8480 C.3   1 <1>   0.2000 
 11 C       -4.0000    -1.6300    -0.2730 C.3   1 <1>  -0.0800 
 12 C       -1.6860     4.3030    -0.6060 C.3   1 <1>   0.1200 
 13 O       -5.8350    -0.1010    -0.2830 O.3   1 <1>  -0.6800 
 14 C       -4.4710    -2.8940    -1.0060 C.3   1 <1>   0.0210 
 15 C       -2.7590     4.7510    -1.5900 C.3   1 <1>  -0.2400 
 16 C       -3.7960    -4.1310    -0.4470 C.2   1 <1>   0.1080 
 17 N       -4.0270    -4.5780     0.7480 N.2   1 <1>  -0.7070 
 18 C       -2.8640    -4.9070    -1.1280 C.2   1 <1>  -0.1500 
 19 N       -3.2400    -5.6640     0.8620 N.pl3 1 <1>   0.3000 
 20 C       -2.5250    -5.8840    -0.2610 C.2   1 <1>  -0.3320 
 21 C       -1.5470    -7.0300    -0.4390 C.3   1 <1>  -0.0600 
 22 H       -3.8990     1.3120     0.3570 H     1 <1>   0.0800 
 23 H       -3.4830     1.4210    -1.3540 H     1 <1>   0.0800 
 24 H       -2.0920    -1.7380    -1.2860 H     1 <1>   0.0800 
 25 H       -1.9820    -1.9190     0.4580 H     1 <1>   0.0800 
 26 H        1.1990     2.0010     0.7660 H     1 <1>   0.0800 
 27 H        0.7290     3.6210     0.3880 H     1 <1>   0.0800 
 28 H        0.8620     2.4180    -0.8880 H     1 <1>   0.0800 
 29 H       -0.8570     1.8470     2.4440 H     1 <1>   0.0800 
 30 H       -2.4160     2.3550     1.8600 H     1 <1>   0.0800 
 31 H       -1.1050     3.5130     2.0300 H     1 <1>   0.0800 
 32 H       -4.7140    -0.4100    -1.9160 H     1 <1>   0.0800 
 33 H       -4.2560    -1.7130     0.7690 H     1 <1>   0.0800 
 34 H       -1.9050     4.6830     0.3750 H     1 <1>   0.0800 
 35 H       -0.7200     4.6450    -0.9350 H     1 <1>   0.0800 
 36 H       -5.7810    -0.1790     0.6890 H     1 <1>   0.4000 
 37 H       -4.2590    -2.8150    -2.0560 H     1 <1>   0.0800 
 38 H       -5.5350    -3.0000    -0.8870 H     1 <1>   0.0800 
 39 H       -3.7240     4.4020    -1.2690 H     1 <1>   0.0800 
 40 H       -2.5450     4.3650    -2.5700 H     1 <1>   0.0800 
 41 H       -2.7810     5.8240    -1.6410 H     1 <1>   0.0800 
 42 H       -2.5080    -4.7400    -2.1290 H     1 <1>   0.1500 
 43 H       -3.2150    -6.2320     1.7170 H     1 <1>   0.2700 
 44 H       -1.1030    -6.9890    -1.4180 H     1 <1>   0.0800 
 45 H       -2.0540    -7.9730    -0.3320 H     1 <1>   0.0800 
 46 H       -0.7630    -6.9670     0.2950 H     1 <1>   0.0800 
@<TRIPOS>BOND
  1   1   2  2   
  2   2   3  am  
  3   2   4  1   
  4   3   5  1   
  5   3   6  1   
  6   4   7  1   
  7   4   8  1   
  8   4   9  1   
  9   5  10  1   
 10   5  22  1   
 11   5  23  1   
 12   6  11  1   
 13   6  24  1   
 14   6  25  1   
 15   7  12  1   
 16   8  26  1   
 17   8  27  1   
 18   8  28  1   
 19   9  29  1   
 20   9  30  1   
 21   9  31  1   
 22  10  11  1   
 23  10  13  1   
 24  10  32  1   
 25  11  14  1   
 26  11  33  1   
 27  12  15  1   
 28  12  34  1   
 29  12  35  1   
 30  13  36  1   
 31  14  16  1   
 32  14  37  1   
 33  14  38  1   
 34  15  39  1   
 35  15  40  1   
 36  15  41  1   
 37  16  17  2   
 38  16  18  1   
 39  17  19  1   
 40  18  20  2   
 41  18  42  1   
 42  19  20  1   
 43  19  43  1   
 44  20  21  1   
 45  21  44  1   
 46  21  45  1   
 47  21  46  1   
@<TRIPOS>SUBSTRUCTURE
  1 ****   6 GROUP 4 **** **** 0

# MOE 2024.06 (io_trps.svl 2023.06)
