@<TRIPOS>MOLECULE
NONAME
45 48 1 0 0 
SMALL
USER_CHARGES


@<TRIPOS>ATOM
  1 S       -0.6420    -1.3480     0.9010 S.3   1 <1>  -0.0800 
  2 C       -2.2570    -1.7110     0.3200 C.2   1 <1>  -0.1100 
  3 C       -0.8350     0.3480     0.4990 C.2   1 <1>  -0.1100 
  4 C       -2.8640    -0.6010    -0.1420 C.2   1 <1>  -0.1810 
  5 C       -2.0480     0.5750    -0.0360 C.2   1 <1>  -0.1500 
  6 C       -4.2650    -0.5480    -0.7260 C.3   1 <1>   0.3210 
  7 N       -5.2610    -0.2550     0.3400 N.am  1 <1>  -0.5090 
  8 C       -6.0270    -1.2240     0.9500 C.2   1 <1>   0.5690 
  9 C       -5.1750     1.1130     0.9030 C.3   1 <1>   0.0490 
 10 O       -6.5270    -1.0340     2.0390 O.2   1 <1>  -0.5700 
 11 C       -6.2930    -2.5720     0.2530 C.3   1 <1>   0.2610 
 12 C       -6.4340     1.9020     1.0860 C.3   1 <1>  -0.2000 
 13 C       -5.4660     2.2820     0.0120 C.3   1 <1>  -0.2000 
 14 O       -5.1590    -3.4220     0.3400 O.3   1 <1>  -0.5600 
 15 C       -7.5720    -3.2610     0.8020 C.3   1 <1>   0.3640 
 16 C       -5.2720    -4.6450    -0.3590 C.3   1 <1>   0.1810 
 17 N       -7.6300    -4.6950     0.4290 N.am  1 <1>  -0.7300 
 18 C       -8.8210    -2.5640     0.2640 C.ar  1 <1>  -0.1430 
 19 C       -6.5890    -5.3780    -0.0910 C.2   1 <1>   0.5690 
 20 C       -9.2960    -2.8140    -1.0180 C.ar  1 <1>  -0.1500 
 21 C       -9.4940    -1.6490     1.0620 C.ar  1 <1>  -0.1500 
 22 O       -6.6970    -6.5440    -0.3730 O.2   1 <1>  -0.5700 
 23 C      -10.4220    -2.1620    -1.4910 C.ar  1 <1>  -0.1500 
 24 C      -10.6180    -0.9960     0.5900 C.ar  1 <1>  -0.1500 
 25 C      -11.0840    -1.2520    -0.6870 C.ar  1 <1>  -0.1500 
 26 H       -2.5870    -2.7330     0.3910 H     1 <1>   0.1500 
 27 H       -0.0080     1.0030     0.7100 H     1 <1>   0.1500 
 28 H       -2.4100     1.5340    -0.3630 H     1 <1>   0.1500 
 29 H       -4.4760    -1.4880    -1.2000 H     1 <1>   0.0800 
 30 H       -4.3150     0.2120    -1.4860 H     1 <1>   0.0800 
 31 H       -4.4110     1.2020     1.6580 H     1 <1>   0.1000 
 32 H       -6.4580    -2.3680    -0.7890 H     1 <1>   0.0800 
 33 H       -7.3680     1.4400     0.8200 H     1 <1>   0.1000 
 34 H       -6.5170     2.5320     1.9540 H     1 <1>   0.1000 
 35 H       -4.9030     3.1890     0.1420 H     1 <1>   0.1000 
 36 H       -5.7660     2.1200    -1.0080 H     1 <1>   0.1000 
 37 H       -7.5700    -3.2080     1.8770 H     1 <1>   0.0800 
 38 H       -5.1850    -4.4430    -1.4110 H     1 <1>   0.0800 
 39 H       -4.4510    -5.2700    -0.0580 H     1 <1>   0.0800 
 40 H       -8.5080    -5.1850     0.6050 H     1 <1>   0.3700 
 41 H       -8.7980    -3.5210    -1.6590 H     1 <1>   0.1500 
 42 H       -9.1420    -1.4320     2.0580 H     1 <1>   0.1500 
 43 H      -10.7840    -2.3640    -2.4840 H     1 <1>   0.1500 
 44 H      -11.1300    -0.2870     1.2170 H     1 <1>   0.1500 
 45 H      -11.9590    -0.7440    -1.0540 H     1 <1>   0.1500 
@<TRIPOS>BOND
  1   1   2  1   
  2   1   3  1   
  3   2   4  2   
  4   2  26  1   
  5   3   5  2   
  6   3  27  1   
  7   4   5  1   
  8   4   6  1   
  9   5  28  1   
 10   6   7  1   
 11   6  29  1   
 12   6  30  1   
 13   7   8  am  
 14   7   9  1   
 15   8  10  2   
 16   8  11  1   
 17   9  12  1   
 18   9  13  1   
 19   9  31  1   
 20  11  14  1   
 21  11  15  1   
 22  11  32  1   
 23  12  13  1   
 24  12  33  1   
 25  12  34  1   
 26  13  35  1   
 27  13  36  1   
 28  14  16  1   
 29  15  17  1   
 30  15  18  1   
 31  15  37  1   
 32  16  19  1   
 33  16  38  1   
 34  16  39  1   
 35  17  19  am  
 36  17  40  1   
 37  18  20  ar  
 38  18  21  ar  
 39  19  22  2   
 40  20  23  ar  
 41  20  41  1   
 42  21  24  ar  
 43  21  42  1   
 44  23  25  ar  
 45  23  43  1   
 46  24  25  ar  
 47  24  44  1   
 48  25  45  1   
@<TRIPOS>SUBSTRUCTURE
  1 ****   8 GROUP 4 **** **** 0

# MOE 2024.06 (io_trps.svl 2023.06)
