@<TRIPOS>MOLECULE
NONAME
55 58 1 0 0 
SMALL
USER_CHARGES


@<TRIPOS>ATOM
  1 O       -0.8490     0.9660     0.9670 O.2   1 <1>  -0.5700 
  2 C       -1.7670     1.5760     0.4690 C.2   1 <1>   0.5690 
  3 N       -3.0700     1.1670     0.6700 N.am  1 <1>  -0.6600 
  4 C       -1.4250     2.8030    -0.3810 C.3   1 <1>  -0.0190 
  5 C       -4.2670     1.8070     0.0420 C.3   1 <1>   0.2200 
  6 C       -3.3000    -0.0310     1.5420 C.3   1 <1>   0.0600 
  7 C        0.0600     2.9500    -0.7840 C.3   1 <1>  -0.0160 
  8 C       -1.7880     4.1390     0.2980 C.3   1 <1>  -0.0160 
  9 C       -5.1830     2.4850     1.0610 C.3   1 <1>  -0.1600 
 10 C       -5.1720     0.8290    -0.7090 C.3   1 <1>  -0.1600 
 11 C        0.2130     4.4430    -0.9430 C.ar  1 <1>  -0.1440 
 12 C       -0.8200     5.1090    -0.3320 C.ar  1 <1>  -0.1440 
 13 C       -6.5420     2.5790     0.3530 C.3   1 <1>  -0.0800 
 14 C       -6.5320     1.5390    -0.7730 C.3   1 <1>  -0.0800 
 15 C        1.2190     5.1360    -1.5900 C.ar  1 <1>  -0.1500 
 16 C       -0.8790     6.4910    -0.3500 C.ar  1 <1>  -0.1500 
 17 C       -7.7620     2.2400     1.2240 C.3   1 <1>  -0.1600 
 18 C       -7.7550     0.6410    -0.5280 C.3   1 <1>  -0.1600 
 19 C        1.1680     6.5220    -1.6150 C.ar  1 <1>  -0.1500 
 20 C        0.1240     7.1960    -0.9970 C.ar  1 <1>  -0.1500 
 21 C       -8.7270     1.4880     0.3000 C.3   1 <1>   0.4230 
 22 N       -9.4820     2.4440    -0.5740 N.4   1 <1>  -0.9590 
 23 C      -10.3530     3.3800     0.2100 C.3   1 <1>   0.2630 
 24 C      -10.3380     1.7480    -1.5890 C.3   1 <1>   0.2630 
 25 H       -1.9650     2.7400    -1.3060 H     1 <1>   0.0800 
 26 H       -3.9680     2.5560    -0.6660 H     1 <1>   0.0800 
 27 H       -4.3020    -0.0550     1.9270 H     1 <1>   0.0800 
 28 H       -2.6190    -0.0160     2.3770 H     1 <1>   0.0800 
 29 H       -3.1200    -0.9260     0.9720 H     1 <1>   0.0800 
 30 H        0.2780     2.4200    -1.6930 H     1 <1>   0.0800 
 31 H        0.7210     2.6200    -0.0020 H     1 <1>   0.0800 
 32 H       -1.6040     4.0900     1.3570 H     1 <1>   0.0800 
 33 H       -2.8060     4.4260     0.1130 H     1 <1>   0.0800 
 34 H       -5.2590     1.8890     1.9510 H     1 <1>   0.0800 
 35 H       -4.8120     3.4580     1.3270 H     1 <1>   0.0800 
 36 H       -4.7860     0.6270    -1.6930 H     1 <1>   0.0800 
 37 H       -5.2610    -0.0970    -0.1730 H     1 <1>   0.0800 
 38 H       -6.6540     3.5600    -0.0790 H     1 <1>   0.0800 
 39 H       -6.6260     2.0490    -1.7190 H     1 <1>   0.0800 
 40 H        2.0270     4.6090    -2.0650 H     1 <1>   0.1500 
 41 H       -1.6880     7.0100     0.1320 H     1 <1>   0.1500 
 42 H       -8.1750     3.1050     1.7060 H     1 <1>   0.0800 
 43 H       -7.4690     1.5540     2.0000 H     1 <1>   0.0800 
 44 H       -7.4680    -0.1960     0.0840 H     1 <1>   0.0800 
 45 H       -8.1600     0.2430    -1.4390 H     1 <1>   0.0800 
 46 H        1.9430     7.0760    -2.1150 H     1 <1>   0.1500 
 47 H        0.0930     8.2710    -1.0200 H     1 <1>   0.1500 
 48 H       -9.4110     0.8700     0.8610 H     1 <1>   0.0800 
 49 H       -8.7720     2.9990    -1.0720 H     1 <1>   0.4500 
 50 H      -11.0520     2.8240     0.8140 H     1 <1>   0.0800 
 51 H      -10.9080     4.0200    -0.4570 H     1 <1>   0.0800 
 52 H       -9.7600     4.0060     0.8560 H     1 <1>   0.0800 
 53 H      -11.0340     1.0850    -1.1010 H     1 <1>   0.0800 
 54 H       -9.7340     1.1740    -2.2710 H     1 <1>   0.0800 
 55 H      -10.8960     2.4690    -2.1640 H     1 <1>   0.0800 
@<TRIPOS>BOND
  1   1   2  2   
  2   2   3  am  
  3   2   4  1   
  4   3   5  1   
  5   3   6  1   
  6   4   7  1   
  7   4   8  1   
  8   4  25  1   
  9   5   9  1   
 10   5  10  1   
 11   5  26  1   
 12   6  27  1   
 13   6  28  1   
 14   6  29  1   
 15   7  11  1   
 16   7  30  1   
 17   7  31  1   
 18   8  12  1   
 19   8  32  1   
 20   8  33  1   
 21   9  13  1   
 22   9  34  1   
 23   9  35  1   
 24  10  14  1   
 25  10  36  1   
 26  10  37  1   
 27  11  12  ar  
 28  11  15  ar  
 29  12  16  ar  
 30  13  14  1   
 31  13  17  1   
 32  13  38  1   
 33  14  18  1   
 34  14  39  1   
 35  15  19  ar  
 36  15  40  1   
 37  16  20  ar  
 38  16  41  1   
 39  17  21  1   
 40  17  42  1   
 41  17  43  1   
 42  18  21  1   
 43  18  44  1   
 44  18  45  1   
 45  19  20  ar  
 46  19  46  1   
 47  20  47  1   
 48  21  22  1   
 49  21  48  1   
 50  22  23  1   
 51  22  24  1   
 52  22  49  1   
 53  23  50  1   
 54  23  51  1   
 55  23  52  1   
 56  24  53  1   
 57  24  54  1   
 58  24  55  1   
@<TRIPOS>SUBSTRUCTURE
  1 ****   5 GROUP 4 **** **** 0

# MOE 2024.06 (io_trps.svl 2023.06)
