@<TRIPOS>MOLECULE
NONAME
50 52 1 0 0 
SMALL
USER_CHARGES


@<TRIPOS>ATOM
  1 CL       1.7800     1.3930    -1.3890 Cl    1 <1>  -0.1770 
  2 C        1.3580     2.9780    -0.7810 C.ar  1 <1>   0.1770 
  3 C        1.9370     3.4930     0.3750 C.ar  1 <1>  -0.1440 
  4 C        0.4170     3.6950    -1.4970 C.ar  1 <1>  -0.1500 
  5 C        1.5250     4.7480     0.8080 C.ar  1 <1>  -0.1500 
  6 C        2.9990     2.7530     1.1860 C.3   1 <1>   0.3640 
  7 C        0.0290     4.9480    -1.0590 C.ar  1 <1>  -0.1500 
  8 C        0.5820     5.4710     0.0960 C.ar  1 <1>  -0.1500 
  9 N        2.4280     1.5190     1.7630 N.am  1 <1>  -0.7300 
 10 C        4.3130     2.4600     0.4160 C.3   1 <1>   0.2610 
 11 C        3.1490     0.3870     1.9380 C.2   1 <1>   0.5690 
 12 O        5.1510     1.6290     1.2050 O.3   1 <1>  -0.5600 
 13 C        5.0290     3.7650     0.0570 C.2   1 <1>   0.5690 
 14 O        2.6580    -0.5800     2.4600 O.2   1 <1>  -0.5700 
 15 C        4.6040     0.3440     1.4480 C.3   1 <1>   0.1810 
 16 O        4.6050     4.4410    -0.8500 O.2   1 <1>  -0.5700 
 17 N        6.1290     4.1390     0.7750 N.am  1 <1>  -0.7300 
 18 C        7.1640     5.2060     0.5440 C.3   1 <1>   0.1400 
 19 C        6.8520     6.2840    -0.5240 C.3   1 <1>   0.3430 
 20 N        5.5210     6.9360    -0.3400 N.4   1 <1>  -0.9590 
 21 C        5.1330     7.7490    -1.5230 C.3   1 <1>   0.3430 
 22 C        5.3540     7.6670     0.9450 C.3   1 <1>   0.3430 
 23 C        3.6600     8.1410    -1.3990 C.3   1 <1>  -0.1600 
 24 C        3.8890     8.0760     1.1110 C.3   1 <1>  -0.1600 
 25 C        3.3790     8.8870    -0.0870 C.3   1 <1>  -0.1600 
 26 H       -0.0090     3.2710    -2.3890 H     1 <1>   0.1500 
 27 H        1.9290     5.1760     1.7090 H     1 <1>   0.1500 
 28 H        3.2690     3.3820     2.0160 H     1 <1>   0.0800 
 29 H       -0.7060     5.5090    -1.6120 H     1 <1>   0.1500 
 30 H        0.2700     6.4420     0.4430 H     1 <1>   0.1500 
 31 H        1.4480     1.5260     2.0540 H     1 <1>   0.3700 
 32 H        4.1130     1.9410    -0.5010 H     1 <1>   0.0800 
 33 H        4.6530    -0.2240     0.5370 H     1 <1>   0.0800 
 34 H        5.2130    -0.1400     2.1890 H     1 <1>   0.0800 
 35 H        6.4200     3.4270     1.4610 H     1 <1>   0.3700 
 36 H        7.3580     5.6980     1.4810 H     1 <1>   0.0800 
 37 H        8.0810     4.7190     0.2580 H     1 <1>   0.0800 
 38 H        6.8750     5.8050    -1.4890 H     1 <1>   0.0800 
 39 H        7.6280     7.0310    -0.5120 H     1 <1>   0.0800 
 40 H        4.8580     6.1340    -0.3410 H     1 <1>   0.4500 
 41 H        5.7440     8.6350    -1.5770 H     1 <1>   0.0800 
 42 H        5.2740     7.1760    -2.4260 H     1 <1>   0.0800 
 43 H        5.6430     7.0380     1.7710 H     1 <1>   0.0800 
 44 H        5.9780     8.5470     0.9480 H     1 <1>   0.0800 
 45 H        3.3900     8.7660    -2.2320 H     1 <1>   0.0800 
 46 H        3.0530     7.2520    -1.4540 H     1 <1>   0.0800 
 47 H        3.2900     7.1920     1.2330 H     1 <1>   0.0800 
 48 H        3.7860     8.6620     2.0080 H     1 <1>   0.0800 
 49 H        2.3210     9.0630     0.0130 H     1 <1>   0.0800 
 50 H        3.8700     9.8460    -0.1080 H     1 <1>   0.0800 
@<TRIPOS>BOND
  1   1   2  1   
  2   2   3  ar  
  3   2   4  ar  
  4   3   5  ar  
  5   3   6  1   
  6   4   7  ar  
  7   4  26  1   
  8   5   8  ar  
  9   5  27  1   
 10   6   9  1   
 11   6  10  1   
 12   6  28  1   
 13   7   8  ar  
 14   7  29  1   
 15   8  30  1   
 16   9  11  am  
 17   9  31  1   
 18  10  12  1   
 19  10  13  1   
 20  10  32  1   
 21  11  14  2   
 22  11  15  1   
 23  12  15  1   
 24  13  16  2   
 25  13  17  am  
 26  15  33  1   
 27  15  34  1   
 28  17  18  1   
 29  17  35  1   
 30  18  19  1   
 31  18  36  1   
 32  18  37  1   
 33  19  20  1   
 34  19  38  1   
 35  19  39  1   
 36  20  21  1   
 37  20  22  1   
 38  20  40  1   
 39  21  23  1   
 40  21  41  1   
 41  21  42  1   
 42  22  24  1   
 43  22  43  1   
 44  22  44  1   
 45  23  25  1   
 46  23  45  1   
 47  23  46  1   
 48  24  25  1   
 49  24  47  1   
 50  24  48  1   
 51  25  49  1   
 52  25  50  1   
@<TRIPOS>SUBSTRUCTURE
  1 ****  16 GROUP 4 **** **** 0

# MOE 2024.06 (io_trps.svl 2023.06)
