@<TRIPOS>MOLECULE
NONAME
49 51 1 0 0 
SMALL
USER_CHARGES


@<TRIPOS>ATOM
  1 F        2.4530     0.6080    -1.2890 F     1 <1>  -0.1900 
  2 C        3.0780     0.0340    -0.2970 C.ar  1 <1>   0.1900 
  3 C        3.8330     0.7980     0.6000 C.ar  1 <1>   0.0860 
  4 C        2.9490    -1.3400    -0.2040 C.ar  1 <1>  -0.1500 
  5 C        3.9820     2.2440     0.5280 C.2   1 <1>   0.5440 
  6 C        4.4680     0.0780     1.6170 C.ar  1 <1>  -0.1500 
  7 C        3.5920    -2.0120     0.8180 C.ar  1 <1>  -0.1500 
  8 O        4.8840     2.7960     1.1310 O.2   1 <1>  -0.5700 
  9 N        3.1330     3.0320    -0.1980 N.am  1 <1>  -0.7300 
 10 C        4.3530    -1.2980     1.7280 C.ar  1 <1>  -0.1500 
 11 C        3.1660     4.5130    -0.2560 C.3   1 <1>   0.1400 
 12 C        4.2540     4.9640    -1.2310 C.3   1 <1>  -0.0990 
 13 C        4.3700     6.4780    -1.2920 C.2   1 <1>   0.5690 
 14 O        3.3800     7.1290    -1.0510 O.2   1 <1>  -0.5700 
 15 N        5.5600     7.0790    -1.6130 N.am  1 <1>  -0.6600 
 16 C        5.7640     8.5470    -1.4350 C.3   1 <1>   0.1400 
 17 C        6.8300     6.3950    -1.9980 C.3   1 <1>   0.1400 
 18 C        6.8790     8.8100    -0.4070 C.3   1 <1>   0.1100 
 19 C        7.9080     6.6610    -0.9350 C.3   1 <1>   0.1100 
 20 N        8.1410     8.1090    -0.7530 N.3   1 <1>  -0.8100 
 21 C        9.1930     8.3440     0.2710 C.3   1 <1>   0.2910 
 22 C        9.6270     9.8050     0.4250 C.2   1 <1>   0.3350 
 23 N       10.6140    10.3400    -0.1810 N.2   1 <1>  -0.4100 
 24 N        9.0030    10.6410     1.2510 N.2   1 <1>  -0.5650 
 25 O       10.6810    11.5760     0.2090 O.3   1 <1>  -0.0190 
 26 C        9.6940    11.6910     1.0620 C.2   1 <1>   0.2980 
 27 C        9.4650    13.0250     1.7330 C.3   1 <1>  -0.0600 
 28 H        2.3540    -1.8750    -0.9240 H     1 <1>   0.1500 
 29 H        5.0670     0.6110     2.3370 H     1 <1>   0.1500 
 30 H        3.5040    -3.0820     0.9070 H     1 <1>   0.1500 
 31 H        2.4170     2.5780    -0.7730 H     1 <1>   0.3700 
 32 H        4.8580    -1.8160     2.5260 H     1 <1>   0.1500 
 33 H        3.3780     4.9040     0.7260 H     1 <1>   0.0800 
 34 H        2.2040     4.8840    -0.5670 H     1 <1>   0.0800 
 35 H        4.0370     4.5980    -2.2160 H     1 <1>   0.0800 
 36 H        5.1800     4.5490    -0.8870 H     1 <1>   0.0800 
 37 H        4.8570     9.0220    -1.1030 H     1 <1>   0.0800 
 38 H        6.0400     8.9850    -2.3780 H     1 <1>   0.0800 
 39 H        7.1670     6.7890    -2.9410 H     1 <1>   0.0800 
 40 H        6.6920     5.3380    -2.1230 H     1 <1>   0.0800 
 41 H        6.5380     8.4960     0.5640 H     1 <1>   0.0800 
 42 H        7.0540     9.8710    -0.3710 H     1 <1>   0.0800 
 43 H        8.8250     6.1910    -1.2490 H     1 <1>   0.0800 
 44 H        7.6010     6.2150    -0.0040 H     1 <1>   0.0800 
 45 H       10.0670     7.7780     0.0000 H     1 <1>   0.0800 
 46 H        8.8530     7.9870     1.2270 H     1 <1>   0.0800 
 47 H        8.6250    12.9610     2.4000 H     1 <1>   0.0800 
 48 H        9.2680    13.7750     0.9900 H     1 <1>   0.0800 
 49 H       10.3390    13.3020     2.2940 H     1 <1>   0.0800 
@<TRIPOS>BOND
  1   1   2  1   
  2   2   3  ar  
  3   2   4  ar  
  4   3   5  1   
  5   3   6  ar  
  6   4   7  ar  
  7   4  28  1   
  8   5   8  2   
  9   5   9  am  
 10   6  10  ar  
 11   6  29  1   
 12   7  10  ar  
 13   7  30  1   
 14   9  11  1   
 15   9  31  1   
 16  10  32  1   
 17  11  12  1   
 18  11  33  1   
 19  11  34  1   
 20  12  13  1   
 21  12  35  1   
 22  12  36  1   
 23  13  14  2   
 24  13  15  am  
 25  15  16  1   
 26  15  17  1   
 27  16  18  1   
 28  16  37  1   
 29  16  38  1   
 30  17  19  1   
 31  17  39  1   
 32  17  40  1   
 33  18  20  1   
 34  18  41  1   
 35  18  42  1   
 36  19  20  1   
 37  19  43  1   
 38  19  44  1   
 39  20  21  1   
 40  21  22  1   
 41  21  45  1   
 42  21  46  1   
 43  22  23  2   
 44  22  24  1   
 45  23  25  1   
 46  24  26  2   
 47  25  26  1   
 48  26  27  1   
 49  27  47  1   
 50  27  48  1   
 51  27  49  1   
@<TRIPOS>SUBSTRUCTURE
  1 ****  12 GROUP 4 **** **** 0

# MOE 2024.06 (io_trps.svl 2023.06)
