@<TRIPOS>MOLECULE
NONAME
30 30 1 0 0 
SMALL
USER_CHARGES


@<TRIPOS>ATOM
  1 CL      -0.0830     0.1390    -0.9860 Cl    1 <1>  -0.1770 
  2 C       -1.5050    -0.7180    -0.4250 C.ar  1 <1>   0.1770 
  3 C       -1.4190    -2.0950    -0.2800 C.ar  1 <1>  -0.1440 
  4 C       -2.6640    -0.0120    -0.1270 C.ar  1 <1>  -0.1440 
  5 C       -2.5260    -2.7930     0.1770 C.ar  1 <1>  -0.1500 
  6 C       -0.1380    -2.8210    -0.6190 C.3   1 <1>   0.4870 
  7 C       -3.7590    -0.7350     0.3320 C.ar  1 <1>  -0.1500 
  8 C       -2.6880     1.5090    -0.3150 C.3   1 <1>  -0.0160 
  9 C       -3.6890    -2.1100     0.4820 C.ar  1 <1>  -0.1500 
 10 N        0.8330    -2.5390     0.4570 N.4   1 <1>  -0.8530 
 11 C       -4.0140     2.2020     0.0350 C.3   1 <1>  -0.1600 
 12 C       -3.9290     3.7170    -0.1900 C.3   1 <1>  -0.1600 
 13 C       -5.2530     4.4000     0.1620 C.3   1 <1>  -0.2400 
 14 H       -2.5070    -3.8640     0.2990 H     1 <1>   0.1500 
 15 H        0.2400    -2.4730    -1.5680 H     1 <1>   0.0800 
 16 H       -0.3240    -3.8810    -0.6890 H     1 <1>   0.0800 
 17 H       -4.6860    -0.2490     0.5800 H     1 <1>   0.1500 
 18 H       -2.4550     1.7280    -1.3440 H     1 <1>   0.0800 
 19 H       -1.9110     1.9410     0.2910 H     1 <1>   0.0800 
 20 H       -4.5530    -2.6480     0.8370 H     1 <1>   0.1500 
 21 H        1.0070    -1.5260     0.4810 H     1 <1>   0.4500 
 22 H        1.7220    -3.0260     0.3110 H     1 <1>   0.4500 
 23 H        0.4360    -2.8060     1.3640 H     1 <1>   0.4500 
 24 H       -4.2540     2.0140     1.0680 H     1 <1>   0.0800 
 25 H       -4.8010     1.8000    -0.5800 H     1 <1>   0.0800 
 26 H       -3.6910     3.9190    -1.2210 H     1 <1>   0.0800 
 27 H       -3.1450     4.1330     0.4210 H     1 <1>   0.0800 
 28 H       -6.0490     4.0170    -0.4530 H     1 <1>   0.0800 
 29 H       -5.1750     5.4600    -0.0030 H     1 <1>   0.0800 
 30 H       -5.5020     4.2320     1.1950 H     1 <1>   0.0800 
@<TRIPOS>BOND
  1   1   2  1   
  2   2   3  ar  
  3   2   4  ar  
  4   3   5  ar  
  5   3   6  1   
  6   4   7  ar  
  7   4   8  1   
  8   5   9  ar  
  9   5  14  1   
 10   6  10  1   
 11   6  15  1   
 12   6  16  1   
 13   7   9  ar  
 14   7  17  1   
 15   8  11  1   
 16   8  18  1   
 17   8  19  1   
 18   9  20  1   
 19  10  21  1   
 20  10  22  1   
 21  10  23  1   
 22  11  12  1   
 23  11  24  1   
 24  11  25  1   
 25  12  13  1   
 26  12  26  1   
 27  12  27  1   
 28  13  28  1   
 29  13  29  1   
 30  13  30  1   
@<TRIPOS>SUBSTRUCTURE
  1 ****   4 GROUP 4 **** **** 0

# MOE 2024.06 (io_trps.svl 2023.06)
