@<TRIPOS>MOLECULE
NONAME
42 44 1 0 0 
SMALL
USER_CHARGES


@<TRIPOS>ATOM
  1 O       -3.4220     1.7110    -2.2560 O.2   1 <1>  -0.5700 
  2 C       -2.5940     1.8630    -1.3720 C.2   1 <1>   0.5440 
  3 N       -1.9970     0.7210    -0.8700 N.am  1 <1>  -0.6600 
  4 C       -2.3120     3.2190    -0.8930 C.ar  1 <1>   0.3960 
  5 C       -2.2860    -0.6310    -1.3970 C.3   1 <1>   0.1400 
  6 C       -1.0600     0.6530     0.2740 C.3   1 <1>   0.1400 
  7 N       -1.1040     3.5480    -0.4030 N.ar  1 <1>  -0.6200 
  8 C       -3.3430     4.1620    -0.9720 C.ar  1 <1>   0.1600 
  9 C       -1.3080    -1.5520    -0.6750 C.3   1 <1>  -0.1600 
 10 C       -0.9870    -0.8270     0.6300 C.3   1 <1>  -0.1600 
 11 C       -1.0090     4.8060    -0.0110 C.ar  1 <1>   0.4100 
 12 N       -3.2700     5.4270    -0.5800 N.ar  1 <1>  -0.6200 
 13 N        0.2180     5.2070     0.4800 N.pl3 1 <1>  -0.8380 
 14 C       -2.0780     5.7100    -0.0980 C.ar  1 <1>   0.1600 
 15 C        1.0500     6.0470    -0.4210 C.3   1 <1>   0.3900 
 16 C        0.9990     4.2740     1.3410 C.3   1 <1>   0.1290 
 17 C        1.8380     7.0580     0.3920 C.2   1 <1>  -0.1810 
 18 C        3.1260     7.4600     0.2900 C.2   1 <1>  -0.3320 
 19 C        1.3210     7.7920     1.4540 C.2   1 <1>   0.1390 
 20 N        3.3150     8.3830     1.2580 N.pl3 1 <1>   0.3000 
 21 C        4.2210     7.0320    -0.6730 C.3   1 <1>  -0.0600 
 22 N        2.1980     8.5900     1.9780 N.2   1 <1>  -0.7070 
 23 H       -2.1510    -0.6620    -2.4650 H     1 <1>   0.0800 
 24 H       -3.3030    -0.8910    -1.1550 H     1 <1>   0.0800 
 25 H       -1.4140     1.2420     1.1030 H     1 <1>   0.0800 
 26 H       -0.0950     1.0110    -0.0420 H     1 <1>   0.0800 
 27 H       -4.2850     3.8430    -1.3840 H     1 <1>   0.1500 
 28 H       -0.4160    -1.6460    -1.2700 H     1 <1>   0.0800 
 29 H       -1.7260    -2.5290    -0.5120 H     1 <1>   0.0800 
 30 H       -1.7420    -1.0480     1.3640 H     1 <1>   0.0800 
 31 H       -0.0240    -1.0970     1.0240 H     1 <1>   0.0800 
 32 H       -1.9070     6.7090     0.2570 H     1 <1>   0.1500 
 33 H        0.4220     6.5700    -1.1210 H     1 <1>   0.0800 
 34 H        1.7190     5.4150    -0.9780 H     1 <1>   0.0800 
 35 H        0.3300     3.6810     1.9400 H     1 <1>   0.0800 
 36 H        1.6460     4.8320     1.9970 H     1 <1>   0.0800 
 37 H        1.5930     3.6180     0.7290 H     1 <1>   0.0800 
 38 H        0.3070     7.7070     1.8090 H     1 <1>   0.1500 
 39 H        4.1880     8.8890     1.4530 H     1 <1>   0.2700 
 40 H        3.8550     6.2950    -1.3640 H     1 <1>   0.0800 
 41 H        5.0470     6.6090    -0.1290 H     1 <1>   0.0800 
 42 H        4.5720     7.8800    -1.2340 H     1 <1>   0.0800 
@<TRIPOS>BOND
  1   1   2  2   
  2   2   3  am  
  3   2   4  1   
  4   3   5  1   
  5   3   6  1   
  6   4   7  ar  
  7   4   8  ar  
  8   5   9  1   
  9   5  23  1   
 10   5  24  1   
 11   6  10  1   
 12   6  25  1   
 13   6  26  1   
 14   7  11  ar  
 15   8  12  ar  
 16   8  27  1   
 17   9  10  1   
 18   9  28  1   
 19   9  29  1   
 20  10  30  1   
 21  10  31  1   
 22  11  13  1   
 23  11  14  ar  
 24  12  14  ar  
 25  13  15  1   
 26  13  16  1   
 27  14  32  1   
 28  15  17  1   
 29  15  33  1   
 30  15  34  1   
 31  16  35  1   
 32  16  36  1   
 33  16  37  1   
 34  17  18  2   
 35  17  19  1   
 36  18  20  1   
 37  18  21  1   
 38  19  22  2   
 39  19  38  1   
 40  20  22  1   
 41  20  39  1   
 42  21  40  1   
 43  21  41  1   
 44  21  42  1   
@<TRIPOS>SUBSTRUCTURE
  1 ****  11 GROUP 4 **** **** 0

# MOE 2024.06 (io_trps.svl 2023.06)
