@<TRIPOS>MOLECULE
NONAME
47 48 1 0 0 
SMALL
USER_CHARGES


@<TRIPOS>ATOM
  1 CL       0.0610     0.6830    -0.0470 Cl    1 <1>  -0.1770 
  2 C       -1.6280     0.9980     0.2530 C.ar  1 <1>   0.1770 
  3 C       -2.0250     1.4500     1.4970 C.ar  1 <1>  -0.1500 
  4 C       -2.5490     0.7970    -0.7570 C.ar  1 <1>  -0.1500 
  5 C       -3.3660     1.6990     1.7290 C.ar  1 <1>  -0.1500 
  6 C       -3.8870     1.0510    -0.5130 C.ar  1 <1>  -0.1500 
  7 C       -4.3260     1.5020     0.7330 C.ar  1 <1>   0.0530 
  8 C       -5.7140     1.7790     1.0010 C.2   1 <1>   0.0870 
  9 O       -6.0340     2.8990     1.5990 O.3   1 <1>  -0.0190 
 10 C       -6.8750     1.0980     0.7860 C.2   1 <1>  -0.0860 
 11 N       -7.3190     3.0310     1.7880 N.2   1 <1>  -0.4100 
 12 C       -7.8440     1.9720     1.2970 C.2   1 <1>   0.3720 
 13 C       -7.1220    -0.2000     0.2360 C.2   1 <1>   0.7160 
 14 N       -9.2210     1.8040     1.3060 N.pl3 1 <1>  -0.8520 
 15 O       -6.3130    -0.7460    -0.4860 O.2   1 <1>  -0.5700 
 16 N       -8.2860    -0.8440     0.5290 N.am  1 <1>  -0.7300 
 17 C       -9.8620     2.0130    -0.0230 C.3   1 <1>   0.2090 
 18 C       -8.8540    -2.0780    -0.0500 C.3   1 <1>   0.3000 
 19 C      -11.3280     1.5840     0.0220 C.3   1 <1>   0.1200 
 20 C       -7.8530    -3.2640    -0.0270 C.3   1 <1>   0.1200 
 21 C       -9.2920    -1.7680    -1.4840 C.3   1 <1>  -0.2400 
 22 C      -10.0880    -2.4180     0.7890 C.3   1 <1>  -0.2400 
 23 O      -11.8360     1.6200    -1.2730 O.3   1 <1>  -0.5600 
 24 O       -7.2970    -3.4380     1.2360 O.3   1 <1>  -0.6800 
 25 C      -13.1750     1.2520    -1.3660 C.3   1 <1>   0.0400 
 26 H       -1.2920     1.6020     2.2680 H     1 <1>   0.1500 
 27 H       -2.2200     0.4450    -1.7180 H     1 <1>   0.1500 
 28 H       -3.6800     2.0520     2.6960 H     1 <1>   0.1500 
 29 H       -4.6020     0.9000    -1.3030 H     1 <1>   0.1500 
 30 H       -9.5940     2.5060     1.9570 H     1 <1>   0.4000 
 31 H       -8.9570    -0.2840     1.0680 H     1 <1>   0.3700 
 32 H       -9.3490     1.4300    -0.7690 H     1 <1>   0.0800 
 33 H       -9.7990     3.0540    -0.2940 H     1 <1>   0.0800 
 34 H      -11.8980     2.2590     0.6370 H     1 <1>   0.0800 
 35 H      -11.4110     0.5780     0.3920 H     1 <1>   0.0800 
 36 H       -7.0510    -3.1020    -0.7260 H     1 <1>   0.0800 
 37 H       -8.3510    -4.1790    -0.2960 H     1 <1>   0.0800 
 38 H       -8.4400    -1.5100    -2.0880 H     1 <1>   0.0800 
 39 H       -9.9940    -0.9540    -1.5030 H     1 <1>   0.0800 
 40 H       -9.7620    -2.6300    -1.9220 H     1 <1>   0.0800 
 41 H       -9.8060    -2.5990     1.8110 H     1 <1>   0.0800 
 42 H      -10.5550    -3.3110     0.4120 H     1 <1>   0.0800 
 43 H      -10.8090    -1.6240     0.7570 H     1 <1>   0.0800 
 44 H       -6.8400    -2.6110     1.4870 H     1 <1>   0.4000 
 45 H      -13.4670     1.3120    -2.4000 H     1 <1>   0.0800 
 46 H      -13.7730     1.9310    -0.7820 H     1 <1>   0.0800 
 47 H      -13.2940     0.2420    -1.0140 H     1 <1>   0.0800 
@<TRIPOS>BOND
  1   1   2  1   
  2   2   3  ar  
  3   2   4  ar  
  4   3   5  ar  
  5   3  26  1   
  6   4   6  ar  
  7   4  27  1   
  8   5   7  ar  
  9   5  28  1   
 10   6   7  ar  
 11   6  29  1   
 12   7   8  1   
 13   8   9  1   
 14   8  10  2   
 15   9  11  1   
 16  10  12  1   
 17  10  13  1   
 18  11  12  2   
 19  12  14  1   
 20  13  15  2   
 21  13  16  am  
 22  14  17  1   
 23  14  30  1   
 24  16  18  1   
 25  16  31  1   
 26  17  19  1   
 27  17  32  1   
 28  17  33  1   
 29  18  20  1   
 30  18  21  1   
 31  18  22  1   
 32  19  23  1   
 33  19  34  1   
 34  19  35  1   
 35  20  24  1   
 36  20  36  1   
 37  20  37  1   
 38  21  38  1   
 39  21  39  1   
 40  21  40  1   
 41  22  41  1   
 42  22  42  1   
 43  22  43  1   
 44  23  25  1   
 45  24  44  1   
 46  25  45  1   
 47  25  46  1   
 48  25  47  1   
@<TRIPOS>SUBSTRUCTURE
  1 ****  10 GROUP 4 **** **** 0

# MOE 2024.06 (io_trps.svl 2023.06)
