@<TRIPOS>MOLECULE
NONAME
45 47 1 0 0 
SMALL
USER_CHARGES


@<TRIPOS>ATOM
  1 O        0.2040    -1.5940    -0.7600 O.3   1 <1>  -0.5600 
  2 C       -0.0970    -2.1490     0.5040 C.3   1 <1>   0.4180 
  3 C       -0.3450    -0.3340    -1.0570 C.3   1 <1>   0.1200 
  4 C       -1.5370    -1.8590     0.9030 C.2   1 <1>  -0.2880 
  5 C        0.9060    -1.6030     1.5240 C.3   1 <1>  -0.1600 
  6 C        0.1070    -3.6630     0.3600 C.3   1 <1>  -0.1600 
  7 C       -1.8780    -0.3920    -1.0570 C.3   1 <1>  -0.0220 
  8 C       -2.3640    -1.0810     0.2020 C.2   1 <1>  -0.2760 
  9 C        2.3610    -1.8870     1.1290 C.3   1 <1>   0.3430 
 10 C        1.5790    -4.0880     0.3410 C.3   1 <1>   0.3430 
 11 C       -3.8160    -0.8200     0.5660 C.3   1 <1>  -0.1020 
 12 N        2.4400    -2.9120     0.0380 N.4   1 <1>  -0.9590 
 13 C        3.8270    -3.3100    -0.3580 C.3   1 <1>   0.3430 
 14 C        4.6040    -2.1570    -1.0040 C.3   1 <1>   0.0960 
 15 N        5.8970    -2.6800    -1.4680 N.pl3 1 <1>   0.0480 
 16 C        7.0580    -2.7970    -0.8130 C.2   1 <1>   0.0060 
 17 C        6.1690    -3.2330    -2.6520 C.2   1 <1>   0.0360 
 18 N        7.9450    -3.3820    -1.5360 N.2   1 <1>  -0.3380 
 19 C        7.3240    -2.3130     0.6000 C.3   1 <1>  -0.0600 
 20 N        7.3780    -3.6610    -2.7110 N.2   1 <1>  -0.3380 
 21 H        0.0120    -0.0330    -2.0270 H     1 <1>   0.0800 
 22 H       -0.0020     0.3750    -0.3240 H     1 <1>   0.0800 
 23 H       -1.8390    -2.3530     1.8100 H     1 <1>   0.1500 
 24 H        0.7130    -2.0620     2.4770 H     1 <1>   0.0800 
 25 H        0.7600    -0.5480     1.6620 H     1 <1>   0.0800 
 26 H       -0.3870    -3.9990    -0.5350 H     1 <1>   0.0800 
 27 H       -0.3680    -4.1710     1.1800 H     1 <1>   0.0800 
 28 H       -2.2290    -0.9210    -1.9260 H     1 <1>   0.0800 
 29 H       -2.2580     0.6130    -1.1020 H     1 <1>   0.0800 
 30 H        2.9090    -2.2210     1.9960 H     1 <1>   0.0800 
 31 H        2.8070    -0.9680     0.7840 H     1 <1>   0.0800 
 32 H        1.7150    -4.8570    -0.4030 H     1 <1>   0.0800 
 33 H        1.8510    -4.4960     1.3010 H     1 <1>   0.0800 
 34 H       -4.4610    -1.1430    -0.2320 H     1 <1>   0.0800 
 35 H       -3.9750     0.2300     0.7380 H     1 <1>   0.0800 
 36 H       -4.0850    -1.3550     1.4590 H     1 <1>   0.0800 
 37 H        1.9500    -2.4660    -0.7670 H     1 <1>   0.4500 
 38 H        3.7700    -4.1190    -1.0690 H     1 <1>   0.0800 
 39 H        4.3640    -3.6630     0.5080 H     1 <1>   0.0800 
 40 H        4.7820    -1.3660    -0.3000 H     1 <1>   0.0800 
 41 H        4.0690    -1.7700    -1.8530 H     1 <1>   0.0800 
 42 H        5.4600    -3.3130    -3.4560 H     1 <1>   0.1500 
 43 H        6.6900    -2.8210     1.3010 H     1 <1>   0.0800 
 44 H        7.1660    -1.2520     0.6670 H     1 <1>   0.0800 
 45 H        8.3480    -2.5170     0.8620 H     1 <1>   0.0800 
@<TRIPOS>BOND
  1   1   2  1   
  2   1   3  1   
  3   2   4  1   
  4   2   5  1   
  5   2   6  1   
  6   3   7  1   
  7   3  21  1   
  8   3  22  1   
  9   4   8  2   
 10   4  23  1   
 11   5   9  1   
 12   5  24  1   
 13   5  25  1   
 14   6  10  1   
 15   6  26  1   
 16   6  27  1   
 17   7   8  1   
 18   7  28  1   
 19   7  29  1   
 20   8  11  1   
 21   9  12  1   
 22   9  30  1   
 23   9  31  1   
 24  10  12  1   
 25  10  32  1   
 26  10  33  1   
 27  11  34  1   
 28  11  35  1   
 29  11  36  1   
 30  12  13  1   
 31  12  37  1   
 32  13  14  1   
 33  13  38  1   
 34  13  39  1   
 35  14  15  1   
 36  14  40  1   
 37  14  41  1   
 38  15  16  1   
 39  15  17  1   
 40  16  18  2   
 41  16  19  1   
 42  17  20  2   
 43  17  42  1   
 44  18  20  1   
 45  19  43  1   
 46  19  44  1   
 47  19  45  1   
@<TRIPOS>SUBSTRUCTURE
  1 ****  12 GROUP 4 **** **** 0

# MOE 2024.06 (io_trps.svl 2023.06)
