@<TRIPOS>MOLECULE
NONAME
52 54 1 0 0 
SMALL
USER_CHARGES


@<TRIPOS>ATOM
  1 O        0.8750    -0.9890     1.2320 O.3   1 <1>  -0.3630 
  2 C        0.8520     0.3290     1.0540 C.ar  1 <1>   0.3920 
  3 C        1.9030    -1.5620     0.4370 C.3   1 <1>   0.2000 
  4 N       -0.1420     1.0660     1.4700 N.ar  1 <1>  -0.6200 
  5 C        1.9240     0.7890     0.3540 C.ar  1 <1>  -0.1440 
  6 C        2.8070    -0.3800     0.0210 C.3   1 <1>  -0.0160 
  7 C        1.2530    -2.2810    -0.7730 C.3   1 <1>   0.3430 
  8 C        0.0080     2.3490     1.1810 C.ar  1 <1>   0.4760 
  9 C        1.9740     2.1360     0.0990 C.ar  1 <1>   0.1660 
 10 N       -0.1790    -2.6820    -0.5300 N.4   1 <1>  -0.9590 
 11 N        1.0020     2.9230     0.5150 N.ar  1 <1>  -0.6200 
 12 C       -1.0850     3.2770     1.6530 C.3   1 <1>  -0.0970 
 13 C        3.1120     2.7900    -0.6560 C.3   1 <1>  -0.0970 
 14 C       -0.5030    -4.0030    -1.1380 C.3   1 <1>   0.3430 
 15 C       -1.1270    -1.5970    -0.9590 C.3   1 <1>   0.2630 
 16 C       -1.7770    -4.5690    -0.5180 C.3   1 <1>  -0.1600 
 17 C       -2.0430    -5.9990    -1.0160 C.3   1 <1>   0.0960 
 18 N       -3.1180    -6.6160    -0.2200 N.pl3 1 <1>   0.3140 
 19 N       -2.8800    -6.9900     1.0480 N.2   1 <1>  -0.7070 
 20 C       -4.3980    -6.8630    -0.5770 C.2   1 <1>  -0.3320 
 21 C       -4.0050    -7.4710     1.4700 C.2   1 <1>   0.1080 
 22 C       -4.9960    -7.4180     0.4980 C.2   1 <1>  -0.1500 
 23 C       -5.0150    -6.5650    -1.9340 C.3   1 <1>  -0.0600 
 24 C       -4.1810    -8.0190     2.8670 C.3   1 <1>  -0.0590 
 25 H        2.4420    -2.2650     1.0480 H     1 <1>   0.0800 
 26 H        3.0800    -0.4050    -1.0200 H     1 <1>   0.0800 
 27 H        3.6980    -0.3560     0.6250 H     1 <1>   0.0800 
 28 H        1.8460    -3.1520    -1.0000 H     1 <1>   0.0800 
 29 H        1.2990    -1.6350    -1.6350 H     1 <1>   0.0800 
 30 H       -0.2820    -2.7580     0.4990 H     1 <1>   0.4500 
 31 H       -1.7570     2.7660     2.3180 H     1 <1>   0.0800 
 32 H       -1.6350     3.6430     0.8070 H     1 <1>   0.0800 
 33 H       -0.6480     4.1090     2.1740 H     1 <1>   0.0800 
 34 H        3.8690     2.0780    -0.9220 H     1 <1>   0.0800 
 35 H        3.5550     3.5530    -0.0400 H     1 <1>   0.0800 
 36 H        2.7330     3.2510    -1.5500 H     1 <1>   0.0800 
 37 H        0.3050    -4.6910    -0.9470 H     1 <1>   0.0800 
 38 H       -0.6190    -3.9040    -2.2050 H     1 <1>   0.0800 
 39 H       -1.0740    -1.4480    -2.0250 H     1 <1>   0.0800 
 40 H       -0.8850    -0.6680    -0.4680 H     1 <1>   0.0800 
 41 H       -2.1390    -1.8560    -0.6950 H     1 <1>   0.0800 
 42 H       -2.6270    -3.9580    -0.7630 H     1 <1>   0.0800 
 43 H       -1.6600    -4.5980     0.5530 H     1 <1>   0.0800 
 44 H       -1.1670    -6.6090    -0.8920 H     1 <1>   0.0800 
 45 H       -2.3230    -6.0030    -2.0530 H     1 <1>   0.0800 
 46 H       -6.0100    -7.7560     0.6090 H     1 <1>   0.1500 
 47 H       -4.9570    -5.5140    -2.1500 H     1 <1>   0.0800 
 48 H       -6.0510    -6.8560    -1.9380 H     1 <1>   0.0800 
 49 H       -4.5060    -7.1160    -2.7040 H     1 <1>   0.0800 
 50 H       -3.5000    -8.8360     3.0180 H     1 <1>   0.0800 
 51 H       -5.1870    -8.3660     3.0110 H     1 <1>   0.0800 
 52 H       -3.9660    -7.2490     3.5840 H     1 <1>   0.0800 
@<TRIPOS>BOND
  1   1   2  1   
  2   1   3  1   
  3   2   4  ar  
  4   2   5  ar  
  5   3   6  1   
  6   3   7  1   
  7   3  25  1   
  8   4   8  ar  
  9   5   6  1   
 10   5   9  ar  
 11   6  26  1   
 12   6  27  1   
 13   7  10  1   
 14   7  28  1   
 15   7  29  1   
 16   8  11  ar  
 17   8  12  1   
 18   9  11  ar  
 19   9  13  1   
 20  10  14  1   
 21  10  15  1   
 22  10  30  1   
 23  12  31  1   
 24  12  32  1   
 25  12  33  1   
 26  13  34  1   
 27  13  35  1   
 28  13  36  1   
 29  14  16  1   
 30  14  37  1   
 31  14  38  1   
 32  15  39  1   
 33  15  40  1   
 34  15  41  1   
 35  16  17  1   
 36  16  42  1   
 37  16  43  1   
 38  17  18  1   
 39  17  44  1   
 40  17  45  1   
 41  18  19  1   
 42  18  20  1   
 43  19  21  2   
 44  20  22  2   
 45  20  23  1   
 46  21  22  1   
 47  21  24  1   
 48  22  46  1   
 49  23  47  1   
 50  23  48  1   
 51  23  49  1   
 52  24  50  1   
 53  24  51  1   
 54  24  52  1   
@<TRIPOS>SUBSTRUCTURE
  1 ****  10 GROUP 4 **** **** 0

# MOE 2024.06 (io_trps.svl 2023.06)
