@<TRIPOS>MOLECULE
NONAME
45 46 1 0 0 
SMALL
USER_CHARGES


@<TRIPOS>ATOM
  1 S       -0.8000     0.8730     0.5510 S.o2  1 <1>   1.0900 
  2 O       -1.5690     1.1590     1.7380 O.2   1 <1>  -0.6500 
  3 O       -0.4710    -0.4930     0.2290 O.2   1 <1>  -0.6500 
  4 C       -1.7440     1.4740    -0.8360 C.3   1 <1>  -0.0550 
  5 C        0.6880     1.8550     0.5650 C.3   1 <1>  -0.1350 
  6 C       -2.8410     0.4700    -1.1890 C.3   1 <1>   0.3430 
  7 N       -4.1890     0.8130    -0.6330 N.4   1 <1>  -0.9590 
  8 C       -4.2750     0.8170     0.8640 C.3   1 <1>   0.3430 
  9 C       -5.2520    -0.0450    -1.2170 C.3   1 <1>   0.3430 
 10 C       -5.7230     0.9800     1.3470 C.3   1 <1>  -0.1600 
 11 C       -6.6270     0.5700    -0.9340 C.3   1 <1>  -0.1600 
 12 C       -6.6500     1.5490     0.2590 C.3   1 <1>   0.2800 
 13 O       -6.0880     2.7540    -0.2190 O.3   1 <1>  -0.5600 
 14 C       -8.0950     1.7790     0.7730 C.3   1 <1>  -0.1600 
 15 C       -6.3610     3.9190     0.5140 C.3   1 <1>   0.1200 
 16 C       -8.7400     3.0340     0.1790 C.3   1 <1>   0.2800 
 17 C       -7.8610     4.2530     0.4750 C.3   1 <1>  -0.1600 
 18 O       -8.7750     2.8830    -1.1820 O.3   1 <1>  -0.6800 
 19 C      -10.1820     3.2270     0.6370 C.3   1 <1>  -0.2400 
 20 H       -1.0890     1.5410    -1.6830 H     1 <1>   0.0800 
 21 H       -2.1530     2.4480    -0.6490 H     1 <1>   0.0800 
 22 H        1.3210     1.5460     1.3750 H     1 <1>   0.0800 
 23 H        0.4580     2.8950     0.6980 H     1 <1>   0.0800 
 24 H        1.2350     1.7330    -0.3500 H     1 <1>   0.0800 
 25 H       -2.5500    -0.5170    -0.8610 H     1 <1>   0.0800 
 26 H       -2.9200     0.4360    -2.2640 H     1 <1>   0.0800 
 27 H       -4.4700     1.7760    -0.9020 H     1 <1>   0.4500 
 28 H       -3.7030     1.6480     1.2430 H     1 <1>   0.0800 
 29 H       -3.8520    -0.0880     1.2720 H     1 <1>   0.0800 
 30 H       -5.1970    -1.0280    -0.7770 H     1 <1>   0.0800 
 31 H       -5.1180    -0.1420    -2.2820 H     1 <1>   0.0800 
 32 H       -5.7340     1.6000     2.2250 H     1 <1>   0.0800 
 33 H       -6.0920     0.0170     1.6530 H     1 <1>   0.0800 
 34 H       -7.3020    -0.2460    -0.7490 H     1 <1>   0.0800 
 35 H       -6.9860     1.0630    -1.8200 H     1 <1>   0.0800 
 36 H       -8.0750     1.8980     1.8420 H     1 <1>   0.0800 
 37 H       -8.7170     0.9240     0.5830 H     1 <1>   0.0800 
 38 H       -5.7900     4.7260     0.0860 H     1 <1>   0.0800 
 39 H       -6.0330     3.7710     1.5290 H     1 <1>   0.0800 
 40 H       -8.0540     5.0310    -0.2450 H     1 <1>   0.0800 
 41 H       -8.1240     4.6580     1.4360 H     1 <1>   0.0800 
 42 H       -7.8610     2.9890    -1.5090 H     1 <1>   0.4000 
 43 H      -10.2250     3.3400     1.7040 H     1 <1>   0.0800 
 44 H      -10.7790     2.3760     0.3600 H     1 <1>   0.0800 
 45 H      -10.6010     4.1080     0.1840 H     1 <1>   0.0800 
@<TRIPOS>BOND
  1   1   2  2   
  2   1   3  2   
  3   1   4  1   
  4   1   5  1   
  5   4   6  1   
  6   4  20  1   
  7   4  21  1   
  8   5  22  1   
  9   5  23  1   
 10   5  24  1   
 11   6   7  1   
 12   6  25  1   
 13   6  26  1   
 14   7   8  1   
 15   7   9  1   
 16   7  27  1   
 17   8  10  1   
 18   8  28  1   
 19   8  29  1   
 20   9  11  1   
 21   9  30  1   
 22   9  31  1   
 23  10  12  1   
 24  10  32  1   
 25  10  33  1   
 26  11  12  1   
 27  11  34  1   
 28  11  35  1   
 29  12  13  1   
 30  12  14  1   
 31  13  15  1   
 32  14  16  1   
 33  14  36  1   
 34  14  37  1   
 35  15  17  1   
 36  15  38  1   
 37  15  39  1   
 38  16  17  1   
 39  16  18  1   
 40  16  19  1   
 41  17  40  1   
 42  17  41  1   
 43  18  42  1   
 44  19  43  1   
 45  19  44  1   
 46  19  45  1   
@<TRIPOS>SUBSTRUCTURE
  1 ****   8 GROUP 4 **** **** 0

# MOE 2024.06 (io_trps.svl 2023.06)
