@<TRIPOS>MOLECULE
NONAME
49 50 1 0 0 
SMALL
USER_CHARGES


@<TRIPOS>ATOM
  1 O       -0.3670     0.0020     0.8850 O.2   1 <1>  -0.5700 
  2 C       -1.3970     0.6340     0.8420 C.2   1 <1>   0.5690 
  3 N       -2.6170     0.0080     0.8550 N.am  1 <1>  -0.6600 
  4 C       -1.3100     2.1500     0.7800 C.3   1 <1>  -0.0990 
  5 C       -2.7310    -1.4840     0.8060 C.3   1 <1>   0.1400 
  6 C       -3.9550     0.6710     0.7770 C.3   1 <1>   0.1400 
  7 C        0.0980     2.6450     0.4420 C.3   1 <1>   0.1400 
  8 C       -3.5940    -1.9280    -0.3910 C.3   1 <1>   0.3440 
  9 C       -4.7430     0.1380    -0.4420 C.3   1 <1>   0.2000 
 10 N        0.1190     4.1270     0.4230 N.am  1 <1>  -0.7300 
 11 O       -4.8300    -1.2590    -0.3750 O.3   1 <1>  -0.5600 
 12 C       -3.8260    -3.4360    -0.3560 C.ar  1 <1>  -0.1430 
 13 C       -6.1780     0.7010    -0.5680 C.3   1 <1>  -0.0800 
 14 C       -0.3670     4.8920    -0.5850 C.2   1 <1>   0.5690 
 15 C       -2.9430    -4.2800    -1.0140 C.ar  1 <1>  -0.1500 
 16 C       -4.8980    -3.9890     0.3330 C.ar  1 <1>  -0.1500 
 17 C       -6.1800     2.2190    -0.8070 C.3   1 <1>  -0.2400 
 18 C       -7.0810     0.3650     0.6310 C.3   1 <1>  -0.2400 
 19 O       -0.9390     4.4230    -1.5370 O.2   1 <1>  -0.5700 
 20 C       -0.1880     6.3840    -0.4940 C.3   1 <1>  -0.1790 
 21 C       -3.1250    -5.6510    -0.9840 C.ar  1 <1>  -0.1500 
 22 C       -5.0820    -5.3600     0.3640 C.ar  1 <1>  -0.1500 
 23 C       -4.1960    -6.1930    -0.2950 C.ar  1 <1>  -0.1500 
 24 H       -1.9730     2.5020     0.0140 H     1 <1>   0.0800 
 25 H       -1.6150     2.5470     1.7300 H     1 <1>   0.0800 
 26 H       -1.7610    -1.9410     0.7240 H     1 <1>   0.0800 
 27 H       -3.1830    -1.8370     1.7160 H     1 <1>   0.0800 
 28 H       -4.5000     0.4520     1.6770 H     1 <1>   0.0800 
 29 H       -3.8590     1.7360     0.7060 H     1 <1>   0.0800 
 30 H        0.3870     2.2720    -0.5280 H     1 <1>   0.0800 
 31 H        0.8060     2.2850     1.1680 H     1 <1>   0.0800 
 32 H       -3.0930    -1.6690    -1.3080 H     1 <1>   0.0800 
 33 H       -4.2040     0.3880    -1.3400 H     1 <1>   0.0800 
 34 H        0.5960     4.5740     1.2070 H     1 <1>   0.3700 
 35 H       -6.6090     0.2430    -1.4430 H     1 <1>   0.0800 
 36 H       -2.1050    -3.8730    -1.5540 H     1 <1>   0.1500 
 37 H       -5.5950    -3.3480     0.8460 H     1 <1>   0.1500 
 38 H       -5.8310     2.7530     0.0590 H     1 <1>   0.0800 
 39 H       -7.1780     2.5550    -1.0280 H     1 <1>   0.0800 
 40 H       -5.5520     2.4690    -1.6450 H     1 <1>   0.0800 
 41 H       -6.7430     0.8550     1.5260 H     1 <1>   0.0800 
 42 H       -7.0930    -0.6970     0.8020 H     1 <1>   0.0800 
 43 H       -8.0900     0.6810     0.4320 H     1 <1>   0.0800 
 44 H       -0.6850     6.7570     0.3810 H     1 <1>   0.0800 
 45 H       -0.6110     6.8530    -1.3630 H     1 <1>   0.0800 
 46 H        0.8580     6.6210    -0.4450 H     1 <1>   0.0800 
 47 H       -2.4350    -6.2980    -1.4980 H     1 <1>   0.1500 
 48 H       -5.9170    -5.7770     0.8990 H     1 <1>   0.1500 
 49 H       -4.3390    -7.2590    -0.2710 H     1 <1>   0.1500 
@<TRIPOS>BOND
  1   1   2  2   
  2   2   3  am  
  3   2   4  1   
  4   3   5  1   
  5   3   6  1   
  6   4   7  1   
  7   4  24  1   
  8   4  25  1   
  9   5   8  1   
 10   5  26  1   
 11   5  27  1   
 12   6   9  1   
 13   6  28  1   
 14   6  29  1   
 15   7  10  1   
 16   7  30  1   
 17   7  31  1   
 18   8  11  1   
 19   8  12  1   
 20   8  32  1   
 21   9  11  1   
 22   9  13  1   
 23   9  33  1   
 24  10  14  am  
 25  10  34  1   
 26  12  15  ar  
 27  12  16  ar  
 28  13  17  1   
 29  13  18  1   
 30  13  35  1   
 31  14  19  2   
 32  14  20  1   
 33  15  21  ar  
 34  15  36  1   
 35  16  22  ar  
 36  16  37  1   
 37  17  38  1   
 38  17  39  1   
 39  17  40  1   
 40  18  41  1   
 41  18  42  1   
 42  18  43  1   
 43  20  44  1   
 44  20  45  1   
 45  20  46  1   
 46  21  23  ar  
 47  21  47  1   
 48  22  23  ar  
 49  22  48  1   
 50  23  49  1   
@<TRIPOS>SUBSTRUCTURE
  1 ****   3 GROUP 4 **** **** 0

# MOE 2024.06 (io_trps.svl 2023.06)
