@<TRIPOS>MOLECULE
NONAME
57 60 1 0 0 
SMALL
USER_CHARGES


@<TRIPOS>ATOM
  1 O        0.3680     0.6300     1.0430 O.3   1 <1>  -0.0190 
  2 N        1.0940    -0.4120     0.7570 N.2   1 <1>  -0.4100 
  3 C        0.6570     1.6530     0.2840 C.2   1 <1>  -0.0400 
  4 C        1.8640    -0.0550    -0.2070 C.2   1 <1>   0.1080 
  5 C        1.6300     1.2710    -0.5600 C.2   1 <1>  -0.1500 
  6 C       -0.1030     2.9530     0.4860 C.3   1 <1>   0.0200 
  7 C        2.8800    -0.9630    -0.8630 C.3   1 <1>  -0.0590 
  8 C        0.5570     4.1470    -0.2270 C.3   1 <1>  -0.0800 
  9 C       -0.2450     5.4490    -0.1740 C.3   1 <1>   0.2000 
 10 C        1.9120     4.5310     0.3680 C.3   1 <1>   0.2090 
 11 O       -0.7630     5.5980     1.1200 O.3   1 <1>  -0.5600 
 12 C        0.8120     6.5250    -0.4580 C.3   1 <1>   0.2090 
 13 N        2.1170     5.9520    -0.0130 N.pl3 1 <1>  -0.8380 
 14 C       -1.8120     6.5070     1.2400 C.3   1 <1>   0.0400 
 15 C        3.2440     6.6910     0.1400 C.ar  1 <1>   0.4100 
 16 N        3.2310     7.9240    -0.3280 N.ar  1 <1>  -0.6200 
 17 C        4.3820     6.1610     0.7770 C.ar  1 <1>  -0.1500 
 18 C        4.3190     8.6680    -0.1900 C.ar  1 <1>   0.7710 
 19 C        5.4830     6.9360     0.9160 C.ar  1 <1>   0.2180 
 20 N        5.4190     8.1930     0.4200 N.ar  1 <1>  -0.1790 
 21 N        4.3310     9.9430    -0.6680 N.pl3 1 <1>  -0.8380 
 22 C        6.7620     6.4730     1.5930 C.3   1 <1>  -0.0970 
 23 C        5.5000    10.8760    -0.7350 C.3   1 <1>   0.2090 
 24 C        3.0870    10.6000    -1.1910 C.3   1 <1>   0.2090 
 25 C        5.2270    12.0850     0.1630 C.3   1 <1>  -0.1600 
 26 C        2.7600    11.8170    -0.3200 C.3   1 <1>  -0.1600 
 27 C        3.9350    12.8040    -0.2490 C.3   1 <1>  -0.1600 
 28 H        2.1310     1.8140    -1.3380 H     1 <1>   0.1500 
 29 H       -1.1060     2.8220     0.1200 H     1 <1>   0.0800 
 30 H       -0.1670     3.1510     1.5420 H     1 <1>   0.0800 
 31 H        3.8580    -0.5240    -0.8000 H     1 <1>   0.0800 
 32 H        2.6220    -1.1130    -1.8950 H     1 <1>   0.0800 
 33 H        2.8940    -1.9170    -0.3670 H     1 <1>   0.0800 
 34 H        0.7060     3.8980    -1.2620 H     1 <1>   0.0800 
 35 H       -1.0530     5.4580    -0.8860 H     1 <1>   0.0800 
 36 H        2.7000     3.9060    -0.0160 H     1 <1>   0.0800 
 37 H        1.8780     4.4590     1.4430 H     1 <1>   0.0800 
 38 H        0.5960     7.4430     0.0590 H     1 <1>   0.0800 
 39 H        0.8650     6.7160    -1.5160 H     1 <1>   0.0800 
 40 H       -2.1160     6.5290     2.2710 H     1 <1>   0.0800 
 41 H       -2.6360     6.1830     0.6280 H     1 <1>   0.0800 
 42 H       -1.4800     7.4870     0.9430 H     1 <1>   0.0800 
 43 H        4.3520     5.1550     1.1480 H     1 <1>   0.1500 
 44 H        6.1830     8.8470     0.5040 H     1 <1>   0.4570 
 45 H        6.6590     5.4580     1.9360 H     1 <1>   0.0800 
 46 H        6.9820     7.0930     2.4450 H     1 <1>   0.0800 
 47 H        7.5880     6.5130     0.9050 H     1 <1>   0.0800 
 48 H        6.4170    10.4010    -0.4390 H     1 <1>   0.0800 
 49 H        5.6230    11.2100    -1.7530 H     1 <1>   0.0800 
 50 H        3.2510    10.9140    -2.2090 H     1 <1>   0.0800 
 51 H        2.2420     9.9330    -1.1920 H     1 <1>   0.0800 
 52 H        5.1500    11.7630     1.1870 H     1 <1>   0.0800 
 53 H        6.0520    12.7740     0.0970 H     1 <1>   0.0800 
 54 H        1.8960    12.3160    -0.7200 H     1 <1>   0.0800 
 55 H        2.5090    11.4770     0.6700 H     1 <1>   0.0800 
 56 H        4.0720    13.2600    -1.2150 H     1 <1>   0.0800 
 57 H        3.7100    13.5880     0.4550 H     1 <1>   0.0800 
@<TRIPOS>BOND
  1   1   2  1   
  2   1   3  1   
  3   2   4  2   
  4   3   5  2   
  5   3   6  1   
  6   4   5  1   
  7   4   7  1   
  8   5  28  1   
  9   6   8  1   
 10   6  29  1   
 11   6  30  1   
 12   7  31  1   
 13   7  32  1   
 14   7  33  1   
 15   8   9  1   
 16   8  10  1   
 17   8  34  1   
 18   9  11  1   
 19   9  12  1   
 20   9  35  1   
 21  10  13  1   
 22  10  36  1   
 23  10  37  1   
 24  11  14  1   
 25  12  13  1   
 26  12  38  1   
 27  12  39  1   
 28  13  15  1   
 29  14  40  1   
 30  14  41  1   
 31  14  42  1   
 32  15  16  ar  
 33  15  17  ar  
 34  16  18  ar  
 35  17  19  ar  
 36  17  43  1   
 37  18  20  ar  
 38  18  21  1   
 39  19  20  ar  
 40  19  22  1   
 41  20  44  1   
 42  21  23  1   
 43  21  24  1   
 44  22  45  1   
 45  22  46  1   
 46  22  47  1   
 47  23  25  1   
 48  23  48  1   
 49  23  49  1   
 50  24  26  1   
 51  24  50  1   
 52  24  51  1   
 53  25  27  1   
 54  25  52  1   
 55  25  53  1   
 56  26  27  1   
 57  26  54  1   
 58  26  55  1   
 59  27  56  1   
 60  27  57  1   
@<TRIPOS>SUBSTRUCTURE
  1 ****  13 GROUP 4 **** **** 0

# MOE 2024.06 (io_trps.svl 2023.06)
