@<TRIPOS>MOLECULE
NONAME
43 44 1 0 0 
SMALL
USER_CHARGES


@<TRIPOS>ATOM
  1 S       -0.9810     1.0870     0.8670 S.o2  1 <1>   1.2040 
  2 O       -0.7970     0.5900     2.2130 O.2   1 <1>  -0.6500 
  3 O       -1.9670     2.1160     0.6160 O.2   1 <1>  -0.6500 
  4 C       -1.2380    -0.2980    -0.2670 C.ar  1 <1>  -0.0090 
  5 C        0.5950     1.7150     0.3190 C.3   1 <1>  -0.0550 
  6 C       -1.9330    -0.1300    -1.4590 C.ar  1 <1>  -0.1500 
  7 C       -0.7170    -1.5560     0.0100 C.ar  1 <1>  -0.1500 
  8 C        1.0020     2.9380     1.1370 C.3   1 <1>   0.1100 
  9 C       -2.1010    -1.1790    -2.3470 C.ar  1 <1>  -0.1500 
 10 C       -0.8790    -2.6110    -0.8720 C.ar  1 <1>  -0.1500 
 11 N        2.2960     3.4470     0.6590 N.3   1 <1>  -0.8100 
 12 C       -1.5720    -2.4210    -2.0530 C.ar  1 <1>  -0.1500 
 13 C        2.4580     4.8730     1.0100 C.3   1 <1>   0.2530 
 14 C        3.4350     2.6240     1.1350 C.3   1 <1>   0.1100 
 15 C        3.6930     5.4690     0.3470 C.ar  1 <1>  -0.1430 
 16 C        4.3330     2.2310    -0.0410 C.3   1 <1>   0.1200 
 17 C        3.7390     5.5950    -1.0360 C.ar  1 <1>  -0.1500 
 18 C        4.7730     5.8880     1.1170 C.ar  1 <1>  -0.1500 
 19 O        5.3630     1.4250     0.4200 O.3   1 <1>  -0.6800 
 20 C        4.8550     6.1350    -1.6540 C.ar  1 <1>  -0.1500 
 21 C        5.8950     6.4280     0.5110 C.ar  1 <1>  -0.1500 
 22 C        5.9140     6.5410    -0.8660 C.ar  1 <1>   0.1900 
 23 F        6.9700     7.0500    -1.4410 F     1 <1>  -0.1900 
 24 H        0.5320     2.0000    -0.7130 H     1 <1>   0.0800 
 25 H        1.3370     0.9490     0.4200 H     1 <1>   0.0800 
 26 H       -2.3540     0.8340    -1.6970 H     1 <1>   0.1500 
 27 H       -0.1790    -1.7170     0.9300 H     1 <1>   0.1500 
 28 H        1.0570     2.6950     2.1860 H     1 <1>   0.0800 
 29 H        0.2420     3.6930     1.0090 H     1 <1>   0.0800 
 30 H       -2.6450    -1.0280    -3.2640 H     1 <1>   0.1500 
 31 H       -0.4690    -3.5780    -0.6380 H     1 <1>   0.1500 
 32 H       -1.7000    -3.2400    -2.7410 H     1 <1>   0.1500 
 33 H        2.5160     4.9810     2.0790 H     1 <1>   0.0800 
 34 H        1.5980     5.4240     0.6680 H     1 <1>   0.0800 
 35 H        3.0790     1.7210     1.5990 H     1 <1>   0.0800 
 36 H        4.0110     3.1650     1.8660 H     1 <1>   0.0800 
 37 H        4.7650     3.0950    -0.5130 H     1 <1>   0.0800 
 38 H        3.7710     1.6670    -0.7640 H     1 <1>   0.0800 
 39 H        2.9030     5.2650    -1.6290 H     1 <1>   0.1500 
 40 H        4.7450     5.7960     2.1890 H     1 <1>   0.1500 
 41 H        6.0210     1.9590     0.9070 H     1 <1>   0.4000 
 42 H        4.9060     6.2390    -2.7230 H     1 <1>   0.1500 
 43 H        6.7390     6.7580     1.0890 H     1 <1>   0.1500 
@<TRIPOS>BOND
  1   1   2  2   
  2   1   3  2   
  3   1   4  1   
  4   1   5  1   
  5   4   6  ar  
  6   4   7  ar  
  7   5   8  1   
  8   5  24  1   
  9   5  25  1   
 10   6   9  ar  
 11   6  26  1   
 12   7  10  ar  
 13   7  27  1   
 14   8  11  1   
 15   8  28  1   
 16   8  29  1   
 17   9  12  ar  
 18   9  30  1   
 19  10  12  ar  
 20  10  31  1   
 21  11  13  1   
 22  11  14  1   
 23  12  32  1   
 24  13  15  1   
 25  13  33  1   
 26  13  34  1   
 27  14  16  1   
 28  14  35  1   
 29  14  36  1   
 30  15  17  ar  
 31  15  18  ar  
 32  16  19  1   
 33  16  37  1   
 34  16  38  1   
 35  17  20  ar  
 36  17  39  1   
 37  18  21  ar  
 38  18  40  1   
 39  19  41  1   
 40  20  22  ar  
 41  20  42  1   
 42  21  22  ar  
 43  21  43  1   
 44  22  23  1   
@<TRIPOS>SUBSTRUCTURE
  1 ****  11 GROUP 4 **** **** 0

# MOE 2024.06 (io_trps.svl 2023.06)
