@<TRIPOS>MOLECULE
NONAME
43 45 1 0 0 
SMALL
USER_CHARGES


@<TRIPOS>ATOM
  1 O       -2.0720    -0.6010    -2.7170 O.2   1 <1>  -0.5700 
  2 C       -2.1750    -0.8720    -1.5480 C.2   1 <1>   0.5690 
  3 N       -2.0730     0.0740    -0.5680 N.am  1 <1>  -0.6600 
  4 C       -2.4750    -2.3060    -1.1960 C.3   1 <1>  -0.0190 
  5 C       -2.2610    -0.2350     0.8790 C.3   1 <1>   0.2200 
  6 C       -1.7060     1.4880    -0.8900 C.3   1 <1>   0.0600 
  7 C       -1.3850    -2.9340    -0.3020 C.3   1 <1>   0.1200 
  8 C       -3.9220    -2.3920    -0.6970 C.3   1 <1>   0.3430 
  9 C       -1.1940    -1.2420     1.3720 C.3   1 <1>   0.1200 
 10 C       -3.7260    -0.6650     1.1700 C.3   1 <1>   0.3430 
 11 O       -1.5040    -2.5710     1.0460 O.3   1 <1>  -0.5600 
 12 N       -4.0770    -2.0710     0.7620 N.4   1 <1>  -0.9590 
 13 C       -5.3830    -2.5220     1.3070 C.3   1 <1>   0.5240 
 14 C       -5.5200    -4.0050     1.0490 C.2   1 <1>  -0.1810 
 15 C       -6.3490    -4.6720     0.2140 C.2   1 <1>  -0.3320 
 16 C       -4.7510    -4.9930     1.6530 C.2   1 <1>   0.1390 
 17 N       -6.0530    -5.9870     0.3450 N.pl3 1 <1>   0.3140 
 18 C       -7.4320    -4.1450    -0.7180 C.3   1 <1>  -0.0600 
 19 N       -5.0580    -6.1730     1.2250 N.2   1 <1>  -0.7070 
 20 C       -6.6860    -7.1270    -0.3340 C.3   1 <1>   0.0160 
 21 H       -2.4450    -2.8450    -2.1260 H     1 <1>   0.0800 
 22 H       -2.0930     0.6810     1.4200 H     1 <1>   0.0800 
 23 H       -2.4890     2.1550    -0.5730 H     1 <1>   0.0800 
 24 H       -1.5610     1.6180    -1.9500 H     1 <1>   0.0800 
 25 H       -0.7900     1.7530    -0.3920 H     1 <1>   0.0800 
 26 H       -0.4000    -2.6660    -0.6500 H     1 <1>   0.0800 
 27 H       -1.4680    -4.0080    -0.3410 H     1 <1>   0.0800 
 28 H       -4.2580    -3.4020    -0.8700 H     1 <1>   0.0800 
 29 H       -4.5430    -1.7380    -1.2880 H     1 <1>   0.0800 
 30 H       -1.1360    -1.1970     2.4460 H     1 <1>   0.0800 
 31 H       -0.2210    -0.9980     0.9780 H     1 <1>   0.0800 
 32 H       -4.3890     0.0320     0.6870 H     1 <1>   0.0800 
 33 H       -3.8790    -0.5750     2.2330 H     1 <1>   0.0800 
 34 H       -3.3450    -2.6620     1.2040 H     1 <1>   0.4500 
 35 H       -5.4320    -2.3390     2.3680 H     1 <1>   0.0800 
 36 H       -6.1900    -1.9930     0.8270 H     1 <1>   0.0800 
 37 H       -3.9810    -4.8280     2.3890 H     1 <1>   0.1500 
 38 H       -7.5000    -3.0740    -0.6690 H     1 <1>   0.0800 
 39 H       -8.3880    -4.5560    -0.4420 H     1 <1>   0.0800 
 40 H       -7.2190    -4.4260    -1.7350 H     1 <1>   0.0800 
 41 H       -6.5690    -7.0180    -1.3960 H     1 <1>   0.0800 
 42 H       -7.7280    -7.1570    -0.0790 H     1 <1>   0.0800 
 43 H       -6.2130    -8.0360    -0.0120 H     1 <1>   0.0800 
@<TRIPOS>BOND
  1   1   2  2   
  2   2   3  am  
  3   2   4  1   
  4   3   5  1   
  5   3   6  1   
  6   4   7  1   
  7   4   8  1   
  8   4  21  1   
  9   5   9  1   
 10   5  10  1   
 11   5  22  1   
 12   6  23  1   
 13   6  24  1   
 14   6  25  1   
 15   7  11  1   
 16   7  26  1   
 17   7  27  1   
 18   8  12  1   
 19   8  28  1   
 20   8  29  1   
 21   9  11  1   
 22   9  30  1   
 23   9  31  1   
 24  10  12  1   
 25  10  32  1   
 26  10  33  1   
 27  12  13  1   
 28  12  34  1   
 29  13  14  1   
 30  13  35  1   
 31  13  36  1   
 32  14  15  2   
 33  14  16  1   
 34  15  17  1   
 35  15  18  1   
 36  16  19  2   
 37  16  37  1   
 38  17  19  1   
 39  17  20  1   
 40  18  38  1   
 41  18  39  1   
 42  18  40  1   
 43  20  41  1   
 44  20  42  1   
 45  20  43  1   
@<TRIPOS>SUBSTRUCTURE
  1 ****   8 GROUP 4 **** **** 0

# MOE 2024.06 (io_trps.svl 2023.06)
