@<TRIPOS>MOLECULE
NONAME
37 38 1 0 0 
SMALL
USER_CHARGES


@<TRIPOS>ATOM
  1 O        0.6830    -0.3150     1.8130 O.2   1 <1>  -0.5700 
  2 C        1.4490    -0.7000     0.9520 C.2   1 <1>   0.5440 
  3 N        2.2780     0.1850     0.3150 N.am  1 <1>  -0.4930 
  4 C        1.5040    -2.0960     0.5810 C.ar  1 <1>   0.0860 
  5 C        2.4280     1.5800     0.5140 C.2   1 <1>   0.0630 
  6 C        0.3880    -2.7970     0.1060 C.ar  1 <1>   0.1660 
  7 C        2.7000    -2.7960     0.6790 C.ar  1 <1>  -0.1500 
  8 C        1.8090     2.4230     1.4390 C.2   1 <1>   0.1390 
  9 C        3.2420     2.3950    -0.1880 C.2   1 <1>  -0.3020 
 10 N        0.4000    -4.0680    -0.2630 N.ar  1 <1>  -0.6200 
 11 C       -0.9620    -2.1110    -0.0250 C.3   1 <1>  -0.0970 
 12 C        2.7150    -4.1190     0.3000 C.ar  1 <1>  -0.1500 
 13 N        2.2010     3.6570     1.3240 N.2   1 <1>  -0.7070 
 14 N        3.0910     3.6440     0.3140 N.pl3 1 <1>   0.3140 
 15 C        1.5510    -4.7070    -0.1610 C.ar  1 <1>   0.1670 
 16 C        3.7800     4.8850    -0.1350 C.3   1 <1>   0.1760 
 17 C        1.5390    -6.1600    -0.5830 C.3   1 <1>  -0.0970 
 18 C        3.4310     5.2050    -1.5950 C.3   1 <1>  -0.2400 
 19 C        5.2980     4.7650     0.0550 C.3   1 <1>  -0.2400 
 20 H        2.8520    -0.1990    -0.4340 H     1 <1>   0.3700 
 21 H        3.5890    -2.3170     1.0510 H     1 <1>   0.1500 
 22 H        1.0870     2.0940     2.1670 H     1 <1>   0.1500 
 23 H        3.9060     2.1690    -0.9990 H     1 <1>   0.1500 
 24 H       -0.8560    -1.1350    -0.4600 H     1 <1>   0.0800 
 25 H       -1.4120    -2.0150     0.9470 H     1 <1>   0.0800 
 26 H       -1.6190    -2.6890    -0.6500 H     1 <1>   0.0800 
 27 H        3.6240    -4.6900     0.3660 H     1 <1>   0.1500 
 28 H        3.4190     5.6870     0.4870 H     1 <1>   0.0800 
 29 H        0.8340    -6.7020     0.0210 H     1 <1>   0.0800 
 30 H        2.5100    -6.6070    -0.4710 H     1 <1>   0.0800 
 31 H        1.2380    -6.2330    -1.6120 H     1 <1>   0.0800 
 32 H        3.7900     4.4340    -2.2530 H     1 <1>   0.0800 
 33 H        3.8800     6.1380    -1.8840 H     1 <1>   0.0800 
 34 H        2.3640     5.2960    -1.7040 H     1 <1>   0.0800 
 35 H        5.7020     3.9850    -0.5640 H     1 <1>   0.0800 
 36 H        5.5210     4.5520     1.0860 H     1 <1>   0.0800 
 37 H        5.7750     5.6920    -0.2070 H     1 <1>   0.0800 
@<TRIPOS>BOND
  1   1   2  2   
  2   2   3  am  
  3   2   4  1   
  4   3   5  1   
  5   3  20  1   
  6   4   6  ar  
  7   4   7  ar  
  8   5   8  1   
  9   5   9  2   
 10   6  10  ar  
 11   6  11  1   
 12   7  12  ar  
 13   7  21  1   
 14   8  13  2   
 15   8  22  1   
 16   9  14  1   
 17   9  23  1   
 18  10  15  ar  
 19  11  24  1   
 20  11  25  1   
 21  11  26  1   
 22  12  15  ar  
 23  12  27  1   
 24  13  14  1   
 25  14  16  1   
 26  15  17  1   
 27  16  18  1   
 28  16  19  1   
 29  16  28  1   
 30  17  29  1   
 31  17  30  1   
 32  17  31  1   
 33  18  32  1   
 34  18  33  1   
 35  18  34  1   
 36  19  35  1   
 37  19  36  1   
 38  19  37  1   
@<TRIPOS>SUBSTRUCTURE
  1 ****   3 GROUP 4 **** **** 0

# MOE 2024.06 (io_trps.svl 2023.06)
