@<TRIPOS>MOLECULE
NONAME
42 44 1 0 0 
SMALL
USER_CHARGES


@<TRIPOS>ATOM
  1 O        0.0200     1.0830     0.3230 O.co2 1 <1>  -0.9000 
  2 C       -0.9150     0.3110     0.5940 C.2   1 <1>   0.9060 
  3 O       -0.7680    -0.8620     0.9340 O.co2 1 <1>  -0.9000 
  4 C       -2.3260     0.9240     0.4960 C.3   1 <1>   0.3170 
  5 N       -2.2380     2.4050     0.2240 N.4   1 <1>  -0.9590 
  6 C       -3.1660     0.3540    -0.6510 C.3   1 <1>  -0.1600 
  7 C       -3.1230     2.7300    -0.9250 C.3   1 <1>   0.3430 
  8 C       -2.4600     3.2060     1.4390 C.3   1 <1>   0.4860 
  9 C       -4.0420     1.5160    -1.0880 C.3   1 <1>   0.2000 
 10 C       -2.1230     4.6490     1.1220 C.ar  1 <1>  -0.1430 
 11 O       -5.0940     1.6260    -0.1860 O.3   1 <1>  -0.6800 
 12 C       -0.7990     5.0100     0.8930 C.ar  1 <1>  -0.1500 
 13 C       -3.1330     5.6070     1.0470 C.ar  1 <1>  -0.1500 
 14 C       -0.5120     6.3250     0.5850 C.ar  1 <1>  -0.1430 
 15 C       -2.8300     6.9230     0.7380 C.ar  1 <1>  -0.1500 
 16 C       -1.5100     7.2570     0.5070 C.ar  1 <1>   0.0830 
 17 C        0.7940     7.0000     0.2900 C.3   1 <1>  -0.0170 
 18 O       -1.0600     8.4810     0.1900 O.3   1 <1>  -0.3620 
 19 C        0.3460     8.4540    -0.0020 C.3   1 <1>   0.2800 
 20 C        0.6100     8.8600    -1.4540 C.3   1 <1>  -0.2400 
 21 C        0.9590     9.4620     0.9730 C.3   1 <1>  -0.2400 
 22 H       -2.8360     0.7510     1.4260 H     1 <1>   0.0800 
 23 H       -1.2270     2.5010    -0.0270 H     1 <1>   0.4500 
 24 H       -3.7210    -0.5150    -0.3460 H     1 <1>   0.0800 
 25 H       -2.5090     0.0700    -1.4550 H     1 <1>   0.0800 
 26 H       -3.6910     3.6300    -0.7610 H     1 <1>   0.0800 
 27 H       -2.5210     2.8440    -1.8110 H     1 <1>   0.0800 
 28 H       -3.4870     3.1200     1.7540 H     1 <1>   0.0800 
 29 H       -1.8190     2.8540     2.2310 H     1 <1>   0.0800 
 30 H       -4.4390     1.4180    -2.0850 H     1 <1>   0.0800 
 31 H       -5.6920     0.8540    -0.2610 H     1 <1>   0.4000 
 32 H       -0.0030     4.2830     0.9500 H     1 <1>   0.1500 
 33 H       -4.1590     5.3360     1.2280 H     1 <1>   0.1500 
 34 H       -3.5900     7.6810     0.6740 H     1 <1>   0.1500 
 35 H        1.2790     6.5510    -0.5570 H     1 <1>   0.0800 
 36 H        1.4480     6.9480     1.1410 H     1 <1>   0.0800 
 37 H        1.6650     8.8550    -1.6550 H     1 <1>   0.0800 
 38 H        0.2320     9.8500    -1.6360 H     1 <1>   0.0800 
 39 H        0.1270     8.1720    -2.1240 H     1 <1>   0.0800 
 40 H        2.0280     9.4760     0.8690 H     1 <1>   0.0800 
 41 H        0.7150     9.1930     1.9850 H     1 <1>   0.0800 
 42 H        0.5820    10.4490     0.7720 H     1 <1>   0.0800 
@<TRIPOS>BOND
  1   1   2  ar  
  2   2   3  ar  
  3   2   4  1   
  4   4   5  1   
  5   4   6  1   
  6   4  22  1   
  7   5   7  1   
  8   5   8  1   
  9   5  23  1   
 10   6   9  1   
 11   6  24  1   
 12   6  25  1   
 13   7   9  1   
 14   7  26  1   
 15   7  27  1   
 16   8  10  1   
 17   8  28  1   
 18   8  29  1   
 19   9  11  1   
 20   9  30  1   
 21  10  12  ar  
 22  10  13  ar  
 23  11  31  1   
 24  12  14  ar  
 25  12  32  1   
 26  13  15  ar  
 27  13  33  1   
 28  14  16  ar  
 29  14  17  1   
 30  15  16  ar  
 31  15  34  1   
 32  16  18  1   
 33  17  19  1   
 34  17  35  1   
 35  17  36  1   
 36  18  19  1   
 37  19  20  1   
 38  19  21  1   
 39  20  37  1   
 40  20  38  1   
 41  20  39  1   
 42  21  40  1   
 43  21  41  1   
 44  21  42  1   
@<TRIPOS>SUBSTRUCTURE
  1 ****  10 GROUP 4 **** **** 0

# MOE 2024.06 (io_trps.svl 2023.06)
