@<TRIPOS>MOLECULE
NONAME
41 42 1 0 0 
SMALL
USER_CHARGES


@<TRIPOS>ATOM
  1 O       -0.6490     5.5440     3.2490 O.co2 1 <1>  -0.9000 
  2 C       -0.0270     6.0300     2.2940 C.2   1 <1>   1.0330 
  3 O        0.1470     7.2780     2.2530 O.co2 1 <1>  -0.9000 
  4 C        0.6670     5.2070     1.3080 C.2   1 <1>  -0.0060 
  5 N        0.6350     5.4040    -0.0490 N.2   1 <1>  -0.5650 
  6 C        1.6760     4.3490     1.5610 C.2   1 <1>  -0.0100 
  7 C        1.7400     4.8920    -0.4450 C.2   1 <1>   0.2980 
  8 O        2.3510     4.1640     0.4600 O.3   1 <1>  -0.2800 
  9 C        2.4440     5.2770    -1.7490 C.3   1 <1>   0.2900 
 10 N        3.5030     6.3520    -1.5640 N.3   1 <1>  -0.8100 
 11 C        3.0450     7.7300    -1.1660 C.3   1 <1>   0.1100 
 12 C        4.3910     6.3890    -2.7350 C.3   1 <1>   0.1100 
 13 C        2.1270     7.7240     0.0690 C.3   1 <1>   0.3430 
 14 C        5.7530     6.9700    -2.3610 C.3   1 <1>  -0.2400 
 15 N        1.9900     8.8800     0.9790 N.4   1 <1>  -0.9590 
 16 C        1.3980    10.1030     0.3700 C.3   1 <1>   0.3430 
 17 C        3.1930     9.1450     1.8160 C.3   1 <1>   0.3430 
 18 C        1.2420    11.2130     1.4260 C.3   1 <1>   0.1200 
 19 C        2.9340    10.3140     2.7850 C.3   1 <1>   0.1200 
 20 O        2.4580    11.4340     2.0900 O.3   1 <1>  -0.5600 
 21 H        2.0130     3.9180     2.4870 H     1 <1>   0.1500 
 22 H        1.7090     5.6160    -2.4560 H     1 <1>   0.0800 
 23 H        2.8970     4.3820    -2.1380 H     1 <1>   0.0800 
 24 H        2.5220     8.1870    -1.9880 H     1 <1>   0.0800 
 25 H        3.9060     8.3260    -0.9300 H     1 <1>   0.0800 
 26 H        3.9410     6.9590    -3.5310 H     1 <1>   0.0800 
 27 H        4.5560     5.3870    -3.0950 H     1 <1>   0.0800 
 28 H        2.4380     6.8920     0.6770 H     1 <1>   0.0800 
 29 H        1.1380     7.5160    -0.2950 H     1 <1>   0.0800 
 30 H        5.6910     8.0210    -2.1540 H     1 <1>   0.0800 
 31 H        6.4340     6.8370    -3.1820 H     1 <1>   0.0800 
 32 H        6.1520     6.4530    -1.5050 H     1 <1>   0.0800 
 33 H        1.2530     8.5050     1.6430 H     1 <1>   0.4500 
 34 H        0.4320     9.8680    -0.0470 H     1 <1>   0.0800 
 35 H        2.0330    10.4620    -0.4220 H     1 <1>   0.0800 
 36 H        4.0300     9.3940     1.1850 H     1 <1>   0.0800 
 37 H        3.4450     8.2610     2.3790 H     1 <1>   0.0800 
 38 H        0.4930    10.9440     2.1520 H     1 <1>   0.0800 
 39 H        0.9500    12.1360     0.9560 H     1 <1>   0.0800 
 40 H        3.8470    10.5960     3.2800 H     1 <1>   0.0800 
 41 H        2.2100    10.0330     3.5320 H     1 <1>   0.0800 
@<TRIPOS>BOND
  1   1   2  ar  
  2   2   3  ar  
  3   2   4  1   
  4   4   5  1   
  5   4   6  2   
  6   5   7  2   
  7   6   8  1   
  8   6  21  1   
  9   7   8  1   
 10   7   9  1   
 11   9  10  1   
 12   9  22  1   
 13   9  23  1   
 14  10  11  1   
 15  10  12  1   
 16  11  13  1   
 17  11  24  1   
 18  11  25  1   
 19  12  14  1   
 20  12  26  1   
 21  12  27  1   
 22  13  15  1   
 23  13  28  1   
 24  13  29  1   
 25  14  30  1   
 26  14  31  1   
 27  14  32  1   
 28  15  16  1   
 29  15  17  1   
 30  15  33  1   
 31  16  18  1   
 32  16  34  1   
 33  16  35  1   
 34  17  19  1   
 35  17  36  1   
 36  17  37  1   
 37  18  20  1   
 38  18  38  1   
 39  18  39  1   
 40  19  20  1   
 41  19  40  1   
 42  19  41  1   
@<TRIPOS>SUBSTRUCTURE
  1 ****  13 GROUP 4 **** **** 0

# MOE 2024.06 (io_trps.svl 2023.06)
