@<TRIPOS>MOLECULE
NONAME
44 46 1 0 0 
SMALL
USER_CHARGES


@<TRIPOS>ATOM
  1 F        0.0880    -0.5950     0.3050 F     1 <1>  -0.1900 
  2 C       -0.0940    -1.8800     0.4390 C.ar  1 <1>   0.1900 
  3 C        0.8230    -2.7670    -0.1030 C.ar  1 <1>  -0.1440 
  4 C       -1.2150    -2.2960     1.1310 C.ar  1 <1>  -0.1500 
  5 C        0.5750    -4.1290     0.0700 C.ar  1 <1>  -0.1500 
  6 C        2.0470    -2.2300    -0.8510 C.3   1 <1>   1.1640 
  7 C       -1.4410    -3.6510     1.2910 C.ar  1 <1>  -0.1500 
  8 C       -0.5500    -4.5730     0.7560 C.ar  1 <1>  -0.1440 
  9 F        1.7200    -1.4990    -1.9080 F     1 <1>  -0.3400 
 10 F        2.8320    -1.4830    -0.0880 F     1 <1>  -0.3400 
 11 F        2.8140    -3.2110    -1.3140 F     1 <1>  -0.3400 
 12 C       -0.8090    -6.0600     0.9350 C.3   1 <1>   0.4870 
 13 N       -1.3040    -6.6290    -0.3500 N.4   1 <1>  -0.9590 
 14 C       -2.6800    -6.1170    -0.6640 C.3   1 <1>   0.3430 
 15 C       -1.4160    -8.1200    -0.2540 C.3   1 <1>   0.3430 
 16 C       -3.6460    -7.1940    -0.1660 C.3   1 <1>   0.2000 
 17 C       -2.8870    -8.4790    -0.4960 C.3   1 <1>  -0.0800 
 18 O       -3.7760    -7.0620     1.2150 O.3   1 <1>  -0.6800 
 19 C       -3.3280    -9.7500     0.2550 C.3   1 <1>  -0.0160 
 20 C       -2.3930   -10.9010    -0.0760 C.ar  1 <1>  -0.1430 
 21 C       -1.4710   -11.3780     0.8350 C.ar  1 <1>  -0.1500 
 22 C       -2.4130   -11.5240    -1.3080 C.ar  1 <1>  -0.1500 
 23 C       -0.6230   -12.4110     0.4720 C.ar  1 <1>   0.1600 
 24 C       -1.5200   -12.5500    -1.5700 C.ar  1 <1>   0.1600 
 25 N       -0.6190   -12.9980    -0.7120 N.ar  1 <1>  -0.6200 
 26 H       -1.8930    -1.5650     1.5380 H     1 <1>   0.1500 
 27 H        1.2720    -4.8500    -0.3300 H     1 <1>   0.1500 
 28 H       -2.3130    -3.9740     1.8380 H     1 <1>   0.1500 
 29 H       -1.5380    -6.2160     1.7150 H     1 <1>   0.0800 
 30 H        0.1080    -6.5460     1.2270 H     1 <1>   0.0800 
 31 H       -0.6520    -6.3500    -1.0930 H     1 <1>   0.4500 
 32 H       -2.8840    -5.1650    -0.2030 H     1 <1>   0.0800 
 33 H       -2.7880    -6.0180    -1.7320 H     1 <1>   0.0800 
 34 H       -0.7840    -8.6120    -0.9770 H     1 <1>   0.0800 
 35 H       -1.1310    -8.4480     0.7330 H     1 <1>   0.0800 
 36 H       -4.6200    -7.1250    -0.6230 H     1 <1>   0.0800 
 37 H       -2.9970    -8.6640    -1.5510 H     1 <1>   0.0800 
 38 H       -4.5670    -7.5410     1.5440 H     1 <1>   0.4000 
 39 H       -4.3330   -10.0140    -0.0270 H     1 <1>   0.0800 
 40 H       -3.3210    -9.5890     1.3190 H     1 <1>   0.0800 
 41 H       -1.4000   -10.9670     1.8250 H     1 <1>   0.1500 
 42 H       -3.1130   -11.2320    -2.0700 H     1 <1>   0.1500 
 43 H        0.0900   -12.7760     1.1930 H     1 <1>   0.1500 
 44 H       -1.5470   -13.0290    -2.5360 H     1 <1>   0.1500 
@<TRIPOS>BOND
  1   1   2  1   
  2   2   3  ar  
  3   2   4  ar  
  4   3   5  ar  
  5   3   6  1   
  6   4   7  ar  
  7   4  26  1   
  8   5   8  ar  
  9   5  27  1   
 10   6   9  1   
 11   6  10  1   
 12   6  11  1   
 13   7   8  ar  
 14   7  28  1   
 15   8  12  1   
 16  12  13  1   
 17  12  29  1   
 18  12  30  1   
 19  13  14  1   
 20  13  15  1   
 21  13  31  1   
 22  14  16  1   
 23  14  32  1   
 24  14  33  1   
 25  15  17  1   
 26  15  34  1   
 27  15  35  1   
 28  16  17  1   
 29  16  18  1   
 30  16  36  1   
 31  17  19  1   
 32  17  37  1   
 33  18  38  1   
 34  19  20  1   
 35  19  39  1   
 36  19  40  1   
 37  20  21  ar  
 38  20  22  ar  
 39  21  23  ar  
 40  21  41  1   
 41  22  24  ar  
 42  22  42  1   
 43  23  25  ar  
 44  23  43  1   
 45  24  25  ar  
 46  24  44  1   
@<TRIPOS>SUBSTRUCTURE
  1 ****  13 GROUP 4 **** **** 0

# MOE 2024.06 (io_trps.svl 2023.06)
