@<TRIPOS>MOLECULE
NONAME
39 42 1 0 0 
SMALL
USER_CHARGES


@<TRIPOS>ATOM
  1 S       -0.1350     0.0230     1.1220 S.3   1 <1>  -0.0800 
  2 C        1.0030    -1.0660     0.2980 C.ar  1 <1>   0.0400 
  3 C        0.9810     1.3790     0.9820 C.2   1 <1>  -0.1100 
  4 C        0.8930    -2.4150    -0.0160 C.ar  1 <1>   0.4100 
  5 C        2.1440    -0.3790    -0.0270 C.ar  1 <1>   0.2560 
  6 C        2.1130     1.0000     0.3620 C.2   1 <1>  -0.1500 
  7 N        1.9070    -3.0160    -0.6160 N.ar  1 <1>  -0.6200 
  8 N       -0.2290    -3.1780     0.2680 N.pl3 1 <1>  -0.8380 
  9 N        3.1590    -0.9780    -0.6390 N.ar  1 <1>  -0.5660 
 10 C        2.9670    -2.2590    -0.8860 C.ar  1 <1>   0.4700 
 11 C       -1.5980    -2.6680    -0.0100 C.3   1 <1>   0.2090 
 12 C       -0.2170    -4.6650     0.1630 C.3   1 <1>   0.2090 
 13 C       -2.3950    -3.8830    -0.4830 C.3   1 <1>   0.2000 
 14 C       -1.6850    -5.0840     0.1300 C.3   1 <1>  -0.0800 
 15 O       -3.7160    -3.8380    -0.0610 O.3   1 <1>  -0.6800 
 16 C       -1.9350    -6.3910    -0.6380 C.3   1 <1>   0.0210 
 17 C       -1.1370    -7.5340    -0.0420 C.2   1 <1>   0.1080 
 18 N       -1.3360    -7.9780     1.1600 N.2   1 <1>  -0.7070 
 19 C       -0.1180    -8.2200    -0.6950 C.2   1 <1>  -0.1500 
 20 N       -0.4410    -8.9730     1.3070 N.pl3 1 <1>   0.3000 
 21 C        0.3100    -9.1370     0.1980 C.2   1 <1>  -0.3320 
 22 C        1.4060   -10.1770     0.0570 C.3   1 <1>  -0.0600 
 23 H        0.6610     2.3240     1.3860 H     1 <1>   0.1500 
 24 H        2.9580     1.6270     0.1470 H     1 <1>   0.1500 
 25 H        3.7810    -2.7680    -1.3760 H     1 <1>   0.1500 
 26 H       -2.0160    -2.2740     0.9000 H     1 <1>   0.0800 
 27 H       -1.5780    -1.9070    -0.7710 H     1 <1>   0.0800 
 28 H        0.2770    -4.9610    -0.7470 H     1 <1>   0.0800 
 29 H        0.2960    -5.1020     1.0030 H     1 <1>   0.0800 
 30 H       -2.3810    -3.9240    -1.5590 H     1 <1>   0.0800 
 31 H       -1.9980    -5.2090     1.1520 H     1 <1>   0.0800 
 32 H       -3.7600    -3.9510     0.9090 H     1 <1>   0.4000 
 33 H       -1.6680    -6.2700    -1.6720 H     1 <1>   0.0800 
 34 H       -2.9800    -6.6400    -0.5900 H     1 <1>   0.0800 
 35 H        0.2330    -8.0370    -1.6940 H     1 <1>   0.1500 
 36 H       -0.3700    -9.5190     2.1740 H     1 <1>   0.2700 
 37 H        1.8560   -10.1100    -0.9180 H     1 <1>   0.0800 
 38 H        0.9990   -11.1650     0.1780 H     1 <1>   0.0800 
 39 H        2.1690   -10.0170     0.7980 H     1 <1>   0.0800 
@<TRIPOS>BOND
  1   1   2  1   
  2   1   3  1   
  3   2   4  ar  
  4   2   5  ar  
  5   3   6  2   
  6   3  23  1   
  7   4   7  ar  
  8   4   8  1   
  9   5   6  1   
 10   5   9  ar  
 11   6  24  1   
 12   7  10  ar  
 13   8  11  1   
 14   8  12  1   
 15   9  10  ar  
 16  10  25  1   
 17  11  13  1   
 18  11  26  1   
 19  11  27  1   
 20  12  14  1   
 21  12  28  1   
 22  12  29  1   
 23  13  14  1   
 24  13  15  1   
 25  13  30  1   
 26  14  16  1   
 27  14  31  1   
 28  15  32  1   
 29  16  17  1   
 30  16  33  1   
 31  16  34  1   
 32  17  18  2   
 33  17  19  1   
 34  18  20  1   
 35  19  21  2   
 36  19  35  1   
 37  20  21  1   
 38  20  36  1   
 39  21  22  1   
 40  22  37  1   
 41  22  38  1   
 42  22  39  1   
@<TRIPOS>SUBSTRUCTURE
  1 ****  12 GROUP 4 **** **** 0

# MOE 2024.06 (io_trps.svl 2023.06)
