@<TRIPOS>MOLECULE
NONAME
35 36 1 0 0 
SMALL
USER_CHARGES


@<TRIPOS>ATOM
  1 S        0.1310    -0.0940    -1.1240 S.3   1 <1>  -0.0800 
  2 C       -1.4230     0.4870    -0.5920 C.2   1 <1>  -0.1400 
  3 C        0.8970     1.0780    -0.0770 C.2   1 <1>   0.1980 
  4 C       -1.2310     1.4740     0.2990 C.2   1 <1>   0.0460 
  5 C       -2.6530    -0.1660    -1.1830 C.3   1 <1>   0.3200 
  6 N        0.0870     1.8010     0.5820 N.2   1 <1>  -0.5650 
  7 C        2.4070     1.1150    -0.0600 C.3   1 <1>  -0.0600 
  8 C       -2.3060     2.2600     1.0320 C.3   1 <1>   0.0210 
  9 N       -2.7650    -1.5250    -0.6350 N.am  1 <1>  -0.7300 
 10 C       -2.4060     3.6950     0.5040 C.3   1 <1>  -0.2400 
 11 C       -3.9270    -2.1880    -0.4160 C.2   1 <1>   0.7150 
 12 O       -4.9660    -1.6560    -0.7610 O.2   1 <1>  -0.5700 
 13 C       -3.8870    -3.4850     0.2120 C.2   1 <1>  -0.2370 
 14 N       -4.9790    -4.3000     0.4100 N.pl3 1 <1>   0.0480 
 15 C       -2.7930    -4.1440     0.7200 C.2   1 <1>  -0.1500 
 16 C       -4.5560    -5.4310     1.0250 C.2   1 <1>  -0.3020 
 17 C       -6.3830    -4.0390     0.0360 C.3   1 <1>   0.0160 
 18 C       -3.2160    -5.3660     1.2300 C.2   1 <1>  -0.1500 
 19 H       -2.5660    -0.2140    -2.2550 H     1 <1>   0.0800 
 20 H       -3.5330     0.4020    -0.9370 H     1 <1>   0.0800 
 21 H        2.7910     0.1640     0.2610 H     1 <1>   0.0800 
 22 H        2.7410     1.8760     0.6200 H     1 <1>   0.0800 
 23 H        2.7760     1.3360    -1.0440 H     1 <1>   0.0800 
 24 H       -2.0680     2.2760     2.0810 H     1 <1>   0.0800 
 25 H       -3.2570     1.7720     0.9190 H     1 <1>   0.0800 
 26 H       -1.8920    -1.9410    -0.3190 H     1 <1>   0.3700 
 27 H       -1.4670     4.2020     0.6420 H     1 <1>   0.0800 
 28 H       -3.1720     4.2330     1.0330 H     1 <1>   0.0800 
 29 H       -2.6430     3.6890    -0.5450 H     1 <1>   0.0800 
 30 H       -1.7720    -3.8050     0.7400 H     1 <1>   0.1500 
 31 H       -5.2240    -6.2310     1.2890 H     1 <1>   0.1500 
 32 H       -6.7310    -3.1650     0.5550 H     1 <1>   0.0800 
 33 H       -6.9940    -4.8820     0.3010 H     1 <1>   0.0800 
 34 H       -6.4420    -3.8720    -1.0240 H     1 <1>   0.0800 
 35 H       -2.5840    -6.1050     1.6940 H     1 <1>   0.1500 
@<TRIPOS>BOND
  1   1   2  1   
  2   1   3  1   
  3   2   4  2   
  4   2   5  1   
  5   3   6  2   
  6   3   7  1   
  7   4   6  1   
  8   4   8  1   
  9   5   9  1   
 10   5  19  1   
 11   5  20  1   
 12   7  21  1   
 13   7  22  1   
 14   7  23  1   
 15   8  10  1   
 16   8  24  1   
 17   8  25  1   
 18   9  11  am  
 19   9  26  1   
 20  10  27  1   
 21  10  28  1   
 22  10  29  1   
 23  11  12  2   
 24  11  13  1   
 25  13  14  1   
 26  13  15  2   
 27  14  16  1   
 28  14  17  1   
 29  15  18  1   
 30  15  30  1   
 31  16  18  2   
 32  16  31  1   
 33  17  32  1   
 34  17  33  1   
 35  17  34  1   
 36  18  35  1   
@<TRIPOS>SUBSTRUCTURE
  1 ****   9 GROUP 4 **** **** 0

# MOE 2024.06 (io_trps.svl 2023.06)
