@<TRIPOS>MOLECULE
NONAME
48 49 1 0 0 
SMALL
USER_CHARGES


@<TRIPOS>ATOM
  1 O        1.8120     1.1260     1.8460 O.co2 1 <1>  -0.9000 
  2 C        2.5550     1.0740     0.8520 C.2   1 <1>   1.0320 
  3 O        2.9550    -0.0320     0.4400 O.co2 1 <1>  -0.9000 
  4 C        3.0010     2.2620     0.1660 C.2   1 <1>  -0.3840 
  5 N        3.8680     2.1220    -0.8690 N.pl3 1 <1>   0.0330 
  6 C        2.7550     3.6010     0.3140 C.2   1 <1>  -0.1810 
  7 C        4.1870     3.3420    -1.3500 C.2   1 <1>  -0.3320 
  8 C        3.5270     4.3090    -0.6290 C.2   1 <1>  -0.0860 
  9 C        1.7990     4.2120     1.3210 C.3   1 <1>  -0.0590 
 10 C        5.1450     3.5320    -2.5110 C.3   1 <1>  -0.0600 
 11 C        3.6170     5.7480    -0.7630 C.2   1 <1>   0.7160 
 12 O        3.1510     6.3060    -1.7430 O.2   1 <1>  -0.5700 
 13 N        4.2610     6.5080     0.1930 N.am  1 <1>  -0.6600 
 14 C        4.3410     7.9910     0.0870 C.3   1 <1>   0.2840 
 15 C        5.0170     5.8970     1.3240 C.3   1 <1>   0.1400 
 16 C        5.7810     8.4220    -0.1520 C.ar  1 <1>  -0.1430 
 17 C        6.3280     5.2740     0.8230 C.3   1 <1>  -0.1600 
 18 C        6.5210     9.0250     0.8540 C.ar  1 <1>  -0.1500 
 19 C        6.3710     8.1950    -1.3840 C.ar  1 <1>  -0.1500 
 20 C        7.4040     5.2120     1.9050 C.3   1 <1>   0.1200 
 21 C        7.8390     9.3850     0.6310 C.ar  1 <1>  -0.1500 
 22 C        7.6890     8.5560    -1.6060 C.ar  1 <1>  -0.1500 
 23 O        7.7110     6.4990     2.3080 O.3   1 <1>  -0.6800 
 24 C        8.4300     9.1520    -0.5990 C.ar  1 <1>  -0.1430 
 25 C        9.8760     9.5450    -0.8370 C.3   1 <1>  -0.0970 
 26 H        4.1760     1.1860    -1.1690 H     1 <1>   0.2700 
 27 H        0.9600     3.5550     1.4650 H     1 <1>   0.0800 
 28 H        1.4340     5.1600     0.9710 H     1 <1>   0.0800 
 29 H        2.2930     4.3400     2.2650 H     1 <1>   0.0800 
 30 H        4.7630     3.0330    -3.3830 H     1 <1>   0.0800 
 31 H        6.1080     3.1220    -2.2650 H     1 <1>   0.0800 
 32 H        5.2600     4.5770    -2.7370 H     1 <1>   0.0800 
 33 H        3.9690     8.4260     0.9970 H     1 <1>   0.0800 
 34 H        3.7250     8.3530    -0.7180 H     1 <1>   0.0800 
 35 H        4.4240     5.1390     1.8050 H     1 <1>   0.0800 
 36 H        5.2200     6.6570     2.0580 H     1 <1>   0.0800 
 37 H        6.7170     5.8200    -0.0170 H     1 <1>   0.0800 
 38 H        6.1250     4.2720     0.4920 H     1 <1>   0.0800 
 39 H        6.0800     9.2100     1.8180 H     1 <1>   0.1500 
 40 H        5.8010     7.7250    -2.1690 H     1 <1>   0.1500 
 41 H        8.3020     4.7570     1.5210 H     1 <1>   0.0800 
 42 H        7.0650     4.6590     2.7650 H     1 <1>   0.0800 
 43 H        8.4020     9.8480     1.4230 H     1 <1>   0.1500 
 44 H        8.1320     8.3680    -2.5680 H     1 <1>   0.1500 
 45 H        7.7700     7.0880     1.5230 H     1 <1>   0.4000 
 46 H       10.1100    10.4510    -0.3070 H     1 <1>   0.0800 
 47 H       10.0560     9.7100    -1.8840 H     1 <1>   0.0800 
 48 H       10.5280     8.7620    -0.4920 H     1 <1>   0.0800 
@<TRIPOS>BOND
  1   1   2  ar  
  2   2   3  ar  
  3   2   4  1   
  4   4   5  1   
  5   4   6  2   
  6   5   7  1   
  7   5  26  1   
  8   6   8  1   
  9   6   9  1   
 10   7   8  2   
 11   7  10  1   
 12   8  11  1   
 13   9  27  1   
 14   9  28  1   
 15   9  29  1   
 16  10  30  1   
 17  10  31  1   
 18  10  32  1   
 19  11  12  2   
 20  11  13  am  
 21  13  14  1   
 22  13  15  1   
 23  14  16  1   
 24  14  33  1   
 25  14  34  1   
 26  15  17  1   
 27  15  35  1   
 28  15  36  1   
 29  16  18  ar  
 30  16  19  ar  
 31  17  20  1   
 32  17  37  1   
 33  17  38  1   
 34  18  21  ar  
 35  18  39  1   
 36  19  22  ar  
 37  19  40  1   
 38  20  23  1   
 39  20  41  1   
 40  20  42  1   
 41  21  24  ar  
 42  21  43  1   
 43  22  24  ar  
 44  22  44  1   
 45  23  45  1   
 46  24  25  1   
 47  25  46  1   
 48  25  47  1   
 49  25  48  1   
@<TRIPOS>SUBSTRUCTURE
  1 ****  13 GROUP 4 **** **** 0

# MOE 2024.06 (io_trps.svl 2023.06)
