@<TRIPOS>MOLECULE
NONAME
44 46 1 0 0 
SMALL
USER_CHARGES


@<TRIPOS>ATOM
  1 F        1.3340     3.0770    -2.4770 F     1 <1>  -0.1900 
  2 C        2.3460     2.9270    -1.6510 C.ar  1 <1>   0.1900 
  3 C        2.3190     3.4450    -0.3710 C.ar  1 <1>   0.3920 
  4 C        3.4610     2.2480    -2.0570 C.ar  1 <1>   0.1600 
  5 O        1.2310     4.1270     0.0490 O.3   1 <1>  -0.3630 
  6 N        3.3400     3.2910     0.4490 N.ar  1 <1>  -0.6200 
  7 N        4.4920     2.0880    -1.2530 N.ar  1 <1>  -0.6200 
  8 C        1.1350     4.6130     1.3740 C.3   1 <1>   0.0400 
  9 C        4.3840     2.6100    -0.0280 C.ar  1 <1>   0.7200 
 10 N        5.4580     2.4470     0.8220 N.pl3 1 <1>  -0.8380 
 11 C        5.5140     3.1100     2.1600 C.3   1 <1>   0.2090 
 12 C        6.7250     1.7840     0.4140 C.3   1 <1>   0.2090 
 13 C        5.9390     4.5910     2.0780 C.3   1 <1>   0.2090 
 14 C        7.7820     2.8090    -0.0120 C.3   1 <1>  -0.1600 
 15 N        7.1320     4.8880     1.2060 N.pl3 1 <1>  -0.8380 
 16 C        8.1690     3.8240     1.0690 C.3   1 <1>   0.2090 
 17 C        7.3110     6.1190     0.6650 C.ar  1 <1>   0.1000 
 18 C        6.5020     6.6450    -0.3620 C.ar  1 <1>  -0.1430 
 19 C        8.3530     6.9240     1.1380 C.ar  1 <1>  -0.1500 
 20 C        6.7480     7.9070    -0.8420 C.ar  1 <1>   0.2110 
 21 C        5.3660     5.8260    -0.9690 C.3   1 <1>  -0.0970 
 22 C        8.5670     8.1760     0.6300 C.ar  1 <1>   0.2110 
 23 N        7.7650     8.6580    -0.3500 N.ar  1 <1>  -0.1790 
 24 H        3.5090     1.8350    -3.0490 H     1 <1>   0.1500 
 25 H        0.1850     5.1020     1.4870 H     1 <1>   0.0800 
 26 H        1.9340     5.3110     1.5480 H     1 <1>   0.0800 
 27 H        1.2060     3.7820     2.0540 H     1 <1>   0.0800 
 28 H        6.2030     2.5830     2.7940 H     1 <1>   0.0800 
 29 H        4.5520     3.0480     2.6370 H     1 <1>   0.0800 
 30 H        6.5490     1.0970    -0.3960 H     1 <1>   0.0800 
 31 H        7.0980     1.2010     1.2380 H     1 <1>   0.0800 
 32 H        6.1540     4.9300     3.0750 H     1 <1>   0.0800 
 33 H        5.0960     5.1590     1.7320 H     1 <1>   0.0800 
 34 H        7.4540     3.3210    -0.8970 H     1 <1>   0.0800 
 35 H        8.6650     2.2590    -0.2780 H     1 <1>   0.0800 
 36 H        9.0990     4.2820     0.7810 H     1 <1>   0.0800 
 37 H        8.3270     3.3330     2.0140 H     1 <1>   0.0800 
 38 H        8.9800     6.5340     1.9200 H     1 <1>   0.1500 
 39 H        6.1380     8.3260    -1.6270 H     1 <1>   0.1500 
 40 H        5.6890     4.8150    -1.1340 H     1 <1>   0.0800 
 41 H        5.0480     6.2280    -1.9130 H     1 <1>   0.0800 
 42 H        4.5200     5.8090    -0.3070 H     1 <1>   0.0800 
 43 H        9.3690     8.7950     0.9990 H     1 <1>   0.1500 
 44 H        7.9280     9.5980    -0.7270 H     1 <1>   0.4570 
@<TRIPOS>BOND
  1   1   2  1   
  2   2   3  ar  
  3   2   4  ar  
  4   3   5  1   
  5   3   6  ar  
  6   4   7  ar  
  7   4  24  1   
  8   5   8  1   
  9   6   9  ar  
 10   7   9  ar  
 11   8  25  1   
 12   8  26  1   
 13   8  27  1   
 14   9  10  1   
 15  10  11  1   
 16  10  12  1   
 17  11  13  1   
 18  11  28  1   
 19  11  29  1   
 20  12  14  1   
 21  12  30  1   
 22  12  31  1   
 23  13  15  1   
 24  13  32  1   
 25  13  33  1   
 26  14  16  1   
 27  14  34  1   
 28  14  35  1   
 29  15  16  1   
 30  15  17  1   
 31  16  36  1   
 32  16  37  1   
 33  17  18  ar  
 34  17  19  ar  
 35  18  20  ar  
 36  18  21  1   
 37  19  22  ar  
 38  19  38  1   
 39  20  23  ar  
 40  20  39  1   
 41  21  40  1   
 42  21  41  1   
 43  21  42  1   
 44  22  23  ar  
 45  22  43  1   
 46  23  44  1   
@<TRIPOS>SUBSTRUCTURE
  1 ****  21 GROUP 4 **** **** 0

# MOE 2024.06 (io_trps.svl 2023.06)
