@<TRIPOS>MOLECULE
NONAME
40 40 1 0 0 
SMALL
USER_CHARGES


@<TRIPOS>ATOM
  1 O        0.6230    -0.2270     0.6450 O.2   1 <1>  -0.5700 
  2 C        1.7430    -0.4360     0.2400 C.2   1 <1>   0.5690 
  3 N        2.5820     0.5740    -0.1560 N.am  1 <1>  -0.4940 
  4 C        2.2500    -1.9000     0.1650 C.3   1 <1>   0.0610 
  5 C        2.3790     1.9770    -0.1550 C.2   1 <1>  -0.0880 
  6 C        2.1660    -2.5530     1.5570 C.3   1 <1>  -0.2400 
  7 C        3.7130    -2.0150    -0.3200 C.3   1 <1>  -0.2400 
  8 C        1.3670    -2.7050    -0.8070 C.3   1 <1>  -0.2400 
  9 N        3.2780     2.8960    -0.6020 N.pl3 1 <1>   0.3140 
 10 C        1.3070     2.6850     0.2720 C.2   1 <1>  -0.1500 
 11 N        2.8110     4.1570    -0.4710 N.2   1 <1>  -0.7070 
 12 C        4.6040     2.6350    -1.1950 C.3   1 <1>   0.0960 
 13 C        1.6350     4.0160     0.0520 C.2   1 <1>   0.1080 
 14 C        5.6310     2.2660    -0.1140 C.3   1 <1>  -0.1600 
 15 C        0.7460     5.1940     0.3730 C.3   1 <1>  -0.0590 
 16 C        6.9930     1.9290    -0.7350 C.3   1 <1>  -0.1600 
 17 C        8.0080     1.5500     0.3460 C.3   1 <1>  -0.2400 
 18 H        3.4920     0.2530    -0.4750 H     1 <1>   0.3700 
 19 H        2.7730    -2.0120     2.2620 H     1 <1>   0.0800 
 20 H        2.5010    -3.5750     1.5260 H     1 <1>   0.0800 
 21 H        1.1500    -2.5400     1.9140 H     1 <1>   0.0800 
 22 H        4.3780    -1.4920     0.3450 H     1 <1>   0.0800 
 23 H        3.8200    -1.6170    -1.3140 H     1 <1>   0.0800 
 24 H        4.0170    -3.0470    -0.3460 H     1 <1>   0.0800 
 25 H        0.3420    -2.6900    -0.4770 H     1 <1>   0.0800 
 26 H        1.6890    -3.7290    -0.8640 H     1 <1>   0.0800 
 27 H        1.4050    -2.2750    -1.7920 H     1 <1>   0.0800 
 28 H        0.3920     2.3110     0.6940 H     1 <1>   0.1500 
 29 H        4.9190     3.5240    -1.7120 H     1 <1>   0.0800 
 30 H        4.5050     1.8430    -1.9130 H     1 <1>   0.0800 
 31 H        5.2790     1.4210     0.4500 H     1 <1>   0.0800 
 32 H        5.7410     3.1000     0.5580 H     1 <1>   0.0800 
 33 H       -0.1840     4.8580     0.7940 H     1 <1>   0.0800 
 34 H        0.5480     5.7480    -0.5260 H     1 <1>   0.0800 
 35 H        1.2430     5.8350     1.0770 H     1 <1>   0.0800 
 36 H        7.3620     2.7820    -1.2810 H     1 <1>   0.0800 
 37 H        6.8900     1.1090    -1.4250 H     1 <1>   0.0800 
 38 H        8.1460     2.3650     1.0360 H     1 <1>   0.0800 
 39 H        8.9580     1.3220    -0.1040 H     1 <1>   0.0800 
 40 H        7.6740     0.6860     0.8940 H     1 <1>   0.0800 
@<TRIPOS>BOND
  1   1   2  2   
  2   2   3  am  
  3   2   4  1   
  4   3   5  1   
  5   3  18  1   
  6   4   6  1   
  7   4   7  1   
  8   4   8  1   
  9   5   9  1   
 10   5  10  2   
 11   6  19  1   
 12   6  20  1   
 13   6  21  1   
 14   7  22  1   
 15   7  23  1   
 16   7  24  1   
 17   8  25  1   
 18   8  26  1   
 19   8  27  1   
 20   9  11  1   
 21   9  12  1   
 22  10  13  1   
 23  10  28  1   
 24  11  13  2   
 25  12  14  1   
 26  12  29  1   
 27  12  30  1   
 28  13  15  1   
 29  14  16  1   
 30  14  31  1   
 31  14  32  1   
 32  15  33  1   
 33  15  34  1   
 34  15  35  1   
 35  16  17  1   
 36  16  36  1   
 37  16  37  1   
 38  17  38  1   
 39  17  39  1   
 40  17  40  1   
@<TRIPOS>SUBSTRUCTURE
  1 ****   3 GROUP 4 **** **** 0

# MOE 2024.06 (io_trps.svl 2023.06)
