@<TRIPOS>MOLECULE
NONAME
54 56 1 0 0 
SMALL
USER_CHARGES


@<TRIPOS>ATOM
  1 O       -0.4650     0.0440    -1.2360 O.2   1 <1>  -0.5700 
  2 C       -1.4550     0.7560    -1.1890 C.2   1 <1>   0.5440 
  3 N       -2.6600     0.1440    -0.9000 N.am  1 <1>  -0.6600 
  4 C       -1.3100     2.1990    -1.4120 C.ar  1 <1>   0.3960 
  5 C       -3.9250     0.8380    -0.5510 C.3   1 <1>   0.1400 
  6 C       -2.7740    -1.3000    -0.5930 C.3   1 <1>   0.1400 
  7 N       -2.2900     2.9270    -1.9470 N.ar  1 <1>  -0.6200 
  8 C       -0.1210     2.8160    -1.0590 C.ar  1 <1>  -0.1500 
  9 C       -4.7590    -0.1840     0.2330 C.3   1 <1>   0.2000 
 10 C       -4.2560    -1.5340    -0.2860 C.3   1 <1>  -0.0800 
 11 C       -2.0450     4.2100    -2.0820 C.ar  1 <1>   0.7200 
 12 C        0.0150     4.1670    -1.2570 C.ar  1 <1>   0.1660 
 13 O       -4.4770    -0.0880     1.6020 O.3   1 <1>  -0.5600 
 14 C       -4.4960    -2.7220     0.6620 C.3   1 <1>   0.0200 
 15 N       -0.9520     4.8800    -1.7760 N.ar  1 <1>  -0.6200 
 16 N       -3.0260     4.9330    -2.6210 N.pl3 1 <1>  -0.9000 
 17 C        1.3020     4.8860    -0.8790 C.3   1 <1>  -0.0170 
 18 C       -5.1920     0.8900     2.2900 C.3   1 <1>   0.0400 
 19 C       -4.0200    -4.0200     0.0400 C.2   1 <1>  -0.0400 
 20 C        1.1620     5.7170     0.4100 C.3   1 <1>  -0.0800 
 21 O       -4.6170    -4.5000    -1.0190 O.3   1 <1>  -0.0190 
 22 C       -3.0250    -4.8580     0.3680 C.2   1 <1>  -0.1500 
 23 C        2.4520     6.5010     0.6810 C.3   1 <1>  -0.2400 
 24 C        0.8270     4.8390     1.6250 C.3   1 <1>  -0.2400 
 25 N       -4.0740    -5.6140    -1.4180 N.2   1 <1>  -0.4100 
 26 C       -3.1120    -5.8540    -0.6010 C.2   1 <1>   0.1080 
 27 C       -2.2010    -7.0580    -0.6890 C.3   1 <1>  -0.0590 
 28 H       -3.7390     1.7270     0.0230 H     1 <1>   0.0800 
 29 H       -4.4320     1.1000    -1.4630 H     1 <1>   0.0800 
 30 H       -2.4410    -1.8970    -1.4250 H     1 <1>   0.0800 
 31 H       -2.1670    -1.5180     0.2700 H     1 <1>   0.0800 
 32 H        0.6760     2.2360    -0.6330 H     1 <1>   0.1500 
 33 H       -5.8180    -0.0630     0.0790 H     1 <1>   0.0800 
 34 H       -4.7490    -1.7330    -1.2210 H     1 <1>   0.0800 
 35 H       -5.5450    -2.8040     0.8840 H     1 <1>   0.0800 
 36 H       -3.9710    -2.5670     1.5880 H     1 <1>   0.0800 
 37 H       -3.6820     4.4200    -3.2020 H     1 <1>   0.4000 
 38 H       -2.7380     5.8460    -2.9650 H     1 <1>   0.4000 
 39 H        2.0960     4.1700    -0.7610 H     1 <1>   0.0800 
 40 H        1.5730     5.5350    -1.6930 H     1 <1>   0.0800 
 41 H       -4.8870     0.8610     3.3210 H     1 <1>   0.0800 
 42 H       -6.2440     0.6780     2.2190 H     1 <1>   0.0800 
 43 H       -4.9710     1.8590     1.8780 H     1 <1>   0.0800 
 44 H        0.3600     6.4250     0.2710 H     1 <1>   0.0800 
 45 H       -2.3150    -4.8030     1.1720 H     1 <1>   0.1500 
 46 H        3.2810     5.8320     0.8320 H     1 <1>   0.0800 
 47 H        2.3400     7.1110     1.5600 H     1 <1>   0.0800 
 48 H        2.6780     7.1480    -0.1480 H     1 <1>   0.0800 
 49 H        1.5860     4.0920     1.7770 H     1 <1>   0.0800 
 50 H       -0.1200     4.3490     1.4880 H     1 <1>   0.0800 
 51 H        0.7590     5.4440     2.5120 H     1 <1>   0.0800 
 52 H       -2.2830    -7.6430     0.2080 H     1 <1>   0.0800 
 53 H       -1.1830    -6.7360    -0.8120 H     1 <1>   0.0800 
 54 H       -2.4780    -7.6670    -1.5300 H     1 <1>   0.0800 
@<TRIPOS>BOND
  1   1   2  2   
  2   2   3  am  
  3   2   4  1   
  4   3   5  1   
  5   3   6  1   
  6   4   7  ar  
  7   4   8  ar  
  8   5   9  1   
  9   5  28  1   
 10   5  29  1   
 11   6  10  1   
 12   6  30  1   
 13   6  31  1   
 14   7  11  ar  
 15   8  12  ar  
 16   8  32  1   
 17   9  10  1   
 18   9  13  1   
 19   9  33  1   
 20  10  14  1   
 21  10  34  1   
 22  11  15  ar  
 23  11  16  1   
 24  12  15  ar  
 25  12  17  1   
 26  13  18  1   
 27  14  19  1   
 28  14  35  1   
 29  14  36  1   
 30  16  37  1   
 31  16  38  1   
 32  17  20  1   
 33  17  39  1   
 34  17  40  1   
 35  18  41  1   
 36  18  42  1   
 37  18  43  1   
 38  19  21  1   
 39  19  22  2   
 40  20  23  1   
 41  20  24  1   
 42  20  44  1   
 43  21  25  1   
 44  22  26  1   
 45  22  45  1   
 46  23  46  1   
 47  23  47  1   
 48  23  48  1   
 49  24  49  1   
 50  24  50  1   
 51  24  51  1   
 52  25  26  2   
 53  26  27  1   
 54  27  52  1   
 55  27  53  1   
 56  27  54  1   
@<TRIPOS>SUBSTRUCTURE
  1 ****   3 GROUP 4 **** **** 0

# MOE 2024.06 (io_trps.svl 2023.06)
