@<TRIPOS>MOLECULE
NONAME
54 55 1 0 0 
SMALL
USER_CHARGES


@<TRIPOS>ATOM
  1 O        0.8510    -0.3310    -1.5900 O.2   1 <1>  -0.5700 
  2 C        1.3710    -0.7910    -0.6040 C.2   1 <1>   0.5690 
  3 N        1.9950    -0.0470     0.3570 N.am  1 <1>  -0.4940 
  4 C        1.3270    -2.2900    -0.4110 C.3   1 <1>  -0.0990 
  5 C        2.1460     1.3600     0.4430 C.2   1 <1>  -0.0880 
  6 C        0.0560    -2.7130     0.3400 C.3   1 <1>  -0.0990 
  7 N        3.2920     1.9890     0.8220 N.pl3 1 <1>   0.3140 
  8 C        1.2440     2.3410     0.1930 C.2   1 <1>  -0.1810 
  9 C        0.0610    -4.2010     0.6020 C.2   1 <1>   0.5690 
 10 N        3.1470     3.3320     0.8280 N.2   1 <1>  -0.7070 
 11 C        4.5900     1.3690     1.1600 C.3   1 <1>   0.0960 
 12 C        1.9240     3.5280     0.4440 C.2   1 <1>   0.1390 
 13 C       -0.2000     2.2370    -0.2580 C.3   1 <1>  -0.0590 
 14 O        0.7570    -4.6170     1.4950 O.2   1 <1>  -0.5700 
 15 N       -0.7040    -4.9990    -0.1870 N.am  1 <1>  -0.7300 
 16 C        5.3540     0.9540    -0.1040 C.3   1 <1>  -0.2400 
 17 C       -0.8180    -6.4750    -0.1180 C.3   1 <1>   0.2200 
 18 C       -1.4590    -6.8850     1.2250 C.3   1 <1>  -0.1600 
 19 C        0.5610    -7.1050    -0.3730 C.3   1 <1>  -0.1600 
 20 C       -2.7400    -7.7190     1.0650 C.3   1 <1>  -0.1600 
 21 C        0.5200    -8.4960    -1.0250 C.3   1 <1>  -0.1600 
 22 C       -2.5070    -9.2260     0.8800 C.3   1 <1>  -0.1600 
 23 C       -0.1850    -9.5830    -0.1990 C.3   1 <1>  -0.1600 
 24 C       -1.7160    -9.6220    -0.3770 C.3   1 <1>  -0.1600 
 25 H        2.4230    -0.5830     1.1100 H     1 <1>   0.3700 
 26 H        2.1980    -2.6110     0.1320 H     1 <1>   0.0800 
 27 H        1.3490    -2.7630    -1.3770 H     1 <1>   0.0800 
 28 H       -0.8140    -2.4420    -0.2310 H     1 <1>   0.0800 
 29 H        0.0040    -2.2050     1.2860 H     1 <1>   0.0800 
 30 H        4.4120     0.5180     1.7890 H     1 <1>   0.0800 
 31 H        5.1680     2.0870     1.7150 H     1 <1>   0.0800 
 32 H        1.4910     4.5090     0.3380 H     1 <1>   0.1500 
 33 H       -0.6180     1.2950     0.0470 H     1 <1>   0.0800 
 34 H       -0.2490     2.3040    -1.3300 H     1 <1>   0.0800 
 35 H       -0.7850     3.0290     0.1720 H     1 <1>   0.0800 
 36 H       -1.2680    -4.5720    -0.9210 H     1 <1>   0.3700 
 37 H        4.7890     0.2350    -0.6690 H     1 <1>   0.0800 
 38 H        6.2990     0.5160     0.1660 H     1 <1>   0.0800 
 39 H        5.5400     1.8180    -0.7180 H     1 <1>   0.0800 
 40 H       -1.4670    -6.7700    -0.9240 H     1 <1>   0.0800 
 41 H       -1.7220    -5.9980     1.7740 H     1 <1>   0.0800 
 42 H       -0.7550    -7.4200     1.8370 H     1 <1>   0.0800 
 43 H        1.1150    -7.1530     0.5490 H     1 <1>   0.0800 
 44 H        1.1130    -6.4650    -1.0380 H     1 <1>   0.0800 
 45 H       -3.3320    -7.3350     0.2520 H     1 <1>   0.0800 
 46 H       -3.3250    -7.5950     1.9600 H     1 <1>   0.0800 
 47 H        1.5410    -8.8070    -1.1700 H     1 <1>   0.0800 
 48 H        0.0760    -8.4310    -2.0030 H     1 <1>   0.0800 
 49 H       -3.4760    -9.6910     0.8180 H     1 <1>   0.0800 
 50 H       -2.0290    -9.6300     1.7570 H     1 <1>   0.0800 
 51 H        0.0900    -9.4970     0.8380 H     1 <1>   0.0800 
 52 H        0.1980   -10.5310    -0.5350 H     1 <1>   0.0800 
 53 H       -2.0340    -9.0340    -1.2200 H     1 <1>   0.0800 
 54 H       -1.9810   -10.6410    -0.6040 H     1 <1>   0.0800 
@<TRIPOS>BOND
  1   1   2  2   
  2   2   3  am  
  3   2   4  1   
  4   3   5  1   
  5   3  25  1   
  6   4   6  1   
  7   4  26  1   
  8   4  27  1   
  9   5   7  1   
 10   5   8  2   
 11   6   9  1   
 12   6  28  1   
 13   6  29  1   
 14   7  10  1   
 15   7  11  1   
 16   8  12  1   
 17   8  13  1   
 18   9  14  2   
 19   9  15  am  
 20  10  12  2   
 21  11  16  1   
 22  11  30  1   
 23  11  31  1   
 24  12  32  1   
 25  13  33  1   
 26  13  34  1   
 27  13  35  1   
 28  15  17  1   
 29  15  36  1   
 30  16  37  1   
 31  16  38  1   
 32  16  39  1   
 33  17  18  1   
 34  17  19  1   
 35  17  40  1   
 36  18  20  1   
 37  18  41  1   
 38  18  42  1   
 39  19  21  1   
 40  19  43  1   
 41  19  44  1   
 42  20  22  1   
 43  20  45  1   
 44  20  46  1   
 45  21  23  1   
 46  21  47  1   
 47  21  48  1   
 48  22  24  1   
 49  22  49  1   
 50  22  50  1   
 51  23  24  1   
 52  23  51  1   
 53  23  52  1   
 54  24  53  1   
 55  24  54  1   
@<TRIPOS>SUBSTRUCTURE
  1 ****   6 GROUP 4 **** **** 0

# MOE 2024.06 (io_trps.svl 2023.06)
