@<TRIPOS>MOLECULE
NONAME
46 48 1 0 0 
SMALL
USER_CHARGES


@<TRIPOS>ATOM
  1 S       -1.7130    -0.5790    -1.8760 S.3   1 <1>  -0.0800 
  2 C       -1.4250    -1.3910    -0.3400 C.2   1 <1>  -0.1400 
  3 C       -1.0370     0.9190    -1.2650 C.2   1 <1>  -0.1100 
  4 C       -0.8530    -0.5410     0.5350 C.2   1 <1>  -0.1500 
  5 C       -1.8300    -2.8490    -0.2030 C.3   1 <1>   0.3800 
  6 C       -0.6340     0.7720     0.0090 C.2   1 <1>  -0.1500 
  7 O       -1.0910    -3.5710    -1.1120 O.3   1 <1>  -0.6800 
  8 C       -3.3310    -3.1040    -0.4690 C.3   1 <1>  -0.0800 
  9 C       -4.2320    -2.2760     0.4660 C.3   1 <1>  -0.1600 
 10 C       -3.7020    -4.5940    -0.3400 C.3   1 <1>  -0.1600 
 11 C       -5.7110    -2.5560     0.2050 C.3   1 <1>   0.3430 
 12 C       -5.1940    -4.8310    -0.5660 C.3   1 <1>   0.3430 
 13 N       -5.9980    -4.0070     0.3870 N.4   1 <1>  -0.9590 
 14 C       -7.4720    -4.2570     0.2140 C.3   1 <1>   0.3430 
 15 C       -7.9860    -5.5670     0.8580 C.3   1 <1>   0.1400 
 16 N       -7.4900    -6.8240     0.2240 N.am  1 <1>  -0.6600 
 17 C       -7.4430    -7.0600    -1.1100 C.2   1 <1>   0.5690 
 18 C       -7.4760    -8.0760     1.0100 C.3   1 <1>   0.1400 
 19 O       -7.4840    -6.2070    -1.9620 O.2   1 <1>  -0.5700 
 20 C       -7.3000    -8.5250    -1.4080 C.3   1 <1>  -0.0990 
 21 C       -7.5000    -9.1970    -0.0400 C.3   1 <1>  -0.1600 
 22 H       -1.0110     1.7610    -1.9340 H     1 <1>   0.1500 
 23 H       -0.5660    -0.7760     1.5460 H     1 <1>   0.1500 
 24 H       -1.5620    -3.2010     0.7790 H     1 <1>   0.0800 
 25 H       -0.1820     1.5410     0.6130 H     1 <1>   0.1500 
 26 H       -0.2800    -3.0650    -1.3180 H     1 <1>   0.4000 
 27 H       -3.5350    -2.7960    -1.4810 H     1 <1>   0.0800 
 28 H       -4.0560    -1.2260     0.3020 H     1 <1>   0.0800 
 29 H       -4.0000    -2.4850     1.4960 H     1 <1>   0.0800 
 30 H       -3.4210    -4.9690     0.6280 H     1 <1>   0.0800 
 31 H       -3.1590    -5.1640    -1.0740 H     1 <1>   0.0800 
 32 H       -5.9570    -2.2610    -0.8020 H     1 <1>   0.0800 
 33 H       -6.3100    -1.9720     0.8850 H     1 <1>   0.0800 
 34 H       -5.4000    -5.8770    -0.4180 H     1 <1>   0.0800 
 35 H       -5.4570    -4.5800    -1.5820 H     1 <1>   0.0800 
 36 H       -5.7220    -4.2800     1.3360 H     1 <1>   0.4500 
 37 H       -7.7260    -4.2510    -0.8340 H     1 <1>   0.0800 
 38 H       -8.0130    -3.4460     0.6730 H     1 <1>   0.0800 
 39 H       -9.0610    -5.5710     0.7900 H     1 <1>   0.0800 
 40 H       -7.7310    -5.5690     1.9030 H     1 <1>   0.0800 
 41 H       -8.3400    -8.1360     1.6510 H     1 <1>   0.0800 
 42 H       -6.5780    -8.1250     1.6020 H     1 <1>   0.0800 
 43 H       -6.3170    -8.7150    -1.7970 H     1 <1>   0.0800 
 44 H       -8.0430    -8.8380    -2.1190 H     1 <1>   0.0800 
 45 H       -8.4570    -9.6890    -0.0100 H     1 <1>   0.0800 
 46 H       -6.7360    -9.9290     0.1570 H     1 <1>   0.0800 
@<TRIPOS>BOND
  1   1   2  1   
  2   1   3  1   
  3   2   4  2   
  4   2   5  1   
  5   3   6  2   
  6   3  22  1   
  7   4   6  1   
  8   4  23  1   
  9   5   7  1   
 10   5   8  1   
 11   5  24  1   
 12   6  25  1   
 13   7  26  1   
 14   8   9  1   
 15   8  10  1   
 16   8  27  1   
 17   9  11  1   
 18   9  28  1   
 19   9  29  1   
 20  10  12  1   
 21  10  30  1   
 22  10  31  1   
 23  11  13  1   
 24  11  32  1   
 25  11  33  1   
 26  12  13  1   
 27  12  34  1   
 28  12  35  1   
 29  13  14  1   
 30  13  36  1   
 31  14  15  1   
 32  14  37  1   
 33  14  38  1   
 34  15  16  1   
 35  15  39  1   
 36  15  40  1   
 37  16  17  am  
 38  16  18  1   
 39  17  19  2   
 40  17  20  1   
 41  18  21  1   
 42  18  41  1   
 43  18  42  1   
 44  20  21  1   
 45  20  43  1   
 46  20  44  1   
 47  21  45  1   
 48  21  46  1   
@<TRIPOS>SUBSTRUCTURE
  1 ****  12 GROUP 4 **** **** 0

# MOE 2024.06 (io_trps.svl 2023.06)
