@<TRIPOS>MOLECULE
NONAME
51 54 1 0 0 
SMALL
USER_CHARGES


@<TRIPOS>ATOM
  1 O        1.0910    -0.4000     0.7960 O.3   1 <1>  -0.5600 
  2 C        2.0710    -1.1510     0.1160 C.3   1 <1>   0.4240 
  3 C       -0.2350    -0.5630     0.4010 C.3   1 <1>   0.1200 
  4 C        1.5800    -2.5840    -0.1820 C.ar  1 <1>  -0.1440 
  5 C        3.2790    -1.1840     1.0640 C.3   1 <1>  -0.1600 
  6 C        2.4370    -0.4080    -1.1810 C.3   1 <1>  -0.1600 
  7 C       -0.6760    -1.9850     0.7360 C.3   1 <1>  -0.0160 
  8 C        0.2830    -2.9810     0.1130 C.ar  1 <1>  -0.1440 
  9 C        2.4340    -3.5130    -0.7630 C.ar  1 <1>  -0.1500 
 10 C        3.8400     0.2160     1.3090 C.3   1 <1>   0.2090 
 11 C        3.0190     0.9750    -0.8940 C.3   1 <1>   0.2090 
 12 C       -0.1410    -4.2710    -0.1610 C.ar  1 <1>  -0.1500 
 13 C        2.0320    -4.8090    -1.0380 C.ar  1 <1>   0.0820 
 14 N        4.1940     0.8240     0.0030 N.pl3 1 <1>  -0.8380 
 15 C        0.7160    -5.2020    -0.7440 C.ar  1 <1>   0.0820 
 16 O        2.9970    -5.5960    -1.5930 O.3   1 <1>  -0.3630 
 17 C        5.1680     1.8130     0.0020 C.ar  1 <1>   0.4100 
 18 O        0.2930    -6.4650    -1.0450 O.3   1 <1>  -0.3630 
 19 C        3.0250    -6.9900    -1.3790 C.3   1 <1>   0.0400 
 20 N        4.7770     3.0500    -0.2750 N.ar  1 <1>  -0.6200 
 21 C        6.5060     1.5000     0.2960 C.ar  1 <1>   0.1600 
 22 C       -1.0540    -6.8610    -0.9110 C.3   1 <1>   0.0400 
 23 C        5.7650     3.9250    -0.2330 C.ar  1 <1>   0.1660 
 24 N        7.5010     2.3660     0.3440 N.ar  1 <1>  -0.6200 
 25 C        7.0830     3.5930     0.0680 C.ar  1 <1>   0.1600 
 26 C        5.3840     5.3590    -0.5380 C.3   1 <1>  -0.0970 
 27 H       -0.3190    -0.3680    -0.6530 H     1 <1>   0.0800 
 28 H       -0.8290     0.1530     0.9400 H     1 <1>   0.0800 
 29 H        4.0630    -1.7880     0.6470 H     1 <1>   0.0800 
 30 H        2.9840    -1.6300     1.9950 H     1 <1>   0.0800 
 31 H        1.5780    -0.3230    -1.8180 H     1 <1>   0.0800 
 32 H        3.1760    -0.9700    -1.7200 H     1 <1>   0.0800 
 33 H       -1.6720    -2.1420     0.3640 H     1 <1>   0.0800 
 34 H       -0.6880    -2.1130     1.8040 H     1 <1>   0.0800 
 35 H        3.4430    -3.2430    -1.0140 H     1 <1>   0.1500 
 36 H        4.7080     0.1570     1.9420 H     1 <1>   0.0800 
 37 H        3.1050     0.8310     1.8010 H     1 <1>   0.0800 
 38 H        2.2840     1.6040    -0.4200 H     1 <1>   0.0800 
 39 H        3.3220     1.4420    -1.8160 H     1 <1>   0.0800 
 40 H       -1.1500    -4.5340     0.0880 H     1 <1>   0.1500 
 41 H        4.0150    -7.3430    -1.6010 H     1 <1>   0.0800 
 42 H        2.3170    -7.4560    -2.0410 H     1 <1>   0.0800 
 43 H        2.7800    -7.1930    -0.3520 H     1 <1>   0.0800 
 44 H        6.7320     0.4700     0.4950 H     1 <1>   0.1500 
 45 H       -1.1420    -7.8710    -1.2690 H     1 <1>   0.0800 
 46 H       -1.6700    -6.2090    -1.5050 H     1 <1>   0.0800 
 47 H       -1.3300    -6.8170     0.1270 H     1 <1>   0.0800 
 48 H        7.8260     4.3690     0.0820 H     1 <1>   0.1500 
 49 H        4.6430     5.6900     0.1670 H     1 <1>   0.0800 
 50 H        4.9670     5.4160    -1.5280 H     1 <1>   0.0800 
 51 H        6.2360     6.0110    -0.4800 H     1 <1>   0.0800 
@<TRIPOS>BOND
  1   1   2  1   
  2   1   3  1   
  3   2   4  1   
  4   2   5  1   
  5   2   6  1   
  6   3   7  1   
  7   3  27  1   
  8   3  28  1   
  9   4   8  ar  
 10   4   9  ar  
 11   5  10  1   
 12   5  29  1   
 13   5  30  1   
 14   6  11  1   
 15   6  31  1   
 16   6  32  1   
 17   7   8  1   
 18   7  33  1   
 19   7  34  1   
 20   8  12  ar  
 21   9  13  ar  
 22   9  35  1   
 23  10  14  1   
 24  10  36  1   
 25  10  37  1   
 26  11  14  1   
 27  11  38  1   
 28  11  39  1   
 29  12  15  ar  
 30  12  40  1   
 31  13  15  ar  
 32  13  16  1   
 33  14  17  1   
 34  15  18  1   
 35  16  19  1   
 36  17  20  ar  
 37  17  21  ar  
 38  18  22  1   
 39  19  41  1   
 40  19  42  1   
 41  19  43  1   
 42  20  23  ar  
 43  21  24  ar  
 44  21  44  1   
 45  22  45  1   
 46  22  46  1   
 47  22  47  1   
 48  23  25  ar  
 49  23  26  1   
 50  24  25  ar  
 51  25  48  1   
 52  26  49  1   
 53  26  50  1   
 54  26  51  1   
@<TRIPOS>SUBSTRUCTURE
  1 ****   2 GROUP 4 **** **** 0

# MOE 2024.06 (io_trps.svl 2023.06)
