@<TRIPOS>MOLECULE
NONAME
53 55 1 0 0 
SMALL
USER_CHARGES


@<TRIPOS>ATOM
  1 O       -0.3380     0.0820     0.0350 O.2   1 <1>  -0.5700 
  2 C       -1.3950     0.6490    -0.1100 C.2   1 <1>   0.5690 
  3 N       -2.5500    -0.0460    -0.3390 N.am  1 <1>  -0.6600 
  4 C       -1.4490     2.1720    -0.0330 C.3   1 <1>  -0.0990 
  5 C       -3.9120     0.5230    -0.4770 C.3   1 <1>   0.1400 
  6 C       -2.5900    -1.5260    -0.4140 C.3   1 <1>   0.1400 
  7 C       -0.0750     2.8520     0.1140 C.3   1 <1>  -0.1600 
  8 C       -4.8370    -0.6850    -0.6430 C.3   1 <1>   0.2000 
  9 C       -4.0490    -1.8910    -0.1340 C.3   1 <1>  -0.0800 
 10 C       -0.2100     4.3830     0.1700 C.3   1 <1>  -0.1600 
 11 O       -6.0020    -0.5360     0.0940 O.3   1 <1>  -0.6800 
 12 C       -4.4980    -3.2100    -0.7850 C.3   1 <1>  -0.0170 
 13 C        1.1240     5.1030     0.4390 C.3   1 <1>  -0.0800 
 14 C       -3.6840    -4.3850    -0.2730 C.ar  1 <1>   0.1670 
 15 C        0.8710     6.6020     0.6380 C.3   1 <1>  -0.2400 
 16 C        2.1310     4.9040    -0.7020 C.3   1 <1>  -0.2400 
 17 N       -2.5950    -4.6820    -0.9140 N.ar  1 <1>  -0.6200 
 18 C       -4.1340    -5.0810     0.8600 C.ar  1 <1>  -0.1500 
 19 C       -1.8530    -5.7210    -0.4530 C.ar  1 <1>   0.3100 
 20 C       -3.4110    -6.1300     1.3420 C.ar  1 <1>  -0.1500 
 21 C       -2.2240    -6.4800     0.6790 C.ar  1 <1>   0.0000 
 22 C       -0.6650    -6.0570    -1.1230 C.ar  1 <1>  -0.1500 
 23 C       -1.3950    -7.5420     1.0920 C.ar  1 <1>  -0.1500 
 24 C        0.1260    -7.0940    -0.7050 C.ar  1 <1>  -0.1500 
 25 C       -0.2440    -7.8440     0.4160 C.ar  1 <1>  -0.1500 
 26 H       -1.9190     2.5360    -0.9270 H     1 <1>   0.0800 
 27 H       -2.0630     2.4400     0.8070 H     1 <1>   0.0800 
 28 H       -4.1600     1.0800     0.4100 H     1 <1>   0.0800 
 29 H       -3.9640     1.1580    -1.3430 H     1 <1>   0.0800 
 30 H       -2.2970    -1.8360    -1.4030 H     1 <1>   0.0800 
 31 H       -1.9240    -1.9720     0.3060 H     1 <1>   0.0800 
 32 H        0.4000     2.4980     1.0130 H     1 <1>   0.0800 
 33 H        0.5410     2.5650    -0.7200 H     1 <1>   0.0800 
 34 H       -5.1030    -0.7980    -1.6800 H     1 <1>   0.0800 
 35 H       -4.1540    -1.9670     0.9340 H     1 <1>   0.0800 
 36 H       -0.8980     4.6350     0.9580 H     1 <1>   0.0800 
 37 H       -0.6300     4.7400    -0.7550 H     1 <1>   0.0800 
 38 H       -5.7950    -0.4770     1.0460 H     1 <1>   0.4000 
 39 H       -4.3860    -3.1470    -1.8540 H     1 <1>   0.0800 
 40 H       -5.5400    -3.3770    -0.5790 H     1 <1>   0.0800 
 41 H        1.5520     4.7120     1.3470 H     1 <1>   0.0800 
 42 H        0.4440     7.0360    -0.2490 H     1 <1>   0.0800 
 43 H        1.7940     7.1100     0.8590 H     1 <1>   0.0800 
 44 H        0.1960     6.7620     1.4590 H     1 <1>   0.0800 
 45 H        1.7120     5.2260    -1.6390 H     1 <1>   0.0800 
 46 H        2.4140     3.8700    -0.7860 H     1 <1>   0.0800 
 47 H        3.0240     5.4730    -0.5130 H     1 <1>   0.0800 
 48 H       -5.0480    -4.7760     1.3360 H     1 <1>   0.1500 
 49 H       -3.7240    -6.6880     2.2060 H     1 <1>   0.1500 
 50 H       -0.3980    -5.4670    -1.9800 H     1 <1>   0.1500 
 51 H       -1.6850    -8.1150     1.9550 H     1 <1>   0.1500 
 52 H        1.0340    -7.3400    -1.2280 H     1 <1>   0.1500 
 53 H        0.3870    -8.6560     0.7340 H     1 <1>   0.1500 
@<TRIPOS>BOND
  1   1   2  2   
  2   2   3  am  
  3   2   4  1   
  4   3   5  1   
  5   3   6  1   
  6   4   7  1   
  7   4  26  1   
  8   4  27  1   
  9   5   8  1   
 10   5  28  1   
 11   5  29  1   
 12   6   9  1   
 13   6  30  1   
 14   6  31  1   
 15   7  10  1   
 16   7  32  1   
 17   7  33  1   
 18   8   9  1   
 19   8  11  1   
 20   8  34  1   
 21   9  12  1   
 22   9  35  1   
 23  10  13  1   
 24  10  36  1   
 25  10  37  1   
 26  11  38  1   
 27  12  14  1   
 28  12  39  1   
 29  12  40  1   
 30  13  15  1   
 31  13  16  1   
 32  13  41  1   
 33  14  17  ar  
 34  14  18  ar  
 35  15  42  1   
 36  15  43  1   
 37  15  44  1   
 38  16  45  1   
 39  16  46  1   
 40  16  47  1   
 41  17  19  ar  
 42  18  20  ar  
 43  18  48  1   
 44  19  21  ar  
 45  19  22  ar  
 46  20  21  ar  
 47  20  49  1   
 48  21  23  ar  
 49  22  24  ar  
 50  22  50  1   
 51  23  25  ar  
 52  23  51  1   
 53  24  25  ar  
 54  24  52  1   
 55  25  53  1   
@<TRIPOS>SUBSTRUCTURE
  1 ****   6 GROUP 4 **** **** 0

# MOE 2024.06 (io_trps.svl 2023.06)
