@<TRIPOS>MOLECULE
NONAME
55 58 1 0 0 
SMALL
USER_CHARGES


@<TRIPOS>ATOM
  1 O       -1.5090    -0.1020     2.2830 O.2   1 <1>  -0.5700 
  2 C       -1.8020     0.6310     1.3560 C.2   1 <1>   0.5440 
  3 N       -2.4510     0.1130     0.2610 N.am  1 <1>  -0.6600 
  4 C       -1.3990     2.0160     1.4060 C.ar  1 <1>   0.0860 
  5 C       -2.5440    -1.3780     0.0950 C.3   1 <1>   0.3640 
  6 C       -3.0140     0.9930    -0.8120 C.3   1 <1>   0.1400 
  7 C       -0.0750     2.4040     1.1200 C.ar  1 <1>   0.0530 
  8 C       -2.3430     2.9890     1.7320 C.ar  1 <1>  -0.1500 
  9 C       -1.1610    -1.9150    -0.2860 C.ar  1 <1>  -0.1440 
 10 C       -3.6130    -1.8750    -0.9260 C.3   1 <1>   0.2000 
 11 C       -3.6500     0.2180    -1.9730 C.3   1 <1>   0.1200 
 12 C        0.9890     1.4680     0.8120 C.2   1 <1>   0.1330 
 13 C        0.2210     3.7680     1.1380 C.ar  1 <1>  -0.1500 
 14 C       -2.0180     4.3300     1.7510 C.ar  1 <1>  -0.1500 
 15 C       -0.6170    -2.9690     0.4310 C.ar  1 <1>  -0.1500 
 16 C       -0.4240    -1.3720    -1.3280 C.ar  1 <1>  -0.1500 
 17 O       -4.3940    -0.8450    -1.4740 O.3   1 <1>  -0.5600 
 18 C       -4.5840    -2.8850    -0.2980 C.3   1 <1>   0.1200 
 19 N        2.0070     1.7110     0.0330 N.2   1 <1>  -0.3380 
 20 N        1.1010     0.2280     1.3120 N.pl3 1 <1>   0.0330 
 21 C       -0.7280     4.7210     1.4470 C.ar  1 <1>  -0.1500 
 22 C        0.6360    -3.4790     0.1300 C.ar  1 <1>   0.0830 
 23 C        0.8300    -1.8640    -1.6400 C.ar  1 <1>  -0.1500 
 24 O       -3.8970    -3.9960     0.1860 O.3   1 <1>  -0.6800 
 25 N        2.7900     0.6330     0.0300 N.2   1 <1>  -0.3380 
 26 C        2.2310    -0.2350     0.7990 C.2   1 <1>   0.0360 
 27 O        1.0430    -4.5130     0.9190 O.3   1 <1>  -0.3620 
 28 C        1.3850    -2.9110    -0.9110 C.ar  1 <1>   0.0830 
 29 C        1.8190    -5.5640     0.3860 C.3   1 <1>   0.0400 
 30 O        2.6480    -3.3580    -1.1710 O.3   1 <1>  -0.3630 
 31 C        3.5730    -2.5670    -1.8900 C.3   1 <1>   0.0400 
 32 H       -2.8000    -1.7920     1.0560 H     1 <1>   0.0800 
 33 H       -3.7710     1.6200    -0.3760 H     1 <1>   0.0800 
 34 H       -2.2390     1.6320    -1.1990 H     1 <1>   0.0800 
 35 H       -3.3460     2.6820     1.9720 H     1 <1>   0.1500 
 36 H       -3.1190    -2.3580    -1.7510 H     1 <1>   0.0800 
 37 H       -2.9060    -0.1610    -2.6510 H     1 <1>   0.0800 
 38 H       -4.3160     0.8590    -2.5230 H     1 <1>   0.0800 
 39 H        1.2250     4.0850     0.9090 H     1 <1>   0.1500 
 40 H       -2.7610     5.0690     2.0020 H     1 <1>   0.1500 
 41 H       -1.1670    -3.4110     1.2440 H     1 <1>   0.1500 
 42 H       -0.8090    -0.5490    -1.9000 H     1 <1>   0.1500 
 43 H       -5.3000    -3.2230    -1.0260 H     1 <1>   0.0800 
 44 H       -5.1000    -2.4330     0.5310 H     1 <1>   0.0800 
 45 H        0.4220    -0.2500     1.9190 H     1 <1>   0.2700 
 46 H       -0.4640     5.7650     1.4550 H     1 <1>   0.1500 
 47 H        1.3650    -1.4030    -2.4490 H     1 <1>   0.1500 
 48 H       -3.5200    -4.5260    -0.5450 H     1 <1>   0.4000 
 49 H        2.6090    -1.2220     1.0020 H     1 <1>   0.1500 
 50 H        1.6970    -6.4240     1.0180 H     1 <1>   0.0800 
 51 H        2.8510    -5.2630     0.3770 H     1 <1>   0.0800 
 52 H        1.4770    -5.7850    -0.6100 H     1 <1>   0.0800 
 53 H        4.5390    -3.0330    -1.8170 H     1 <1>   0.0800 
 54 H        3.6090    -1.5840    -1.4560 H     1 <1>   0.0800 
 55 H        3.2680    -2.5210    -2.9200 H     1 <1>   0.0800 
@<TRIPOS>BOND
  1   1   2  2   
  2   2   3  am  
  3   2   4  1   
  4   3   5  1   
  5   3   6  1   
  6   4   7  ar  
  7   4   8  ar  
  8   5   9  1   
  9   5  10  1   
 10   5  32  1   
 11   6  11  1   
 12   6  33  1   
 13   6  34  1   
 14   7  12  1   
 15   7  13  ar  
 16   8  14  ar  
 17   8  35  1   
 18   9  15  ar  
 19   9  16  ar  
 20  10  17  1   
 21  10  18  1   
 22  10  36  1   
 23  11  17  1   
 24  11  37  1   
 25  11  38  1   
 26  12  19  2   
 27  12  20  1   
 28  13  21  ar  
 29  13  39  1   
 30  14  21  ar  
 31  14  40  1   
 32  15  22  ar  
 33  15  41  1   
 34  16  23  ar  
 35  16  42  1   
 36  18  24  1   
 37  18  43  1   
 38  18  44  1   
 39  19  25  1   
 40  20  26  1   
 41  20  45  1   
 42  21  46  1   
 43  22  27  1   
 44  22  28  ar  
 45  23  28  ar  
 46  23  47  1   
 47  24  48  1   
 48  25  26  2   
 49  26  49  1   
 50  27  29  1   
 51  28  30  1   
 52  29  50  1   
 53  29  51  1   
 54  29  52  1   
 55  30  31  1   
 56  31  53  1   
 57  31  54  1   
 58  31  55  1   
@<TRIPOS>SUBSTRUCTURE
  1 ****   9 GROUP 4 **** **** 0

# MOE 2024.06 (io_trps.svl 2023.06)
