@<TRIPOS>MOLECULE
NONAME
47 49 1 0 0 
SMALL
USER_CHARGES


@<TRIPOS>ATOM
  1 S        0.9060     0.3450    -0.2210 S.o2  1 <1>   1.3330 
  2 O        1.1070     0.2660    -1.6510 O.2   1 <1>  -0.6500 
  3 O        2.0540     0.4590     0.6510 O.2   1 <1>  -0.6500 
  4 N       -0.0030    -1.0080     0.2530 N.am  1 <1>  -0.8490 
  5 C       -0.1960     1.7150     0.1260 C.3   1 <1>  -0.0550 
  6 C       -0.9330    -1.4780    -0.7780 C.3   1 <1>   0.1160 
  7 C        0.8430    -2.1150     0.7070 C.3   1 <1>   0.1160 
  8 C        0.5030     3.0770     0.0070 C.3   1 <1>  -0.0800 
  9 C       -0.4090     4.2590     0.3280 C.3   1 <1>   0.2000 
 10 C        1.0690     3.4000    -1.3750 C.3   1 <1>   0.1400 
 11 O       -0.3590     4.5240     1.6860 O.3   1 <1>  -0.6800 
 12 C        0.1180     5.4390    -0.4980 C.3   1 <1>   0.1400 
 13 N        1.2070     4.8750    -1.3490 N.am  1 <1>  -0.6600 
 14 C        2.4130     5.4960    -1.5830 C.2   1 <1>   0.5440 
 15 O        3.3030     4.8810    -2.1380 O.2   1 <1>  -0.5700 
 16 C        2.6980     6.8140    -1.0710 C.ar  1 <1>   0.0860 
 17 C        3.0280     6.9710     0.2840 C.ar  1 <1>   0.0530 
 18 C        2.6510     7.9360    -1.8960 C.ar  1 <1>  -0.1500 
 19 C        3.0920     5.8310     1.1660 C.2   1 <1>   0.1340 
 20 C        3.2680     8.2530     0.7710 C.ar  1 <1>  -0.1500 
 21 C        2.9040     9.1990    -1.3970 C.ar  1 <1>  -0.1500 
 22 N        2.4260     5.6950     2.2760 N.2   1 <1>  -0.3380 
 23 N        3.8170     4.7270     0.9320 N.pl3 1 <1>   0.0330 
 24 C        3.2090     9.3580    -0.0560 C.ar  1 <1>  -0.1500 
 25 N        2.7050     4.4930     2.7710 N.2   1 <1>  -0.3380 
 26 C        3.5360     3.9340     1.9580 C.2   1 <1>   0.0360 
 27 H       -1.0360     1.6790    -0.5380 H     1 <1>   0.0800 
 28 H       -0.5620     1.6160     1.1300 H     1 <1>   0.0800 
 29 H       -1.5430    -2.2750    -0.3900 H     1 <1>   0.0800 
 30 H       -0.3920    -1.8380    -1.6380 H     1 <1>   0.0800 
 31 H       -1.5800    -0.6760    -1.0890 H     1 <1>   0.0800 
 32 H        0.2340    -2.9480     1.0160 H     1 <1>   0.0800 
 33 H        1.4370    -1.8040     1.5500 H     1 <1>   0.0800 
 34 H        1.5030    -2.4310    -0.0840 H     1 <1>   0.0800 
 35 H        1.3320     3.0830     0.6890 H     1 <1>   0.0800 
 36 H       -1.4330     4.0580     0.0650 H     1 <1>   0.0800 
 37 H        0.3810     3.1220    -2.1550 H     1 <1>   0.0800 
 38 H        2.0130     2.9080    -1.5410 H     1 <1>   0.0800 
 39 H        0.5660     4.7200     1.9810 H     1 <1>   0.4000 
 40 H        0.4700     6.2260     0.1430 H     1 <1>   0.0800 
 41 H       -0.6630     5.8190    -1.1330 H     1 <1>   0.0800 
 42 H        2.4140     7.8070    -2.9380 H     1 <1>   0.1500 
 43 H        3.5010     8.3790     1.8160 H     1 <1>   0.1500 
 44 H        2.8630    10.0580    -2.0450 H     1 <1>   0.1500 
 45 H        4.3930     4.5340     0.1070 H     1 <1>   0.2700 
 46 H        3.4010    10.3410     0.3390 H     1 <1>   0.1500 
 47 H        3.9450     2.9450     2.0750 H     1 <1>   0.1500 
@<TRIPOS>BOND
  1   1   2  2   
  2   1   3  2   
  3   1   4  am  
  4   1   5  1   
  5   4   6  1   
  6   4   7  1   
  7   5   8  1   
  8   5  27  1   
  9   5  28  1   
 10   6  29  1   
 11   6  30  1   
 12   6  31  1   
 13   7  32  1   
 14   7  33  1   
 15   7  34  1   
 16   8   9  1   
 17   8  10  1   
 18   8  35  1   
 19   9  11  1   
 20   9  12  1   
 21   9  36  1   
 22  10  13  1   
 23  10  37  1   
 24  10  38  1   
 25  11  39  1   
 26  12  13  1   
 27  12  40  1   
 28  12  41  1   
 29  13  14  am  
 30  14  15  2   
 31  14  16  1   
 32  16  17  ar  
 33  16  18  ar  
 34  17  19  1   
 35  17  20  ar  
 36  18  21  ar  
 37  18  42  1   
 38  19  22  2   
 39  19  23  1   
 40  20  24  ar  
 41  20  43  1   
 42  21  24  ar  
 43  21  44  1   
 44  22  25  1   
 45  23  26  1   
 46  23  45  1   
 47  24  46  1   
 48  25  26  2   
 49  26  47  1   
@<TRIPOS>SUBSTRUCTURE
  1 ****   8 GROUP 4 **** **** 0

# MOE 2024.06 (io_trps.svl 2023.06)
