@<TRIPOS>MOLECULE
NONAME
59 63 1 0 0 
SMALL
USER_CHARGES


@<TRIPOS>ATOM
  1 O        1.3340    -0.3880     1.7240 O.3   1 <1>  -0.5600 
  2 C        1.5520    -1.7160     1.3330 C.3   1 <1>   0.1200 
  3 C        1.6780     0.5370     0.7420 C.3   1 <1>   0.1200 
  4 C        3.0390    -1.9640     0.9740 C.3   1 <1>   0.2850 
  5 C        3.1760     0.4120     0.4140 C.3   1 <1>   0.1900 
  6 N        3.5060    -0.9680    -0.0320 N.3   1 <1>  -0.8100 
  7 C        3.2830    -3.3980     0.4490 C.3   1 <1>  -0.1950 
  8 C        3.5620     1.4450    -0.6660 C.3   1 <1>   0.3430 
  9 C        4.9460    -1.0830    -0.3540 C.3   1 <1>   0.1100 
 10 C        2.5560    -3.9500    -0.7400 C.3   1 <1>  -0.2000 
 11 C        2.3230    -4.5400     0.6200 C.3   1 <1>  -0.2000 
 12 N        5.0100     1.3340    -1.0720 N.4   1 <1>  -0.9590 
 13 C        5.3600    -0.0770    -1.4460 C.3   1 <1>   0.3430 
 14 C        5.3520     2.2970    -2.1500 C.3   1 <1>   0.4860 
 15 C        5.1750     3.7030    -1.6110 C.ar  1 <1>  -0.1440 
 16 C        5.9680     4.1370    -0.5610 C.ar  1 <1>  -0.1500 
 17 C        4.2300     4.5630    -2.1480 C.ar  1 <1>  -0.1500 
 18 C        5.8280     5.4130    -0.0330 C.ar  1 <1>  -0.1440 
 19 C        4.0790     5.8370    -1.6320 C.ar  1 <1>  -0.1500 
 20 C        4.8730     6.2690    -0.5720 C.ar  1 <1>   0.0820 
 21 C        6.7020     5.8730     1.1400 C.3   1 <1>   0.2390 
 22 O        4.7580     7.5070    -0.0250 O.3   1 <1>  -0.3630 
 23 N        8.0850     5.3480     1.0610 N.pl3 1 <1>   0.3140 
 24 C        3.8820     8.4810    -0.5530 C.3   1 <1>   0.0400 
 25 N        8.4440     4.1570     1.5950 N.2   1 <1>  -0.7070 
 26 C        9.1420     5.9570     0.4860 C.2   1 <1>  -0.3020 
 27 C        9.7160     4.0550     1.3560 C.2   1 <1>   0.1390 
 28 C       10.2100     5.1510     0.6600 C.2   1 <1>  -0.1500 
 29 H        1.2630    -2.3440     2.1570 H     1 <1>   0.0800 
 30 H        0.9150    -1.9340     0.4950 H     1 <1>   0.0800 
 31 H        1.0700     0.3560    -0.1290 H     1 <1>   0.0800 
 32 H        1.4520     1.5150     1.1300 H     1 <1>   0.0800 
 33 H        3.6030    -1.8460     1.8840 H     1 <1>   0.0800 
 34 H        3.7230     0.6400     1.3140 H     1 <1>   0.0800 
 35 H        4.3130    -3.6790     0.5760 H     1 <1>   0.1000 
 36 H        3.3650     2.4360    -0.2900 H     1 <1>   0.0800 
 37 H        2.9330     1.2850    -1.5240 H     1 <1>   0.0800 
 38 H        5.5380    -0.9300     0.5320 H     1 <1>   0.0800 
 39 H        5.1580    -2.0690    -0.7290 H     1 <1>   0.0800 
 40 H        1.7750    -3.3660    -1.1940 H     1 <1>   0.1000 
 41 H        3.1090    -4.5230    -1.4640 H     1 <1>   0.1000 
 42 H        2.7200    -5.5200     0.8230 H     1 <1>   0.1000 
 43 H        1.3480    -4.4070     1.0560 H     1 <1>   0.1000 
 44 H        5.5690     1.5980    -0.2510 H     1 <1>   0.4500 
 45 H        4.8520    -0.3470    -2.3580 H     1 <1>   0.0800 
 46 H        6.4210    -0.1590    -1.6180 H     1 <1>   0.0800 
 47 H        6.3770     2.1640    -2.4570 H     1 <1>   0.0800 
 48 H        4.7140     2.1440    -3.0060 H     1 <1>   0.0800 
 49 H        6.7090     3.4740    -0.1490 H     1 <1>   0.1500 
 50 H        3.6050     4.2560    -2.9700 H     1 <1>   0.1500 
 51 H        3.3380     6.4810    -2.0680 H     1 <1>   0.1500 
 52 H        6.2680     5.5350     2.0630 H     1 <1>   0.0800 
 53 H        6.7640     6.9440     1.1750 H     1 <1>   0.0800 
 54 H        3.9960     9.3810     0.0250 H     1 <1>   0.0800 
 55 H        2.8710     8.1240    -0.4740 H     1 <1>   0.0800 
 56 H        4.1470     8.6720    -1.5780 H     1 <1>   0.0800 
 57 H        9.0770     6.9130    -0.0020 H     1 <1>   0.1500 
 58 H       10.3150     3.2150     1.6660 H     1 <1>   0.1500 
 59 H       11.2280     5.2980     0.3440 H     1 <1>   0.1500 
@<TRIPOS>BOND
  1   1   2  1   
  2   1   3  1   
  3   2   4  1   
  4   2  29  1   
  5   2  30  1   
  6   3   5  1   
  7   3  31  1   
  8   3  32  1   
  9   4   6  1   
 10   4   7  1   
 11   4  33  1   
 12   5   6  1   
 13   5   8  1   
 14   5  34  1   
 15   6   9  1   
 16   7  10  1   
 17   7  11  1   
 18   7  35  1   
 19   8  12  1   
 20   8  36  1   
 21   8  37  1   
 22   9  13  1   
 23   9  38  1   
 24   9  39  1   
 25  10  11  1   
 26  10  40  1   
 27  10  41  1   
 28  11  42  1   
 29  11  43  1   
 30  12  13  1   
 31  12  14  1   
 32  12  44  1   
 33  13  45  1   
 34  13  46  1   
 35  14  15  1   
 36  14  47  1   
 37  14  48  1   
 38  15  16  ar  
 39  15  17  ar  
 40  16  18  ar  
 41  16  49  1   
 42  17  19  ar  
 43  17  50  1   
 44  18  20  ar  
 45  18  21  1   
 46  19  20  ar  
 47  19  51  1   
 48  20  22  1   
 49  21  23  1   
 50  21  52  1   
 51  21  53  1   
 52  22  24  1   
 53  23  25  1   
 54  23  26  1   
 55  24  54  1   
 56  24  55  1   
 57  24  56  1   
 58  25  27  2   
 59  26  28  2   
 60  26  57  1   
 61  27  28  1   
 62  27  58  1   
 63  28  59  1   
@<TRIPOS>SUBSTRUCTURE
  1 ****  12 GROUP 4 **** **** 0

# MOE 2024.06 (io_trps.svl 2023.06)
