@<TRIPOS>MOLECULE
NONAME
60 62 1 0 0 
SMALL
USER_CHARGES


@<TRIPOS>ATOM
  1 O        0.4140     0.5650    -0.9530 O.2   1 <1>  -0.5700 
  2 C        1.3300    -0.1030    -0.5340 C.2   1 <1>   0.5690 
  3 N        2.3460     0.4450     0.2130 N.am  1 <1>  -0.6600 
  4 C        1.3100    -1.5820    -0.8770 C.3   1 <1>  -0.0990 
  5 C        3.4950    -0.3310     0.7740 C.3   1 <1>   0.1400 
  6 C        2.3450     1.9090     0.5060 C.3   1 <1>   0.1400 
  7 C        0.6530    -2.4270     0.2280 C.3   1 <1>   0.0630 
  8 C        4.6840    -0.3510    -0.2000 C.3   1 <1>   0.1100 
  9 C        3.7370     2.5530     0.4590 C.3   1 <1>  -0.1600 
 10 C        1.0280    -3.8970     0.0600 C.ar  1 <1>  -0.1440 
 11 C       -0.8720    -2.2630     0.2510 C.3   1 <1>  -0.2400 
 12 N        5.4420     0.9160    -0.2480 N.3   1 <1>  -0.8100 
 13 C        4.6220     2.0610    -0.6890 C.3   1 <1>   0.1100 
 14 C        0.7270    -4.5850    -1.1080 C.ar  1 <1>  -0.1500 
 15 C        1.6850    -4.5670     1.0830 C.ar  1 <1>  -0.1500 
 16 C        6.6330     0.7520    -1.1370 C.3   1 <1>   0.1710 
 17 C        1.0820    -5.9150    -1.2530 C.ar  1 <1>  -0.1500 
 18 C        2.0400    -5.8970     0.9390 C.ar  1 <1>  -0.1500 
 19 C        7.6240     1.9300    -1.1810 C.2   1 <1>   0.5690 
 20 C        1.7400    -6.5720    -0.2300 C.ar  1 <1>  -0.1500 
 21 O        7.8350     2.4150    -2.2690 O.2   1 <1>  -0.5700 
 22 N        8.2440     2.3940    -0.0310 N.am  1 <1>  -0.4770 
 23 C        9.1420     3.4780    -0.0270 C.ar  1 <1>   0.1170 
 24 C        7.9530     1.7850     1.2950 C.3   1 <1>   0.0600 
 25 C        8.9200     4.5820     0.7920 C.ar  1 <1>  -0.1500 
 26 C       10.2790     3.4680    -0.8280 C.ar  1 <1>  -0.1500 
 27 C        9.8120     5.6380     0.8180 C.ar  1 <1>  -0.1500 
 28 C       11.1740     4.5230    -0.8060 C.ar  1 <1>  -0.1500 
 29 C       10.9430     5.6090     0.0200 C.ar  1 <1>  -0.1500 
 30 H        2.3100    -1.9250    -1.0540 H     1 <1>   0.0800 
 31 H        0.7710    -1.7100    -1.7980 H     1 <1>   0.0800 
 32 H        3.1900    -1.3420     0.9650 H     1 <1>   0.0800 
 33 H        3.8030     0.0870     1.7160 H     1 <1>   0.0800 
 34 H        1.9060     2.0700     1.4750 H     1 <1>   0.0800 
 35 H        1.7240     2.4120    -0.2160 H     1 <1>   0.0800 
 36 H        1.0260    -2.0890     1.1790 H     1 <1>   0.0800 
 37 H        4.3360    -0.6090    -1.1850 H     1 <1>   0.0800 
 38 H        5.3530    -1.1290     0.1260 H     1 <1>   0.0800 
 39 H        4.2450     2.4180     1.3970 H     1 <1>   0.0800 
 40 H        3.5890     3.6110     0.3390 H     1 <1>   0.0800 
 41 H       -1.3040    -2.5490    -0.6910 H     1 <1>   0.0800 
 42 H       -1.1380    -1.2390     0.4500 H     1 <1>   0.0800 
 43 H       -1.2950    -2.8810     1.0230 H     1 <1>   0.0800 
 44 H        5.2660     2.8780    -0.9670 H     1 <1>   0.0800 
 45 H        4.0310     1.8020    -1.5520 H     1 <1>   0.0800 
 46 H        0.2120    -4.0900    -1.9120 H     1 <1>   0.1500 
 47 H        1.9220    -4.0590     2.0010 H     1 <1>   0.1500 
 48 H        6.2930     0.5720    -2.1420 H     1 <1>   0.0800 
 49 H        7.1860    -0.1150    -0.8280 H     1 <1>   0.0800 
 50 H        0.8440    -6.4380    -2.1630 H     1 <1>   0.1500 
 51 H        2.5490    -6.4070     1.7390 H     1 <1>   0.1500 
 52 H        2.0150    -7.6060    -0.3420 H     1 <1>   0.1500 
 53 H        7.9560     0.7120     1.2230 H     1 <1>   0.0800 
 54 H        6.9870     2.1130     1.6370 H     1 <1>   0.0800 
 55 H        8.6990     2.0800     2.0120 H     1 <1>   0.0800 
 56 H        8.0390     4.6130     1.4060 H     1 <1>   0.1500 
 57 H       10.4550     2.6280    -1.4750 H     1 <1>   0.1500 
 58 H        9.6280     6.4850     1.4560 H     1 <1>   0.1500 
 59 H       12.0480     4.4980    -1.4330 H     1 <1>   0.1500 
 60 H       11.6380     6.4300     0.0380 H     1 <1>   0.1500 
@<TRIPOS>BOND
  1   1   2  2   
  2   2   3  am  
  3   2   4  1   
  4   3   5  1   
  5   3   6  1   
  6   4   7  1   
  7   4  30  1   
  8   4  31  1   
  9   5   8  1   
 10   5  32  1   
 11   5  33  1   
 12   6   9  1   
 13   6  34  1   
 14   6  35  1   
 15   7  10  1   
 16   7  11  1   
 17   7  36  1   
 18   8  12  1   
 19   8  37  1   
 20   8  38  1   
 21   9  13  1   
 22   9  39  1   
 23   9  40  1   
 24  10  14  ar  
 25  10  15  ar  
 26  11  41  1   
 27  11  42  1   
 28  11  43  1   
 29  12  13  1   
 30  12  16  1   
 31  13  44  1   
 32  13  45  1   
 33  14  17  ar  
 34  14  46  1   
 35  15  18  ar  
 36  15  47  1   
 37  16  19  1   
 38  16  48  1   
 39  16  49  1   
 40  17  20  ar  
 41  17  50  1   
 42  18  20  ar  
 43  18  51  1   
 44  19  21  2   
 45  19  22  am  
 46  20  52  1   
 47  22  23  1   
 48  22  24  1   
 49  23  25  ar  
 50  23  26  ar  
 51  24  53  1   
 52  24  54  1   
 53  24  55  1   
 54  25  27  ar  
 55  25  56  1   
 56  26  28  ar  
 57  26  57  1   
 58  27  29  ar  
 59  27  58  1   
 60  28  29  ar  
 61  28  59  1   
 62  29  60  1   
@<TRIPOS>SUBSTRUCTURE
  1 ****   8 GROUP 4 **** **** 0

# MOE 2024.06 (io_trps.svl 2023.06)
