@<TRIPOS>MOLECULE
NONAME
39 39 1 0 0 
SMALL
USER_CHARGES


@<TRIPOS>ATOM
  1 O       -0.6400    -0.2390     0.6650 O.2   1 <1>  -0.5700 
  2 C       -1.0600    -1.3180     0.2970 C.2   1 <1>   0.7800 
  3 O       -0.2500    -2.3690     0.1440 O.3   1 <1>  -0.4300 
  4 N       -2.3790    -1.5180     0.0100 N.am  1 <1>  -0.6600 
  5 C        1.1410    -2.4140     0.3780 C.3   1 <1>   0.2800 
  6 C       -3.4020    -0.4510     0.0720 C.3   1 <1>   0.1400 
  7 C       -2.9420    -2.7730    -0.5210 C.3   1 <1>   0.1400 
  8 C        1.4410    -2.1250     1.8530 C.3   1 <1>  -0.2400 
  9 C        1.5530    -3.8500     0.0520 C.3   1 <1>  -0.2400 
 10 C        1.8700    -1.4530    -0.5680 C.3   1 <1>  -0.2400 
 11 C       -4.5770    -0.9930    -0.7390 C.3   1 <1>   0.2000 
 12 C       -4.4410    -2.5130    -0.6540 C.3   1 <1>  -0.1600 
 13 O       -5.7790    -0.5750    -0.1710 O.3   1 <1>  -0.5600 
 14 C       -6.9150    -0.7480    -0.9840 C.3   1 <1>   0.1810 
 15 C       -8.1880    -0.2460    -0.3100 C.2   1 <1>   0.6590 
 16 O       -8.7880     0.7120    -0.7290 O.2   1 <1>  -0.5700 
 17 O       -8.6210    -0.9440     0.7370 O.3   1 <1>  -0.4300 
 18 C       -9.7890    -0.5760     1.4420 C.3   1 <1>   0.0400 
 19 H       -3.6890    -0.3000     1.0990 H     1 <1>   0.0800 
 20 H       -3.0230     0.4650    -0.3460 H     1 <1>   0.0800 
 21 H       -2.5020    -2.9750    -1.4840 H     1 <1>   0.0800 
 22 H       -2.7390    -3.5930     0.1470 H     1 <1>   0.0800 
 23 H        2.4820    -2.2970     2.0560 H     1 <1>   0.0800 
 24 H        0.8580    -2.7690     2.4860 H     1 <1>   0.0800 
 25 H        1.2290    -1.1010     2.0990 H     1 <1>   0.0800 
 26 H        2.6090    -3.9800     0.2040 H     1 <1>   0.0800 
 27 H        1.3270    -4.0800    -0.9740 H     1 <1>   0.0800 
 28 H        1.0310    -4.5410     0.6900 H     1 <1>   0.0800 
 29 H        2.9320    -1.5920    -0.4850 H     1 <1>   0.0800 
 30 H        1.6570    -0.4290    -0.3210 H     1 <1>   0.0800 
 31 H        1.5800    -1.6380    -1.5870 H     1 <1>   0.0800 
 32 H       -4.5060    -0.6380    -1.7530 H     1 <1>   0.0800 
 33 H       -4.9300    -2.8750     0.2330 H     1 <1>   0.0800 
 34 H       -4.8430    -3.0080    -1.5190 H     1 <1>   0.0800 
 35 H       -6.7670    -0.2000    -1.8970 H     1 <1>   0.0800 
 36 H       -7.0280    -1.7930    -1.2040 H     1 <1>   0.0800 
 37 H       -9.9370    -1.2770     2.2440 H     1 <1>   0.0800 
 38 H      -10.6260    -0.6010     0.7660 H     1 <1>   0.0800 
 39 H       -9.6580     0.4170     1.8350 H     1 <1>   0.0800 
@<TRIPOS>BOND
  1   1   2  2   
  2   2   3  1   
  3   2   4  am  
  4   3   5  1   
  5   4   6  1   
  6   4   7  1   
  7   5   8  1   
  8   5   9  1   
  9   5  10  1   
 10   6  11  1   
 11   6  19  1   
 12   6  20  1   
 13   7  12  1   
 14   7  21  1   
 15   7  22  1   
 16   8  23  1   
 17   8  24  1   
 18   8  25  1   
 19   9  26  1   
 20   9  27  1   
 21   9  28  1   
 22  10  29  1   
 23  10  30  1   
 24  10  31  1   
 25  11  12  1   
 26  11  13  1   
 27  11  32  1   
 28  12  33  1   
 29  12  34  1   
 30  13  14  1   
 31  14  15  1   
 32  14  35  1   
 33  14  36  1   
 34  15  16  2   
 35  15  17  1   
 36  17  18  1   
 37  18  37  1   
 38  18  38  1   
 39  18  39  1   
@<TRIPOS>SUBSTRUCTURE
  1 ****   6 GROUP 4 **** **** 0

# MOE 2024.06 (io_trps.svl 2023.06)
