@<TRIPOS>MOLECULE
NONAME
46 47 1 0 0 
SMALL
USER_CHARGES


@<TRIPOS>ATOM
  1 S       -0.1860     0.3180     1.7420 S.o2  1 <1>   1.4470 
  2 O       -0.6030     1.4790     2.5010 O.2   1 <1>  -0.6500 
  3 O        0.1140    -0.8920     2.4750 O.2   1 <1>  -0.6500 
  4 N       -1.4220     0.0240     0.6150 N.am  1 <1>  -0.8490 
  5 C        1.2400     0.8040     0.7290 C.ar  1 <1>  -0.0090 
  6 C       -1.1710    -0.8660    -0.5470 C.3   1 <1>   0.1960 
  7 C       -2.7820    -0.0180     1.1480 C.3   1 <1>   0.1960 
  8 C        1.1650     1.8940    -0.1270 C.ar  1 <1>  -0.1500 
  9 C        2.4380     0.1010     0.7810 C.ar  1 <1>  -0.1500 
 10 C       -1.6660    -2.3290    -0.4070 C.3   1 <1>  -0.1060 
 11 C       -3.2420    -1.4500     1.4120 C.3   1 <1>  -0.1600 
 12 C        2.2390     2.2800    -0.9110 C.ar  1 <1>   0.0820 
 13 C        3.5220     0.4700     0.0030 C.ar  1 <1>  -0.1500 
 14 C       -1.7360    -2.9390    -1.8110 C.2   1 <1>   0.9060 
 15 C       -3.1140    -2.2630     0.1270 C.3   1 <1>   0.2000 
 16 C       -0.7460    -3.2240     0.4840 C.3   1 <1>  -0.1600 
 17 O        2.0570     3.3600    -1.7090 O.3   1 <1>  -0.3630 
 18 C        3.4270     1.5590    -0.8450 C.ar  1 <1>  -0.1500 
 19 O       -1.1230    -2.4060    -2.7440 O.co2 1 <1>  -0.9000 
 20 O       -2.4220    -3.9580    -1.9870 O.co2 1 <1>  -0.9000 
 21 O       -3.6090    -3.5300     0.3540 O.3   1 <1>  -0.6800 
 22 C        0.7240    -3.2930     0.0330 C.3   1 <1>  -0.1600 
 23 C        3.0570     3.7880    -2.6060 C.3   1 <1>   0.0400 
 24 C        1.5330    -4.2120     0.9520 C.3   1 <1>  -0.2400 
 25 H       -1.7010    -0.4310    -1.3780 H     1 <1>   0.0800 
 26 H       -0.1340    -0.8450    -0.8290 H     1 <1>   0.0800 
 27 H       -2.8530     0.5620     2.0540 H     1 <1>   0.0800 
 28 H       -3.4420     0.4300     0.4250 H     1 <1>   0.0800 
 29 H        0.2490     2.4570    -0.1880 H     1 <1>   0.1500 
 30 H        2.5220    -0.7490     1.4380 H     1 <1>   0.1500 
 31 H       -4.2710    -1.4350     1.7200 H     1 <1>   0.0800 
 32 H       -2.6570    -1.8800     2.2030 H     1 <1>   0.0800 
 33 H        4.4380    -0.0930     0.0570 H     1 <1>   0.1500 
 34 H       -3.7400    -1.8210    -0.6310 H     1 <1>   0.0800 
 35 H       -0.7920    -2.9070     1.5050 H     1 <1>   0.0800 
 36 H       -1.1350    -4.2270     0.4630 H     1 <1>   0.0800 
 37 H        4.2790     1.8270    -1.4390 H     1 <1>   0.1500 
 38 H       -3.3600    -4.0500    -0.4640 H     1 <1>   0.4000 
 39 H        0.7760    -3.6640    -0.9770 H     1 <1>   0.0800 
 40 H        1.1680    -2.3170     0.0510 H     1 <1>   0.0800 
 41 H        2.6780     4.6350    -3.1490 H     1 <1>   0.0800 
 42 H        3.2790     2.9860    -3.2890 H     1 <1>   0.0800 
 43 H        3.9300     4.0720    -2.0460 H     1 <1>   0.0800 
 44 H        1.1240    -5.2070     0.9350 H     1 <1>   0.0800 
 45 H        1.5070    -3.8410     1.9620 H     1 <1>   0.0800 
 46 H        2.5550    -4.2530     0.6230 H     1 <1>   0.0800 
@<TRIPOS>BOND
  1   1   2  2   
  2   1   3  2   
  3   1   4  am  
  4   1   5  1   
  5   4   6  1   
  6   4   7  1   
  7   5   8  ar  
  8   5   9  ar  
  9   6  10  1   
 10   6  25  1   
 11   6  26  1   
 12   7  11  1   
 13   7  27  1   
 14   7  28  1   
 15   8  12  ar  
 16   8  29  1   
 17   9  13  ar  
 18   9  30  1   
 19  10  14  1   
 20  10  15  1   
 21  10  16  1   
 22  11  15  1   
 23  11  31  1   
 24  11  32  1   
 25  12  17  1   
 26  12  18  ar  
 27  13  18  ar  
 28  13  33  1   
 29  14  19  ar  
 30  14  20  ar  
 31  15  21  1   
 32  15  34  1   
 33  16  22  1   
 34  16  35  1   
 35  16  36  1   
 36  17  23  1   
 37  18  37  1   
 38  21  38  1   
 39  22  24  1   
 40  22  39  1   
 41  22  40  1   
 42  23  41  1   
 43  23  42  1   
 44  23  43  1   
 45  24  44  1   
 46  24  45  1   
 47  24  46  1   
@<TRIPOS>SUBSTRUCTURE
  1 ****   6 GROUP 4 **** **** 0

# MOE 2024.06 (io_trps.svl 2023.06)
