@<TRIPOS>MOLECULE
NONAME
47 48 1 0 0 
SMALL
USER_CHARGES


@<TRIPOS>ATOM
  1 S        0.1400     1.4140    -0.1770 S.o2  1 <1>   1.3330 
  2 O       -1.2200     1.7950     0.1210 O.2   1 <1>  -0.6500 
  3 O        0.8510     2.1130    -1.2280 O.2   1 <1>  -0.6500 
  4 N        0.1370    -0.2430    -0.5480 N.am  1 <1>  -0.8490 
  5 C        1.1100     1.5220     1.3350 C.3   1 <1>  -0.0550 
  6 C       -0.8600    -1.0060     0.2140 C.3   1 <1>   0.1160 
  7 C       -0.0490    -0.4920    -1.9810 C.3   1 <1>   0.1160 
  8 C        2.5290     0.9060     1.3410 C.3   1 <1>  -0.0800 
  9 C        3.2980     0.9060     0.0340 C.3   1 <1>   0.2200 
 10 C        2.6330    -0.5680     1.7220 C.3   1 <1>   0.1200 
 11 N        3.6660     2.2660    -0.4170 N.am  1 <1>  -0.7300 
 12 C        4.4300    -0.0620     0.3530 C.3   1 <1>   0.1200 
 13 O        3.8620    -1.0100     1.2170 O.3   1 <1>  -0.5600 
 14 C        4.4430     3.1940     0.2010 C.2   1 <1>   0.7150 
 15 O        5.0710     2.8790     1.1900 O.2   1 <1>  -0.5700 
 16 C        4.4380     4.5280    -0.3200 C.2   1 <1>  -0.2370 
 17 N        5.4680     5.4270    -0.3170 N.pl3 1 <1>   0.3140 
 18 C        3.4000     5.1670    -0.9310 C.2   1 <1>  -0.1500 
 19 N        5.1020     6.5900    -0.8960 N.2   1 <1>  -0.7070 
 20 C        6.8910     5.3020     0.1400 C.3   1 <1>   0.1760 
 21 C        3.8680     6.4220    -1.2550 C.2   1 <1>   0.1390 
 22 C        7.6040     4.0680    -0.4350 C.3   1 <1>  -0.2400 
 23 C        7.0220     5.3990     1.6670 C.3   1 <1>  -0.2400 
 24 H        1.2190     2.5660     1.5610 H     1 <1>   0.0800 
 25 H        0.5510     1.0940     2.1430 H     1 <1>   0.0800 
 26 H       -0.7550    -2.0580     0.0100 H     1 <1>   0.0800 
 27 H       -1.8570    -0.6950    -0.0530 H     1 <1>   0.0800 
 28 H       -0.7220    -0.8510     1.2700 H     1 <1>   0.0800 
 29 H       -0.0300    -1.5490    -2.1830 H     1 <1>   0.0800 
 30 H        0.7440    -0.0290    -2.5440 H     1 <1>   0.0800 
 31 H       -0.9910    -0.0850    -2.3120 H     1 <1>   0.0800 
 32 H        3.1030     1.4360     2.0820 H     1 <1>   0.0800 
 33 H        2.7170     0.4410    -0.7430 H     1 <1>   0.0800 
 34 H        1.8630    -1.1570     1.2560 H     1 <1>   0.0800 
 35 H        2.6190    -0.7180     2.7870 H     1 <1>   0.0800 
 36 H        3.0450     2.6150    -1.1550 H     1 <1>   0.3700 
 37 H        5.2320     0.4210     0.8820 H     1 <1>   0.0800 
 38 H        4.7990    -0.5610    -0.5240 H     1 <1>   0.0800 
 39 H        2.4090     4.7980    -1.1290 H     1 <1>   0.1500 
 40 H        7.4010     6.1600    -0.2630 H     1 <1>   0.0800 
 41 H        3.2900     7.1860    -1.7490 H     1 <1>   0.1500 
 42 H        7.2530     3.1590     0.0150 H     1 <1>   0.0800 
 43 H        8.6590     4.1420    -0.2440 H     1 <1>   0.0800 
 44 H        7.4560     4.0200    -1.4990 H     1 <1>   0.0800 
 45 H        6.5830     4.5520     2.1580 H     1 <1>   0.0800 
 46 H        6.5430     6.2960     2.0180 H     1 <1>   0.0800 
 47 H        8.0600     5.4420     1.9410 H     1 <1>   0.0800 
@<TRIPOS>BOND
  1   1   2  2   
  2   1   3  2   
  3   1   4  am  
  4   1   5  1   
  5   4   6  1   
  6   4   7  1   
  7   5   8  1   
  8   5  24  1   
  9   5  25  1   
 10   6  26  1   
 11   6  27  1   
 12   6  28  1   
 13   7  29  1   
 14   7  30  1   
 15   7  31  1   
 16   8   9  1   
 17   8  10  1   
 18   8  32  1   
 19   9  11  1   
 20   9  12  1   
 21   9  33  1   
 22  10  13  1   
 23  10  34  1   
 24  10  35  1   
 25  11  14  am  
 26  11  36  1   
 27  12  13  1   
 28  12  37  1   
 29  12  38  1   
 30  14  15  2   
 31  14  16  1   
 32  16  17  1   
 33  16  18  2   
 34  17  19  1   
 35  17  20  1   
 36  18  21  1   
 37  18  39  1   
 38  19  21  2   
 39  20  22  1   
 40  20  23  1   
 41  20  40  1   
 42  21  41  1   
 43  22  42  1   
 44  22  43  1   
 45  22  44  1   
 46  23  45  1   
 47  23  46  1   
 48  23  47  1   
@<TRIPOS>SUBSTRUCTURE
  1 ****  11 GROUP 4 **** **** 0

# MOE 2024.06 (io_trps.svl 2023.06)
