@<TRIPOS>MOLECULE
NONAME
44 46 1 0 0 
SMALL
USER_CHARGES


@<TRIPOS>ATOM
  1 O        2.2010    -0.4170    -1.0630 O.3   1 <1>  -0.3630 
  2 C        1.9420    -1.5180    -0.3530 C.ar  1 <1>   0.0830 
  3 C        2.3520     0.6480    -0.1250 C.3   1 <1>   0.4000 
  4 C        1.8870    -1.2200     0.9750 C.ar  1 <1>   0.0830 
  5 C        1.7410    -2.8020    -0.8110 C.ar  1 <1>  -0.1500 
  6 O        2.1110     0.0840     1.1630 O.3   1 <1>  -0.3630 
  7 C        1.6330    -2.1940     1.9180 C.ar  1 <1>  -0.1500 
  8 C        1.4650    -3.8010     0.1190 C.ar  1 <1>  -0.1440 
  9 C        1.4230    -3.5010     1.4880 C.ar  1 <1>  -0.1430 
 10 C        1.2020    -5.2050    -0.3940 C.3   1 <1>   0.4870 
 11 C        1.1550    -4.5640     2.5480 C.3   1 <1>  -0.0960 
 12 N       -0.2660    -5.4560    -0.4250 N.4   1 <1>  -0.9590 
 13 C       -0.6290    -6.8540    -0.7140 C.3   1 <1>   0.5230 
 14 C       -1.0700    -4.4620    -1.1960 C.3   1 <1>   0.3430 
 15 C       -0.0540    -7.6860     0.4020 C.2   1 <1>  -0.3320 
 16 C       -1.7700    -3.5030    -0.2110 C.3   1 <1>   0.1200 
 17 N        0.9100    -8.6260     0.2750 N.pl3 1 <1>   0.0480 
 18 C       -0.3840    -7.6480     1.7130 C.2   1 <1>   0.0770 
 19 O       -2.1580    -4.2080     0.9320 O.3   1 <1>  -0.6800 
 20 C        1.1100    -9.0750     1.5340 C.2   1 <1>   0.0360 
 21 C        1.5860    -9.1190    -0.9420 C.3   1 <1>   0.0160 
 22 N        0.3620    -8.5070     2.4210 N.2   1 <1>  -0.5650 
 23 H        1.6270     1.4160    -0.3260 H     1 <1>   0.0800 
 24 H        3.3580     1.0290    -0.1690 H     1 <1>   0.0800 
 25 H        1.8030    -2.9900    -1.8680 H     1 <1>   0.1500 
 26 H        1.6050    -1.9240     2.9590 H     1 <1>   0.1500 
 27 H        1.6850    -5.9150     0.2570 H     1 <1>   0.0800 
 28 H        1.6170    -5.3140    -1.3820 H     1 <1>   0.0800 
 29 H        1.4540    -4.2110     3.5190 H     1 <1>   0.0800 
 30 H        1.7090    -5.4640     2.3510 H     1 <1>   0.0800 
 31 H        0.1060    -4.7950     2.5900 H     1 <1>   0.0800 
 32 H       -0.5990    -5.2910     0.5420 H     1 <1>   0.4500 
 33 H       -0.2400    -7.1620    -1.6690 H     1 <1>   0.0800 
 34 H       -1.7030    -6.9610    -0.7200 H     1 <1>   0.0800 
 35 H       -1.8290    -4.9680    -1.7700 H     1 <1>   0.0800 
 36 H       -0.4510    -3.9040    -1.8790 H     1 <1>   0.0800 
 37 H       -2.6420    -3.0630    -0.6650 H     1 <1>   0.0800 
 38 H       -1.0990    -2.7150     0.0900 H     1 <1>   0.0800 
 39 H       -1.1280    -7.0390     2.2030 H     1 <1>   0.1500 
 40 H       -2.6420    -3.6190     1.5540 H     1 <1>   0.4000 
 41 H        1.8310    -9.8430     1.7620 H     1 <1>   0.1500 
 42 H        2.1150    -8.3130    -1.4170 H     1 <1>   0.0800 
 43 H        0.8580    -9.5290    -1.6170 H     1 <1>   0.0800 
 44 H        2.2870    -9.8900    -0.6750 H     1 <1>   0.0800 
@<TRIPOS>BOND
  1   1   2  1   
  2   1   3  1   
  3   2   4  ar  
  4   2   5  ar  
  5   3   6  1   
  6   3  23  1   
  7   3  24  1   
  8   4   6  1   
  9   4   7  ar  
 10   5   8  ar  
 11   5  25  1   
 12   7   9  ar  
 13   7  26  1   
 14   8   9  ar  
 15   8  10  1   
 16   9  11  1   
 17  10  12  1   
 18  10  27  1   
 19  10  28  1   
 20  11  29  1   
 21  11  30  1   
 22  11  31  1   
 23  12  13  1   
 24  12  14  1   
 25  12  32  1   
 26  13  15  1   
 27  13  33  1   
 28  13  34  1   
 29  14  16  1   
 30  14  35  1   
 31  14  36  1   
 32  15  17  1   
 33  15  18  2   
 34  16  19  1   
 35  16  37  1   
 36  16  38  1   
 37  17  20  1   
 38  17  21  1   
 39  18  22  1   
 40  18  39  1   
 41  19  40  1   
 42  20  22  2   
 43  20  41  1   
 44  21  42  1   
 45  21  43  1   
 46  21  44  1   
@<TRIPOS>SUBSTRUCTURE
  1 ****   8 GROUP 4 **** **** 0

# MOE 2024.06 (io_trps.svl 2023.06)
