@<TRIPOS>MOLECULE
NONAME
55 58 1 0 0 
SMALL
USER_CHARGES


@<TRIPOS>ATOM
  1 O        0.3520     0.4090     0.9750 O.2   1 <1>  -0.5700 
  2 C       -0.2740     1.2630     0.3940 C.2   1 <1>   0.5690 
  3 N       -1.6240     1.4180     0.5760 N.am  1 <1>  -0.6600 
  4 C        0.4960     2.1740    -0.5470 C.3   1 <1>  -0.0990 
  5 C       -2.4200     2.5470    -0.0020 C.3   1 <1>   0.1400 
  6 C       -2.3810     0.4410     1.4190 C.3   1 <1>   0.1400 
  7 C        0.9800     3.4390     0.1700 C.3   1 <1>   0.0200 
  8 C       -3.5150     3.0190     0.9650 C.3   1 <1>   0.1440 
  9 C       -3.8870     0.4690     1.1050 C.3   1 <1>  -0.1600 
 10 C        1.5390     4.4430    -0.8260 C.2   1 <1>  -0.3320 
 11 C       -4.1910     4.2540     0.4010 C.ar  1 <1>   0.1670 
 12 C       -4.5260     1.8730     1.2080 C.3   1 <1>  -0.1600 
 13 C       -2.9370     3.5560     2.3040 C.3   1 <1>  -0.1600 
 14 N        0.8150     5.3120    -1.5740 N.pl3 1 <1>   0.3140 
 15 C        2.8360     4.6500    -1.1390 C.2   1 <1>  -0.1500 
 16 N       -4.5830     4.3970    -0.8400 N.ar  1 <1>  -0.6200 
 17 C       -4.3160     5.2340     1.3380 C.ar  1 <1>  -0.1440 
 18 C       -3.7540     4.8080     2.6700 C.3   1 <1>  -0.0170 
 19 N        1.6110     6.0600    -2.3550 N.2   1 <1>  -0.7070 
 20 C       -0.6440     5.5070    -1.5970 C.3   1 <1>   0.0160 
 21 C        2.8160     5.6600    -2.0900 C.2   1 <1>   0.1390 
 22 C       -5.1310     5.5790    -1.1320 C.ar  1 <1>   0.7200 
 23 C       -4.8940     6.4150     0.9490 C.ar  1 <1>   0.1600 
 24 N       -5.3030     6.5990    -0.2840 N.ar  1 <1>  -0.6200 
 25 N       -5.5460     5.7680    -2.4350 N.pl3 1 <1>  -0.8380 
 26 C       -5.7920     4.6280    -3.3620 C.3   1 <1>   0.1290 
 27 C       -5.9020     7.1140    -2.9620 C.3   1 <1>   0.1290 
 28 H       -0.1130     2.4230    -1.3950 H     1 <1>   0.0800 
 29 H        1.3490     1.6390    -0.9220 H     1 <1>   0.0800 
 30 H       -2.8750     2.2200    -0.9210 H     1 <1>   0.0800 
 31 H       -1.7890     3.3830    -0.2280 H     1 <1>   0.0800 
 32 H       -2.2180     0.6770     2.4560 H     1 <1>   0.0800 
 33 H       -1.9970    -0.5510     1.2450 H     1 <1>   0.0800 
 34 H        1.7500     3.1630     0.8700 H     1 <1>   0.0800 
 35 H        0.1860     3.8920     0.7340 H     1 <1>   0.0800 
 36 H       -4.4020    -0.2100     1.7620 H     1 <1>   0.0800 
 37 H       -4.0170     0.0970     0.1040 H     1 <1>   0.0800 
 38 H       -5.3110     1.9340     0.4730 H     1 <1>   0.0800 
 39 H       -4.9900     1.9970     2.1700 H     1 <1>   0.0800 
 40 H       -1.9140     3.8550     2.1560 H     1 <1>   0.0800 
 41 H       -2.9600     2.8250     3.0920 H     1 <1>   0.0800 
 42 H        3.7130     4.1590    -0.7570 H     1 <1>   0.1500 
 43 H       -3.1370     5.5720     3.1090 H     1 <1>   0.0800 
 44 H       -4.5600     4.5560     3.3380 H     1 <1>   0.0800 
 45 H       -1.0100     5.6040    -0.5930 H     1 <1>   0.0800 
 46 H       -1.1060     4.6700    -2.0840 H     1 <1>   0.0800 
 47 H       -0.8690     6.4030    -2.1440 H     1 <1>   0.0800 
 48 H        3.6930     6.0720    -2.5600 H     1 <1>   0.1500 
 49 H       -5.0200     7.2190     1.6540 H     1 <1>   0.1500 
 50 H       -6.0000     3.7280    -2.8110 H     1 <1>   0.0800 
 51 H       -4.9220     4.4700    -3.9750 H     1 <1>   0.0800 
 52 H       -6.6370     4.8400    -3.9920 H     1 <1>   0.0800 
 53 H       -5.3260     7.8780    -2.4680 H     1 <1>   0.0800 
 54 H       -6.9470     7.3020    -2.7930 H     1 <1>   0.0800 
 55 H       -5.6950     7.1650    -4.0160 H     1 <1>   0.0800 
@<TRIPOS>BOND
  1   1   2  2   
  2   2   3  am  
  3   2   4  1   
  4   3   5  1   
  5   3   6  1   
  6   4   7  1   
  7   4  28  1   
  8   4  29  1   
  9   5   8  1   
 10   5  30  1   
 11   5  31  1   
 12   6   9  1   
 13   6  32  1   
 14   6  33  1   
 15   7  10  1   
 16   7  34  1   
 17   7  35  1   
 18   8  11  1   
 19   8  12  1   
 20   8  13  1   
 21   9  12  1   
 22   9  36  1   
 23   9  37  1   
 24  10  14  1   
 25  10  15  2   
 26  11  16  ar  
 27  11  17  ar  
 28  12  38  1   
 29  12  39  1   
 30  13  18  1   
 31  13  40  1   
 32  13  41  1   
 33  14  19  1   
 34  14  20  1   
 35  15  21  1   
 36  15  42  1   
 37  16  22  ar  
 38  17  18  1   
 39  17  23  ar  
 40  18  43  1   
 41  18  44  1   
 42  19  21  2   
 43  20  45  1   
 44  20  46  1   
 45  20  47  1   
 46  21  48  1   
 47  22  24  ar  
 48  22  25  1   
 49  23  24  ar  
 50  23  49  1   
 51  25  26  1   
 52  25  27  1   
 53  26  50  1   
 54  26  51  1   
 55  26  52  1   
 56  27  53  1   
 57  27  54  1   
 58  27  55  1   
@<TRIPOS>SUBSTRUCTURE
  1 ****   5 GROUP 4 **** **** 0

# MOE 2024.06 (io_trps.svl 2023.06)
