@<TRIPOS>MOLECULE
NONAME
52 55 1 0 0 
SMALL
USER_CHARGES


@<TRIPOS>ATOM
  1 F       -0.6810    -0.5800    -0.5650 F     1 <1>  -0.1900 
  2 C       -1.2780    -1.7420    -0.4800 C.ar  1 <1>   0.1900 
  3 C       -2.4080    -1.9680    -1.2430 C.ar  1 <1>  -0.1500 
  4 C       -0.7580    -2.6980     0.3710 C.ar  1 <1>  -0.1500 
  5 C       -3.0320    -3.1990    -1.1470 C.ar  1 <1>  -0.1500 
  6 C       -1.3960    -3.9230     0.4570 C.ar  1 <1>  -0.1500 
  7 C       -2.5370    -4.1880    -0.3000 C.ar  1 <1>   0.1000 
  8 N       -3.1870    -5.4170    -0.2180 N.pl3 1 <1>  -0.8380 
  9 C       -4.6290    -5.4370     0.2030 C.3   1 <1>   0.2090 
 10 C       -2.3960    -6.6750    -0.2530 C.3   1 <1>   0.2090 
 11 C       -4.9840    -6.5540     1.1950 C.3   1 <1>   0.2090 
 12 C       -3.1590    -7.8210    -0.9210 C.3   1 <1>  -0.1600 
 13 N       -5.2190    -7.8570     0.5020 N.pl3 1 <1>  -0.8380 
 14 C       -4.0300    -8.6220     0.0500 C.3   1 <1>   0.2090 
 15 C       -6.5160    -8.3260     0.3800 C.ar  1 <1>   0.4100 
 16 N       -7.3640    -7.4300    -0.1290 N.ar  1 <1>  -0.6200 
 17 C       -6.9100    -9.6260     0.7640 C.ar  1 <1>   0.0860 
 18 C       -8.6180    -7.8040    -0.2740 C.ar  1 <1>   0.1600 
 19 C       -5.9910   -10.5850     1.3200 C.2   1 <1>   0.5440 
 20 C       -8.2410    -9.9810     0.5960 C.ar  1 <1>  -0.1500 
 21 C       -9.1060    -9.0520     0.0670 C.ar  1 <1>  -0.1500 
 22 O       -5.5530   -10.4520     2.4490 O.2   1 <1>  -0.5700 
 23 N       -5.6070   -11.6920     0.5950 N.am  1 <1>  -0.6600 
 24 C       -5.9450   -11.9490    -0.8210 C.3   1 <1>   0.1400 
 25 C       -4.6450   -12.6900     1.1080 C.3   1 <1>   0.1400 
 26 C       -4.8950   -12.9520    -1.2840 C.3   1 <1>  -0.1600 
 27 C       -4.5020   -13.7100    -0.0180 C.3   1 <1>  -0.1600 
 28 H       -2.7830    -1.2010    -1.8950 H     1 <1>   0.1500 
 29 H        0.1220    -2.4840     0.9500 H     1 <1>   0.1500 
 30 H       -3.9080    -3.4110    -1.7330 H     1 <1>   0.1500 
 31 H       -1.0180    -4.6800     1.1170 H     1 <1>   0.1500 
 32 H       -5.2560    -5.5340    -0.6660 H     1 <1>   0.0800 
 33 H       -4.8580    -4.4950     0.6680 H     1 <1>   0.0800 
 34 H       -2.1060    -6.9490     0.7460 H     1 <1>   0.0800 
 35 H       -1.4990    -6.4870    -0.8180 H     1 <1>   0.0800 
 36 H       -5.8860    -6.2720     1.7080 H     1 <1>   0.0800 
 37 H       -4.2110    -6.6560     1.9350 H     1 <1>   0.0800 
 38 H       -2.4300    -8.5000    -1.3200 H     1 <1>   0.0800 
 39 H       -3.7450    -7.4570    -1.7450 H     1 <1>   0.0800 
 40 H       -3.4580    -8.9260     0.9100 H     1 <1>   0.0800 
 41 H       -4.3560    -9.5090    -0.4600 H     1 <1>   0.0800 
 42 H       -9.2980    -7.0780    -0.6870 H     1 <1>   0.1500 
 43 H       -8.5810   -10.9610     0.8830 H     1 <1>   0.1500 
 44 H      -10.1450    -9.2840    -0.0790 H     1 <1>   0.1500 
 45 H       -5.9150   -11.0450    -1.4060 H     1 <1>   0.0800 
 46 H       -6.9270   -12.3860    -0.8740 H     1 <1>   0.0800 
 47 H       -5.0120   -13.1410     2.0140 H     1 <1>   0.0800 
 48 H       -3.7050   -12.2030     1.3050 H     1 <1>   0.0800 
 49 H       -4.0450   -12.4160    -1.6680 H     1 <1>   0.0800 
 50 H       -5.2740   -13.6030    -2.0520 H     1 <1>   0.0800 
 51 H       -5.1930   -14.5170     0.1550 H     1 <1>   0.0800 
 52 H       -3.5050   -14.1090    -0.0700 H     1 <1>   0.0800 
@<TRIPOS>BOND
  1   1   2  1   
  2   2   3  ar  
  3   2   4  ar  
  4   3   5  ar  
  5   3  28  1   
  6   4   6  ar  
  7   4  29  1   
  8   5   7  ar  
  9   5  30  1   
 10   6   7  ar  
 11   6  31  1   
 12   7   8  1   
 13   8   9  1   
 14   8  10  1   
 15   9  11  1   
 16   9  32  1   
 17   9  33  1   
 18  10  12  1   
 19  10  34  1   
 20  10  35  1   
 21  11  13  1   
 22  11  36  1   
 23  11  37  1   
 24  12  14  1   
 25  12  38  1   
 26  12  39  1   
 27  13  14  1   
 28  13  15  1   
 29  14  40  1   
 30  14  41  1   
 31  15  16  ar  
 32  15  17  ar  
 33  16  18  ar  
 34  17  19  1   
 35  17  20  ar  
 36  18  21  ar  
 37  18  42  1   
 38  19  22  2   
 39  19  23  am  
 40  20  21  ar  
 41  20  43  1   
 42  21  44  1   
 43  23  24  1   
 44  23  25  1   
 45  24  26  1   
 46  24  45  1   
 47  24  46  1   
 48  25  27  1   
 49  25  47  1   
 50  25  48  1   
 51  26  27  1   
 52  26  49  1   
 53  26  50  1   
 54  27  51  1   
 55  27  52  1   
@<TRIPOS>SUBSTRUCTURE
  1 ****  13 GROUP 4 **** **** 0

# MOE 2024.06 (io_trps.svl 2023.06)
