@<TRIPOS>MOLECULE
NONAME
43 45 1 0 0 
SMALL
USER_CHARGES


@<TRIPOS>ATOM
  1 F       -1.1080    -0.2760    -1.3490 F     1 <1>  -0.1900 
  2 C       -1.8260    -0.9200    -0.4640 C.ar  1 <1>   0.1900 
  3 C       -2.5040    -0.2470     0.5570 C.ar  1 <1>   0.0820 
  4 C       -1.8730    -2.2950    -0.6060 C.ar  1 <1>  -0.1500 
  5 O       -2.5230     1.1000     0.7780 O.3   1 <1>  -0.3630 
  6 C       -3.2270    -1.0570     1.4260 C.ar  1 <1>   0.1900 
  7 C       -2.6160    -3.0840     0.2730 C.ar  1 <1>   0.0860 
  8 C       -1.7840     2.0300     0.0180 C.3   1 <1>   0.0400 
  9 F       -3.8910    -0.5120     2.4140 F     1 <1>  -0.1900 
 10 C       -3.2890    -2.4320     1.3070 C.ar  1 <1>  -0.1500 
 11 C       -2.6660    -4.5230     0.1150 C.2   1 <1>   0.5440 
 12 O       -1.6330    -5.1380    -0.0610 O.2   1 <1>  -0.5700 
 13 N       -3.8550    -5.2160     0.1440 N.am  1 <1>  -0.6600 
 14 C       -5.1970    -4.6240    -0.0840 C.3   1 <1>   0.1400 
 15 C       -3.9080    -6.6930    -0.0060 C.3   1 <1>   0.1400 
 16 C       -6.0760    -5.7930    -0.5280 C.3   1 <1>   0.2000 
 17 C       -5.3970    -7.0460     0.0200 C.3   1 <1>  -0.0800 
 18 O       -7.3610    -5.6870    -0.0190 O.3   1 <1>  -0.6800 
 19 C       -5.7580    -8.3130    -0.7740 C.3   1 <1>  -0.0170 
 20 C       -5.1090    -9.5510    -0.1780 C.ar  1 <1>   0.1670 
 21 N       -3.8530    -9.7820    -0.5280 N.ar  1 <1>  -0.6200 
 22 C       -5.8350   -10.3610     0.6830 C.ar  1 <1>  -0.1500 
 23 C       -3.2970   -10.8590     0.0020 C.ar  1 <1>   0.1600 
 24 C       -5.2430   -11.4810     1.2280 C.ar  1 <1>  -0.1500 
 25 C       -3.9360   -11.7270     0.8710 C.ar  1 <1>  -0.1500 
 26 H       -1.3280    -2.7680    -1.4040 H     1 <1>   0.1500 
 27 H       -1.9560     3.0090     0.4290 H     1 <1>   0.0800 
 28 H       -2.1230     2.0000    -1.0020 H     1 <1>   0.0800 
 29 H       -0.7380     1.7860     0.0850 H     1 <1>   0.0800 
 30 H       -3.8540    -3.0010     2.0230 H     1 <1>   0.1500 
 31 H       -5.5620    -4.2050     0.8380 H     1 <1>   0.0800 
 32 H       -5.1550    -3.8680    -0.8480 H     1 <1>   0.0800 
 33 H       -3.4630    -6.9680    -0.9480 H     1 <1>   0.0800 
 34 H       -3.3700    -7.1800     0.7900 H     1 <1>   0.0800 
 35 H       -6.1350    -5.8170    -1.6030 H     1 <1>   0.0800 
 36 H       -5.6710    -7.1820     1.0510 H     1 <1>   0.0800 
 37 H       -7.3440    -5.7100     0.9570 H     1 <1>   0.4000 
 38 H       -5.4420    -8.2110    -1.7970 H     1 <1>   0.0800 
 39 H       -6.8260    -8.4370    -0.7770 H     1 <1>   0.0800 
 40 H       -6.8530   -10.1200     0.9280 H     1 <1>   0.1500 
 41 H       -2.2750   -11.0610    -0.2710 H     1 <1>   0.1500 
 42 H       -5.7770   -12.1310     1.9000 H     1 <1>   0.1500 
 43 H       -3.4130   -12.5820     1.2600 H     1 <1>   0.1500 
@<TRIPOS>BOND
  1   1   2  1   
  2   2   3  ar  
  3   2   4  ar  
  4   3   5  1   
  5   3   6  ar  
  6   4   7  ar  
  7   4  26  1   
  8   5   8  1   
  9   6   9  1   
 10   6  10  ar  
 11   7  10  ar  
 12   7  11  1   
 13   8  27  1   
 14   8  28  1   
 15   8  29  1   
 16  10  30  1   
 17  11  12  2   
 18  11  13  am  
 19  13  14  1   
 20  13  15  1   
 21  14  16  1   
 22  14  31  1   
 23  14  32  1   
 24  15  17  1   
 25  15  33  1   
 26  15  34  1   
 27  16  17  1   
 28  16  18  1   
 29  16  35  1   
 30  17  19  1   
 31  17  36  1   
 32  18  37  1   
 33  19  20  1   
 34  19  38  1   
 35  19  39  1   
 36  20  21  ar  
 37  20  22  ar  
 38  21  23  ar  
 39  22  24  ar  
 40  22  40  1   
 41  23  25  ar  
 42  23  41  1   
 43  24  25  ar  
 44  24  42  1   
 45  25  43  1   
@<TRIPOS>SUBSTRUCTURE
  1 ****  13 GROUP 4 **** **** 0

# MOE 2024.06 (io_trps.svl 2023.06)
