@<TRIPOS>MOLECULE
NONAME
48 50 1 0 0 
SMALL
USER_CHARGES


@<TRIPOS>ATOM
  1 CL       0.4280     0.7110     1.5570 Cl    1 <1>  -0.1770 
  2 C        1.5240    -0.5550     1.0680 C.ar  1 <1>   0.1770 
  3 C        2.5790    -0.2490     0.2320 C.ar  1 <1>  -0.1500 
  4 C        1.3080    -1.8400     1.5210 C.ar  1 <1>  -0.1500 
  5 C        3.4540    -1.2550    -0.1680 C.ar  1 <1>   0.0830 
  6 C        2.1750    -2.8510     1.1380 C.ar  1 <1>  -0.1440 
  7 O        4.4790    -0.9970    -1.0290 O.3   1 <1>  -0.3620 
  8 C        3.2580    -2.5650     0.3080 C.ar  1 <1>   0.0830 
  9 C        1.9320    -4.2670     1.6260 C.3   1 <1>   0.4870 
 10 C        4.7070     0.2880    -1.5690 C.3   1 <1>   0.0400 
 11 O        4.0630    -3.6250    -0.0050 O.3   1 <1>  -0.3630 
 12 N        1.7110    -5.1490     0.4510 N.4   1 <1>  -0.9590 
 13 C        5.4660    -3.4600    -0.1000 C.3   1 <1>   0.0400 
 14 C        0.4600    -4.7830    -0.2750 C.3   1 <1>   0.3430 
 15 C        1.5850    -6.5790     0.8630 C.3   1 <1>   0.3430 
 16 C       -0.5970    -5.7700     0.2230 C.3   1 <1>   0.2000 
 17 C        0.1950    -7.0630     0.4130 C.3   1 <1>  -0.0800 
 18 O       -1.0430    -5.3480     1.4720 O.3   1 <1>  -0.6800 
 19 C        0.2600    -7.8860    -0.8940 C.3   1 <1>  -0.0170 
 20 C        0.8880    -9.2570    -0.6790 C.ar  1 <1>   0.1670 
 21 N        2.1830    -9.2740    -0.4080 N.ar  1 <1>  -0.6200 
 22 C        0.1070   -10.4090    -0.7750 C.ar  1 <1>   0.1600 
 23 C        2.6430   -10.5070    -0.2510 C.ar  1 <1>   0.1600 
 24 N        0.5630   -11.6370    -0.6080 N.ar  1 <1>  -0.6200 
 25 C        1.8580   -11.6500    -0.3460 C.ar  1 <1>   0.1600 
 26 H        2.6850     0.7690    -0.0890 H     1 <1>   0.1500 
 27 H        0.4670    -2.0290     2.1670 H     1 <1>   0.1500 
 28 H        1.0720    -4.2950     2.2760 H     1 <1>   0.0800 
 29 H        2.7950    -4.6010     2.1790 H     1 <1>   0.0800 
 30 H        5.5600     0.2300    -2.2220 H     1 <1>   0.0800 
 31 H        4.9110     0.9750    -0.7670 H     1 <1>   0.0800 
 32 H        3.8420     0.5930    -2.1300 H     1 <1>   0.0800 
 33 H        2.5380    -4.9930    -0.1520 H     1 <1>   0.4500 
 34 H        5.9340    -4.4110     0.0790 H     1 <1>   0.0800 
 35 H        5.7920    -2.7450     0.6370 H     1 <1>   0.0800 
 36 H        5.7120    -3.1190    -1.0900 H     1 <1>   0.0800 
 37 H        0.1600    -3.7630    -0.0950 H     1 <1>   0.0800 
 38 H        0.6070    -4.9250    -1.3330 H     1 <1>   0.0800 
 39 H        2.3720    -7.1660     0.4230 H     1 <1>   0.0800 
 40 H        1.6570    -6.6600     1.9360 H     1 <1>   0.0800 
 41 H       -1.4410    -5.8500    -0.4410 H     1 <1>   0.0800 
 42 H       -0.2500    -7.6800     1.1740 H     1 <1>   0.0800 
 43 H       -1.8360    -5.8520     1.7570 H     1 <1>   0.4000 
 44 H        0.8290    -7.3640    -1.6430 H     1 <1>   0.0800 
 45 H       -0.7350    -8.0180    -1.2810 H     1 <1>   0.0800 
 46 H       -0.9400   -10.3170    -1.0010 H     1 <1>   0.1500 
 47 H        3.6910   -10.6230    -0.0360 H     1 <1>   0.1500 
 48 H        2.3210   -12.6110    -0.2020 H     1 <1>   0.1500 
@<TRIPOS>BOND
  1   1   2  1   
  2   2   3  ar  
  3   2   4  ar  
  4   3   5  ar  
  5   3  26  1   
  6   4   6  ar  
  7   4  27  1   
  8   5   7  1   
  9   5   8  ar  
 10   6   8  ar  
 11   6   9  1   
 12   7  10  1   
 13   8  11  1   
 14   9  12  1   
 15   9  28  1   
 16   9  29  1   
 17  10  30  1   
 18  10  31  1   
 19  10  32  1   
 20  11  13  1   
 21  12  14  1   
 22  12  15  1   
 23  12  33  1   
 24  13  34  1   
 25  13  35  1   
 26  13  36  1   
 27  14  16  1   
 28  14  37  1   
 29  14  38  1   
 30  15  17  1   
 31  15  39  1   
 32  15  40  1   
 33  16  17  1   
 34  16  18  1   
 35  16  41  1   
 36  17  19  1   
 37  17  42  1   
 38  18  43  1   
 39  19  20  1   
 40  19  44  1   
 41  19  45  1   
 42  20  21  ar  
 43  20  22  ar  
 44  21  23  ar  
 45  22  24  ar  
 46  22  46  1   
 47  23  25  ar  
 48  23  47  1   
 49  24  25  ar  
 50  25  48  1   
@<TRIPOS>SUBSTRUCTURE
  1 ****  12 GROUP 4 **** **** 0

# MOE 2024.06 (io_trps.svl 2023.06)
