@<TRIPOS>MOLECULE
NONAME
57 59 1 0 0 
SMALL
USER_CHARGES


@<TRIPOS>ATOM
  1 O        0.2910    -0.3580    -0.7660 O.3   1 <1>  -0.5600 
  2 C        1.5740    -0.8970    -0.9770 C.3   1 <1>   0.2000 
  3 C        0.2010     1.0330    -0.8490 C.3   1 <1>   0.1200 
  4 C        2.6110    -0.2750    -0.0020 C.3   1 <1>   0.5660 
  5 C        1.5010    -2.4210    -0.7810 C.3   1 <1>   0.1200 
  6 C        1.0990     1.6830     0.2190 C.3   1 <1>   0.3430 
  7 N        2.5200     1.2190     0.0980 N.4   1 <1>  -0.9590 
  8 C        4.0370    -0.6100    -0.4160 C.ar  1 <1>  -0.1430 
  9 O        1.4170    -2.7260     0.5760 O.3   1 <1>  -0.6800 
 10 C        3.3800     1.7340     1.1970 C.3   1 <1>   0.4870 
 11 C        4.8220    -1.3680     0.4410 C.ar  1 <1>  -0.1500 
 12 C        4.5780    -0.1640    -1.6170 C.ar  1 <1>  -0.1500 
 13 C        3.6630     3.1930     0.9230 C.ar  1 <1>  -0.1430 
 14 C        6.1340    -1.6680     0.1210 C.ar  1 <1>   0.0830 
 15 C        5.8940    -0.4530    -1.9380 C.ar  1 <1>  -0.1500 
 16 C        4.6970     3.5390     0.0660 C.ar  1 <1>   0.1600 
 17 C        2.9110     4.1980     1.5050 C.ar  1 <1>  -0.1500 
 18 O        6.8230    -2.4290     1.0050 O.3   1 <1>  -0.3630 
 19 C        6.6850    -1.1850    -1.0710 C.ar  1 <1>   0.0830 
 20 N        5.0150     4.7730    -0.2740 N.ar  1 <1>  -0.6200 
 21 C        3.2400     5.4920     1.1690 C.ar  1 <1>  -0.1500 
 22 C        7.2570    -3.6950     0.5550 C.3   1 <1>   0.0400 
 23 O        7.9720    -1.3960    -1.4340 O.3   1 <1>  -0.3630 
 24 C        4.2830     5.7320     0.2860 C.ar  1 <1>   0.3930 
 25 C        8.9690    -0.8090    -0.6250 C.3   1 <1>   0.0400 
 26 O        4.5490     7.0190    -0.0070 O.3   1 <1>  -0.3630 
 27 C        5.6170     7.3650    -0.8640 C.3   1 <1>   0.1200 
 28 C        5.6570     8.8860    -0.9840 C.3   1 <1>  -0.2400 
 29 H        1.8440    -0.6940    -1.9980 H     1 <1>   0.0800 
 30 H        0.4780     1.3460    -1.8410 H     1 <1>   0.0800 
 31 H       -0.8280     1.3030    -0.6800 H     1 <1>   0.0800 
 32 H        2.4260    -0.6980     0.9720 H     1 <1>   0.0800 
 33 H        2.3850    -2.8970    -1.1710 H     1 <1>   0.0800 
 34 H        0.6340    -2.8190    -1.2820 H     1 <1>   0.0800 
 35 H        0.7090     1.4230     1.1900 H     1 <1>   0.0800 
 36 H        1.0520     2.7550     0.1170 H     1 <1>   0.0800 
 37 H        2.9070     1.5890    -0.7750 H     1 <1>   0.4500 
 38 H        1.1280    -3.6560     0.7030 H     1 <1>   0.4000 
 39 H        2.8900     1.6160     2.1500 H     1 <1>   0.0800 
 40 H        4.3160     1.1990     1.2290 H     1 <1>   0.0800 
 41 H        4.4300    -1.7480     1.3700 H     1 <1>   0.1500 
 42 H        3.9990     0.4080    -2.3220 H     1 <1>   0.1500 
 43 H        6.3220    -0.1100    -2.8650 H     1 <1>   0.1500 
 44 H        5.3030     2.7620    -0.3740 H     1 <1>   0.1500 
 45 H        2.1080     4.0010     2.1950 H     1 <1>   0.1500 
 46 H        2.7070     6.3300     1.5790 H     1 <1>   0.1500 
 47 H        7.6770    -4.2230     1.3920 H     1 <1>   0.0800 
 48 H        8.0040    -3.5690    -0.2080 H     1 <1>   0.0800 
 49 H        6.4130    -4.2350     0.1650 H     1 <1>   0.0800 
 50 H        9.9240    -0.9920    -1.0850 H     1 <1>   0.0800 
 51 H        8.9460    -1.2520     0.3530 H     1 <1>   0.0800 
 52 H        8.7880     0.2490    -0.5620 H     1 <1>   0.0800 
 53 H        6.5310     6.9880    -0.4390 H     1 <1>   0.0800 
 54 H        5.4450     6.9090    -1.8240 H     1 <1>   0.0800 
 55 H        5.8170     9.3280    -0.0170 H     1 <1>   0.0800 
 56 H        4.7340     9.2490    -1.3990 H     1 <1>   0.0800 
 57 H        6.4630     9.1780    -1.6320 H     1 <1>   0.0800 
@<TRIPOS>BOND
  1   1   2  1   
  2   1   3  1   
  3   2   4  1   
  4   2   5  1   
  5   2  29  1   
  6   3   6  1   
  7   3  30  1   
  8   3  31  1   
  9   4   7  1   
 10   4   8  1   
 11   4  32  1   
 12   5   9  1   
 13   5  33  1   
 14   5  34  1   
 15   6   7  1   
 16   6  35  1   
 17   6  36  1   
 18   7  10  1   
 19   7  37  1   
 20   8  11  ar  
 21   8  12  ar  
 22   9  38  1   
 23  10  13  1   
 24  10  39  1   
 25  10  40  1   
 26  11  14  ar  
 27  11  41  1   
 28  12  15  ar  
 29  12  42  1   
 30  13  16  ar  
 31  13  17  ar  
 32  14  18  1   
 33  14  19  ar  
 34  15  19  ar  
 35  15  43  1   
 36  16  20  ar  
 37  16  44  1   
 38  17  21  ar  
 39  17  45  1   
 40  18  22  1   
 41  19  23  1   
 42  20  24  ar  
 43  21  24  ar  
 44  21  46  1   
 45  22  47  1   
 46  22  48  1   
 47  22  49  1   
 48  23  25  1   
 49  24  26  1   
 50  25  50  1   
 51  25  51  1   
 52  25  52  1   
 53  26  27  1   
 54  27  28  1   
 55  27  53  1   
 56  27  54  1   
 57  28  55  1   
 58  28  56  1   
 59  28  57  1   
@<TRIPOS>SUBSTRUCTURE
  1 ****  10 GROUP 4 **** **** 0

# MOE 2024.06 (io_trps.svl 2023.06)
