@<TRIPOS>MOLECULE
NONAME
42 43 1 0 0 
SMALL
USER_CHARGES


@<TRIPOS>ATOM
  1 O        1.7060    -0.4760    -2.6030 O.2   1 <1>  -0.5700 
  2 C        1.6020    -0.4210    -1.3950 C.2   1 <1>   0.5690 
  3 N        1.9430     0.6880    -0.6790 N.am  1 <1>  -0.4930 
  4 C        1.0610    -1.6460    -0.6040 C.3   1 <1>   0.3410 
  5 C        2.4470     1.9380    -1.1120 C.2   1 <1>   0.0630 
  6 O        1.0450    -1.3030     0.7740 O.3   1 <1>  -0.5600 
  7 C       -0.3730    -1.9710    -1.0600 C.3   1 <1>  -0.2400 
  8 C        1.9910    -2.8540    -0.8110 C.3   1 <1>  -0.2400 
  9 C        2.7230     2.3830    -2.4040 C.2   1 <1>   0.1390 
 10 C        2.7660     2.9810    -0.3200 C.2   1 <1>  -0.3020 
 11 C        0.5910    -2.2170     1.7260 C.3   1 <1>   0.1200 
 12 N        3.1760     3.6030    -2.4210 N.2   1 <1>  -0.7070 
 13 N        3.2000     3.9780    -1.1260 N.pl3 1 <1>   0.3140 
 14 C        0.7170    -1.5440     3.0860 C.3   1 <1>  -0.2400 
 15 C        3.6830     5.3180    -0.7240 C.3   1 <1>   0.2390 
 16 C        3.0640     5.7820     0.5900 C.ar  1 <1>  -0.1440 
 17 C        1.7280     6.1540     0.6350 C.ar  1 <1>  -0.1500 
 18 C        3.8230     5.8300     1.7490 C.ar  1 <1>  -0.1500 
 19 C        1.1580     6.5700     1.8250 C.ar  1 <1>  -0.1500 
 20 C        3.2530     6.2460     2.9400 C.ar  1 <1>  -0.1500 
 21 C        1.9210     6.6160     2.9790 C.ar  1 <1>  -0.1500 
 22 H        1.7950     0.5760     0.3280 H     1 <1>   0.3700 
 23 H       -1.0310    -1.1580    -0.8140 H     1 <1>   0.0800 
 24 H       -0.7340    -2.8800    -0.6170 H     1 <1>   0.0800 
 25 H       -0.3880    -2.1020    -2.1270 H     1 <1>   0.0800 
 26 H        2.9600    -2.6490    -0.3930 H     1 <1>   0.0800 
 27 H        2.1130    -3.0370    -1.8640 H     1 <1>   0.0800 
 28 H        1.5860    -3.7470    -0.3730 H     1 <1>   0.0800 
 29 H        2.5780     1.7860    -3.2890 H     1 <1>   0.1500 
 30 H        2.7070     3.0730     0.7480 H     1 <1>   0.1500 
 31 H        1.2000    -3.1040     1.6970 H     1 <1>   0.0800 
 32 H       -0.4380    -2.4620     1.5310 H     1 <1>   0.0800 
 33 H        1.7440    -1.2920     3.2820 H     1 <1>   0.0800 
 34 H        0.3760    -2.2120     3.8560 H     1 <1>   0.0800 
 35 H        0.1160    -0.6530     3.1160 H     1 <1>   0.0800 
 36 H        3.4330     6.0110    -1.5070 H     1 <1>   0.0800 
 37 H        4.7530     5.2750    -0.6430 H     1 <1>   0.0800 
 38 H        1.1250     6.1170    -0.2570 H     1 <1>   0.1500 
 39 H        4.8610     5.5440     1.7360 H     1 <1>   0.1500 
 40 H        0.1210     6.8560     1.8540 H     1 <1>   0.1500 
 41 H        3.8460     6.2820     3.8380 H     1 <1>   0.1500 
 42 H        1.4770     6.9390     3.9040 H     1 <1>   0.1500 
@<TRIPOS>BOND
  1   1   2  2   
  2   2   3  am  
  3   2   4  1   
  4   3   5  1   
  5   3  22  1   
  6   4   6  1   
  7   4   7  1   
  8   4   8  1   
  9   5   9  1   
 10   5  10  2   
 11   6  11  1   
 12   7  23  1   
 13   7  24  1   
 14   7  25  1   
 15   8  26  1   
 16   8  27  1   
 17   8  28  1   
 18   9  12  2   
 19   9  29  1   
 20  10  13  1   
 21  10  30  1   
 22  11  14  1   
 23  11  31  1   
 24  11  32  1   
 25  12  13  1   
 26  13  15  1   
 27  14  33  1   
 28  14  34  1   
 29  14  35  1   
 30  15  16  1   
 31  15  36  1   
 32  15  37  1   
 33  16  17  ar  
 34  16  18  ar  
 35  17  19  ar  
 36  17  38  1   
 37  18  20  ar  
 38  18  39  1   
 39  19  21  ar  
 40  19  40  1   
 41  20  21  ar  
 42  20  41  1   
 43  21  42  1   
@<TRIPOS>SUBSTRUCTURE
  1 ****  10 GROUP 4 **** **** 0

# MOE 2024.06 (io_trps.svl 2023.06)
