@<TRIPOS>MOLECULE
NONAME
63 66 1 0 0 
SMALL
USER_CHARGES


@<TRIPOS>ATOM
  1 O        2.4550     0.5870    -0.2360 O.2   1 <1>  -0.5700 
  2 C        1.3880     1.0900     0.0300 C.2   1 <1>   0.5690 
  3 N        1.0510     2.3880    -0.1630 N.am  1 <1>  -0.6600 
  4 C        0.2260     0.3150     0.5860 C.3   1 <1>  -0.0990 
  5 C       -0.3750     2.6350     0.1480 C.3   1 <1>   0.1400 
  6 C        1.8820     3.3810    -0.9000 C.3   1 <1>   0.1400 
  7 C       -0.9750     1.2330     0.2810 C.3   1 <1>  -0.1860 
  8 C        2.6940     4.3710    -0.0100 C.3   1 <1>   0.0000 
  9 C       -2.0960     1.1920     1.2970 C.2   1 <1>   0.9060 
 10 C        3.5810     5.2580    -0.9490 C.3   1 <1>  -0.0800 
 11 C        1.7610     5.3340     0.7560 C.3   1 <1>  -0.1600 
 12 C        3.5060     3.5630     1.0250 C.3   1 <1>  -0.2400 
 13 O       -2.7780     2.2090     1.4590 O.co2 1 <1>  -0.9000 
 14 O       -2.3060     0.1450     1.9160 O.co2 1 <1>  -0.9000 
 15 C        3.9530     6.7200    -0.3350 C.3   1 <1>   0.1430 
 16 C        4.6550     4.4920    -1.7910 C.3   1 <1>  -0.1600 
 17 C        1.2930     6.4930    -0.1330 C.3   1 <1>  -0.1600 
 18 C        5.3680     6.2120     0.1430 C.ar  1 <1>  -0.1440 
 19 C        2.4900     7.2930    -0.7220 C.3   1 <1>  -0.1600 
 20 C        4.3540     8.1710     0.1950 C.3   1 <1>  -0.2400 
 21 C        5.8300     5.4100    -2.1190 C.3   1 <1>  -0.0170 
 22 C        6.3230     5.7360    -0.7440 C.ar  1 <1>  -0.1440 
 23 C        5.7250     6.2240     1.4930 C.ar  1 <1>  -0.1500 
 24 C        7.6060     5.4080    -0.3380 C.ar  1 <1>  -0.1500 
 25 C        6.9980     5.8800     1.9130 C.ar  1 <1>  -0.1500 
 26 C        7.9620     5.4890     0.9970 C.ar  1 <1>  -0.1440 
 27 C        9.3770     5.1220     1.4360 C.3   1 <1>   0.0630 
 28 C        9.3600     3.9000     2.3600 C.3   1 <1>  -0.2400 
 29 C       10.0660     6.3100     2.1150 C.3   1 <1>  -0.2400 
 30 H        0.1240    -0.6440     0.1160 H     1 <1>   0.0800 
 31 H        0.3600     0.1940     1.6460 H     1 <1>   0.0800 
 32 H       -0.4560     3.1600     1.0840 H     1 <1>   0.0800 
 33 H       -0.8650     3.1960    -0.6280 H     1 <1>   0.0800 
 34 H        2.5730     2.8250    -1.5090 H     1 <1>   0.0800 
 35 H        1.2420     3.9270    -1.5690 H     1 <1>   0.0800 
 36 H       -1.3950     0.9560    -0.6660 H     1 <1>   0.0800 
 37 H        2.9310     5.4170    -1.7900 H     1 <1>   0.0800 
 38 H        0.9170     4.8140     1.1650 H     1 <1>   0.0800 
 39 H        2.2920     5.7530     1.5940 H     1 <1>   0.0800 
 40 H        4.1580     4.1910     1.5960 H     1 <1>   0.0800 
 41 H        4.0950     2.8000     0.5510 H     1 <1>   0.0800 
 42 H        2.8440     3.0720     1.7160 H     1 <1>   0.0800 
 43 H        5.0340     3.6460    -1.2460 H     1 <1>   0.0800 
 44 H        4.2310     4.1130    -2.7050 H     1 <1>   0.0800 
 45 H        0.6800     6.1130    -0.9330 H     1 <1>   0.0800 
 46 H        0.6720     7.1460     0.4570 H     1 <1>   0.0800 
 47 H        2.2320     8.2950    -0.4150 H     1 <1>   0.0800 
 48 H        2.3970     7.3690    -1.7930 H     1 <1>   0.0800 
 49 H        4.1550     8.9320    -0.5430 H     1 <1>   0.0800 
 50 H        5.3940     8.3890     0.3950 H     1 <1>   0.0800 
 51 H        3.8220     8.4010     1.1040 H     1 <1>   0.0800 
 52 H        5.5160     6.2960    -2.6440 H     1 <1>   0.0800 
 53 H        6.5730     4.8880    -2.6950 H     1 <1>   0.0800 
 54 H        5.0030     6.5250     2.2310 H     1 <1>   0.1500 
 55 H        8.3170     5.0570    -1.0630 H     1 <1>   0.1500 
 56 H        7.2330     5.9240     2.9600 H     1 <1>   0.1500 
 57 H        9.9520     4.8650     0.5630 H     1 <1>   0.0800 
 58 H        8.8340     4.1180     3.2720 H     1 <1>   0.0800 
 59 H       10.3640     3.6010     2.6020 H     1 <1>   0.0800 
 60 H        8.8660     3.0800     1.8690 H     1 <1>   0.0800 
 61 H        9.5600     6.5770     3.0250 H     1 <1>   0.0800 
 62 H       10.0570     7.1600     1.4560 H     1 <1>   0.0800 
 63 H       11.0870     6.0660     2.3470 H     1 <1>   0.0800 
@<TRIPOS>BOND
  1   1   2  2   
  2   2   3  am  
  3   2   4  1   
  4   3   5  1   
  5   3   6  1   
  6   4   7  1   
  7   4  30  1   
  8   4  31  1   
  9   5   7  1   
 10   5  32  1   
 11   5  33  1   
 12   6   8  1   
 13   6  34  1   
 14   6  35  1   
 15   7   9  1   
 16   7  36  1   
 17   8  10  1   
 18   8  11  1   
 19   8  12  1   
 20   9  13  ar  
 21   9  14  ar  
 22  10  15  1   
 23  10  16  1   
 24  10  37  1   
 25  11  17  1   
 26  11  38  1   
 27  11  39  1   
 28  12  40  1   
 29  12  41  1   
 30  12  42  1   
 31  15  18  1   
 32  15  19  1   
 33  15  20  1   
 34  16  21  1   
 35  16  43  1   
 36  16  44  1   
 37  17  19  1   
 38  17  45  1   
 39  17  46  1   
 40  18  22  ar  
 41  18  23  ar  
 42  19  47  1   
 43  19  48  1   
 44  20  49  1   
 45  20  50  1   
 46  20  51  1   
 47  21  22  1   
 48  21  52  1   
 49  21  53  1   
 50  22  24  ar  
 51  23  25  ar  
 52  23  54  1   
 53  24  26  ar  
 54  24  55  1   
 55  25  26  ar  
 56  25  56  1   
 57  26  27  1   
 58  27  28  1   
 59  27  29  1   
 60  27  57  1   
 61  28  58  1   
 62  28  59  1   
 63  28  60  1   
 64  29  61  1   
 65  29  62  1   
 66  29  63  1   
@<TRIPOS>SUBSTRUCTURE
  1 ****   8 GROUP 4 **** **** 0

# MOE 2024.06 (io_trps.svl 2023.06)
