@<TRIPOS>MOLECULE
NONAME
40 41 1 0 0 
SMALL
USER_CHARGES


@<TRIPOS>ATOM
  1 O        0.0250    -0.1090     0.3730 O.2   1 <1>  -0.5700 
  2 C        1.1450    -0.5460     0.1860 C.2   1 <1>   0.7150 
  3 N        2.1730     0.2960    -0.1480 N.am  1 <1>  -0.4940 
  4 C        1.4400    -1.9530     0.2970 C.2   1 <1>  -0.2370 
  5 C        2.2200     1.7100    -0.2340 C.2   1 <1>  -0.0880 
  6 N        0.4980    -2.9550     0.3260 N.pl3 1 <1>   0.0480 
  7 C        2.6710    -2.5560     0.3930 C.2   1 <1>  -0.1500 
  8 N        3.3090     2.4280    -0.6230 N.pl3 1 <1>   0.3140 
  9 C        1.2560     2.6180     0.0430 C.2   1 <1>  -0.1500 
 10 C        1.1450    -4.1370     0.4310 C.2   1 <1>  -0.3020 
 11 C       -0.9720    -2.8150     0.2510 C.3   1 <1>   0.0160 
 12 C        2.4950    -3.9380     0.4760 C.2   1 <1>   0.0190 
 13 N        3.0640     3.7560    -0.5990 N.2   1 <1>  -0.7070 
 14 C        4.6190     1.9050    -1.0580 C.3   1 <1>   0.0960 
 15 C        1.8370     3.8560    -0.2000 C.2   1 <1>   0.1080 
 16 C        3.5480    -4.9080     0.5870 C.1   1 <1>   0.5380 
 17 C        5.4530     1.4300     0.1410 C.3   1 <1>  -0.1600 
 18 C        1.1480     5.1890    -0.0310 C.3   1 <1>  -0.0590 
 19 N        4.4020    -5.6590     0.6680 N.1   1 <1>  -0.5570 
 20 C        6.7790     0.8100    -0.3160 C.3   1 <1>  -0.1600 
 21 C        7.5980     0.3240     0.8830 C.3   1 <1>  -0.2400 
 22 H        3.0370    -0.1980    -0.3510 H     1 <1>   0.3700 
 23 H        3.6370    -2.0820     0.4150 H     1 <1>   0.1500 
 24 H        0.2520     2.4410     0.3810 H     1 <1>   0.1500 
 25 H        0.6250    -5.0790     0.4710 H     1 <1>   0.1500 
 26 H       -1.2340    -2.2680    -0.6360 H     1 <1>   0.0800 
 27 H       -1.3220    -2.2790     1.1150 H     1 <1>   0.0800 
 28 H       -1.4320    -3.7850     0.2220 H     1 <1>   0.0800 
 29 H        5.1380     2.6920    -1.5760 H     1 <1>   0.0800 
 30 H        4.4500     1.1000    -1.7480 H     1 <1>   0.0800 
 31 H        4.8980     0.7030     0.7080 H     1 <1>   0.0800 
 32 H        5.6530     2.2740     0.7800 H     1 <1>   0.0800 
 33 H        0.1370     5.0500     0.3030 H     1 <1>   0.0800 
 34 H        1.1420     5.7110    -0.9700 H     1 <1>   0.0800 
 35 H        1.6810     5.7780     0.6920 H     1 <1>   0.0800 
 36 H        7.3530     1.5430    -0.8590 H     1 <1>   0.0800 
 37 H        6.5900    -0.0210    -0.9740 H     1 <1>   0.0800 
 38 H        7.8200     1.1430     1.5450 H     1 <1>   0.0800 
 39 H        8.5260    -0.1030     0.5460 H     1 <1>   0.0800 
 40 H        7.0580    -0.4280     1.4320 H     1 <1>   0.0800 
@<TRIPOS>BOND
  1   1   2  2   
  2   2   3  am  
  3   2   4  1   
  4   3   5  1   
  5   3  22  1   
  6   4   6  1   
  7   4   7  2   
  8   5   8  1   
  9   5   9  2   
 10   6  10  1   
 11   6  11  1   
 12   7  12  1   
 13   7  23  1   
 14   8  13  1   
 15   8  14  1   
 16   9  15  1   
 17   9  24  1   
 18  10  12  2   
 19  10  25  1   
 20  11  26  1   
 21  11  27  1   
 22  11  28  1   
 23  12  16  1   
 24  13  15  2   
 25  14  17  1   
 26  14  29  1   
 27  14  30  1   
 28  15  18  1   
 29  16  19  3   
 30  17  20  1   
 31  17  31  1   
 32  17  32  1   
 33  18  33  1   
 34  18  34  1   
 35  18  35  1   
 36  20  21  1   
 37  20  36  1   
 38  20  37  1   
 39  21  38  1   
 40  21  39  1   
 41  21  40  1   
@<TRIPOS>SUBSTRUCTURE
  1 ****   3 GROUP 4 **** **** 0

# MOE 2024.06 (io_trps.svl 2023.06)
