@<TRIPOS>MOLECULE
NONAME
51 54 1 0 0 
SMALL
USER_CHARGES


@<TRIPOS>ATOM
  1 O       -0.4510     0.1980     0.4820 O.2   1 <1>  -0.5700 
  2 C       -1.4160     0.9100     0.3330 C.2   1 <1>   0.5690 
  3 N       -2.6260     0.4100    -0.0900 N.am  1 <1>  -0.6600 
  4 C       -1.2530     2.3920     0.6350 C.3   1 <1>  -0.0990 
  5 C       -3.8680     1.2390    -0.1780 C.3   1 <1>   0.2200 
  6 C       -2.7260    -1.0300    -0.4850 C.3   1 <1>   0.0600 
  7 C        0.2110     2.8370     0.7720 C.3   1 <1>   0.0200 
  8 C       -5.1390     0.5640     0.3390 C.3   1 <1>  -0.1600 
  9 C       -4.2050     1.6290    -1.6130 C.3   1 <1>  -0.1600 
 10 C        0.2810     4.3260     1.0420 C.2   1 <1>   0.2980 
 11 C       -6.2780     1.3630    -0.3080 C.3   1 <1>  -0.0800 
 12 C       -5.6880     2.0230    -1.5680 C.3   1 <1>  -0.0800 
 13 O        0.0100     4.7600     2.2440 O.3   1 <1>  -0.0190 
 14 N        0.5630     5.2200     0.1890 N.2   1 <1>  -0.5650 
 15 C       -6.8030     2.5060     0.5720 C.3   1 <1>  -0.1600 
 16 C       -5.9140     3.5340    -1.4150 C.3   1 <1>  -0.1600 
 17 N        0.1280     6.0470     2.1480 N.2   1 <1>  -0.4100 
 18 C        0.4570     6.3250     0.9350 C.2   1 <1>   0.4620 
 19 C       -7.0360     3.6550    -0.3960 C.3   1 <1>   0.2000 
 20 C        0.6830     7.6580     0.4020 C.ar  1 <1>   0.0540 
 21 O       -6.9530     4.8600     0.2650 O.3   1 <1>  -0.6800 
 22 C        1.0380     7.8650    -0.9330 C.ar  1 <1>  -0.1500 
 23 C        0.5510     8.7920     1.2070 C.ar  1 <1>  -0.1500 
 24 C        1.2470     9.1350    -1.4400 C.ar  1 <1>  -0.1500 
 25 C        0.7590    10.0650     0.7070 C.ar  1 <1>  -0.1500 
 26 C        1.1080    10.2390    -0.6190 C.ar  1 <1>  -0.1500 
 27 H       -1.6990     2.9600    -0.1610 H     1 <1>   0.0800 
 28 H       -1.7750     2.6100     1.5490 H     1 <1>   0.0800 
 29 H       -3.7520     2.1430     0.3910 H     1 <1>   0.0800 
 30 H       -3.3530    -1.1430    -1.3510 H     1 <1>   0.0800 
 31 H       -3.1370    -1.6000     0.3300 H     1 <1>   0.0800 
 32 H       -1.7550    -1.4290    -0.7230 H     1 <1>   0.0800 
 33 H        0.7410     2.6180    -0.1380 H     1 <1>   0.0800 
 34 H        0.6910     2.3080     1.5760 H     1 <1>   0.0800 
 35 H       -5.2100    -0.4480    -0.0100 H     1 <1>   0.0800 
 36 H       -5.1880     0.5730     1.4130 H     1 <1>   0.0800 
 37 H       -3.5770     2.4250    -1.9710 H     1 <1>   0.0800 
 38 H       -4.0940     0.7790    -2.2610 H     1 <1>   0.0800 
 39 H       -7.0930     0.7120    -0.5780 H     1 <1>   0.0800 
 40 H       -6.2000     1.6670    -2.4470 H     1 <1>   0.0800 
 41 H       -6.0630     2.7880     1.3000 H     1 <1>   0.0800 
 42 H       -7.7140     2.2290     1.0740 H     1 <1>   0.0800 
 43 H       -6.1910     3.9860    -2.3510 H     1 <1>   0.0800 
 44 H       -5.0260     4.0090    -1.0350 H     1 <1>   0.0800 
 45 H       -8.0020     3.5760    -0.8680 H     1 <1>   0.0800 
 46 H       -6.0770     4.9550     0.6810 H     1 <1>   0.4000 
 47 H        1.1510     7.0180    -1.5870 H     1 <1>   0.1500 
 48 H        0.2810     8.6750     2.2420 H     1 <1>   0.1500 
 49 H        1.5200     9.2650    -2.4730 H     1 <1>   0.1500 
 50 H        0.6510    10.9210     1.3510 H     1 <1>   0.1500 
 51 H        1.2700    11.2290    -1.0110 H     1 <1>   0.1500 
@<TRIPOS>BOND
  1   1   2  2   
  2   2   3  am  
  3   2   4  1   
  4   3   5  1   
  5   3   6  1   
  6   4   7  1   
  7   4  27  1   
  8   4  28  1   
  9   5   8  1   
 10   5   9  1   
 11   5  29  1   
 12   6  30  1   
 13   6  31  1   
 14   6  32  1   
 15   7  10  1   
 16   7  33  1   
 17   7  34  1   
 18   8  11  1   
 19   8  35  1   
 20   8  36  1   
 21   9  12  1   
 22   9  37  1   
 23   9  38  1   
 24  10  13  1   
 25  10  14  2   
 26  11  12  1   
 27  11  15  1   
 28  11  39  1   
 29  12  16  1   
 30  12  40  1   
 31  13  17  1   
 32  14  18  1   
 33  15  19  1   
 34  15  41  1   
 35  15  42  1   
 36  16  19  1   
 37  16  43  1   
 38  16  44  1   
 39  17  18  2   
 40  18  20  1   
 41  19  21  1   
 42  19  45  1   
 43  20  22  ar  
 44  20  23  ar  
 45  21  46  1   
 46  22  24  ar  
 47  22  47  1   
 48  23  25  ar  
 49  23  48  1   
 50  24  26  ar  
 51  24  49  1   
 52  25  26  ar  
 53  25  50  1   
 54  26  51  1   
@<TRIPOS>SUBSTRUCTURE
  1 ****   4 GROUP 4 **** **** 0

# MOE 2024.06 (io_trps.svl 2023.06)
