@<TRIPOS>MOLECULE
NONAME
45 47 1 0 0 
SMALL
USER_CHARGES


@<TRIPOS>ATOM
  1 F       -0.4820     4.9240    -2.1990 F     1 <1>  -0.3400 
  2 C        0.2980     5.9490    -1.8730 C.3   1 <1>   1.1640 
  3 F       -0.4850     6.8280    -1.2570 F     1 <1>  -0.3400 
  4 F        0.6660     6.5150    -3.0150 F     1 <1>  -0.3400 
  5 C        1.5100     5.5400    -1.0210 C.ar  1 <1>  -0.1440 
  6 C        2.1710     6.4850    -0.2420 C.ar  1 <1>  -0.1500 
  7 C        1.9820     4.2310    -1.0130 C.ar  1 <1>  -0.1500 
  8 C        3.2670     6.1300     0.5230 C.ar  1 <1>  -0.1500 
  9 C        3.0790     3.8780    -0.2460 C.ar  1 <1>  -0.1500 
 10 C        3.7320     4.8250     0.5270 C.ar  1 <1>  -0.1430 
 11 C        4.9410     4.4430     1.3780 C.3   1 <1>   0.3530 
 12 N        6.2440     4.7230     0.6990 N.pl3 1 <1>  -0.8380 
 13 C        7.0010     5.7730     1.1780 C.ar  1 <1>   0.4100 
 14 C        6.2940     4.4770    -0.7680 C.3   1 <1>   0.1290 
 15 N        6.4520     6.9710     1.1010 N.ar  1 <1>  -0.6200 
 16 C        8.2840     5.5590     1.7000 C.ar  1 <1>   0.1600 
 17 C        7.2340     7.9610     1.5600 C.ar  1 <1>   0.3960 
 18 N        9.0770     6.5030     2.1670 N.ar  1 <1>  -0.6200 
 19 C        6.7790     9.3530     1.5360 C.2   1 <1>   0.5440 
 20 C        8.5060     7.6980     2.0820 C.ar  1 <1>   0.1600 
 21 O        7.1820    10.1240     2.3920 O.2   1 <1>  -0.5700 
 22 N        5.9260     9.8690     0.5760 N.am  1 <1>  -0.6600 
 23 C        5.4670     9.1730    -0.6480 C.3   1 <1>   0.1400 
 24 C        5.4430    11.2670     0.6010 C.3   1 <1>   0.1400 
 25 C        4.8900    10.2740    -1.5300 C.3   1 <1>  -0.1600 
 26 C        4.4480    11.3570    -0.5500 C.3   1 <1>  -0.1600 
 27 H        1.8350     7.5090    -0.2250 H     1 <1>   0.1500 
 28 H        1.4980     3.4720    -1.6050 H     1 <1>   0.1500 
 29 H        3.7650     6.8760     1.1210 H     1 <1>   0.1500 
 30 H        3.4250     2.8580    -0.2540 H     1 <1>   0.1500 
 31 H        4.8960     3.3940     1.6140 H     1 <1>   0.0800 
 32 H        4.8990     4.9820     2.3090 H     1 <1>   0.0800 
 33 H        5.9640     3.4770    -0.9860 H     1 <1>   0.0800 
 34 H        7.3020     4.5960    -1.1260 H     1 <1>   0.0800 
 35 H        5.6620     5.1820    -1.2810 H     1 <1>   0.0800 
 36 H        8.6430     4.5470     1.7170 H     1 <1>   0.1500 
 37 H        9.0810     8.5310     2.4460 H     1 <1>   0.1500 
 38 H        4.6990     8.4660    -0.3850 H     1 <1>   0.0800 
 39 H        6.2800     8.6600    -1.1340 H     1 <1>   0.0800 
 40 H        6.2770    11.9270     0.4370 H     1 <1>   0.0800 
 41 H        4.9840    11.4950     1.5480 H     1 <1>   0.0800 
 42 H        4.0810     9.9150    -2.1400 H     1 <1>   0.0800 
 43 H        5.6690    10.6540    -2.1680 H     1 <1>   0.0800 
 44 H        4.4400    12.3370    -0.9950 H     1 <1>   0.0800 
 45 H        3.4630    11.1340    -0.1770 H     1 <1>   0.0800 
@<TRIPOS>BOND
  1   1   2  1   
  2   2   3  1   
  3   2   4  1   
  4   2   5  1   
  5   5   6  ar  
  6   5   7  ar  
  7   6   8  ar  
  8   6  27  1   
  9   7   9  ar  
 10   7  28  1   
 11   8  10  ar  
 12   8  29  1   
 13   9  10  ar  
 14   9  30  1   
 15  10  11  1   
 16  11  12  1   
 17  11  31  1   
 18  11  32  1   
 19  12  13  1   
 20  12  14  1   
 21  13  15  ar  
 22  13  16  ar  
 23  14  33  1   
 24  14  34  1   
 25  14  35  1   
 26  15  17  ar  
 27  16  18  ar  
 28  16  36  1   
 29  17  19  1   
 30  17  20  ar  
 31  18  20  ar  
 32  19  21  2   
 33  19  22  am  
 34  20  37  1   
 35  22  23  1   
 36  22  24  1   
 37  23  25  1   
 38  23  38  1   
 39  23  39  1   
 40  24  26  1   
 41  24  40  1   
 42  24  41  1   
 43  25  26  1   
 44  25  42  1   
 45  25  43  1   
 46  26  44  1   
 47  26  45  1   
@<TRIPOS>SUBSTRUCTURE
  1 ****   8 GROUP 4 **** **** 0

# MOE 2024.06 (io_trps.svl 2023.06)
