@<TRIPOS>MOLECULE
NONAME
39 40 1 0 0 
SMALL
USER_CHARGES


@<TRIPOS>ATOM
  1 S       -0.5680     0.3180     0.7520 S.3   1 <1>  -0.0800 
  2 C        0.1950     1.8020     0.2020 C.2   1 <1>  -0.1400 
  3 C       -1.1340    -0.0480    -0.8690 C.2   1 <1>  -0.1400 
  4 C        0.0100     1.9590    -1.1220 C.2   1 <1>  -0.1500 
  5 C        0.9120     2.6320     1.2510 C.3   1 <1>   0.2900 
  6 C       -0.7480     0.9090    -1.7310 C.2   1 <1>  -0.1500 
  7 C       -1.9320    -1.3220    -1.0510 C.3   1 <1>  -0.0600 
  8 N        1.1080     4.0200     0.7790 N.3   1 <1>  -0.8100 
  9 C        2.3910     4.5660     1.2680 C.3   1 <1>   0.2900 
 10 C       -0.0190     4.9040     1.1750 C.3   1 <1>   0.1100 
 11 C        2.8300     5.7840     0.4740 C.2   1 <1>  -0.0400 
 12 C       -1.3150     4.5830     0.4250 C.3   1 <1>   0.1200 
 13 O        3.8420     6.4920     0.9000 O.3   1 <1>  -0.0190 
 14 C        2.3870     6.3450    -0.6620 C.2   1 <1>  -0.1500 
 15 O       -2.2730     5.5300     0.7800 O.3   1 <1>  -0.5600 
 16 N        4.0970     7.4980     0.1140 N.2   1 <1>  -0.4100 
 17 C        3.2340     7.4350    -0.8370 C.2   1 <1>   0.1080 
 18 C       -3.5050     5.3320     0.1660 C.3   1 <1>   0.0400 
 19 C        3.1570     8.4150    -1.9860 C.3   1 <1>  -0.0590 
 20 H        0.3840     2.7860    -1.7010 H     1 <1>   0.1500 
 21 H        1.8590     2.1560     1.4400 H     1 <1>   0.0800 
 22 H        0.3510     2.6270     2.1700 H     1 <1>   0.0800 
 23 H       -0.9610     0.9260    -2.7850 H     1 <1>   0.1500 
 24 H       -2.8180    -1.2900    -0.4430 H     1 <1>   0.0800 
 25 H       -1.3380    -2.1700    -0.7600 H     1 <1>   0.0800 
 26 H       -2.2200    -1.4350    -2.0800 H     1 <1>   0.0800 
 27 H        3.1670     3.8270     1.1670 H     1 <1>   0.0800 
 28 H        2.3060     4.8250     2.3100 H     1 <1>   0.0800 
 29 H        0.2310     5.9270     0.9520 H     1 <1>   0.0800 
 30 H       -0.1930     4.8270     2.2340 H     1 <1>   0.0800 
 31 H       -1.6840     3.6100     0.6980 H     1 <1>   0.0800 
 32 H       -1.1520     4.6400    -0.6360 H     1 <1>   0.0800 
 33 H        1.5760     6.0400    -1.2970 H     1 <1>   0.1500 
 34 H       -4.1730     6.1060     0.5000 H     1 <1>   0.0800 
 35 H       -3.8930     4.3690     0.4490 H     1 <1>   0.0800 
 36 H       -3.3830     5.3930    -0.9020 H     1 <1>   0.0800 
 37 H        2.1940     8.8890    -1.9950 H     1 <1>   0.0800 
 38 H        3.3090     7.8990    -2.9150 H     1 <1>   0.0800 
 39 H        3.9160     9.1690    -1.8760 H     1 <1>   0.0800 
@<TRIPOS>BOND
  1   1   2  1   
  2   1   3  1   
  3   2   4  2   
  4   2   5  1   
  5   3   6  2   
  6   3   7  1   
  7   4   6  1   
  8   4  20  1   
  9   5   8  1   
 10   5  21  1   
 11   5  22  1   
 12   6  23  1   
 13   7  24  1   
 14   7  25  1   
 15   7  26  1   
 16   8   9  1   
 17   8  10  1   
 18   9  11  1   
 19   9  27  1   
 20   9  28  1   
 21  10  12  1   
 22  10  29  1   
 23  10  30  1   
 24  11  13  1   
 25  11  14  2   
 26  12  15  1   
 27  12  31  1   
 28  12  32  1   
 29  13  16  1   
 30  14  17  1   
 31  14  33  1   
 32  15  18  1   
 33  16  17  2   
 34  17  19  1   
 35  18  34  1   
 36  18  35  1   
 37  18  36  1   
 38  19  37  1   
 39  19  38  1   
 40  19  39  1   
@<TRIPOS>SUBSTRUCTURE
  1 ****   8 GROUP 4 **** **** 0

# MOE 2024.06 (io_trps.svl 2023.06)
