@<TRIPOS>MOLECULE
NONAME
51 54 1 0 0 
SMALL
USER_CHARGES


@<TRIPOS>ATOM
  1 O        0.6180    -0.3810    -1.1390 O.3   1 <1>  -0.0190 
  2 N        0.9340     0.8700    -1.0040 N.2   1 <1>  -0.4100 
  3 C        1.1640    -0.9630    -0.1000 C.2   1 <1>   0.2980 
  4 C        1.6270     0.9690     0.0620 C.2   1 <1>   0.3350 
  5 N        1.8140    -0.1890     0.6770 N.2   1 <1>  -0.5650 
  6 C        0.9970    -2.4720     0.0640 C.3   1 <1>   0.2900 
  7 C        2.2150     2.2450     0.6330 C.3   1 <1>   0.0210 
  8 N       -0.3560    -2.8830     0.5140 N.3   1 <1>  -0.8100 
  9 C        1.7770     3.4830    -0.1490 C.3   1 <1>   0.1200 
 10 C       -1.4310    -2.5530    -0.4300 C.3   1 <1>   0.1100 
 11 C       -0.4510    -4.3320     0.7550 C.3   1 <1>   0.1100 
 12 O        2.3480     4.6040     0.4460 O.3   1 <1>  -0.5600 
 13 C       -2.5810    -3.4560    -0.0050 C.3   1 <1>   0.2000 
 14 C       -1.8770    -4.7630     0.3570 C.3   1 <1>  -0.0800 
 15 C        2.0200     5.8020    -0.1800 C.3   1 <1>   0.0400 
 16 O       -3.1140    -2.9280     1.1540 O.3   1 <1>  -0.6800 
 17 C       -1.8790    -5.7360    -0.8370 C.3   1 <1>  -0.0170 
 18 C       -1.1460    -7.0290    -0.5210 C.ar  1 <1>   0.1670 
 19 N        0.0560    -7.1690    -0.9930 N.ar  1 <1>  -0.6200 
 20 C       -1.7920    -8.0000     0.2620 C.ar  1 <1>  -0.1500 
 21 C        0.7170    -8.3210    -0.7070 C.ar  1 <1>   0.3100 
 22 C       -1.1510    -9.1620     0.5650 C.ar  1 <1>  -0.1500 
 23 C        0.1510    -9.3510     0.0750 C.ar  1 <1>   0.0000 
 24 C        2.0170    -8.4980    -1.2060 C.ar  1 <1>  -0.1500 
 25 C        0.9080   -10.5130     0.3280 C.ar  1 <1>  -0.1500 
 26 C        2.7360    -9.6350    -0.9490 C.ar  1 <1>  -0.1500 
 27 C        2.1740   -10.6530    -0.1720 C.ar  1 <1>  -0.1500 
 28 H        1.7140    -2.8020     0.7950 H     1 <1>   0.0800 
 29 H        1.2320    -2.9510    -0.8700 H     1 <1>   0.0800 
 30 H        3.2850     2.1690     0.6110 H     1 <1>   0.0800 
 31 H        1.8930     2.3410     1.6540 H     1 <1>   0.0800 
 32 H        0.7050     3.5830    -0.1230 H     1 <1>   0.0800 
 33 H        2.1140     3.4210    -1.1700 H     1 <1>   0.0800 
 34 H       -1.7040    -1.5120    -0.3780 H     1 <1>   0.0800 
 35 H       -1.1310    -2.7970    -1.4350 H     1 <1>   0.0800 
 36 H        0.2860    -4.8600     0.1750 H     1 <1>   0.0800 
 37 H       -0.2730    -4.5340     1.7980 H     1 <1>   0.0800 
 38 H       -3.3630    -3.5520    -0.7380 H     1 <1>   0.0800 
 39 H       -2.3690    -5.2400     1.1870 H     1 <1>   0.0800 
 40 H        2.5060     6.6010     0.3510 H     1 <1>   0.0800 
 41 H        0.9530     5.9400    -0.1470 H     1 <1>   0.0800 
 42 H        2.3690     5.7780    -1.1990 H     1 <1>   0.0800 
 43 H       -2.3500    -2.6390     1.7000 H     1 <1>   0.4000 
 44 H       -1.4170    -5.2720    -1.6910 H     1 <1>   0.0800 
 45 H       -2.8930    -5.9720    -1.1070 H     1 <1>   0.0800 
 46 H       -2.7900    -7.8110     0.6150 H     1 <1>   0.1500 
 47 H       -1.6130    -9.9280     1.1620 H     1 <1>   0.1500 
 48 H        2.4310    -7.7060    -1.8020 H     1 <1>   0.1500 
 49 H        0.4700   -11.2920     0.9260 H     1 <1>   0.1500 
 50 H        3.7330    -9.7590    -1.3380 H     1 <1>   0.1500 
 51 H        2.7500   -11.5420     0.0230 H     1 <1>   0.1500 
@<TRIPOS>BOND
  1   1   2  1   
  2   1   3  1   
  3   2   4  2   
  4   3   5  2   
  5   3   6  1   
  6   4   5  1   
  7   4   7  1   
  8   6   8  1   
  9   6  28  1   
 10   6  29  1   
 11   7   9  1   
 12   7  30  1   
 13   7  31  1   
 14   8  10  1   
 15   8  11  1   
 16   9  12  1   
 17   9  32  1   
 18   9  33  1   
 19  10  13  1   
 20  10  34  1   
 21  10  35  1   
 22  11  14  1   
 23  11  36  1   
 24  11  37  1   
 25  12  15  1   
 26  13  14  1   
 27  13  16  1   
 28  13  38  1   
 29  14  17  1   
 30  14  39  1   
 31  15  40  1   
 32  15  41  1   
 33  15  42  1   
 34  16  43  1   
 35  17  18  1   
 36  17  44  1   
 37  17  45  1   
 38  18  19  ar  
 39  18  20  ar  
 40  19  21  ar  
 41  20  22  ar  
 42  20  46  1   
 43  21  23  ar  
 44  21  24  ar  
 45  22  23  ar  
 46  22  47  1   
 47  23  25  ar  
 48  24  26  ar  
 49  24  48  1   
 50  25  27  ar  
 51  25  49  1   
 52  26  27  ar  
 53  26  50  1   
 54  27  51  1   
@<TRIPOS>SUBSTRUCTURE
  1 ****   8 GROUP 4 **** **** 0

# MOE 2024.06 (io_trps.svl 2023.06)
