@<TRIPOS>MOLECULE
NONAME
47 51 1 0 0 
SMALL
USER_CHARGES


@<TRIPOS>ATOM
  1 N        0.2280     0.2380    -0.9010 N.ar  1 <1>  -0.6200 
  2 C       -0.6320     1.1890    -1.2360 C.ar  1 <1>   0.4760 
  3 C        1.2060     0.6410    -0.1190 C.ar  1 <1>   0.1660 
  4 N       -0.6130     2.4690    -0.8850 N.ar  1 <1>  -0.6200 
  5 C       -1.7740     0.7580    -2.1230 C.3   1 <1>  -0.0960 
  6 C        1.3340     1.9310     0.3010 C.ar  1 <1>  -0.1430 
  7 C        2.3310    -0.2300     0.4060 C.3   1 <1>   0.1430 
  8 C        0.3860     2.8350    -0.1080 C.ar  1 <1>   0.1600 
  9 C        2.5540     2.1200     1.1670 C.3   1 <1>  -0.0160 
 10 C        3.3110    -0.4900    -0.7540 C.3   1 <1>   0.2090 
 11 C        1.8380    -1.5740     0.9810 C.3   1 <1>  -0.1600 
 12 C        2.9600     0.6740     1.4990 C.3   1 <1>  -0.1600 
 13 N        4.4500    -1.3700    -0.3290 N.pl3 1 <1>  -0.8220 
 14 C        3.0200    -2.4810     1.3670 C.3   1 <1>  -0.1600 
 15 C        5.5910    -1.3730    -1.1540 C.2   1 <1>   0.2700 
 16 C        3.9880    -2.6880     0.1940 C.3   1 <1>   0.2090 
 17 N        6.0540    -2.4210    -1.7430 N.2   1 <1>  -0.3380 
 18 N        6.3630    -0.3140    -1.4710 N.pl3 1 <1>   0.5930 
 19 N        7.1050    -2.0130    -2.4470 N.2   1 <1>   0.0000 
 20 N        7.3030    -0.7580    -2.3020 N.2   1 <1>  -0.4180 
 21 C        6.2830     1.0300    -1.0110 C.ar  1 <1>  -0.0230 
 22 C        6.3960     1.3210     0.3450 C.ar  1 <1>  -0.1500 
 23 C        6.0830     2.0760    -1.9070 C.ar  1 <1>  -0.1500 
 24 C        6.3060     2.6260     0.7960 C.ar  1 <1>  -0.1500 
 25 C        5.9890     3.3800    -1.4560 C.ar  1 <1>  -0.1500 
 26 C        6.1000     3.6560    -0.1050 C.ar  1 <1>  -0.1500 
 27 H       -1.4070     0.1170    -2.9020 H     1 <1>   0.0800 
 28 H       -2.2460     1.6140    -2.5700 H     1 <1>   0.0800 
 29 H       -2.4960     0.2250    -1.5360 H     1 <1>   0.0800 
 30 H        0.4440     3.8650     0.1990 H     1 <1>   0.1500 
 31 H        2.3330     2.6850     2.0560 H     1 <1>   0.0800 
 32 H        3.3260     2.6120     0.6000 H     1 <1>   0.0800 
 33 H        3.6800     0.4510    -1.1220 H     1 <1>   0.0800 
 34 H        2.7810    -0.9710    -1.5580 H     1 <1>   0.0800 
 35 H        1.2470    -2.0760     0.2340 H     1 <1>   0.0800 
 36 H        1.2020    -1.4050     1.8330 H     1 <1>   0.0800 
 37 H        4.0260     0.5590     1.5650 H     1 <1>   0.0800 
 38 H        2.5370     0.4230     2.4550 H     1 <1>   0.0800 
 39 H        2.6480    -3.4390     1.6860 H     1 <1>   0.0800 
 40 H        3.5630    -2.0530     2.1910 H     1 <1>   0.0800 
 41 H        4.8370    -3.2640     0.5240 H     1 <1>   0.0800 
 42 H        3.4980    -3.2320    -0.5960 H     1 <1>   0.0800 
 43 H        6.5550     0.5220     1.0500 H     1 <1>   0.1500 
 44 H        6.0040     1.8690    -2.9620 H     1 <1>   0.1500 
 45 H        6.3980     2.8400     1.8470 H     1 <1>   0.1500 
 46 H        5.8340     4.1830    -2.1570 H     1 <1>   0.1500 
 47 H        6.0310     4.6720     0.2450 H     1 <1>   0.1500 
@<TRIPOS>BOND
  1   1   2  ar  
  2   1   3  ar  
  3   2   4  ar  
  4   2   5  1   
  5   3   6  ar  
  6   3   7  1   
  7   4   8  ar  
  8   5  27  1   
  9   5  28  1   
 10   5  29  1   
 11   6   8  ar  
 12   6   9  1   
 13   7  10  1   
 14   7  11  1   
 15   7  12  1   
 16   8  30  1   
 17   9  12  1   
 18   9  31  1   
 19   9  32  1   
 20  10  13  1   
 21  10  33  1   
 22  10  34  1   
 23  11  14  1   
 24  11  35  1   
 25  11  36  1   
 26  12  37  1   
 27  12  38  1   
 28  13  15  1   
 29  13  16  1   
 30  14  16  1   
 31  14  39  1   
 32  14  40  1   
 33  15  17  2   
 34  15  18  1   
 35  16  41  1   
 36  16  42  1   
 37  17  19  1   
 38  18  20  1   
 39  18  21  1   
 40  19  20  2   
 41  21  22  ar  
 42  21  23  ar  
 43  22  24  ar  
 44  22  43  1   
 45  23  25  ar  
 46  23  44  1   
 47  24  26  ar  
 48  24  45  1   
 49  25  26  ar  
 50  25  46  1   
 51  26  47  1   
@<TRIPOS>SUBSTRUCTURE
  1 ****  10 GROUP 4 **** **** 0

# MOE 2024.06 (io_trps.svl 2023.06)
