@<TRIPOS>MOLECULE
NONAME
54 56 1 0 0 
SMALL
USER_CHARGES


@<TRIPOS>ATOM
  1 O        3.2330    -0.5920    -0.6770 O.2   1 <1>  -0.5700 
  2 C        3.4090    -0.6340     0.5380 C.2   1 <1>   0.6160 
  3 N        2.7010    -1.5660     1.2890 N.am  1 <1>  -0.4690 
  4 C        4.3410     0.2250     1.2070 C.2   1 <1>   0.0290 
  5 C        2.9290    -1.6990     2.6380 C.2   1 <1>  -0.0410 
  6 C        1.7120    -2.4500     0.6160 C.3   1 <1>   0.0600 
  7 C        5.0270     1.2210     0.4370 C.2   1 <1>   0.6160 
  8 C        4.5550     0.0610     2.5530 C.2   1 <1>  -0.1500 
  9 C        3.8390    -0.9130     3.2750 C.2   1 <1>  -0.1500 
 10 O        6.2370     1.3590     0.5120 O.2   1 <1>  -0.5700 
 11 N        4.3630     2.1120    -0.3660 N.am  1 <1>  -0.6600 
 12 C        4.5680     2.0920    -1.8480 C.3   1 <1>   0.1400 
 13 C        3.7490     3.3380     0.1990 C.3   1 <1>   0.1400 
 14 C        5.9320     2.6850    -2.2630 C.3   1 <1>   0.3430 
 15 C        4.7930     4.4550     0.3570 C.3   1 <1>  -0.1600 
 16 N        6.4820     3.5930    -1.2160 N.4   1 <1>  -0.9590 
 17 C        5.6130     4.7600    -0.9000 C.3   1 <1>   0.3430 
 18 C        7.9100     3.9560    -1.4220 C.3   1 <1>   0.5240 
 19 C        8.4740     4.5770    -0.1520 C.2   1 <1>   0.0460 
 20 N        8.3890     5.9070     0.0560 N.2   1 <1>  -0.5650 
 21 C        9.0840     3.9630     0.8880 C.2   1 <1>  -0.3320 
 22 C        8.9580     6.0820     1.2040 C.2   1 <1>   0.0060 
 23 N        9.4020     4.9360     1.7630 N.pl3 1 <1>   0.0330 
 24 C        9.3960     2.4970     1.1430 C.3   1 <1>  -0.0600 
 25 C        9.1200     7.4350     1.8730 C.3   1 <1>   0.0200 
 26 C       10.5920     7.8540     1.9370 C.3   1 <1>  -0.2400 
 27 H        2.3680    -2.4480     3.1750 H     1 <1>   0.1500 
 28 H        0.9860    -1.8490     0.0970 H     1 <1>   0.0800 
 29 H        1.2050    -3.0700     1.3340 H     1 <1>   0.0800 
 30 H        2.2190    -3.0770    -0.0970 H     1 <1>   0.0800 
 31 H        5.2700     0.6720     3.0790 H     1 <1>   0.1500 
 32 H        4.0240    -1.0190     4.3310 H     1 <1>   0.1500 
 33 H        3.7770     2.6420    -2.3270 H     1 <1>   0.0800 
 34 H        4.5050     1.0780    -2.2040 H     1 <1>   0.0800 
 35 H        3.3210     3.1110     1.1620 H     1 <1>   0.0800 
 36 H        2.9480     3.6640    -0.4430 H     1 <1>   0.0800 
 37 H        5.8350     3.2010    -3.2040 H     1 <1>   0.0800 
 38 H        6.6160     1.8640    -2.4060 H     1 <1>   0.0800 
 39 H        5.4610     4.2180     1.1660 H     1 <1>   0.0800 
 40 H        4.2750     5.3530     0.6410 H     1 <1>   0.0800 
 41 H        6.4780     3.0090    -0.3540 H     1 <1>   0.4500 
 42 H        6.2160     5.6330    -0.7140 H     1 <1>   0.0800 
 43 H        4.9610     4.9790    -1.7290 H     1 <1>   0.0800 
 44 H        8.0130     4.6540    -2.2360 H     1 <1>   0.0800 
 45 H        8.4790     3.0710    -1.6500 H     1 <1>   0.0800 
 46 H        9.8870     4.8430     2.6600 H     1 <1>   0.2700 
 47 H        9.0600     1.8840     0.3270 H     1 <1>   0.0800 
 48 H        8.9010     2.1630     2.0380 H     1 <1>   0.0800 
 49 H       10.4570     2.3570     1.2610 H     1 <1>   0.0800 
 50 H        8.7050     7.3980     2.8650 H     1 <1>   0.0800 
 51 H        8.5690     8.1700     1.3120 H     1 <1>   0.0800 
 52 H       11.1620     7.1600     2.5280 H     1 <1>   0.0800 
 53 H       10.6780     8.8320     2.3760 H     1 <1>   0.0800 
 54 H       11.0070     7.8850     0.9440 H     1 <1>   0.0800 
@<TRIPOS>BOND
  1   1   2  2   
  2   2   3  am  
  3   2   4  1   
  4   3   5  1   
  5   3   6  1   
  6   4   7  1   
  7   4   8  2   
  8   5   9  2   
  9   5  27  1   
 10   6  28  1   
 11   6  29  1   
 12   6  30  1   
 13   7  10  2   
 14   7  11  am  
 15   8   9  1   
 16   8  31  1   
 17   9  32  1   
 18  11  12  1   
 19  11  13  1   
 20  12  14  1   
 21  12  33  1   
 22  12  34  1   
 23  13  15  1   
 24  13  35  1   
 25  13  36  1   
 26  14  16  1   
 27  14  37  1   
 28  14  38  1   
 29  15  17  1   
 30  15  39  1   
 31  15  40  1   
 32  16  17  1   
 33  16  18  1   
 34  16  41  1   
 35  17  42  1   
 36  17  43  1   
 37  18  19  1   
 38  18  44  1   
 39  18  45  1   
 40  19  20  1   
 41  19  21  2   
 42  20  22  2   
 43  21  23  1   
 44  21  24  1   
 45  22  23  1   
 46  22  25  1   
 47  23  46  1   
 48  24  47  1   
 49  24  48  1   
 50  24  49  1   
 51  25  26  1   
 52  25  50  1   
 53  25  51  1   
 54  26  52  1   
 55  26  53  1   
 56  26  54  1   
@<TRIPOS>SUBSTRUCTURE
  1 ****  10 GROUP 4 **** **** 0

# MOE 2024.06 (io_trps.svl 2023.06)
