@<TRIPOS>MOLECULE
NONAME
48 50 1 0 0 
SMALL
USER_CHARGES


@<TRIPOS>ATOM
  1 F        0.0130    -0.8770     0.8450 F     1 <1>  -0.1900 
  2 C       -0.5850    -1.9590     0.4120 C.ar  1 <1>   0.1900 
  3 C       -0.0550    -2.7360    -0.6230 C.ar  1 <1>   0.0830 
  4 C       -1.7700    -2.2970     1.0370 C.ar  1 <1>  -0.1500 
  5 O        1.0990    -2.5070    -1.3140 O.3   1 <1>  -0.3630 
  6 C       -0.7620    -3.8660    -1.0040 C.ar  1 <1>  -0.1500 
  7 C       -2.4460    -3.4330     0.6320 C.ar  1 <1>  -0.1500 
  8 C        1.8930    -1.3570    -1.1230 C.3   1 <1>   0.0400 
  9 C       -1.9630    -4.2420    -0.3970 C.ar  1 <1>   0.0530 
 10 C       -2.6510    -5.4390    -0.8200 C.2   1 <1>   0.0870 
 11 O       -1.9390    -6.4740    -1.2100 O.3   1 <1>  -0.0190 
 12 C       -3.9580    -5.8090    -0.9120 C.2   1 <1>  -0.2330 
 13 N       -2.6700    -7.5030    -1.5480 N.2   1 <1>  -0.4100 
 14 C       -3.8810    -7.1140    -1.3930 C.2   1 <1>   0.3720 
 15 C       -5.1960    -5.1480    -0.6120 C.2   1 <1>   1.0330 
 16 N       -4.9860    -7.9100    -1.6400 N.pl3 1 <1>  -0.8520 
 17 O       -5.2510    -3.9330    -0.3850 O.co2 1 <1>  -0.9000 
 18 O       -6.2550    -5.8080    -0.5480 O.co2 1 <1>  -0.9000 
 19 C       -5.1280    -9.0010    -0.6610 C.3   1 <1>   0.2090 
 20 C       -6.5630    -9.5710    -0.6860 C.3   1 <1>   0.4230 
 21 N       -6.7630   -10.7440     0.2110 N.4   1 <1>  -0.9590 
 22 C       -7.6290    -8.5870    -0.2140 C.3   1 <1>  -0.1600 
 23 C       -8.2350   -10.8710     0.3760 C.3   1 <1>   0.3430 
 24 C       -6.1010   -11.9770    -0.2880 C.3   1 <1>   0.3430 
 25 C       -8.7700    -9.4460     0.3310 C.3   1 <1>  -0.1600 
 26 C       -6.1320   -13.0450     0.7970 C.3   1 <1>  -0.2400 
 27 H       -2.1610    -1.6820     1.8260 H     1 <1>   0.1500 
 28 H       -0.3680    -4.4710    -1.8000 H     1 <1>   0.1500 
 29 H       -3.3690    -3.6940     1.1200 H     1 <1>   0.1500 
 30 H        2.7090    -1.3950    -1.8210 H     1 <1>   0.0800 
 31 H        2.2750    -1.3590    -0.1170 H     1 <1>   0.0800 
 32 H        1.2950    -0.4830    -1.3080 H     1 <1>   0.0800 
 33 H       -5.7840    -7.2490    -1.4980 H     1 <1>   0.4000 
 34 H       -4.4170    -9.7680    -0.9150 H     1 <1>   0.0800 
 35 H       -4.9010    -8.6240     0.3220 H     1 <1>   0.0800 
 36 H       -6.7900    -9.8650    -1.6980 H     1 <1>   0.0800 
 37 H       -6.3690   -10.4850     1.1230 H     1 <1>   0.4500 
 38 H       -7.2350    -7.9590     0.5680 H     1 <1>   0.0800 
 39 H       -7.9470    -7.9470    -1.0200 H     1 <1>   0.0800 
 40 H       -8.6470   -11.4330    -0.4470 H     1 <1>   0.0800 
 41 H       -8.4880   -11.3600     1.3040 H     1 <1>   0.0800 
 42 H       -6.6000   -12.3330    -1.1760 H     1 <1>   0.0800 
 43 H       -5.0740   -11.7650    -0.5420 H     1 <1>   0.0800 
 44 H       -9.6340    -9.3970    -0.3090 H     1 <1>   0.0800 
 45 H       -9.0550    -9.1160     1.3150 H     1 <1>   0.0800 
 46 H       -7.1390   -13.3460     1.0240 H     1 <1>   0.0800 
 47 H       -5.6460   -12.6970     1.6910 H     1 <1>   0.0800 
 48 H       -5.6020   -13.9140     0.4500 H     1 <1>   0.0800 
@<TRIPOS>BOND
  1   1   2  1   
  2   2   3  ar  
  3   2   4  ar  
  4   3   5  1   
  5   3   6  ar  
  6   4   7  ar  
  7   4  27  1   
  8   5   8  1   
  9   6   9  ar  
 10   6  28  1   
 11   7   9  ar  
 12   7  29  1   
 13   8  30  1   
 14   8  31  1   
 15   8  32  1   
 16   9  10  1   
 17  10  11  1   
 18  10  12  2   
 19  11  13  1   
 20  12  14  1   
 21  12  15  1   
 22  13  14  2   
 23  14  16  1   
 24  15  17  ar  
 25  15  18  ar  
 26  16  19  1   
 27  16  33  1   
 28  19  20  1   
 29  19  34  1   
 30  19  35  1   
 31  20  21  1   
 32  20  22  1   
 33  20  36  1   
 34  21  23  1   
 35  21  24  1   
 36  21  37  1   
 37  22  25  1   
 38  22  38  1   
 39  22  39  1   
 40  23  25  1   
 41  23  40  1   
 42  23  41  1   
 43  24  26  1   
 44  24  42  1   
 45  24  43  1   
 46  25  44  1   
 47  25  45  1   
 48  26  46  1   
 49  26  47  1   
 50  26  48  1   
@<TRIPOS>SUBSTRUCTURE
  1 ****  12 GROUP 4 **** **** 0

# MOE 2024.06 (io_trps.svl 2023.06)
