@<TRIPOS>MOLECULE
NONAME
47 49 1 0 0 
SMALL
USER_CHARGES


@<TRIPOS>ATOM
  1 O       -0.3680    -0.4440    -0.7610 O.2   1 <1>  -0.5700 
  2 C       -0.2920    -1.5180    -0.1980 C.2   1 <1>   0.5440 
  3 N        0.9210    -1.9060     0.3040 N.am  1 <1>  -0.7300 
  4 C       -1.4630    -2.3540    -0.0490 C.ar  1 <1>   0.0860 
  5 C        2.1740    -1.1370     0.1840 C.3   1 <1>   0.1400 
  6 C       -2.7400    -1.8060    -0.1380 C.ar  1 <1>   0.1600 
  7 C       -1.3940    -3.7240     0.1880 C.ar  1 <1>  -0.1500 
  8 C        3.3300    -2.1140     0.0090 C.3   1 <1>  -0.2400 
  9 N       -3.8810    -2.4590    -0.0070 N.ar  1 <1>  -0.6200 
 10 C       -2.5710    -4.4200     0.3260 C.ar  1 <1>  -0.1500 
 11 C       -3.8000    -3.7660     0.2230 C.ar  1 <1>   0.4100 
 12 N       -4.9930    -4.4490     0.3630 N.pl3 1 <1>  -0.8380 
 13 C       -6.3160    -3.7920     0.1690 C.3   1 <1>   0.2090 
 14 C       -5.1330    -5.9240     0.2740 C.3   1 <1>   0.2090 
 15 C       -7.2800    -4.9250    -0.1870 C.3   1 <1>   0.2000 
 16 C       -6.6330    -6.1960     0.3580 C.3   1 <1>  -0.0800 
 17 O       -8.5330    -4.7470     0.3840 O.3   1 <1>  -0.6800 
 18 C       -7.0730    -7.4670    -0.3880 C.3   1 <1>   0.0210 
 19 C       -6.2660    -8.6850     0.0270 C.2   1 <1>   0.1080 
 20 N       -5.9340    -8.9390     1.2560 N.2   1 <1>  -0.7070 
 21 C       -5.7960    -9.6540    -0.8530 C.2   1 <1>  -0.1500 
 22 N       -5.2410   -10.0920     1.1910 N.pl3 1 <1>   0.3000 
 23 C       -5.1410   -10.5430    -0.0770 C.2   1 <1>  -0.3320 
 24 C       -4.4190   -11.8180    -0.4730 C.3   1 <1>  -0.0600 
 25 H        0.9750    -2.7320     0.9000 H     1 <1>   0.3700 
 26 H        2.1190    -0.4750    -0.6650 H     1 <1>   0.0800 
 27 H        2.3150    -0.5440     1.0720 H     1 <1>   0.0800 
 28 H       -2.8150    -0.7480    -0.3300 H     1 <1>   0.1500 
 29 H       -0.4490    -4.2300     0.2560 H     1 <1>   0.1500 
 30 H        3.1860    -2.7040    -0.8790 H     1 <1>   0.0800 
 31 H        3.4120    -2.7610     0.8650 H     1 <1>   0.0800 
 32 H        4.2500    -1.5670    -0.0930 H     1 <1>   0.0800 
 33 H       -2.5480    -5.4740     0.5160 H     1 <1>   0.1500 
 34 H       -6.6030    -3.3080     1.0850 H     1 <1>   0.0800 
 35 H       -6.2750    -3.0720    -0.6300 H     1 <1>   0.0800 
 36 H       -4.7340    -6.2620    -0.6680 H     1 <1>   0.0800 
 37 H       -4.6150    -6.4110     1.0830 H     1 <1>   0.0800 
 38 H       -7.3970    -4.9700    -1.2560 H     1 <1>   0.0800 
 39 H       -6.8690    -6.3020     1.4020 H     1 <1>   0.0800 
 40 H       -8.4590    -4.7630     1.3580 H     1 <1>   0.4000 
 41 H       -6.9640    -7.3230    -1.4480 H     1 <1>   0.0800 
 42 H       -8.1120    -7.6550    -0.1830 H     1 <1>   0.0800 
 43 H       -5.9390    -9.6680    -1.9180 H     1 <1>   0.1500 
 44 H       -4.8540   -10.5440     2.0280 H     1 <1>   0.2700 
 45 H       -4.4830   -11.9640    -1.5370 H     1 <1>   0.0800 
 46 H       -4.8660   -12.6650     0.0150 H     1 <1>   0.0800 
 47 H       -3.3810   -11.7600    -0.1980 H     1 <1>   0.0800 
@<TRIPOS>BOND
  1   1   2  2   
  2   2   3  am  
  3   2   4  1   
  4   3   5  1   
  5   3  25  1   
  6   4   6  ar  
  7   4   7  ar  
  8   5   8  1   
  9   5  26  1   
 10   5  27  1   
 11   6   9  ar  
 12   6  28  1   
 13   7  10  ar  
 14   7  29  1   
 15   8  30  1   
 16   8  31  1   
 17   8  32  1   
 18   9  11  ar  
 19  10  11  ar  
 20  10  33  1   
 21  11  12  1   
 22  12  13  1   
 23  12  14  1   
 24  13  15  1   
 25  13  34  1   
 26  13  35  1   
 27  14  16  1   
 28  14  36  1   
 29  14  37  1   
 30  15  16  1   
 31  15  17  1   
 32  15  38  1   
 33  16  18  1   
 34  16  39  1   
 35  17  40  1   
 36  18  19  1   
 37  18  41  1   
 38  18  42  1   
 39  19  20  2   
 40  19  21  1   
 41  20  22  1   
 42  21  23  2   
 43  21  43  1   
 44  22  23  1   
 45  22  44  1   
 46  23  24  1   
 47  24  45  1   
 48  24  46  1   
 49  24  47  1   
@<TRIPOS>SUBSTRUCTURE
  1 ****  10 GROUP 4 **** **** 0

# MOE 2024.06 (io_trps.svl 2023.06)
