@<TRIPOS>MOLECULE
NONAME
43 45 1 0 0 
SMALL
USER_CHARGES


@<TRIPOS>ATOM
  1 CL      -3.8160     1.3620     2.8800 Cl    1 <1>  -0.1400 
  2 C       -3.9120     0.3320     1.4670 C.2   1 <1>   0.1540 
  3 C       -3.1980     0.7160     0.2890 C.2   1 <1>   0.6160 
  4 C       -4.6570    -0.8050     1.5110 C.2   1 <1>  -0.1500 
  5 O       -2.5180     1.7230     0.1660 O.2   1 <1>  -0.5700 
  6 N       -3.2960    -0.1240    -0.7890 N.am  1 <1>  -0.5390 
  7 C       -4.7490    -1.6510     0.3620 C.2   1 <1>   0.0140 
  8 C       -4.0420    -1.2760    -0.7560 C.2   1 <1>  -0.0410 
  9 C       -5.5480    -2.8520     0.4250 C.2   1 <1>   0.6160 
 10 O       -5.4640    -3.5730     1.4030 O.2   1 <1>  -0.5700 
 11 N       -6.4300    -3.2020    -0.5760 N.am  1 <1>  -0.6600 
 12 C       -7.0720    -4.5560    -0.5830 C.3   1 <1>   0.1400 
 13 C       -7.1150    -2.2010    -1.4430 C.3   1 <1>   0.1400 
 14 C       -8.3760    -4.6000     0.2330 C.3   1 <1>   0.1400 
 15 C       -8.1410    -1.3790    -0.6500 C.3   1 <1>  -0.1600 
 16 N       -9.3380    -3.5120    -0.1530 N.am  1 <1>  -0.6600 
 17 C       -8.9630    -2.1720     0.3760 C.3   1 <1>   0.1400 
 18 C      -10.5000    -3.6840    -0.8670 C.2   1 <1>   0.5690 
 19 O      -11.2220    -2.7480    -1.1240 O.2   1 <1>  -0.5700 
 20 C      -10.9210    -5.0330    -1.4050 C.3   1 <1>   0.1570 
 21 N      -11.4360    -5.8750    -0.3190 N.pl3 1 <1>   0.3140 
 22 N      -10.9060    -7.0860    -0.0550 N.2   1 <1>  -0.7070 
 23 C      -12.4570    -5.5990     0.5180 C.2   1 <1>  -0.3020 
 24 C      -11.6010    -7.5450     0.9410 C.2   1 <1>   0.1390 
 25 C      -12.5890    -6.6560     1.3460 C.2   1 <1>  -0.1500 
 26 H       -5.1850    -1.0950     2.4030 H     1 <1>   0.1500 
 27 H       -2.7540     0.1740    -1.6040 H     1 <1>   0.3700 
 28 H       -4.0520    -1.8890    -1.6440 H     1 <1>   0.1500 
 29 H       -6.3860    -5.2780    -0.1740 H     1 <1>   0.0800 
 30 H       -7.2750    -4.8520    -1.5970 H     1 <1>   0.0800 
 31 H       -7.6260    -2.7180    -2.2370 H     1 <1>   0.0800 
 32 H       -6.3990    -1.5440    -1.9020 H     1 <1>   0.0800 
 33 H       -8.1320    -4.5020     1.2780 H     1 <1>   0.0800 
 34 H       -8.8200    -5.5690     0.1130 H     1 <1>   0.0800 
 35 H       -8.8190    -0.9220    -1.3480 H     1 <1>   0.0800 
 36 H       -7.6380    -0.5790    -0.1390 H     1 <1>   0.0800 
 37 H       -9.8500    -1.6180     0.6340 H     1 <1>   0.0800 
 38 H       -8.3870    -2.2950     1.2780 H     1 <1>   0.0800 
 39 H      -10.0860    -5.5230    -1.8670 H     1 <1>   0.0800 
 40 H      -11.6970    -4.9060    -2.1330 H     1 <1>   0.0800 
 41 H      -13.0180    -4.6810     0.4770 H     1 <1>   0.1500 
 42 H      -11.4260    -8.5060     1.3950 H     1 <1>   0.1500 
 43 H      -13.2910    -6.8050     2.1460 H     1 <1>   0.1500 
@<TRIPOS>BOND
  1   1   2  1   
  2   2   3  1   
  3   2   4  2   
  4   3   5  2   
  5   3   6  am  
  6   4   7  1   
  7   4  26  1   
  8   6   8  1   
  9   6  27  1   
 10   7   8  2   
 11   7   9  1   
 12   8  28  1   
 13   9  10  2   
 14   9  11  am  
 15  11  12  1   
 16  11  13  1   
 17  12  14  1   
 18  12  29  1   
 19  12  30  1   
 20  13  15  1   
 21  13  31  1   
 22  13  32  1   
 23  14  16  1   
 24  14  33  1   
 25  14  34  1   
 26  15  17  1   
 27  15  35  1   
 28  15  36  1   
 29  16  17  1   
 30  16  18  am  
 31  17  37  1   
 32  17  38  1   
 33  18  19  2   
 34  18  20  1   
 35  20  21  1   
 36  20  39  1   
 37  20  40  1   
 38  21  22  1   
 39  21  23  1   
 40  22  24  2   
 41  23  25  2   
 42  23  41  1   
 43  24  25  1   
 44  24  42  1   
 45  25  43  1   
@<TRIPOS>SUBSTRUCTURE
  1 ****  11 GROUP 4 **** **** 0

# MOE 2024.06 (io_trps.svl 2023.06)
