@<TRIPOS>MOLECULE
NONAME
58 61 1 0 0 
SMALL
USER_CHARGES


@<TRIPOS>ATOM
  1 O       -0.0290    -0.5340    -0.7190 O.2   1 <1>  -0.5700 
  2 C       -0.7990     0.3980    -0.8040 C.2   1 <1>   0.5690 
  3 N       -2.1500     0.2280    -0.5620 N.am  1 <1>  -0.6600 
  4 C       -0.1920     1.7370    -1.2290 C.3   1 <1>   0.0820 
  5 C       -3.1300     1.3500    -0.6380 C.3   1 <1>   0.2200 
  6 C       -2.6660    -1.1150    -0.1520 C.3   1 <1>   0.0600 
  7 C       -0.3690     2.8680    -0.2170 C.2   1 <1>  -0.1810 
  8 C       -3.5460     1.8650     0.7360 C.3   1 <1>  -0.1600 
  9 C       -4.4560     1.0270    -1.3240 C.3   1 <1>  -0.1600 
 10 C       -1.0370     4.0880    -0.4860 C.ar  1 <1>   0.0000 
 11 C        0.0540     2.9060     1.0710 C.2   1 <1>  -0.3320 
 12 C       -4.7910     2.7080     0.4400 C.3   1 <1>  -0.0800 
 13 C       -5.3730     2.1760    -0.8760 C.3   1 <1>  -0.0800 
 14 C       -1.0070     4.8200     0.6960 C.ar  1 <1>  -0.1520 
 15 C       -1.6650     4.6370    -1.6120 C.ar  1 <1>  -0.1500 
 16 N       -0.3260     4.0910     1.6360 N.pl3 1 <1>   0.0330 
 17 C        0.8240     1.8650     1.8630 C.3   1 <1>  -0.0600 
 18 C       -5.9190     2.6000     1.4740 C.3   1 <1>  -0.1600 
 19 C       -6.8250     1.7890    -0.5610 C.3   1 <1>  -0.1600 
 20 C       -1.6040     6.0800     0.7830 C.ar  1 <1>  -0.1500 
 21 C       -2.2520     5.8790    -1.5280 C.ar  1 <1>  -0.1500 
 22 C       -7.2140     2.6360     0.6560 C.3   1 <1>   0.4230 
 23 C       -2.2240     6.6000    -0.3290 C.ar  1 <1>  -0.1500 
 24 N       -7.5370     4.0420     0.2460 N.4   1 <1>  -0.9590 
 25 C       -7.7960     4.9410     1.4160 C.3   1 <1>   0.2630 
 26 C       -8.7080     4.1230    -0.6850 C.3   1 <1>   0.2630 
 27 H        0.8620     1.5970    -1.3840 H     1 <1>   0.0800 
 28 H       -0.6120     2.0110    -2.1760 H     1 <1>   0.0800 
 29 H       -2.7030     2.1670    -1.1860 H     1 <1>   0.0800 
 30 H       -3.3940    -1.0190     0.6310 H     1 <1>   0.0800 
 31 H       -1.8670    -1.7380     0.2130 H     1 <1>   0.0800 
 32 H       -3.1160    -1.6020    -1.0000 H     1 <1>   0.0800 
 33 H       -3.7830     1.0400     1.3800 H     1 <1>   0.0800 
 34 H       -2.7710     2.4560     1.1890 H     1 <1>   0.0800 
 35 H       -4.3460     0.9990    -2.3940 H     1 <1>   0.0800 
 36 H       -4.8430     0.0880    -0.9770 H     1 <1>   0.0800 
 37 H       -4.4970     3.7370     0.3040 H     1 <1>   0.0800 
 38 H       -5.3440     2.9640    -1.6110 H     1 <1>   0.0800 
 39 H       -1.6750     4.0860    -2.5330 H     1 <1>   0.1500 
 40 H       -0.1250     4.3970     2.5920 H     1 <1>   0.2700 
 41 H        1.1010     1.0350     1.2390 H     1 <1>   0.0800 
 42 H        0.2190     1.4930     2.6710 H     1 <1>   0.0800 
 43 H        1.7230     2.2950     2.2670 H     1 <1>   0.0800 
 44 H       -5.8420     3.3460     2.2420 H     1 <1>   0.0800 
 45 H       -5.8720     1.6400     1.9570 H     1 <1>   0.0800 
 46 H       -6.8620     0.7570    -0.2560 H     1 <1>   0.0800 
 47 H       -7.4710     1.8910    -1.4120 H     1 <1>   0.0800 
 48 H       -1.5660     6.6290     1.7070 H     1 <1>   0.1500 
 49 H       -2.7300     6.3130    -2.3880 H     1 <1>   0.1500 
 50 H       -8.0390     2.2000     1.1980 H     1 <1>   0.0800 
 51 H       -2.6820     7.5730    -0.2900 H     1 <1>   0.1500 
 52 H       -6.7000     4.3870    -0.2480 H     1 <1>   0.4500 
 53 H       -8.6050     4.5540     2.0140 H     1 <1>   0.0800 
 54 H       -8.0610     5.9290     1.0750 H     1 <1>   0.0800 
 55 H       -6.9180     5.0270     2.0350 H     1 <1>   0.0800 
 56 H       -9.5790     3.6800    -0.2300 H     1 <1>   0.0800 
 57 H       -8.5000     3.6090    -1.6080 H     1 <1>   0.0800 
 58 H       -8.9270     5.1530    -0.9180 H     1 <1>   0.0800 
@<TRIPOS>BOND
  1   1   2  2   
  2   2   3  am  
  3   2   4  1   
  4   3   5  1   
  5   3   6  1   
  6   4   7  1   
  7   4  27  1   
  8   4  28  1   
  9   5   8  1   
 10   5   9  1   
 11   5  29  1   
 12   6  30  1   
 13   6  31  1   
 14   6  32  1   
 15   7  10  1   
 16   7  11  2   
 17   8  12  1   
 18   8  33  1   
 19   8  34  1   
 20   9  13  1   
 21   9  35  1   
 22   9  36  1   
 23  10  14  ar  
 24  10  15  ar  
 25  11  16  1   
 26  11  17  1   
 27  12  13  1   
 28  12  18  1   
 29  12  37  1   
 30  13  19  1   
 31  13  38  1   
 32  14  16  1   
 33  14  20  ar  
 34  15  21  ar  
 35  15  39  1   
 36  16  40  1   
 37  17  41  1   
 38  17  42  1   
 39  17  43  1   
 40  18  22  1   
 41  18  44  1   
 42  18  45  1   
 43  19  22  1   
 44  19  46  1   
 45  19  47  1   
 46  20  23  ar  
 47  20  48  1   
 48  21  23  ar  
 49  21  49  1   
 50  22  24  1   
 51  22  50  1   
 52  23  51  1   
 53  24  25  1   
 54  24  26  1   
 55  24  52  1   
 56  25  53  1   
 57  25  54  1   
 58  25  55  1   
 59  26  56  1   
 60  26  57  1   
 61  26  58  1   
@<TRIPOS>SUBSTRUCTURE
  1 ****   8 GROUP 4 **** **** 0

# MOE 2024.06 (io_trps.svl 2023.06)
