@<TRIPOS>MOLECULE
NONAME
41 43 1 0 0 
SMALL
USER_CHARGES


@<TRIPOS>ATOM
  1 S       -0.2030     1.0970    -2.0310 S.3   1 <1>  -0.0800 
  2 C        0.0280     1.8410    -0.4570 C.2   1 <1>   0.4420 
  3 C       -1.8840     0.8820    -1.6560 C.2   1 <1>  -0.1100 
  4 N        1.2530     2.3060    -0.0360 N.am  1 <1>  -0.4940 
  5 N       -1.0410     1.9100     0.2380 N.2   1 <1>  -0.5650 
  6 C       -2.1430     1.3650    -0.4220 C.2   1 <1>   0.1730 
  7 C        2.4890     2.2910    -0.6270 C.2   1 <1>   0.5690 
  8 C       -3.4340     1.3610     0.2440 C.ar  1 <1>   0.0540 
  9 O        2.7070     1.7660    -1.6900 O.2   1 <1>  -0.5700 
 10 C        3.6480     2.9580     0.1000 C.3   1 <1>   0.2370 
 11 C       -4.4440     0.4720    -0.1300 C.ar  1 <1>   0.1600 
 12 C       -3.7320     2.2360     1.2810 C.ar  1 <1>  -0.1500 
 13 N        4.4180     1.8820     0.7450 N.pl3 1 <1>   0.3140 
 14 C        4.5370     3.8610    -0.8030 C.3   1 <1>  -0.0800 
 15 N       -5.6530     0.3920     0.4010 N.ar  1 <1>  -0.6200 
 16 C       -4.9830     2.1710     1.8540 C.ar  1 <1>  -0.1500 
 17 N        4.5480     1.7880     2.0510 N.2   1 <1>  -0.4180 
 18 C        5.0700     0.8670     0.2090 C.2   1 <1>   0.0360 
 19 C        5.7250     4.4610    -0.0120 C.3   1 <1>  -0.1600 
 20 C        3.6900     4.9800    -1.4440 C.3   1 <1>  -0.2400 
 21 C       -5.8960     1.2440     1.3830 C.ar  1 <1>   0.1600 
 22 N        5.2670     0.7450     2.2690 N.2   1 <1>   0.0000 
 23 N        5.6030     0.1570     1.1260 N.2   1 <1>  -0.3380 
 24 C        6.7010     5.2670    -0.8800 C.3   1 <1>  -0.2400 
 25 H       -2.5030     0.4180    -2.4010 H     1 <1>   0.1500 
 26 H        1.1900     2.6930     0.9030 H     1 <1>   0.3700 
 27 H        3.2460     3.5730     0.8820 H     1 <1>   0.0800 
 28 H       -4.2360    -0.2250    -0.9230 H     1 <1>   0.1500 
 29 H       -3.0030     2.9480     1.6270 H     1 <1>   0.1500 
 30 H        4.9310     3.2540    -1.6020 H     1 <1>   0.0800 
 31 H       -5.2530     2.8310     2.6580 H     1 <1>   0.1500 
 32 H        5.1280     0.6810    -0.8490 H     1 <1>   0.1500 
 33 H        5.3590     5.0910     0.7810 H     1 <1>   0.0800 
 34 H        6.2950     3.6700     0.4480 H     1 <1>   0.0800 
 35 H        3.3160     5.6560    -0.6950 H     1 <1>   0.0800 
 36 H        2.8560     4.5740    -1.9900 H     1 <1>   0.0800 
 37 H        4.2740     5.5440    -2.1490 H     1 <1>   0.0800 
 38 H       -6.8720     1.2010     1.8360 H     1 <1>   0.1500 
 39 H        6.2490     6.1740    -1.2370 H     1 <1>   0.0800 
 40 H        7.0300     4.6830    -1.7220 H     1 <1>   0.0800 
 41 H        7.5650     5.5370    -0.2990 H     1 <1>   0.0800 
@<TRIPOS>BOND
  1   1   2  1   
  2   1   3  1   
  3   2   4  1   
  4   2   5  2   
  5   3   6  2   
  6   3  25  1   
  7   4   7  am  
  8   4  26  1   
  9   5   6  1   
 10   6   8  1   
 11   7   9  2   
 12   7  10  1   
 13   8  11  ar  
 14   8  12  ar  
 15  10  13  1   
 16  10  14  1   
 17  10  27  1   
 18  11  15  ar  
 19  11  28  1   
 20  12  16  ar  
 21  12  29  1   
 22  13  17  1   
 23  13  18  1   
 24  14  19  1   
 25  14  20  1   
 26  14  30  1   
 27  15  21  ar  
 28  16  21  ar  
 29  16  31  1   
 30  17  22  2   
 31  18  23  2   
 32  18  32  1   
 33  19  24  1   
 34  19  33  1   
 35  19  34  1   
 36  20  35  1   
 37  20  36  1   
 38  20  37  1   
 39  21  38  1   
 40  22  23  1   
 41  24  39  1   
 42  24  40  1   
 43  24  41  1   
@<TRIPOS>SUBSTRUCTURE
  1 ****   4 GROUP 4 **** **** 0

# MOE 2024.06 (io_trps.svl 2023.06)
