@<TRIPOS>MOLECULE
NONAME
40 42 1 0 0 
SMALL
USER_CHARGES


@<TRIPOS>ATOM
  1 O       -2.3380     0.9670    -2.0090 O.2   1 <1>  -0.5700 
  2 C       -2.0220     1.0240    -0.8370 C.2   1 <1>   0.5440 
  3 N       -2.0110    -0.1370    -0.1190 N.am  1 <1>  -0.7300 
  4 C       -1.6600     2.2910    -0.2220 C.ar  1 <1>   0.0860 
  5 C       -2.3740    -1.4720    -0.6470 C.3   1 <1>   0.2200 
  6 C       -1.2350     3.3640    -1.0050 C.ar  1 <1>  -0.1500 
  7 C       -1.7230     2.4920     1.1620 C.ar  1 <1>  -0.1500 
  8 C       -3.7790    -1.8200    -0.1870 C.3   1 <1>  -0.0800 
  9 C       -1.5460    -2.5400     0.0560 C.3   1 <1>   0.1200 
 10 C       -0.8810     4.5710    -0.4320 C.ar  1 <1>   0.0820 
 11 C       -1.3670     3.7000     1.7360 C.ar  1 <1>  -0.1500 
 12 C       -3.5320    -2.3990     1.2120 C.3   1 <1>   0.1200 
 13 C       -4.4480    -2.8350    -1.1320 C.3   1 <1>  -0.0160 
 14 O       -2.1870    -2.7800     1.2720 O.3   1 <1>  -0.5600 
 15 O       -0.4740     5.5910    -1.2020 O.3   1 <1>  -0.5320 
 16 C       -0.9420     4.7450     0.9380 C.ar  1 <1>  -0.1500 
 17 C       -5.8670    -3.1560    -0.6880 C.ar  1 <1>  -0.1440 
 18 C       -6.9010    -2.2600    -0.8690 C.ar  1 <1>  -0.1500 
 19 C       -6.1970    -4.3530    -0.0840 C.ar  1 <1>  -0.1500 
 20 C       -8.1770    -2.5910    -0.4440 C.ar  1 <1>   0.1600 
 21 C       -7.5060    -4.5860     0.3040 C.ar  1 <1>   0.1600 
 22 N       -8.5040    -3.7320     0.1400 N.ar  1 <1>  -0.6200 
 23 H       -1.7190    -0.1420     0.8590 H     1 <1>   0.3700 
 24 H       -2.2550    -1.5000    -1.7180 H     1 <1>   0.0800 
 25 H       -1.1850     3.2390    -2.0720 H     1 <1>   0.1500 
 26 H       -2.0610     1.6980     1.8030 H     1 <1>   0.1500 
 27 H       -4.3970    -0.9400    -0.1360 H     1 <1>   0.0800 
 28 H       -0.5310    -2.2290     0.2350 H     1 <1>   0.0800 
 29 H       -1.5520    -3.4580    -0.5050 H     1 <1>   0.0800 
 30 H       -1.4210     3.8310     2.8040 H     1 <1>   0.1500 
 31 H       -4.1470    -3.2550     1.4290 H     1 <1>   0.0800 
 32 H       -3.6900    -1.6480     1.9670 H     1 <1>   0.0800 
 33 H       -3.8700    -3.7420    -1.1780 H     1 <1>   0.0800 
 34 H       -4.4850    -2.4240    -2.1270 H     1 <1>   0.0800 
 35 H       -0.4800     5.3810    -2.1530 H     1 <1>   0.4500 
 36 H       -0.6610     5.6910     1.3660 H     1 <1>   0.1500 
 37 H       -6.7270    -1.3070    -1.3360 H     1 <1>   0.1500 
 38 H       -5.4500    -5.1060     0.0900 H     1 <1>   0.1500 
 39 H       -8.9700    -1.8790    -0.5930 H     1 <1>   0.1500 
 40 H       -7.7440    -5.5240     0.7740 H     1 <1>   0.1500 
@<TRIPOS>BOND
  1   1   2  2   
  2   2   3  am  
  3   2   4  1   
  4   3   5  1   
  5   3  23  1   
  6   4   6  ar  
  7   4   7  ar  
  8   5   8  1   
  9   5   9  1   
 10   5  24  1   
 11   6  10  ar  
 12   6  25  1   
 13   7  11  ar  
 14   7  26  1   
 15   8  12  1   
 16   8  13  1   
 17   8  27  1   
 18   9  14  1   
 19   9  28  1   
 20   9  29  1   
 21  10  15  1   
 22  10  16  ar  
 23  11  16  ar  
 24  11  30  1   
 25  12  14  1   
 26  12  31  1   
 27  12  32  1   
 28  13  17  1   
 29  13  33  1   
 30  13  34  1   
 31  15  35  1   
 32  16  36  1   
 33  17  18  ar  
 34  17  19  ar  
 35  18  20  ar  
 36  18  37  1   
 37  19  21  ar  
 38  19  38  1   
 39  20  22  ar  
 40  20  39  1   
 41  21  22  ar  
 42  21  40  1   
@<TRIPOS>SUBSTRUCTURE
  1 ****   3 GROUP 4 **** **** 0

# MOE 2024.06 (io_trps.svl 2023.06)
