@<TRIPOS>MOLECULE
NONAME
46 48 1 0 0 
SMALL
USER_CHARGES


@<TRIPOS>ATOM
  1 O        1.3260     0.3250    -2.7800 O.2   1 <1>  -0.5700 
  2 C        1.0040    -0.5300    -1.9870 C.2   1 <1>   0.5690 
  3 N        1.1960    -0.4340    -0.6470 N.am  1 <1>  -0.4930 
  4 C        0.3350    -1.8060    -2.5040 C.3   1 <1>   0.1710 
  5 C        1.7220     0.5860     0.1350 C.2   1 <1>   0.3520 
  6 N       -0.4270    -2.5560    -1.4610 N.3   1 <1>  -0.8100 
  7 N        1.6970     0.4820     1.4250 N.2   1 <1>  -0.7070 
  8 C        2.3070     1.7760    -0.2890 C.2   1 <1>  -0.1500 
  9 C       -0.6710    -3.9510    -1.8900 C.3   1 <1>   0.2530 
 10 C       -1.6850    -1.8480    -1.1230 C.3   1 <1>   0.1100 
 11 N        2.2740     1.6160     1.8690 N.pl3 1 <1>   0.3140 
 12 C        2.6500     2.4130     0.8500 C.2   1 <1>  -0.3020 
 13 C       -0.7550    -4.8900    -0.6970 C.ar  1 <1>  -0.1430 
 14 C       -2.1890    -2.2020     0.2830 C.3   1 <1>  -0.1600 
 15 C        2.4400     1.8760     3.3030 C.3   1 <1>   0.0160 
 16 C       -1.9600    -5.0790    -0.0340 C.ar  1 <1>   0.0830 
 17 C        0.3710    -5.5710    -0.2600 C.ar  1 <1>  -0.1500 
 18 C       -3.3420    -3.2220     0.3030 C.3   1 <1>   0.1200 
 19 O       -3.0360    -4.3700    -0.4550 O.3   1 <1>  -0.3630 
 20 C       -2.0570    -5.9610     1.0450 C.ar  1 <1>   0.0830 
 21 C        0.2900    -6.4420     0.8130 C.ar  1 <1>  -0.1500 
 22 O       -3.2720    -6.1150     1.6490 O.3   1 <1>  -0.3620 
 23 C       -0.9160    -6.6410     1.4620 C.ar  1 <1>  -0.1500 
 24 C       -3.4710    -7.0680     2.6680 C.3   1 <1>   0.0400 
 25 H        0.8230    -1.2180    -0.1070 H     1 <1>   0.3700 
 26 H        1.1250    -2.4260    -2.8880 H     1 <1>   0.0800 
 27 H       -0.3150    -1.5530    -3.3230 H     1 <1>   0.0800 
 28 H        2.4390     2.0820    -1.3100 H     1 <1>   0.1500 
 29 H        0.1400    -4.2900    -2.5110 H     1 <1>   0.0800 
 30 H       -1.5700    -4.0130    -2.4800 H     1 <1>   0.0800 
 31 H       -2.4450    -2.0480    -1.8610 H     1 <1>   0.0800 
 32 H       -1.5050    -0.7860    -1.1340 H     1 <1>   0.0800 
 33 H        3.1290     3.3640     0.9860 H     1 <1>   0.1500 
 34 H       -2.5600    -1.3030     0.7390 H     1 <1>   0.0800 
 35 H       -1.3750    -2.5430     0.8980 H     1 <1>   0.0800 
 36 H        1.4960     1.7290     3.7940 H     1 <1>   0.0800 
 37 H        2.7750     2.8850     3.4510 H     1 <1>   0.0800 
 38 H        3.1620     1.1880     3.7000 H     1 <1>   0.0800 
 39 H        1.3150    -5.4220    -0.7540 H     1 <1>   0.1500 
 40 H       -4.2280    -2.7900    -0.1260 H     1 <1>   0.0800 
 41 H       -3.5610    -3.5300     1.3100 H     1 <1>   0.0800 
 42 H        1.1700    -6.9650     1.1430 H     1 <1>   0.1500 
 43 H       -0.9430    -7.3230     2.2890 H     1 <1>   0.1500 
 44 H       -4.5070    -7.0400     2.9520 H     1 <1>   0.0800 
 45 H       -2.8540    -6.8110     3.5100 H     1 <1>   0.0800 
 46 H       -3.2220    -8.0420     2.2870 H     1 <1>   0.0800 
@<TRIPOS>BOND
  1   1   2  2   
  2   2   3  am  
  3   2   4  1   
  4   3   5  1   
  5   3  25  1   
  6   4   6  1   
  7   4  26  1   
  8   4  27  1   
  9   5   7  2   
 10   5   8  1   
 11   6   9  1   
 12   6  10  1   
 13   7  11  1   
 14   8  12  2   
 15   8  28  1   
 16   9  13  1   
 17   9  29  1   
 18   9  30  1   
 19  10  14  1   
 20  10  31  1   
 21  10  32  1   
 22  11  12  1   
 23  11  15  1   
 24  12  33  1   
 25  13  16  ar  
 26  13  17  ar  
 27  14  18  1   
 28  14  34  1   
 29  14  35  1   
 30  15  36  1   
 31  15  37  1   
 32  15  38  1   
 33  16  19  1   
 34  16  20  ar  
 35  17  21  ar  
 36  17  39  1   
 37  18  19  1   
 38  18  40  1   
 39  18  41  1   
 40  20  22  1   
 41  20  23  ar  
 42  21  23  ar  
 43  21  42  1   
 44  22  24  1   
 45  23  43  1   
 46  24  44  1   
 47  24  45  1   
 48  24  46  1   
@<TRIPOS>SUBSTRUCTURE
  1 ****   6 GROUP 4 **** **** 0

# MOE 2024.06 (io_trps.svl 2023.06)
