@<TRIPOS>MOLECULE
NONAME
48 49 1 0 0 
SMALL
USER_CHARGES


@<TRIPOS>ATOM
  1 S        0.1420     0.0530    -0.7440 S.o2  1 <1>   1.3330 
  2 O       -0.8350     0.0700    -1.8100 O.2   1 <1>  -0.6500 
  3 O        1.5490    -0.0180    -1.0650 O.2   1 <1>  -0.6500 
  4 N       -0.2230    -1.2400     0.2940 N.am  1 <1>  -0.8490 
  5 C       -0.1540     1.4920     0.2790 C.3   1 <1>  -0.0550 
  6 C        0.8780    -1.5890     1.1980 C.3   1 <1>   0.1160 
  7 C       -0.6610    -2.4310    -0.4400 C.3   1 <1>   0.1160 
  8 C        0.0140     2.8220    -0.4830 C.3   1 <1>  -0.0800 
  9 C       -0.3940     4.0620     0.3170 C.3   1 <1>   0.2000 
 10 C        1.4530     3.1150    -0.9360 C.3   1 <1>   0.1400 
 11 O        0.1340     3.9700     1.5970 O.3   1 <1>  -0.6800 
 12 C        0.3170     5.2030    -0.4050 C.3   1 <1>   0.1400 
 13 N        1.5890     4.5930    -0.8680 N.am  1 <1>  -0.6600 
 14 C        2.7720     5.2310    -1.1190 C.2   1 <1>   0.5690 
 15 O        3.7780     4.6170    -1.3760 O.2   1 <1>  -0.5700 
 16 C        2.8650     6.7430    -1.0620 C.3   1 <1>  -0.0990 
 17 C        3.3230     7.2140     0.3220 C.3   1 <1>  -0.0170 
 18 C        3.3690     8.7320     0.3750 C.ar  1 <1>  -0.1440 
 19 C        4.4770     9.4120    -0.1050 C.ar  1 <1>  -0.1500 
 20 C        2.3030     9.4500     0.9000 C.ar  1 <1>  -0.1500 
 21 C        4.5110    10.7970    -0.0600 C.ar  1 <1>   0.0820 
 22 C        2.3410    10.8340     0.9430 C.ar  1 <1>  -0.1500 
 23 O        5.5800    11.4610    -0.5240 O.3   1 <1>  -0.5330 
 24 C        3.4470    11.5100     0.4620 C.ar  1 <1>  -0.1500 
 25 H       -1.1560     1.4410     0.6580 H     1 <1>   0.0800 
 26 H        0.5100     1.4720     1.1200 H     1 <1>   0.0800 
 27 H        0.5630    -2.3540     1.8860 H     1 <1>   0.0800 
 28 H        1.1800    -0.7260     1.7670 H     1 <1>   0.0800 
 29 H        1.7260    -1.9480     0.6380 H     1 <1>   0.0800 
 30 H       -0.9010    -3.2250     0.2460 H     1 <1>   0.0800 
 31 H        0.1140    -2.7630    -1.1120 H     1 <1>   0.0800 
 32 H       -1.5440    -2.2060    -1.0150 H     1 <1>   0.0800 
 33 H       -0.6010     2.7870    -1.3660 H     1 <1>   0.0800 
 34 H       -1.4590     4.1990     0.3900 H     1 <1>   0.0800 
 35 H        1.6320     2.7630    -1.9390 H     1 <1>   0.0800 
 36 H        2.1730     2.6640    -0.2740 H     1 <1>   0.0800 
 37 H        1.1100     3.9990     1.5340 H     1 <1>   0.4000 
 38 H        0.4760     6.0440     0.2460 H     1 <1>   0.0800 
 39 H       -0.2570     5.5090    -1.2620 H     1 <1>   0.0800 
 40 H        3.5770     7.0640    -1.8000 H     1 <1>   0.0800 
 41 H        1.9200     7.1860    -1.3140 H     1 <1>   0.0800 
 42 H        4.3010     6.8150     0.5310 H     1 <1>   0.0800 
 43 H        2.6530     6.8430     1.0770 H     1 <1>   0.0800 
 44 H        5.3070     8.8660    -0.5130 H     1 <1>   0.1500 
 45 H        1.4360     8.9370     1.2780 H     1 <1>   0.1500 
 46 H        1.5110    11.3850     1.3510 H     1 <1>   0.1500 
 47 H        6.2750    10.8720    -0.8660 H     1 <1>   0.4500 
 48 H        3.4920    12.5840     0.4880 H     1 <1>   0.1500 
@<TRIPOS>BOND
  1   1   2  2   
  2   1   3  2   
  3   1   4  am  
  4   1   5  1   
  5   4   6  1   
  6   4   7  1   
  7   5   8  1   
  8   5  25  1   
  9   5  26  1   
 10   6  27  1   
 11   6  28  1   
 12   6  29  1   
 13   7  30  1   
 14   7  31  1   
 15   7  32  1   
 16   8   9  1   
 17   8  10  1   
 18   8  33  1   
 19   9  11  1   
 20   9  12  1   
 21   9  34  1   
 22  10  13  1   
 23  10  35  1   
 24  10  36  1   
 25  11  37  1   
 26  12  13  1   
 27  12  38  1   
 28  12  39  1   
 29  13  14  am  
 30  14  15  2   
 31  14  16  1   
 32  16  17  1   
 33  16  40  1   
 34  16  41  1   
 35  17  18  1   
 36  17  42  1   
 37  17  43  1   
 38  18  19  ar  
 39  18  20  ar  
 40  19  21  ar  
 41  19  44  1   
 42  20  22  ar  
 43  20  45  1   
 44  21  23  1   
 45  21  24  ar  
 46  22  24  ar  
 47  22  46  1   
 48  23  47  1   
 49  24  48  1   
@<TRIPOS>SUBSTRUCTURE
  1 ****  13 GROUP 4 **** **** 0

# MOE 2024.06 (io_trps.svl 2023.06)
