@<TRIPOS>MOLECULE
NONAME
51 54 1 0 0 
SMALL
USER_CHARGES


@<TRIPOS>ATOM
  1 S       -0.9550    -1.3420    -2.3810 S.3   1 <1>  -0.0800 
  2 C       -1.3360    -1.6750    -0.6990 C.2   1 <1>  -0.1400 
  3 C        0.7330    -1.0690    -1.9920 C.2   1 <1>  -0.1100 
  4 C       -0.2300    -1.5710     0.0630 C.2   1 <1>  -0.1500 
  5 C       -2.7810    -2.0220    -0.3730 C.3   1 <1>   0.0810 
  6 C        0.9480    -1.2270    -0.6730 C.2   1 <1>  -0.1500 
  7 C       -2.9110    -3.0600     0.7360 C.2   1 <1>   0.5690 
  8 O       -3.6950    -2.8360     1.6290 O.2   1 <1>  -0.5700 
  9 N       -2.2030    -4.2410     0.7300 N.am  1 <1>  -0.6600 
 10 C       -2.1740    -5.0580     1.9870 C.3   1 <1>   0.2200 
 11 C       -1.5260    -4.7780    -0.4800 C.3   1 <1>   0.1400 
 12 C       -0.8510    -5.8390     2.1970 C.3   1 <1>   0.1200 
 13 C       -3.4440    -5.9410     2.0390 C.3   1 <1>   0.3430 
 14 C       -1.7030    -6.2950    -0.6170 C.3   1 <1>  -0.0800 
 15 O       -0.8340    -7.0800     1.5380 O.3   1 <1>  -0.5600 
 16 N       -3.4280    -7.1040     1.0790 N.4   1 <1>  -0.9590 
 17 C       -0.6090    -7.0630     0.1590 C.3   1 <1>   0.1200 
 18 C       -3.1600    -6.7470    -0.3560 C.3   1 <1>   0.3430 
 19 C       -4.5920    -8.0090     1.2720 C.3   1 <1>   0.4860 
 20 C       -4.3900    -9.2660     0.4580 C.ar  1 <1>  -0.1430 
 21 C       -3.3850   -10.1610     0.7450 C.ar  1 <1>   0.1600 
 22 C       -5.1970    -9.5570    -0.6180 C.ar  1 <1>   0.1600 
 23 N       -3.1800   -11.2320     0.0160 N.ar  1 <1>  -0.6200 
 24 N       -5.0090   -10.6220    -1.3590 N.ar  1 <1>  -0.6200 
 25 C       -4.0090   -11.4090    -0.9990 C.ar  1 <1>   0.4770 
 26 C       -3.7960   -12.6420    -1.8440 C.3   1 <1>  -0.0970 
 27 H        1.3940    -0.8130    -2.8020 H     1 <1>   0.1500 
 28 H       -0.1850    -1.7190     1.1290 H     1 <1>   0.1500 
 29 H       -3.2910    -1.1230    -0.0790 H     1 <1>   0.0800 
 30 H       -3.2740    -2.3990    -1.2490 H     1 <1>   0.0800 
 31 H        1.8960    -1.1120    -0.1770 H     1 <1>   0.1500 
 32 H       -2.2390    -4.3670     2.8110 H     1 <1>   0.0800 
 33 H       -1.9400    -4.3120    -1.3580 H     1 <1>   0.0800 
 34 H       -0.4800    -4.5210    -0.4490 H     1 <1>   0.0800 
 35 H       -0.7420    -6.0550     3.2460 H     1 <1>   0.0800 
 36 H        0.0020    -5.2550     1.8940 H     1 <1>   0.0800 
 37 H       -4.2990    -5.3120     1.8460 H     1 <1>   0.0800 
 38 H       -3.5390    -6.3200     3.0430 H     1 <1>   0.0800 
 39 H       -1.5100    -6.4990    -1.6550 H     1 <1>   0.0800 
 40 H       -2.5670    -7.6170     1.3540 H     1 <1>   0.4500 
 41 H        0.3660    -6.6390    -0.0210 H     1 <1>   0.0800 
 42 H       -0.5840    -8.0900    -0.1680 H     1 <1>   0.0800 
 43 H       -3.3360    -7.6160    -0.9690 H     1 <1>   0.0800 
 44 H       -3.8420    -5.9770    -0.6780 H     1 <1>   0.0800 
 45 H       -4.6870    -8.2720     2.3140 H     1 <1>   0.0800 
 46 H       -5.4980    -7.5130     0.9640 H     1 <1>   0.0800 
 47 H       -2.7230   -10.0070     1.5820 H     1 <1>   0.1500 
 48 H       -6.0140    -8.9090    -0.8920 H     1 <1>   0.1500 
 49 H       -2.9630   -13.2140    -1.4790 H     1 <1>   0.0800 
 50 H       -3.6050   -12.3530    -2.8600 H     1 <1>   0.0800 
 51 H       -4.6790   -13.2530    -1.8130 H     1 <1>   0.0800 
@<TRIPOS>BOND
  1   1   2  1   
  2   1   3  1   
  3   2   4  2   
  4   2   5  1   
  5   3   6  2   
  6   3  27  1   
  7   4   6  1   
  8   4  28  1   
  9   5   7  1   
 10   5  29  1   
 11   5  30  1   
 12   6  31  1   
 13   7   8  2   
 14   7   9  am  
 15   9  10  1   
 16   9  11  1   
 17  10  12  1   
 18  10  13  1   
 19  10  32  1   
 20  11  14  1   
 21  11  33  1   
 22  11  34  1   
 23  12  15  1   
 24  12  35  1   
 25  12  36  1   
 26  13  16  1   
 27  13  37  1   
 28  13  38  1   
 29  14  17  1   
 30  14  18  1   
 31  14  39  1   
 32  15  17  1   
 33  16  18  1   
 34  16  19  1   
 35  16  40  1   
 36  17  41  1   
 37  17  42  1   
 38  18  43  1   
 39  18  44  1   
 40  19  20  1   
 41  19  45  1   
 42  19  46  1   
 43  20  21  ar  
 44  20  22  ar  
 45  21  23  ar  
 46  21  47  1   
 47  22  24  ar  
 48  22  48  1   
 49  23  25  ar  
 50  24  25  ar  
 51  25  26  1   
 52  26  49  1   
 53  26  50  1   
 54  26  51  1   
@<TRIPOS>SUBSTRUCTURE
  1 ****  14 GROUP 4 **** **** 0

# MOE 2024.06 (io_trps.svl 2023.06)
