@<TRIPOS>MOLECULE
NONAME
55 57 1 0 0 
SMALL
USER_CHARGES


@<TRIPOS>ATOM
  1 O       -0.6450    -1.4740    -1.4790 O.2   1 <1>  -0.5700 
  2 C        0.1780    -2.1350    -0.8930 C.2   1 <1>   0.5690 
  3 N       -0.1440    -3.1700    -0.0580 N.am  1 <1>  -0.6600 
  4 C        1.6490    -1.8110    -1.0720 C.3   1 <1>  -0.0990 
  5 C        0.9250    -3.9400     0.6260 C.3   1 <1>   0.1400 
  6 C       -1.5490    -3.5580     0.2360 C.3   1 <1>   0.0600 
  7 C        2.4680    -3.0970    -1.2910 C.3   1 <1>  -0.0800 
  8 C        2.0540    -4.2660    -0.3700 C.3   1 <1>  -0.0800 
  9 C        3.9750    -2.9040    -1.0810 C.3   1 <1>  -0.1600 
 10 C        3.3410    -4.7350     0.3210 C.3   1 <1>  -0.1600 
 11 C        4.4720    -4.2630    -0.5900 C.3   1 <1>   0.2200 
 12 N        5.7770    -4.2200     0.1250 N.am  1 <1>  -0.6600 
 13 C        6.7440    -3.3280    -0.2680 C.2   1 <1>   0.5440 
 14 C        6.2420    -5.5540     0.5980 C.3   1 <1>   0.0600 
 15 O        7.5490    -3.6860    -1.1080 O.2   1 <1>  -0.5700 
 16 C        6.8440    -1.9980     0.3130 C.ar  1 <1>   0.0860 
 17 C        7.6090    -1.0110    -0.3100 C.ar  1 <1>  -0.1500 
 18 C        6.2150    -1.6530     1.5090 C.ar  1 <1>  -0.1500 
 19 C        7.7700     0.2510     0.2370 C.ar  1 <1>  -0.1440 
 20 C        6.3500    -0.3910     2.0570 C.ar  1 <1>  -0.1500 
 21 C        7.1280     0.5620     1.4250 C.ar  1 <1>  -0.1500 
 22 C        8.6500     1.2710    -0.4600 C.3   1 <1>   0.4860 
 23 N       10.0080     1.2260     0.1560 N.4   1 <1>  -0.9590 
 24 C       10.8430     2.3840    -0.2790 C.3   1 <1>   0.2630 
 25 C       10.7030    -0.0730    -0.1220 C.3   1 <1>   0.2630 
 26 H        1.7720    -1.1480    -1.9090 H     1 <1>   0.0800 
 27 H        1.9760    -1.2990    -0.1870 H     1 <1>   0.0800 
 28 H        1.3050    -3.3440     1.4380 H     1 <1>   0.0800 
 29 H        0.5250    -4.8530     1.0330 H     1 <1>   0.0800 
 30 H       -1.7190    -4.5730    -0.0760 H     1 <1>   0.0800 
 31 H       -2.2360    -2.9170    -0.2900 H     1 <1>   0.0800 
 32 H       -1.7380    -3.4710     1.2920 H     1 <1>   0.0800 
 33 H        2.3060    -3.4200    -2.3070 H     1 <1>   0.0800 
 34 H        1.7050    -5.0670    -1.0010 H     1 <1>   0.0800 
 35 H        4.1350    -2.1630    -0.3190 H     1 <1>   0.0800 
 36 H        4.4650    -2.6060    -1.9920 H     1 <1>   0.0800 
 37 H        3.3490    -5.8030     0.4460 H     1 <1>   0.0800 
 38 H        3.4420    -4.2550     1.2790 H     1 <1>   0.0800 
 39 H        4.5520    -4.9290    -1.4340 H     1 <1>   0.0800 
 40 H        5.6600    -5.8690     1.4460 H     1 <1>   0.0800 
 41 H        7.2770    -5.5030     0.8920 H     1 <1>   0.0800 
 42 H        6.1480    -6.2780    -0.1930 H     1 <1>   0.0800 
 43 H        8.0870    -1.2630    -1.2420 H     1 <1>   0.1500 
 44 H        5.6140    -2.3890     2.0170 H     1 <1>   0.1500 
 45 H        5.8470    -0.1530     2.9810 H     1 <1>   0.1500 
 46 H        7.2200     1.5390     1.8720 H     1 <1>   0.1500 
 47 H        8.2200     2.2520    -0.3380 H     1 <1>   0.0800 
 48 H        8.7090     1.0520    -1.5130 H     1 <1>   0.0800 
 49 H        9.8570     1.2800     1.1750 H     1 <1>   0.4500 
 50 H       11.0060     2.3500    -1.3440 H     1 <1>   0.0800 
 51 H       11.8010     2.3610     0.2160 H     1 <1>   0.0800 
 52 H       10.3550     3.3140    -0.0330 H     1 <1>   0.0800 
 53 H       10.8300    -0.2140    -1.1830 H     1 <1>   0.0800 
 54 H       10.1270    -0.8990     0.2670 H     1 <1>   0.0800 
 55 H       11.6730    -0.0870     0.3470 H     1 <1>   0.0800 
@<TRIPOS>BOND
  1   1   2  2   
  2   2   3  am  
  3   2   4  1   
  4   3   5  1   
  5   3   6  1   
  6   4   7  1   
  7   4  26  1   
  8   4  27  1   
  9   5   8  1   
 10   5  28  1   
 11   5  29  1   
 12   6  30  1   
 13   6  31  1   
 14   6  32  1   
 15   7   8  1   
 16   7   9  1   
 17   7  33  1   
 18   8  10  1   
 19   8  34  1   
 20   9  11  1   
 21   9  35  1   
 22   9  36  1   
 23  10  11  1   
 24  10  37  1   
 25  10  38  1   
 26  11  12  1   
 27  11  39  1   
 28  12  13  am  
 29  12  14  1   
 30  13  15  2   
 31  13  16  1   
 32  14  40  1   
 33  14  41  1   
 34  14  42  1   
 35  16  17  ar  
 36  16  18  ar  
 37  17  19  ar  
 38  17  43  1   
 39  18  20  ar  
 40  18  44  1   
 41  19  21  ar  
 42  19  22  1   
 43  20  21  ar  
 44  20  45  1   
 45  21  46  1   
 46  22  23  1   
 47  22  47  1   
 48  22  48  1   
 49  23  24  1   
 50  23  25  1   
 51  23  49  1   
 52  24  50  1   
 53  24  51  1   
 54  24  52  1   
 55  25  53  1   
 56  25  54  1   
 57  25  55  1   
@<TRIPOS>SUBSTRUCTURE
  1 ****   9 GROUP 4 **** **** 0

# MOE 2024.06 (io_trps.svl 2023.06)
