@<TRIPOS>MOLECULE
NONAME
56 60 1 0 0 
SMALL
USER_CHARGES


@<TRIPOS>ATOM
  1 O       -6.8350     1.2470     1.4610 O.co2 1 <1>  -0.9000 
  2 C       -6.4850     0.0870     1.7090 C.2   1 <1>   0.9790 
  3 O       -6.8840    -0.4250     2.7760 O.co2 1 <1>  -0.9000 
  4 C       -5.9460    -0.7790     0.6780 C.ar  1 <1>  -0.1790 
  5 C       -5.6980    -2.1100     0.9850 C.ar  1 <1>  -0.1500 
  6 C       -5.8000    -0.3940    -0.6530 C.ar  1 <1>  -0.1500 
  7 C       -5.5590    -3.0720     0.0050 C.ar  1 <1>  -0.1440 
  8 C       -5.5330    -1.3290    -1.6380 C.ar  1 <1>  -0.1500 
  9 C       -5.4400    -2.6730    -1.3180 C.ar  1 <1>  -0.1500 
 10 C       -5.6180    -4.5280     0.4310 C.3   1 <1>   0.4870 
 11 N       -7.0540    -4.9730     0.6080 N.4   1 <1>  -0.9590 
 12 C       -7.8020    -4.9990    -0.6980 C.3   1 <1>   0.3430 
 13 C       -7.8660    -4.1310     1.5650 C.3   1 <1>   0.3430 
 14 C       -9.1530    -4.3170    -0.4600 C.3   1 <1>   0.2800 
 15 C       -9.3000    -4.0550     1.0350 C.3   1 <1>  -0.0800 
 16 O       -9.1720    -3.0340    -0.9650 O.3   1 <1>  -0.5600 
 17 C      -10.4420    -4.8840    -1.0500 C.3   1 <1>  -0.1600 
 18 C      -10.0660    -2.6960     1.0360 C.3   1 <1>  -0.0800 
 19 C      -10.3640    -2.5740    -0.4640 C.3   1 <1>   0.2000 
 20 C      -11.3430    -3.6470    -0.9660 C.3   1 <1>  -0.1600 
 21 C       -9.2470    -1.4750     1.5150 C.3   1 <1>   0.3430 
 22 N      -10.0610    -0.2220     1.5820 N.4   1 <1>  -0.9590 
 23 C       -9.7860     0.7070     0.4350 C.3   1 <1>   0.3430 
 24 C       -9.6830     0.5740     2.8010 C.3   1 <1>   0.3430 
 25 C      -10.6910     1.9530     0.5330 C.3   1 <1>   0.1200 
 26 C      -10.5830     1.8200     2.9240 C.3   1 <1>   0.1200 
 27 O      -10.5500     2.6110     1.7640 O.3   1 <1>  -0.5600 
 28 H       -5.6930    -2.3900     2.0270 H     1 <1>   0.1500 
 29 H       -5.9220     0.6470    -0.9090 H     1 <1>   0.1500 
 30 H       -5.4200    -1.0060    -2.6590 H     1 <1>   0.1500 
 31 H       -5.2830    -3.3880    -2.1060 H     1 <1>   0.1500 
 32 H       -5.0840    -4.6390     1.3610 H     1 <1>   0.0800 
 33 H       -5.1290    -5.1380    -0.3100 H     1 <1>   0.0800 
 34 H       -7.0340    -5.9320     0.9740 H     1 <1>   0.4500 
 35 H       -7.2730    -4.4640    -1.4690 H     1 <1>   0.0800 
 36 H       -7.9570    -6.0170    -1.0130 H     1 <1>   0.0800 
 37 H       -7.8400    -4.5410     2.5620 H     1 <1>   0.0800 
 38 H       -7.4920    -3.1320     1.6110 H     1 <1>   0.0800 
 39 H       -9.8830    -4.8320     1.4990 H     1 <1>   0.0800 
 40 H      -10.2890    -5.1760    -2.0750 H     1 <1>   0.0800 
 41 H      -10.8260    -5.7190    -0.4910 H     1 <1>   0.0800 
 42 H      -10.9710    -2.7720     1.6120 H     1 <1>   0.0800 
 43 H      -10.5840    -1.5880    -0.8280 H     1 <1>   0.0800 
 44 H      -12.1720    -3.7810    -0.2930 H     1 <1>   0.0800 
 45 H      -11.7190    -3.3820    -1.9400 H     1 <1>   0.0800 
 46 H       -8.4070    -1.3230     0.8560 H     1 <1>   0.0800 
 47 H       -8.8490    -1.6810     2.4960 H     1 <1>   0.0800 
 48 H      -11.0610    -0.4270     1.6360 H     1 <1>   0.4500 
 49 H       -8.7580     1.0270     0.4540 H     1 <1>   0.0800 
 50 H       -9.9570     0.2150    -0.5060 H     1 <1>   0.0800 
 51 H       -9.7700    -0.0290     3.6890 H     1 <1>   0.0800 
 52 H       -8.6600     0.9060     2.7330 H     1 <1>   0.0800 
 53 H      -11.7250     1.6840     0.4100 H     1 <1>   0.0800 
 54 H      -10.4260     2.6550    -0.2370 H     1 <1>   0.0800 
 55 H      -10.2400     2.4330     3.7390 H     1 <1>   0.0800 
 56 H      -11.6020     1.5370     3.1130 H     1 <1>   0.0800 
@<TRIPOS>BOND
  1   1   2  ar  
  2   2   3  ar  
  3   2   4  1   
  4   4   5  ar  
  5   4   6  ar  
  6   5   7  ar  
  7   5  28  1   
  8   6   8  ar  
  9   6  29  1   
 10   7   9  ar  
 11   7  10  1   
 12   8   9  ar  
 13   8  30  1   
 14   9  31  1   
 15  10  11  1   
 16  10  32  1   
 17  10  33  1   
 18  11  12  1   
 19  11  13  1   
 20  11  34  1   
 21  12  14  1   
 22  12  35  1   
 23  12  36  1   
 24  13  15  1   
 25  13  37  1   
 26  13  38  1   
 27  14  15  1   
 28  14  16  1   
 29  14  17  1   
 30  15  18  1   
 31  15  39  1   
 32  16  19  1   
 33  17  20  1   
 34  17  40  1   
 35  17  41  1   
 36  18  19  1   
 37  18  21  1   
 38  18  42  1   
 39  19  20  1   
 40  19  43  1   
 41  20  44  1   
 42  20  45  1   
 43  21  22  1   
 44  21  46  1   
 45  21  47  1   
 46  22  23  1   
 47  22  24  1   
 48  22  48  1   
 49  23  25  1   
 50  23  49  1   
 51  23  50  1   
 52  24  26  1   
 53  24  51  1   
 54  24  52  1   
 55  25  27  1   
 56  25  53  1   
 57  25  54  1   
 58  26  27  1   
 59  26  55  1   
 60  26  56  1   
@<TRIPOS>SUBSTRUCTURE
  1 ****  21 GROUP 4 **** **** 0

# MOE 2024.06 (io_trps.svl 2023.06)
