@<TRIPOS>MOLECULE
NONAME
51 54 1 0 0 
SMALL
USER_CHARGES


@<TRIPOS>ATOM
  1 S        0.4930     0.6310    -0.7050 S.3   1 <1>  -0.0800 
  2 C       -0.4900     1.1680     0.6660 C.2   1 <1>  -0.0450 
  3 C        0.0720    -1.0470    -0.4470 C.2   1 <1>  -0.1100 
  4 C       -0.5460     2.5660     1.0220 C.2   1 <1>   0.7150 
  5 C       -1.0550     0.0750     1.2400 C.2   1 <1>  -0.1500 
  6 C       -0.7470    -1.1680     0.6130 C.2   1 <1>  -0.1500 
  7 O       -0.6320     2.8650     2.2000 O.2   1 <1>  -0.5700 
  8 N       -0.5350     3.5810     0.0890 N.am  1 <1>  -0.6600 
  9 C       -0.1030     4.9690     0.4540 C.3   1 <1>   0.1400 
 10 C       -1.1410     3.4610    -1.2630 C.3   1 <1>   0.1400 
 11 C        0.8550     5.5500    -0.6040 C.3   1 <1>   0.2890 
 12 C       -0.1470     3.9650    -2.3140 C.3   1 <1>  -0.1600 
 13 N        1.0870     6.9900    -0.3570 N.pl3 1 <1>  -0.8690 
 14 C        0.2870     5.4110    -2.0220 C.3   1 <1>  -0.1600 
 15 C        1.8730     7.4920     0.6530 C.ar  1 <1>   0.4100 
 16 N        2.6940     6.6250     1.2420 N.ar  1 <1>  -0.6200 
 17 C        1.7790     8.8500     1.0120 C.ar  1 <1>   0.0860 
 18 C        3.4300     7.0880     2.2310 C.ar  1 <1>   0.1600 
 19 C        0.8920     9.7420     0.3050 C.2   1 <1>   0.5440 
 20 C        2.5670     9.2970     2.0650 C.ar  1 <1>  -0.1500 
 21 C        3.4050     8.3960     2.6800 C.ar  1 <1>  -0.1500 
 22 O       -0.2820     9.4490     0.1480 O.2   1 <1>  -0.5700 
 23 N        1.3410    10.9360    -0.2140 N.am  1 <1>  -0.6600 
 24 C        2.7600    11.2410    -0.5060 C.3   1 <1>   0.1400 
 25 C        0.4440    11.8710    -0.9300 C.3   1 <1>   0.1400 
 26 C        2.7150    12.2300    -1.6640 C.3   1 <1>  -0.1600 
 27 C        1.3680    12.9320    -1.5170 C.3   1 <1>  -0.1600 
 28 H        0.4880    -1.7750    -1.1210 H     1 <1>   0.1500 
 29 H       -1.6880     0.1150     2.1100 H     1 <1>   0.1500 
 30 H       -1.1500    -2.0940     0.9870 H     1 <1>   0.1500 
 31 H        0.3990     4.9610     1.4060 H     1 <1>   0.0800 
 32 H       -0.9750     5.5930     0.5330 H     1 <1>   0.0800 
 33 H       -2.0350     4.0620    -1.2950 H     1 <1>   0.0800 
 34 H       -1.4240     2.4450    -1.4720 H     1 <1>   0.0800 
 35 H        1.7920     5.0220    -0.5450 H     1 <1>   0.0800 
 36 H       -0.6030     3.9160    -3.2870 H     1 <1>   0.0800 
 37 H        0.7140     3.3200    -2.3220 H     1 <1>   0.0800 
 38 H        0.2850     7.5900    -0.5970 H     1 <1>   0.4000 
 39 H        1.0360     5.7130    -2.7330 H     1 <1>   0.0800 
 40 H       -0.5660     6.0580    -2.1280 H     1 <1>   0.0800 
 41 H        4.0900     6.3870     2.7150 H     1 <1>   0.1500 
 42 H        2.5140    10.3230     2.3870 H     1 <1>   0.1500 
 43 H        4.0330     8.6970     3.5000 H     1 <1>   0.1500 
 44 H        3.3070    10.3510    -0.7700 H     1 <1>   0.0800 
 45 H        3.2060    11.7020     0.3590 H     1 <1>   0.0800 
 46 H       -0.2780    12.2970    -0.2550 H     1 <1>   0.0800 
 47 H       -0.0670    11.3380    -1.7140 H     1 <1>   0.0800 
 48 H        2.7410    11.6820    -2.5910 H     1 <1>   0.0800 
 49 H        3.5420    12.9170    -1.6390 H     1 <1>   0.0800 
 50 H        1.4530    13.7460    -0.8190 H     1 <1>   0.0800 
 51 H        0.9970    13.3100    -2.4530 H     1 <1>   0.0800 
@<TRIPOS>BOND
  1   1   2  1   
  2   1   3  1   
  3   2   4  1   
  4   2   5  2   
  5   3   6  2   
  6   3  28  1   
  7   4   7  2   
  8   4   8  am  
  9   5   6  1   
 10   5  29  1   
 11   6  30  1   
 12   8   9  1   
 13   8  10  1   
 14   9  11  1   
 15   9  31  1   
 16   9  32  1   
 17  10  12  1   
 18  10  33  1   
 19  10  34  1   
 20  11  13  1   
 21  11  14  1   
 22  11  35  1   
 23  12  14  1   
 24  12  36  1   
 25  12  37  1   
 26  13  15  1   
 27  13  38  1   
 28  14  39  1   
 29  14  40  1   
 30  15  16  ar  
 31  15  17  ar  
 32  16  18  ar  
 33  17  19  1   
 34  17  20  ar  
 35  18  21  ar  
 36  18  41  1   
 37  19  22  2   
 38  19  23  am  
 39  20  21  ar  
 40  20  42  1   
 41  21  43  1   
 42  23  24  1   
 43  23  25  1   
 44  24  26  1   
 45  24  44  1   
 46  24  45  1   
 47  25  27  1   
 48  25  46  1   
 49  25  47  1   
 50  26  27  1   
 51  26  48  1   
 52  26  49  1   
 53  27  50  1   
 54  27  51  1   
@<TRIPOS>SUBSTRUCTURE
  1 ****  11 GROUP 4 **** **** 0

# MOE 2024.06 (io_trps.svl 2023.06)
