@<TRIPOS>MOLECULE
NONAME
58 61 1 0 0 
SMALL
USER_CHARGES


@<TRIPOS>ATOM
  1 O        0.7060     0.1550    -0.6830 O.2   1 <1>  -0.5700 
  2 C        1.6690    -0.4140    -0.1990 C.2   1 <1>   0.7150 
  3 N        2.7200     0.3680     0.2590 N.am  1 <1>  -0.6600 
  4 C        1.6570    -1.8620    -0.1190 C.2   1 <1>   0.0550 
  5 C        3.7580    -0.1570     1.2020 C.3   1 <1>   0.1400 
  6 C        2.7200     1.8430     0.0070 C.3   1 <1>   0.1400 
  7 O        2.7760    -2.5710    -0.2270 O.3   1 <1>  -0.2800 
  8 C        0.6260    -2.7210     0.0420 C.2   1 <1>   0.0460 
  9 C        5.0610    -0.5140     0.4700 C.3   1 <1>   0.1400 
 10 C        4.1140     2.4660    -0.1630 C.3   1 <1>  -0.1600 
 11 C        2.3340    -3.8060    -0.1200 C.2   1 <1>   0.2980 
 12 N        1.0760    -3.9700     0.0440 N.2   1 <1>  -0.5650 
 13 C       -0.8590    -2.4650     0.2080 C.3   1 <1>  -0.0590 
 14 N        5.8210     0.7050     0.0600 N.am  1 <1>  -0.6600 
 15 C        5.1140     1.5830    -0.9140 C.3   1 <1>   0.1400 
 16 C        3.3440    -4.9250    -0.2000 C.3   1 <1>  -0.0600 
 17 C        7.0550     0.9790     0.6000 C.2   1 <1>   0.5690 
 18 O        7.5960     0.2090     1.3590 O.2   1 <1>  -0.5700 
 19 C        7.7800     2.2700     0.2500 C.3   1 <1>  -0.0990 
 20 C        8.8930     2.6380     1.2400 C.3   1 <1>   0.0210 
 21 C        9.5550     3.9360     0.8230 C.2   1 <1>   0.1080 
 22 N        8.9480     5.0840     0.8910 N.2   1 <1>  -0.7070 
 23 C       10.8490     4.0610     0.3230 C.2   1 <1>  -0.1810 
 24 N        9.8530     5.9770     0.4410 N.pl3 1 <1>   0.3000 
 25 C       11.0080     5.3770     0.0950 C.2   1 <1>  -0.3320 
 26 C       11.9230     3.0230     0.0600 C.3   1 <1>   0.0210 
 27 C       12.2600     6.0290    -0.4580 C.3   1 <1>   0.0200 
 28 C       13.0240     3.6170    -0.8400 C.3   1 <1>  -0.1600 
 29 C       13.4350     5.0350    -0.3910 C.3   1 <1>  -0.1600 
 30 H        3.3850    -1.0370     1.6940 H     1 <1>   0.0800 
 31 H        3.9640     0.5680     1.9690 H     1 <1>   0.0800 
 32 H        2.2020     2.3350     0.8130 H     1 <1>   0.0800 
 33 H        2.1650     2.0390    -0.8950 H     1 <1>   0.0800 
 34 H        4.8460    -1.1090    -0.3990 H     1 <1>   0.0800 
 35 H        5.6610    -1.1170     1.1290 H     1 <1>   0.0800 
 36 H        4.5130     2.7400     0.7980 H     1 <1>   0.0800 
 37 H        3.9880     3.3810    -0.7140 H     1 <1>   0.0800 
 38 H       -1.0710    -1.4140     0.2610 H     1 <1>   0.0800 
 39 H       -1.2060    -2.9330     1.1110 H     1 <1>   0.0800 
 40 H       -1.3900    -2.8850    -0.6260 H     1 <1>   0.0800 
 41 H        5.8230     2.2000    -1.4360 H     1 <1>   0.0800 
 42 H        4.6090     0.9820    -1.6520 H     1 <1>   0.0800 
 43 H        4.0630    -4.8210     0.5910 H     1 <1>   0.0800 
 44 H        3.8490    -4.8880    -1.1470 H     1 <1>   0.0800 
 45 H        2.8480    -5.8730    -0.1030 H     1 <1>   0.0800 
 46 H        7.0770     3.0810     0.2380 H     1 <1>   0.0800 
 47 H        8.2030     2.1710    -0.7320 H     1 <1>   0.0800 
 48 H        9.6250     1.8530     1.2840 H     1 <1>   0.0800 
 49 H        8.4770     2.7620     2.2240 H     1 <1>   0.0800 
 50 H        9.6510     6.9820     0.3870 H     1 <1>   0.2700 
 51 H       11.4930     2.1580    -0.4130 H     1 <1>   0.0800 
 52 H       12.3460     2.7220     1.0020 H     1 <1>   0.0800 
 53 H       12.5030     6.9130     0.1060 H     1 <1>   0.0800 
 54 H       12.0830     6.3120    -1.4810 H     1 <1>   0.0800 
 55 H       12.6560     3.6660    -1.8500 H     1 <1>   0.0800 
 56 H       13.8810     2.9660    -0.8310 H     1 <1>   0.0800 
 57 H       13.7890     4.9860     0.6240 H     1 <1>   0.0800 
 58 H       14.2420     5.3940    -1.0050 H     1 <1>   0.0800 
@<TRIPOS>BOND
  1   1   2  2   
  2   2   3  am  
  3   2   4  1   
  4   3   5  1   
  5   3   6  1   
  6   4   7  1   
  7   4   8  2   
  8   5   9  1   
  9   5  30  1   
 10   5  31  1   
 11   6  10  1   
 12   6  32  1   
 13   6  33  1   
 14   7  11  1   
 15   8  12  1   
 16   8  13  1   
 17   9  14  1   
 18   9  34  1   
 19   9  35  1   
 20  10  15  1   
 21  10  36  1   
 22  10  37  1   
 23  11  12  2   
 24  11  16  1   
 25  13  38  1   
 26  13  39  1   
 27  13  40  1   
 28  14  15  1   
 29  14  17  am  
 30  15  41  1   
 31  15  42  1   
 32  16  43  1   
 33  16  44  1   
 34  16  45  1   
 35  17  18  2   
 36  17  19  1   
 37  19  20  1   
 38  19  46  1   
 39  19  47  1   
 40  20  21  1   
 41  20  48  1   
 42  20  49  1   
 43  21  22  2   
 44  21  23  1   
 45  22  24  1   
 46  23  25  2   
 47  23  26  1   
 48  24  25  1   
 49  24  50  1   
 50  25  27  1   
 51  26  28  1   
 52  26  51  1   
 53  26  52  1   
 54  27  29  1   
 55  27  53  1   
 56  27  54  1   
 57  28  29  1   
 58  28  55  1   
 59  28  56  1   
 60  29  57  1   
 61  29  58  1   
@<TRIPOS>SUBSTRUCTURE
  1 ****  14 GROUP 4 **** **** 0

# MOE 2024.06 (io_trps.svl 2023.06)
