@<TRIPOS>MOLECULE
NONAME
50 52 1 0 0 
SMALL
USER_CHARGES


@<TRIPOS>ATOM
  1 O       -0.5630    -0.3730    -1.2010 O.3   1 <1>  -0.5600 
  2 C        0.1660    -1.2500    -0.4040 C.3   1 <1>   0.2800 
  3 C       -1.8100     0.0600    -0.7290 C.3   1 <1>   0.1200 
  4 C       -0.6860    -2.5210    -0.1520 C.3   1 <1>  -0.1600 
  5 C        0.6470    -0.4980     0.8530 C.3   1 <1>  -0.1600 
  6 C        1.4060    -1.6060    -1.2330 C.3   1 <1>  -0.1600 
  7 C       -2.7430    -1.1380    -0.5490 C.3   1 <1>  -0.1600 
  8 C       -2.1170    -2.2360     0.3180 C.3   1 <1>   0.2800 
  9 C        1.6260    -1.3390     1.6590 C.3   1 <1>   0.3430 
 10 C        2.4110    -2.4240    -0.4270 C.3   1 <1>   0.3430 
 11 O       -2.0560    -1.7860     1.6190 O.3   1 <1>  -0.6800 
 12 C       -2.9980    -3.5070     0.3350 C.3   1 <1>   0.1200 
 13 N        2.8020    -1.6810     0.8100 N.4   1 <1>  -0.9590 
 14 O       -4.1790    -3.2760     1.0490 O.3   1 <1>  -0.6800 
 15 C        3.8260    -2.4320     1.5900 C.3   1 <1>   0.4860 
 16 C        5.1120    -2.4940     0.7970 C.ar  1 <1>  -0.1440 
 17 C        5.4180    -3.6480     0.0830 C.ar  1 <1>   0.3930 
 18 C        5.9920    -1.4300     0.7700 C.ar  1 <1>  -0.1500 
 19 O        4.5280    -4.6650     0.1340 O.3   1 <1>  -0.3620 
 20 N        6.5110    -3.8020    -0.6510 N.ar  1 <1>  -0.6200 
 21 C        7.1350    -1.5870     0.0140 C.ar  1 <1>  -0.1500 
 22 C        4.8080    -5.9040    -0.4950 C.3   1 <1>   0.0400 
 23 C        7.3430    -2.7740    -0.6660 C.ar  1 <1>   0.1600 
 24 H       -2.2170     0.7380    -1.4590 H     1 <1>   0.0800 
 25 H       -1.6820     0.5970     0.1940 H     1 <1>   0.0800 
 26 H       -0.2090    -3.1820     0.5470 H     1 <1>   0.0800 
 27 H       -0.7610    -3.0540    -1.0830 H     1 <1>   0.0800 
 28 H       -0.1680    -0.2400     1.4990 H     1 <1>   0.0800 
 29 H        1.1250     0.4210     0.5640 H     1 <1>   0.0800 
 30 H        1.8840    -0.7050    -1.5760 H     1 <1>   0.0800 
 31 H        1.1160    -2.1650    -2.1040 H     1 <1>   0.0800 
 32 H       -2.9610    -1.5340    -1.5250 H     1 <1>   0.0800 
 33 H       -3.6760    -0.8150    -0.1220 H     1 <1>   0.0800 
 34 H        1.1340    -2.2370     1.9960 H     1 <1>   0.0800 
 35 H        1.9430    -0.7810     2.5260 H     1 <1>   0.0800 
 36 H        3.2820    -2.6130    -1.0360 H     1 <1>   0.0800 
 37 H        1.9780    -3.3740    -0.1620 H     1 <1>   0.0800 
 38 H       -2.9600    -1.9240     1.9850 H     1 <1>   0.4000 
 39 H       -2.4730    -4.3170     0.8100 H     1 <1>   0.0800 
 40 H       -3.2570    -3.7990    -0.6680 H     1 <1>   0.0800 
 41 H        3.2420    -0.8050     0.5030 H     1 <1>   0.4500 
 42 H       -4.7590    -4.0650     1.0300 H     1 <1>   0.4000 
 43 H        3.4740    -3.4280     1.8060 H     1 <1>   0.0800 
 44 H        4.0160    -1.9320     2.5260 H     1 <1>   0.0800 
 45 H        5.8170    -0.5140     1.3100 H     1 <1>   0.1500 
 46 H        7.8650    -0.7990    -0.0490 H     1 <1>   0.1500 
 47 H        3.9890    -6.5770    -0.3110 H     1 <1>   0.0800 
 48 H        5.7160    -6.3080    -0.0820 H     1 <1>   0.0800 
 49 H        4.9230    -5.7430    -1.5530 H     1 <1>   0.0800 
 50 H        8.2410    -2.8840    -1.2520 H     1 <1>   0.1500 
@<TRIPOS>BOND
  1   1   2  1   
  2   1   3  1   
  3   2   4  1   
  4   2   5  1   
  5   2   6  1   
  6   3   7  1   
  7   3  24  1   
  8   3  25  1   
  9   4   8  1   
 10   4  26  1   
 11   4  27  1   
 12   5   9  1   
 13   5  28  1   
 14   5  29  1   
 15   6  10  1   
 16   6  30  1   
 17   6  31  1   
 18   7   8  1   
 19   7  32  1   
 20   7  33  1   
 21   8  11  1   
 22   8  12  1   
 23   9  13  1   
 24   9  34  1   
 25   9  35  1   
 26  10  13  1   
 27  10  36  1   
 28  10  37  1   
 29  11  38  1   
 30  12  14  1   
 31  12  39  1   
 32  12  40  1   
 33  13  15  1   
 34  13  41  1   
 35  14  42  1   
 36  15  16  1   
 37  15  43  1   
 38  15  44  1   
 39  16  17  ar  
 40  16  18  ar  
 41  17  19  1   
 42  17  20  ar  
 43  18  21  ar  
 44  18  45  1   
 45  19  22  1   
 46  20  23  ar  
 47  21  23  ar  
 48  21  46  1   
 49  22  47  1   
 50  22  48  1   
 51  22  49  1   
 52  23  50  1   
@<TRIPOS>SUBSTRUCTURE
  1 ****  10 GROUP 4 **** **** 0

# MOE 2024.06 (io_trps.svl 2023.06)
