@<TRIPOS>MOLECULE
NONAME
43 45 1 0 0 
SMALL
USER_CHARGES


@<TRIPOS>ATOM
  1 S        0.2210     0.3550     0.6580 S.3   1 <1>  -0.4600 
  2 C       -1.4120     0.2610     1.4380 C.3   1 <1>   0.0700 
  3 C        0.5630     2.1100     0.2640 C.3   1 <1>   0.0700 
  4 C       -2.4450     0.0610     0.3160 C.3   1 <1>   0.4230 
  5 C       -0.6900     2.9880     0.1340 C.3   1 <1>   0.0700 
  6 N       -3.5020    -0.9040     0.7450 N.4   1 <1>  -0.9060 
  7 C       -3.0600     1.3960    -0.1350 C.3   1 <1>   0.0700 
  8 S       -1.8340     2.3070    -1.1060 S.3   1 <1>  -0.4600 
  9 C       -4.2700    -1.5080    -0.3800 C.3   1 <1>   0.4230 
 10 C       -5.4210    -2.3240     0.2060 C.3   1 <1>  -0.0800 
 11 C       -3.4210    -2.6200    -0.9880 C.3   1 <1>   0.1200 
 12 C       -4.7670    -3.6900     0.4890 C.3   1 <1>   0.1200 
 13 C       -6.5990    -2.4410    -0.7840 C.3   1 <1>  -0.0170 
 14 O       -3.4630    -3.5970    -0.0030 O.3   1 <1>  -0.5600 
 15 C       -7.7320    -3.2610    -0.1890 C.ar  1 <1>  -0.1430 
 16 C       -8.5950    -2.7370     0.7540 C.ar  1 <1>  -0.1500 
 17 C       -7.9630    -4.5710    -0.5620 C.ar  1 <1>  -0.1500 
 18 C       -9.6080    -3.5280     1.2720 C.ar  1 <1>   0.1600 
 19 C       -9.0050    -5.2760     0.0180 C.ar  1 <1>   0.1600 
 20 N       -9.8280    -4.7860     0.9290 N.ar  1 <1>  -0.6200 
 21 H       -1.3640    -0.5950     2.0860 H     1 <1>   0.0800 
 22 H       -1.5670     1.1510     2.0190 H     1 <1>   0.0800 
 23 H        1.1990     2.4820     1.0480 H     1 <1>   0.0800 
 24 H        1.1160     2.1110    -0.6590 H     1 <1>   0.0800 
 25 H       -1.9230    -0.3650    -0.5260 H     1 <1>   0.0800 
 26 H       -0.4120     3.9660    -0.2170 H     1 <1>   0.0800 
 27 H       -1.2140     3.0930     1.0660 H     1 <1>   0.0800 
 28 H       -3.0420    -1.7190     1.1850 H     1 <1>   0.4500 
 29 H       -4.1280    -0.4900     1.4420 H     1 <1>   0.4500 
 30 H       -3.3500     2.0210     0.6910 H     1 <1>   0.0800 
 31 H       -3.8940     1.2470    -0.7970 H     1 <1>   0.0800 
 32 H       -4.5920    -0.7720    -1.0980 H     1 <1>   0.0800 
 33 H       -5.7940    -1.8910     1.1170 H     1 <1>   0.0800 
 34 H       -2.4000    -2.3400    -1.1810 H     1 <1>   0.0800 
 35 H       -3.8640    -3.0200    -1.8850 H     1 <1>   0.0800 
 36 H       -5.2600    -4.5010    -0.0210 H     1 <1>   0.0800 
 37 H       -4.7210    -3.9110     1.5430 H     1 <1>   0.0800 
 38 H       -6.2780    -2.8960    -1.7060 H     1 <1>   0.0800 
 39 H       -6.9770    -1.4620    -1.0230 H     1 <1>   0.0800 
 40 H       -8.5000    -1.7230     1.0940 H     1 <1>   0.1500 
 41 H       -7.3510    -5.0580    -1.2990 H     1 <1>   0.1500 
 42 H      -10.2730    -3.1060     2.0060 H     1 <1>   0.1500 
 43 H       -9.1700    -6.2970    -0.2840 H     1 <1>   0.1500 
@<TRIPOS>BOND
  1   1   2  1   
  2   1   3  1   
  3   2   4  1   
  4   2  21  1   
  5   2  22  1   
  6   3   5  1   
  7   3  23  1   
  8   3  24  1   
  9   4   6  1   
 10   4   7  1   
 11   4  25  1   
 12   5   8  1   
 13   5  26  1   
 14   5  27  1   
 15   6   9  1   
 16   6  28  1   
 17   6  29  1   
 18   7   8  1   
 19   7  30  1   
 20   7  31  1   
 21   9  10  1   
 22   9  11  1   
 23   9  32  1   
 24  10  12  1   
 25  10  13  1   
 26  10  33  1   
 27  11  14  1   
 28  11  34  1   
 29  11  35  1   
 30  12  14  1   
 31  12  36  1   
 32  12  37  1   
 33  13  15  1   
 34  13  38  1   
 35  13  39  1   
 36  15  16  ar  
 37  15  17  ar  
 38  16  18  ar  
 39  16  40  1   
 40  17  19  ar  
 41  17  41  1   
 42  18  20  ar  
 43  18  42  1   
 44  19  20  ar  
 45  19  43  1   
@<TRIPOS>SUBSTRUCTURE
  1 ****   9 GROUP 4 **** **** 0

# MOE 2024.06 (io_trps.svl 2023.06)
