@<TRIPOS>MOLECULE
NONAME
54 56 1 0 0 
SMALL
USER_CHARGES


@<TRIPOS>ATOM
  1 O        2.4000     1.1530     1.0170 O.2   1 <1>  -0.5700 
  2 C        2.9670     0.1900     0.5430 C.2   1 <1>   0.5440 
  3 N        3.4450     0.2980    -0.7480 N.am  1 <1>  -0.6600 
  4 C        3.1750    -0.9930     1.3520 C.ar  1 <1>   0.0860 
  5 C        4.7200    -0.3490    -1.1920 C.3   1 <1>   0.1400 
  6 C        2.9200     1.3450    -1.6690 C.3   1 <1>   0.1400 
  7 C        3.5730    -0.8720     2.6800 C.ar  1 <1>   0.1600 
  8 C        2.9930    -2.2790     0.8620 C.ar  1 <1>  -0.1500 
  9 C        5.9570     0.4170    -0.6820 C.3   1 <1>   0.3430 
 10 C        3.6240     2.6940    -1.4580 C.3   1 <1>  -0.1600 
 11 N        3.8350    -1.8730     3.5060 N.ar  1 <1>  -0.6200 
 12 C        3.2480    -3.3430     1.7010 C.ar  1 <1>  -0.1430 
 13 N        5.6630     1.8530    -0.3600 N.4   1 <1>  -0.9590 
 14 C        5.1530     2.6520    -1.4970 C.3   1 <1>   0.3430 
 15 C        3.6650    -3.0830     2.9990 C.ar  1 <1>   0.1600 
 16 C        3.0660    -4.7740     1.2210 C.3   1 <1>  -0.0970 
 17 C        6.8000     2.4790     0.3680 C.3   1 <1>   0.5230 
 18 C        6.9960     1.7290     1.6780 C.2   1 <1>   0.0060 
 19 N        6.0010     1.3110     2.3980 N.2   1 <1>  -0.5650 
 20 N        8.2120     1.3980     2.1810 N.pl3 1 <1>   0.0480 
 21 C        6.5920     0.6740     3.4260 C.2   1 <1>   0.0770 
 22 C        7.9360     0.7180     3.3080 C.2   1 <1>  -0.3020 
 23 C        9.5660     1.6720     1.6510 C.3   1 <1>   0.0960 
 24 C        9.9720     0.6490     0.5840 C.3   1 <1>   0.1200 
 25 O        9.1020     0.7160    -0.5090 O.3   1 <1>  -0.5600 
 26 C        9.5130    -0.0860    -1.5750 C.3   1 <1>   0.0400 
 27 H        4.7470    -0.3860    -2.2660 H     1 <1>   0.0800 
 28 H        4.7720    -1.3640    -0.8430 H     1 <1>   0.0800 
 29 H        1.8630     1.4690    -1.4910 H     1 <1>   0.0800 
 30 H        3.0360     1.0190    -2.6890 H     1 <1>   0.0800 
 31 H        3.6850     0.1240     3.0770 H     1 <1>   0.1500 
 32 H        2.6530    -2.4320    -0.1470 H     1 <1>   0.1500 
 33 H        6.7520     0.3500    -1.4050 H     1 <1>   0.0800 
 34 H        6.2990    -0.0790     0.2130 H     1 <1>   0.0800 
 35 H        3.3010     3.1200    -0.5240 H     1 <1>   0.0800 
 36 H        3.2860     3.3620    -2.2290 H     1 <1>   0.0800 
 37 H        4.9070     1.8030     0.3500 H     1 <1>   0.4500 
 38 H        5.5220     3.6630    -1.4240 H     1 <1>   0.0800 
 39 H        5.4940     2.2350    -2.4310 H     1 <1>   0.0800 
 40 H        3.8640    -3.9120     3.6570 H     1 <1>   0.1500 
 41 H        3.0930    -4.8240     0.1470 H     1 <1>   0.0800 
 42 H        2.1180    -5.1530     1.5600 H     1 <1>   0.0800 
 43 H        3.8490    -5.4010     1.6100 H     1 <1>   0.0800 
 44 H        6.5720     3.5070     0.5920 H     1 <1>   0.0800 
 45 H        7.6930     2.4410    -0.2300 H     1 <1>   0.0800 
 46 H        6.0140     0.2070     4.2090 H     1 <1>   0.1500 
 47 H        8.6860     0.3070     3.9590 H     1 <1>   0.1500 
 48 H       10.2640     1.6260     2.4670 H     1 <1>   0.0800 
 49 H        9.6020     2.6640     1.2420 H     1 <1>   0.0800 
 50 H        9.9460    -0.3480     0.9920 H     1 <1>   0.0800 
 51 H       10.9710     0.8660     0.2440 H     1 <1>   0.0800 
 52 H        8.8070     0.0220    -2.3790 H     1 <1>   0.0800 
 53 H        9.5490    -1.1140    -1.2570 H     1 <1>   0.0800 
 54 H       10.4860     0.2350    -1.9100 H     1 <1>   0.0800 
@<TRIPOS>BOND
  1   1   2  2   
  2   2   3  am  
  3   2   4  1   
  4   3   5  1   
  5   3   6  1   
  6   4   7  ar  
  7   4   8  ar  
  8   5   9  1   
  9   5  27  1   
 10   5  28  1   
 11   6  10  1   
 12   6  29  1   
 13   6  30  1   
 14   7  11  ar  
 15   7  31  1   
 16   8  12  ar  
 17   8  32  1   
 18   9  13  1   
 19   9  33  1   
 20   9  34  1   
 21  10  14  1   
 22  10  35  1   
 23  10  36  1   
 24  11  15  ar  
 25  12  15  ar  
 26  12  16  1   
 27  13  14  1   
 28  13  17  1   
 29  13  37  1   
 30  14  38  1   
 31  14  39  1   
 32  15  40  1   
 33  16  41  1   
 34  16  42  1   
 35  16  43  1   
 36  17  18  1   
 37  17  44  1   
 38  17  45  1   
 39  18  19  2   
 40  18  20  1   
 41  19  21  1   
 42  20  22  1   
 43  20  23  1   
 44  21  22  2   
 45  21  46  1   
 46  22  47  1   
 47  23  24  1   
 48  23  48  1   
 49  23  49  1   
 50  24  25  1   
 51  24  50  1   
 52  24  51  1   
 53  25  26  1   
 54  26  52  1   
 55  26  53  1   
 56  26  54  1   
@<TRIPOS>SUBSTRUCTURE
  1 ****   9 GROUP 4 **** **** 0

# MOE 2024.06 (io_trps.svl 2023.06)
