@<TRIPOS>MOLECULE
NONAME
43 45 1 0 0 
SMALL
USER_CHARGES


@<TRIPOS>ATOM
  1 O       -1.6050    -0.1010    -2.4030 O.3   1 <1>  -0.5320 
  2 C       -1.8550    -0.7190    -1.2390 C.ar  1 <1>   0.0830 
  3 C       -2.0930    -2.0840    -1.2000 C.ar  1 <1>  -0.1500 
  4 C       -1.8690     0.0310    -0.0780 C.ar  1 <1>  -0.1500 
  5 C       -2.3530    -2.7030     0.0150 C.ar  1 <1>  -0.1430 
  6 C       -2.1140    -0.5860     1.1350 C.ar  1 <1>  -0.1500 
  7 C       -2.3520    -1.9490     1.1820 C.ar  1 <1>  -0.1500 
  8 C       -2.6430    -4.1890     0.0720 C.3   1 <1>   0.4860 
  9 N       -4.0480    -4.4580    -0.3620 N.4   1 <1>  -0.9590 
 10 C       -5.0410    -3.8890     0.6150 C.3   1 <1>   0.4230 
 11 C       -4.1850    -5.9140    -0.6850 C.3   1 <1>   0.2630 
 12 C       -6.3270    -4.7120     0.7760 C.3   1 <1>  -0.1600 
 13 C       -5.5890    -2.5780     0.0460 C.3   1 <1>  -0.1600 
 14 C       -7.2030    -4.3580    -0.4360 C.3   1 <1>  -0.0800 
 15 C       -6.7220    -2.9820    -0.9090 C.3   1 <1>  -0.0800 
 16 C       -8.7050    -4.2260    -0.1470 C.3   1 <1>  -0.1600 
 17 C       -7.9460    -2.0570    -0.9050 C.3   1 <1>  -0.1600 
 18 C       -9.1360    -3.0070    -0.9540 C.3   1 <1>   0.2000 
 19 O      -10.2400    -2.4220    -0.3800 O.3   1 <1>  -0.6800 
 20 H       -1.5160    -0.6930    -3.1700 H     1 <1>   0.4500 
 21 H       -2.0710    -2.6460    -2.1160 H     1 <1>   0.1500 
 22 H       -1.6820     1.0900    -0.1290 H     1 <1>   0.1500 
 23 H       -2.1140    -0.0010     2.0400 H     1 <1>   0.1500 
 24 H       -2.5340    -2.4060     2.1410 H     1 <1>   0.1500 
 25 H       -2.4880    -4.5540     1.0740 H     1 <1>   0.0800 
 26 H       -1.9530    -4.6980    -0.5800 H     1 <1>   0.0800 
 27 H       -4.1900    -3.9180    -1.2250 H     1 <1>   0.4500 
 28 H       -4.5720    -3.7310     1.5730 H     1 <1>   0.0800 
 29 H       -4.0670    -6.5090     0.2060 H     1 <1>   0.0800 
 30 H       -3.4370    -6.2130    -1.4020 H     1 <1>   0.0800 
 31 H       -5.1560    -6.1150    -1.1070 H     1 <1>   0.0800 
 32 H       -6.1830    -5.7680     0.9050 H     1 <1>   0.0800 
 33 H       -6.8080    -4.3570     1.6710 H     1 <1>   0.0800 
 34 H       -5.9920    -2.0130     0.8690 H     1 <1>   0.0800 
 35 H       -4.8550    -1.9610    -0.4390 H     1 <1>   0.0800 
 36 H       -7.0560    -5.0680    -1.2320 H     1 <1>   0.0800 
 37 H       -6.3470    -3.0730    -1.9160 H     1 <1>   0.0800 
 38 H       -8.8800    -4.0460     0.8990 H     1 <1>   0.0800 
 39 H       -9.2460    -5.1030    -0.4550 H     1 <1>   0.0800 
 40 H       -7.9450    -1.3950    -1.7540 H     1 <1>   0.0800 
 41 H       -7.9840    -1.4760     0.0000 H     1 <1>   0.0800 
 42 H       -9.3730    -3.2790    -1.9700 H     1 <1>   0.0800 
 43 H      -10.0480    -2.1500     0.5360 H     1 <1>   0.4000 
@<TRIPOS>BOND
  1   1   2  1   
  2   1  20  1   
  3   2   3  ar  
  4   2   4  ar  
  5   3   5  ar  
  6   3  21  1   
  7   4   6  ar  
  8   4  22  1   
  9   5   7  ar  
 10   5   8  1   
 11   6   7  ar  
 12   6  23  1   
 13   7  24  1   
 14   8   9  1   
 15   8  25  1   
 16   8  26  1   
 17   9  10  1   
 18   9  11  1   
 19   9  27  1   
 20  10  12  1   
 21  10  13  1   
 22  10  28  1   
 23  11  29  1   
 24  11  30  1   
 25  11  31  1   
 26  12  14  1   
 27  12  32  1   
 28  12  33  1   
 29  13  15  1   
 30  13  34  1   
 31  13  35  1   
 32  14  15  1   
 33  14  16  1   
 34  14  36  1   
 35  15  17  1   
 36  15  37  1   
 37  16  18  1   
 38  16  38  1   
 39  16  39  1   
 40  17  18  1   
 41  17  40  1   
 42  17  41  1   
 43  18  19  1   
 44  18  42  1   
 45  19  43  1   
@<TRIPOS>SUBSTRUCTURE
  1 ****  13 GROUP 4 **** **** 0

# MOE 2024.06 (io_trps.svl 2023.06)
