@<TRIPOS>MOLECULE
NONAME
49 52 1 0 0 
SMALL
USER_CHARGES


@<TRIPOS>ATOM
  1 S       -0.4800     1.8820    -1.9210 S.3   1 <1>  -0.0800 
  2 C       -1.2160     2.0780    -0.3330 C.2   1 <1>  -0.1400 
  3 C       -1.7920     0.8380    -2.4470 C.2   1 <1>  -0.1100 
  4 C       -2.3670     1.3950    -0.2710 C.2   1 <1>  -0.1810 
  5 C       -0.6140     2.9130     0.7990 C.3   1 <1>   0.4600 
  6 C       -2.7000     0.6810    -1.4650 C.2   1 <1>  -0.1500 
  7 C       -3.1980     1.4210     0.9920 C.3   1 <1>   0.0210 
  8 O       -1.3760     2.7140     1.9620 O.3   1 <1>  -0.5600 
  9 C        0.7920     2.4450     1.1800 C.3   1 <1>  -0.1600 
 10 C       -0.6320     4.4130     0.4910 C.3   1 <1>  -0.1600 
 11 C       -2.7790     2.6330     1.8440 C.3   1 <1>   0.1200 
 12 C        1.8530     2.8810     0.1790 C.3   1 <1>   0.3430 
 13 C        0.4410     4.7960    -0.5180 C.3   1 <1>   0.3430 
 14 N        1.7820     4.3530    -0.0320 N.4   1 <1>  -0.9590 
 15 C        2.8650     4.8170    -0.9420 C.3   1 <1>   0.4860 
 16 C        2.8910     6.3290    -0.8980 C.ar  1 <1>  -0.1430 
 17 C        2.3870     7.0660    -1.9610 C.ar  1 <1>  -0.1500 
 18 C        3.3960     6.9880     0.2150 C.ar  1 <1>  -0.1500 
 19 C        2.3640     8.4470    -1.8950 C.ar  1 <1>  -0.1500 
 20 C        3.3720     8.3690     0.2780 C.ar  1 <1>  -0.1500 
 21 C        2.8430     9.1050    -0.7760 C.ar  1 <1>   0.0830 
 22 O        2.7560    10.4550    -0.7830 O.3   1 <1>  -0.3630 
 23 C        3.0930    11.2260     0.3710 C.3   1 <1>   0.0140 
 24 C        2.7740    12.7060     0.2240 C.2   1 <1>   0.9060 
 25 O        1.6590    13.1140     0.5740 O.co2 1 <1>  -0.9000 
 26 O        3.6650    13.4740    -0.1630 O.co2 1 <1>  -0.9000 
 27 H       -1.7460     0.4440    -3.4470 H     1 <1>   0.1500 
 28 H       -3.5960     0.0890    -1.5310 H     1 <1>   0.1500 
 29 H       -3.0480     0.5120     1.5470 H     1 <1>   0.0800 
 30 H       -4.2430     1.5010     0.7490 H     1 <1>   0.0800 
 31 H        0.7950     1.3710     1.2490 H     1 <1>   0.0800 
 32 H        1.0510     2.8370     2.1470 H     1 <1>   0.0800 
 33 H       -0.4760     4.9720     1.3960 H     1 <1>   0.0800 
 34 H       -1.5900     4.6860     0.0890 H     1 <1>   0.0800 
 35 H       -3.1870     2.5470     2.8360 H     1 <1>   0.0800 
 36 H       -3.1400     3.5450     1.4020 H     1 <1>   0.0800 
 37 H        1.7060     2.3680    -0.7560 H     1 <1>   0.0800 
 38 H        2.8260     2.6080     0.5560 H     1 <1>   0.0800 
 39 H        0.4310     5.8680    -0.6490 H     1 <1>   0.0800 
 40 H        0.2250     4.3420    -1.4710 H     1 <1>   0.0800 
 41 H        1.9430     4.8290     0.8650 H     1 <1>   0.4500 
 42 H        2.6840     4.4750    -1.9480 H     1 <1>   0.0800 
 43 H        3.8190     4.4360    -0.6150 H     1 <1>   0.0800 
 44 H        2.0060     6.5860    -2.8460 H     1 <1>   0.1500 
 45 H        3.8130     6.4430     1.0450 H     1 <1>   0.1500 
 46 H        1.9720     9.0360    -2.7060 H     1 <1>   0.1500 
 47 H        3.7670     8.8640     1.1470 H     1 <1>   0.1500 
 48 H        4.1460    11.1250     0.5490 H     1 <1>   0.0800 
 49 H        2.5340    10.8520     1.2050 H     1 <1>   0.0800 
@<TRIPOS>BOND
  1   1   2  1   
  2   1   3  1   
  3   2   4  2   
  4   2   5  1   
  5   3   6  2   
  6   3  27  1   
  7   4   6  1   
  8   4   7  1   
  9   5   8  1   
 10   5   9  1   
 11   5  10  1   
 12   6  28  1   
 13   7  11  1   
 14   7  29  1   
 15   7  30  1   
 16   8  11  1   
 17   9  12  1   
 18   9  31  1   
 19   9  32  1   
 20  10  13  1   
 21  10  33  1   
 22  10  34  1   
 23  11  35  1   
 24  11  36  1   
 25  12  14  1   
 26  12  37  1   
 27  12  38  1   
 28  13  14  1   
 29  13  39  1   
 30  13  40  1   
 31  14  15  1   
 32  14  41  1   
 33  15  16  1   
 34  15  42  1   
 35  15  43  1   
 36  16  17  ar  
 37  16  18  ar  
 38  17  19  ar  
 39  17  44  1   
 40  18  20  ar  
 41  18  45  1   
 42  19  21  ar  
 43  19  46  1   
 44  20  21  ar  
 45  20  47  1   
 46  21  22  1   
 47  22  23  1   
 48  23  24  1   
 49  23  48  1   
 50  23  49  1   
 51  24  25  ar  
 52  24  26  ar  
@<TRIPOS>SUBSTRUCTURE
  1 ****  13 GROUP 4 **** **** 0

# MOE 2024.06 (io_trps.svl 2023.06)
