@<TRIPOS>MOLECULE
NONAME
51 54 1 0 0 
SMALL
USER_CHARGES


@<TRIPOS>ATOM
  1 O       -3.2710     1.3200    -1.4960 O.2   1 <1>  -0.5700 
  2 C       -2.6020     1.1330    -0.5100 C.2   1 <1>   0.5690 
  3 N       -2.2860    -0.1150    -0.0910 N.am  1 <1>  -0.7300 
  4 C       -2.1130     2.3200     0.2930 C.3   1 <1>  -0.0990 
  5 C       -2.6840    -1.3570    -0.7870 C.3   1 <1>   0.2200 
  6 C       -0.7300     2.8090    -0.1670 C.3   1 <1>  -0.0800 
  7 C       -3.9160    -1.9290    -0.1110 C.3   1 <1>  -0.0800 
  8 C       -1.6520    -2.4490    -0.5360 C.3   1 <1>   0.1200 
  9 C        0.3960     1.7970     0.0430 C.3   1 <1>  -0.1600 
 10 C       -0.2490     4.0380     0.6000 C.3   1 <1>  -0.1600 
 11 C       -3.3100    -2.7360     1.0410 C.3   1 <1>   0.1200 
 12 C       -4.7320    -2.8080    -1.0790 C.3   1 <1>  -0.0160 
 13 O       -1.9870    -3.0280     0.6900 O.3   1 <1>  -0.5600 
 14 C        1.6790     2.6290     0.0370 C.3   1 <1>  -0.1600 
 15 C        1.2680     4.0600     0.4030 C.3   1 <1>  -0.1600 
 16 C       -6.0310    -3.2880    -0.4390 C.ar  1 <1>  -0.1440 
 17 C       -7.1490    -2.4360    -0.2690 C.ar  1 <1>   0.0000 
 18 C       -6.1480    -4.5760    -0.0060 C.ar  1 <1>  -0.1500 
 19 C       -8.2990    -2.9780     0.3550 C.ar  1 <1>   0.3100 
 20 C       -7.1960    -1.0830    -0.6810 C.ar  1 <1>  -0.1500 
 21 C       -7.3360    -5.0140     0.5930 C.ar  1 <1>   0.1600 
 22 N       -8.3760    -4.2650     0.7790 N.ar  1 <1>  -0.6200 
 23 C       -9.4200    -2.1550     0.5470 C.ar  1 <1>  -0.1500 
 24 C       -8.3050    -0.3080    -0.4800 C.ar  1 <1>  -0.1500 
 25 C       -9.4330    -0.8480     0.1430 C.ar  1 <1>  -0.1500 
 26 H       -1.7510    -0.2570     0.7680 H     1 <1>   0.3700 
 27 H       -2.8240     3.1170     0.1750 H     1 <1>   0.0800 
 28 H       -2.0880     2.0570     1.3350 H     1 <1>   0.0800 
 29 H       -2.8260    -1.1620    -1.8380 H     1 <1>   0.0800 
 30 H       -0.7750     3.0580    -1.2160 H     1 <1>   0.0800 
 31 H       -4.5460    -1.1440     0.2680 H     1 <1>   0.0800 
 32 H       -0.6460    -2.0700    -0.4960 H     1 <1>   0.0800 
 33 H       -1.7210    -3.2160    -1.2870 H     1 <1>   0.0800 
 34 H        0.2900     1.3260     1.0050 H     1 <1>   0.0800 
 35 H        0.4080     1.0410    -0.7230 H     1 <1>   0.0800 
 36 H       -0.7130     4.9410     0.2430 H     1 <1>   0.0800 
 37 H       -0.4640     3.9230     1.6490 H     1 <1>   0.0800 
 38 H       -3.8330    -3.6560     1.2340 H     1 <1>   0.0800 
 39 H       -3.2820    -2.1470     1.9410 H     1 <1>   0.0800 
 40 H       -4.1440    -3.6580    -1.3810 H     1 <1>   0.0800 
 41 H       -4.9640    -2.2560    -1.9730 H     1 <1>   0.0800 
 42 H        2.3980     2.2350     0.7350 H     1 <1>   0.0800 
 43 H        2.1130     2.6220    -0.9480 H     1 <1>   0.0800 
 44 H        1.5210     4.7240    -0.4060 H     1 <1>   0.0800 
 45 H        1.7650     4.3970     1.2960 H     1 <1>   0.0800 
 46 H       -5.3440    -5.2810    -0.1080 H     1 <1>   0.1500 
 47 H       -6.3430    -0.6440    -1.1660 H     1 <1>   0.1500 
 48 H       -7.3850    -6.0380     0.9210 H     1 <1>   0.1500 
 49 H      -10.2760    -2.5920     1.0260 H     1 <1>   0.1500 
 50 H       -8.3240     0.7200    -0.7990 H     1 <1>   0.1500 
 51 H      -10.3000    -0.2280     0.2960 H     1 <1>   0.1500 
@<TRIPOS>BOND
  1   1   2  2   
  2   2   3  am  
  3   2   4  1   
  4   3   5  1   
  5   3  26  1   
  6   4   6  1   
  7   4  27  1   
  8   4  28  1   
  9   5   7  1   
 10   5   8  1   
 11   5  29  1   
 12   6   9  1   
 13   6  10  1   
 14   6  30  1   
 15   7  11  1   
 16   7  12  1   
 17   7  31  1   
 18   8  13  1   
 19   8  32  1   
 20   8  33  1   
 21   9  14  1   
 22   9  34  1   
 23   9  35  1   
 24  10  15  1   
 25  10  36  1   
 26  10  37  1   
 27  11  13  1   
 28  11  38  1   
 29  11  39  1   
 30  12  16  1   
 31  12  40  1   
 32  12  41  1   
 33  14  15  1   
 34  14  42  1   
 35  14  43  1   
 36  15  44  1   
 37  15  45  1   
 38  16  17  ar  
 39  16  18  ar  
 40  17  19  ar  
 41  17  20  ar  
 42  18  21  ar  
 43  18  46  1   
 44  19  22  ar  
 45  19  23  ar  
 46  20  24  ar  
 47  20  47  1   
 48  21  22  ar  
 49  21  48  1   
 50  23  25  ar  
 51  23  49  1   
 52  24  25  ar  
 53  24  50  1   
 54  25  51  1   
@<TRIPOS>SUBSTRUCTURE
  1 ****   7 GROUP 4 **** **** 0

# MOE 2024.06 (io_trps.svl 2023.06)
