@<TRIPOS>MOLECULE
NONAME
40 42 1 0 0 
SMALL
USER_CHARGES


@<TRIPOS>ATOM
  1 CL       2.5180    -2.8240    -1.5650 Cl    1 <1>  -0.1770 
  2 C        1.2670    -3.9260    -1.0470 C.ar  1 <1>   0.1770 
  3 C        0.0630    -3.4290    -0.6060 C.ar  1 <1>  -0.1500 
  4 C        1.5140    -5.2900    -1.0930 C.ar  1 <1>  -0.1500 
  5 C       -0.9490    -4.3010    -0.1890 C.ar  1 <1>   0.0860 
  6 C        0.5300    -6.1630    -0.6830 C.ar  1 <1>  -0.1500 
  7 C       -2.2380    -3.8550     0.2670 C.2   1 <1>   0.4690 
  8 C       -0.6970    -5.6830    -0.2260 C.ar  1 <1>   0.1000 
  9 O       -2.5330    -2.6690     0.3180 O.2   1 <1>  -0.5700 
 10 C       -3.1910    -4.8290     0.6600 C.2   1 <1>  -0.1360 
 11 N       -1.6760    -6.5760     0.1870 N.pl3 1 <1>  -0.6000 
 12 C       -2.9270    -6.1600     0.6190 C.2   1 <1>  -0.0380 
 13 C       -3.9760    -7.1850     1.0720 C.3   1 <1>   0.4810 
 14 N       -4.6600    -7.8910    -0.0700 N.4   1 <1>  -0.9590 
 15 C       -3.6470    -8.5390    -0.9600 C.3   1 <1>   0.3430 
 16 C       -5.6620    -8.8940     0.4600 C.3   1 <1>   0.3430 
 17 C       -3.1510    -9.7790    -0.2560 C.3   1 <1>  -0.1860 
 18 C       -5.6460   -10.2120    -0.3320 C.3   1 <1>  -0.1600 
 19 C       -1.8430   -10.0640    -0.8920 C.2   1 <1>   0.9060 
 20 C       -4.2420   -10.8490    -0.3250 C.3   1 <1>   0.2000 
 21 O       -0.9810    -9.2010    -0.6940 O.co2 1 <1>  -0.9000 
 22 O       -1.7080   -11.0460    -1.6140 O.co2 1 <1>  -0.9000 
 23 O       -4.1450   -11.6030     0.8230 O.3   1 <1>  -0.6800 
 24 H       -0.1060    -2.3670    -0.5820 H     1 <1>   0.1500 
 25 H        2.4640    -5.6510    -1.4470 H     1 <1>   0.1500 
 26 H        0.6990    -7.2290    -0.7170 H     1 <1>   0.1500 
 27 H       -4.1330    -4.4360     0.9950 H     1 <1>   0.1500 
 28 H       -1.4030    -7.5860     0.0630 H     1 <1>   0.4000 
 29 H       -4.7190    -6.6740     1.6610 H     1 <1>   0.0800 
 30 H       -3.4950    -7.9030     1.7150 H     1 <1>   0.0800 
 31 H       -5.1360    -7.1790    -0.6350 H     1 <1>   0.4500 
 32 H       -4.0960    -8.8270    -1.8970 H     1 <1>   0.0800 
 33 H       -2.8380    -7.8710    -1.1970 H     1 <1>   0.0800 
 34 H       -5.4190    -9.1350     1.4830 H     1 <1>   0.0800 
 35 H       -6.6530    -8.4700     0.4450 H     1 <1>   0.0800 
 36 H       -2.9140    -9.5660     0.7670 H     1 <1>   0.0800 
 37 H       -5.9450   -10.0150    -1.3460 H     1 <1>   0.0800 
 38 H       -6.3620   -10.9030     0.0780 H     1 <1>   0.0800 
 39 H       -4.1170   -11.5050    -1.1740 H     1 <1>   0.0800 
 40 H       -3.3320   -12.1520     0.7650 H     1 <1>   0.4000 
@<TRIPOS>BOND
  1   1   2  1   
  2   2   3  ar  
  3   2   4  ar  
  4   3   5  ar  
  5   3  24  1   
  6   4   6  ar  
  7   4  25  1   
  8   5   7  1   
  9   5   8  ar  
 10   6   8  ar  
 11   6  26  1   
 12   7   9  2   
 13   7  10  1   
 14   8  11  1   
 15  10  12  2   
 16  10  27  1   
 17  11  12  1   
 18  11  28  1   
 19  12  13  1   
 20  13  14  1   
 21  13  29  1   
 22  13  30  1   
 23  14  15  1   
 24  14  16  1   
 25  14  31  1   
 26  15  17  1   
 27  15  32  1   
 28  15  33  1   
 29  16  18  1   
 30  16  34  1   
 31  16  35  1   
 32  17  19  1   
 33  17  20  1   
 34  17  36  1   
 35  18  20  1   
 36  18  37  1   
 37  18  38  1   
 38  19  21  ar  
 39  19  22  ar  
 40  20  23  1   
 41  20  39  1   
 42  23  40  1   
@<TRIPOS>SUBSTRUCTURE
  1 ****  11 GROUP 4 **** **** 0

# MOE 2024.06 (io_trps.svl 2023.06)
