@<TRIPOS>MOLECULE
NONAME
44 46 1 0 0 
SMALL
USER_CHARGES


@<TRIPOS>ATOM
  1 O        2.9870     1.7040    -0.6190 O.2   1 <1>  -0.5700 
  2 C        2.4270     0.6640    -0.3200 C.2   1 <1>   0.5440 
  3 N        1.4160     0.2410    -1.1360 N.am  1 <1>  -0.7300 
  4 C        2.8380    -0.0840     0.8560 C.ar  1 <1>   0.0860 
  5 C        0.9110     0.9020    -2.3630 C.3   1 <1>   0.0600 
  6 C        2.1420    -1.2050     1.3730 C.ar  1 <1>   0.4100 
  7 C        3.9860     0.3070     1.5380 C.ar  1 <1>  -0.1500 
  8 N        2.5230    -1.8800     2.4600 N.ar  1 <1>  -0.6200 
  9 N        0.9820    -1.7050     0.8050 N.pl3 1 <1>  -0.8380 
 10 C        4.3780    -0.3950     2.6530 C.ar  1 <1>  -0.1500 
 11 C        3.6170    -1.4710     3.0660 C.ar  1 <1>   0.1600 
 12 C       -0.2770    -1.5040     1.5800 C.3   1 <1>   0.2090 
 13 C        1.0180    -3.1080     0.3000 C.3   1 <1>   0.2090 
 14 C       -1.0180    -2.8430     1.5620 C.3   1 <1>   0.2000 
 15 C        0.0140    -3.8850     1.1470 C.3   1 <1>  -0.0800 
 16 O       -1.5290    -3.1620     2.8100 O.3   1 <1>  -0.6800 
 17 C       -0.6080    -5.0910     0.4250 C.3   1 <1>   0.0210 
 18 C        0.4540    -6.0110    -0.1450 C.2   1 <1>   0.1080 
 19 N        1.3550    -6.5880     0.5880 N.2   1 <1>  -0.7070 
 20 C        0.5900    -6.3320    -1.4920 C.2   1 <1>  -0.1500 
 21 N        2.0950    -7.3020    -0.2790 N.pl3 1 <1>   0.3000 
 22 C        1.6530    -7.1620    -1.5470 C.2   1 <1>  -0.3320 
 23 C        2.2820    -7.8430    -2.7480 C.3   1 <1>  -0.0600 
 24 H        0.9270    -0.6060    -0.8080 H     1 <1>   0.3700 
 25 H        1.4980     1.7780    -2.5850 H     1 <1>   0.0800 
 26 H       -0.1130     1.1960    -2.2200 H     1 <1>   0.0800 
 27 H        0.9760     0.2210    -3.1940 H     1 <1>   0.0800 
 28 H        4.5620     1.1510     1.1970 H     1 <1>   0.1500 
 29 H        5.2620    -0.1150     3.1970 H     1 <1>   0.1500 
 30 H        3.9270    -2.0190     3.9390 H     1 <1>   0.1500 
 31 H       -0.0480    -1.2110     2.5910 H     1 <1>   0.0800 
 32 H       -0.8730    -0.7400     1.1130 H     1 <1>   0.0800 
 33 H        0.7270    -3.1150    -0.7370 H     1 <1>   0.0800 
 34 H        2.0030    -3.5370     0.3880 H     1 <1>   0.0800 
 35 H       -1.8360    -2.7930     0.8640 H     1 <1>   0.0800 
 36 H        0.5520    -4.2320     2.0130 H     1 <1>   0.0800 
 37 H       -0.7910    -3.2950     3.4380 H     1 <1>   0.4000 
 38 H       -1.2450    -4.7550    -0.3730 H     1 <1>   0.0800 
 39 H       -1.2100    -5.6490     1.1190 H     1 <1>   0.0800 
 40 H       -0.0320    -5.9820    -2.2960 H     1 <1>   0.1500 
 41 H        2.8920    -7.8740     0.0260 H     1 <1>   0.2700 
 42 H        1.7500    -7.5750    -3.6450 H     1 <1>   0.0800 
 43 H        2.2420    -8.9110    -2.6330 H     1 <1>   0.0800 
 44 H        3.3080    -7.5380    -2.8550 H     1 <1>   0.0800 
@<TRIPOS>BOND
  1   1   2  2   
  2   2   3  am  
  3   2   4  1   
  4   3   5  1   
  5   3  24  1   
  6   4   6  ar  
  7   4   7  ar  
  8   5  25  1   
  9   5  26  1   
 10   5  27  1   
 11   6   8  ar  
 12   6   9  1   
 13   7  10  ar  
 14   7  28  1   
 15   8  11  ar  
 16   9  12  1   
 17   9  13  1   
 18  10  11  ar  
 19  10  29  1   
 20  11  30  1   
 21  12  14  1   
 22  12  31  1   
 23  12  32  1   
 24  13  15  1   
 25  13  33  1   
 26  13  34  1   
 27  14  15  1   
 28  14  16  1   
 29  14  35  1   
 30  15  17  1   
 31  15  36  1   
 32  16  37  1   
 33  17  18  1   
 34  17  38  1   
 35  17  39  1   
 36  18  19  2   
 37  18  20  1   
 38  19  21  1   
 39  20  22  2   
 40  20  40  1   
 41  21  22  1   
 42  21  41  1   
 43  22  23  1   
 44  23  42  1   
 45  23  43  1   
 46  23  44  1   
@<TRIPOS>SUBSTRUCTURE
  1 ****  13 GROUP 4 **** **** 0

# MOE 2024.06 (io_trps.svl 2023.06)
