@<TRIPOS>MOLECULE
NONAME
41 43 1 0 0 
SMALL
USER_CHARGES


@<TRIPOS>ATOM
  1 O        0.9650    -0.0710     0.5290 O.3   1 <1>  -0.6800 
  2 C        1.2860    -0.4600    -0.7720 C.3   1 <1>   0.2000 
  3 C        2.1410    -1.7290    -0.7390 C.3   1 <1>  -0.0800 
  4 C        2.2600     0.5670    -1.3560 C.3   1 <1>   0.3430 
  5 C        3.5550    -1.2300    -0.4120 C.3   1 <1>   0.3430 
  6 C        1.6640    -2.8520     0.2010 C.3   1 <1>  -0.0170 
  7 N        3.5870     0.2180    -0.7680 N.4   1 <1>  -0.9590 
  8 C        2.6680    -3.9930     0.2060 C.ar  1 <1>  -0.1440 
  9 C        3.8730     1.0960     0.3970 C.3   1 <1>   0.5230 
 10 C        2.8110    -4.8420    -0.8740 C.ar  1 <1>  -0.1500 
 11 C        3.4920    -4.2380     1.2870 C.ar  1 <1>  -0.1500 
 12 C        4.3600     2.4320    -0.1460 C.2   1 <1>   0.0070 
 13 C        3.7560    -5.8530    -0.8300 C.ar  1 <1>   0.1600 
 14 C        4.4040    -5.2790     1.2310 C.ar  1 <1>   0.1600 
 15 N        4.8560     2.5670    -1.3390 N.2   1 <1>  -0.5650 
 16 N        4.3180     3.5890     0.5620 N.pl3 1 <1>   0.0480 
 17 N        4.5620    -6.0830     0.1940 N.ar  1 <1>  -0.6200 
 18 C        5.1570     3.8760    -1.4160 C.2   1 <1>   0.0770 
 19 C        4.8340     4.5110    -0.2690 C.2   1 <1>  -0.3020 
 20 C        3.8300     3.8450     1.9320 C.3   1 <1>   0.0160 
 21 H        0.1550    -0.5290     0.8410 H     1 <1>   0.4000 
 22 H        0.3820    -0.5500    -1.3500 H     1 <1>   0.0800 
 23 H        2.1750    -2.1260    -1.7390 H     1 <1>   0.0800 
 24 H        1.9620     1.5770    -1.1280 H     1 <1>   0.0800 
 25 H        2.3030     0.4470    -2.4260 H     1 <1>   0.0800 
 26 H        4.2920    -1.7870    -0.9690 H     1 <1>   0.0800 
 27 H        3.7470    -1.3560     0.6410 H     1 <1>   0.0800 
 28 H        0.7080    -3.2220    -0.1260 H     1 <1>   0.0800 
 29 H        1.5470    -2.4850     1.2060 H     1 <1>   0.0800 
 30 H        4.3270     0.4760    -1.4450 H     1 <1>   0.4500 
 31 H        2.9880     1.2260     0.9970 H     1 <1>   0.0800 
 32 H        4.6520     0.6660     1.0040 H     1 <1>   0.0800 
 33 H        2.1980    -4.7360    -1.7510 H     1 <1>   0.1500 
 34 H        3.4360    -3.6410     2.1790 H     1 <1>   0.1500 
 35 H        3.8560    -6.5080    -1.6790 H     1 <1>   0.1500 
 36 H        5.0390    -5.4600     2.0820 H     1 <1>   0.1500 
 37 H        5.5970     4.3040    -2.3030 H     1 <1>   0.1500 
 38 H        4.9480     5.5490    -0.0120 H     1 <1>   0.1500 
 39 H        3.8550     4.9020     2.1290 H     1 <1>   0.0800 
 40 H        4.4640     3.3420     2.6400 H     1 <1>   0.0800 
 41 H        2.8190     3.4940     2.0290 H     1 <1>   0.0800 
@<TRIPOS>BOND
  1   1   2  1   
  2   1  21  1   
  3   2   3  1   
  4   2   4  1   
  5   2  22  1   
  6   3   5  1   
  7   3   6  1   
  8   3  23  1   
  9   4   7  1   
 10   4  24  1   
 11   4  25  1   
 12   5   7  1   
 13   5  26  1   
 14   5  27  1   
 15   6   8  1   
 16   6  28  1   
 17   6  29  1   
 18   7   9  1   
 19   7  30  1   
 20   8  10  ar  
 21   8  11  ar  
 22   9  12  1   
 23   9  31  1   
 24   9  32  1   
 25  10  13  ar  
 26  10  33  1   
 27  11  14  ar  
 28  11  34  1   
 29  12  15  2   
 30  12  16  1   
 31  13  17  ar  
 32  13  35  1   
 33  14  17  ar  
 34  14  36  1   
 35  15  18  1   
 36  16  19  1   
 37  16  20  1   
 38  18  19  2   
 39  18  37  1   
 40  19  38  1   
 41  20  39  1   
 42  20  40  1   
 43  20  41  1   
@<TRIPOS>SUBSTRUCTURE
  1 ****   5 GROUP 4 **** **** 0

# MOE 2024.06 (io_trps.svl 2023.06)
