@<TRIPOS>MOLECULE
NONAME
53 56 1 0 0 
SMALL
USER_CHARGES


@<TRIPOS>ATOM
  1 O        1.2560     0.6100     1.5110 O.3   1 <1>  -0.3630 
  2 C        1.6560    -0.3910     0.6890 C.ar  1 <1>   0.0820 
  3 C        0.4200     1.6090     0.9510 C.3   1 <1>   0.1200 
  4 C        1.4910    -0.3080    -0.6920 C.ar  1 <1>   0.0820 
  5 C        2.2300    -1.5180     1.2450 C.ar  1 <1>  -0.1500 
  6 C        0.8820     1.9620    -0.4700 C.3   1 <1>   0.1200 
  7 O        0.9510     0.7950    -1.2680 O.3   1 <1>  -0.3630 
  8 C        1.8870    -1.3600    -1.4960 C.ar  1 <1>  -0.1500 
  9 C        2.6260    -2.5780     0.4390 C.ar  1 <1>  -0.1440 
 10 C        2.4580    -2.4980    -0.9440 C.ar  1 <1>  -0.1440 
 11 C        3.2110    -3.8050     1.1140 C.3   1 <1>   0.4870 
 12 C        2.8750    -3.6170    -1.8920 C.3   1 <1>  -0.0960 
 13 N        2.2020    -4.8950     1.0800 N.4   1 <1>  -0.9590 
 14 C        0.8840    -4.5120     1.6710 C.3   1 <1>   0.3430 
 15 C        2.7030    -6.2050     1.5620 C.3   1 <1>   0.3430 
 16 C       -0.1080    -5.6820     1.6240 C.3   1 <1>  -0.1600 
 17 C        1.7400    -7.3280     1.1570 C.3   1 <1>  -0.1600 
 18 C        0.3510    -6.8330     0.7190 C.3   1 <1>   0.4240 
 19 O        0.5040    -6.3070    -0.5550 O.3   1 <1>  -0.6800 
 20 C       -0.6830    -7.9780     0.6240 C.ar  1 <1>   0.1670 
 21 N       -1.1440    -8.2780    -0.5910 N.ar  1 <1>  -0.6200 
 22 C       -1.0910    -8.6450     1.7730 C.ar  1 <1>  -0.1500 
 23 C       -2.0290    -9.2610    -0.6530 C.ar  1 <1>   0.1600 
 24 C       -2.0130    -9.6650     1.6880 C.ar  1 <1>  -0.1500 
 25 C       -2.4940    -9.9800     0.4360 C.ar  1 <1>  -0.1440 
 26 C       -3.5140   -11.0950     0.2700 C.3   1 <1>  -0.0970 
 27 H        0.4610     2.4720     1.5910 H     1 <1>   0.0800 
 28 H       -0.5860     1.2310     0.9320 H     1 <1>   0.0800 
 29 H        2.3540    -1.5440     2.3130 H     1 <1>   0.1500 
 30 H        1.8600     2.4090    -0.4460 H     1 <1>   0.0800 
 31 H        0.1940     2.6430    -0.9380 H     1 <1>   0.0800 
 32 H        1.7430    -1.2700    -2.5580 H     1 <1>   0.1500 
 33 H        3.4710    -3.5710     2.1330 H     1 <1>   0.0800 
 34 H        4.1040    -4.1070     0.5940 H     1 <1>   0.0800 
 35 H        2.9970    -3.2330    -2.8910 H     1 <1>   0.0800 
 36 H        2.1190    -4.3810    -1.9230 H     1 <1>   0.0800 
 37 H        3.8130    -4.0500    -1.5990 H     1 <1>   0.0800 
 38 H        1.9620    -5.0440     0.0800 H     1 <1>   0.4500 
 39 H        0.4730    -3.6890     1.1060 H     1 <1>   0.0800 
 40 H        1.0120    -4.1840     2.6900 H     1 <1>   0.0800 
 41 H        2.7950    -6.1770     2.6360 H     1 <1>   0.0800 
 42 H        3.6770    -6.4070     1.1460 H     1 <1>   0.0800 
 43 H       -1.0680    -5.3250     1.2940 H     1 <1>   0.0800 
 44 H       -0.2430    -6.0460     2.6250 H     1 <1>   0.0800 
 45 H        1.6380    -7.9870     2.0000 H     1 <1>   0.0800 
 46 H        2.1720    -7.9150     0.3650 H     1 <1>   0.0800 
 47 H       -0.1040    -6.8610    -1.1120 H     1 <1>   0.4000 
 48 H       -0.7010    -8.3800     2.7380 H     1 <1>   0.1500 
 49 H       -2.4070    -9.5070    -1.6320 H     1 <1>   0.1500 
 50 H       -2.3450   -10.1950     2.5660 H     1 <1>   0.1500 
 51 H       -3.6080   -11.3790    -0.7620 H     1 <1>   0.0800 
 52 H       -4.4740   -10.7670     0.6260 H     1 <1>   0.0800 
 53 H       -3.2120   -11.9600     0.8340 H     1 <1>   0.0800 
@<TRIPOS>BOND
  1   1   2  1   
  2   1   3  1   
  3   2   4  ar  
  4   2   5  ar  
  5   3   6  1   
  6   3  27  1   
  7   3  28  1   
  8   4   7  1   
  9   4   8  ar  
 10   5   9  ar  
 11   5  29  1   
 12   6   7  1   
 13   6  30  1   
 14   6  31  1   
 15   8  10  ar  
 16   8  32  1   
 17   9  10  ar  
 18   9  11  1   
 19  10  12  1   
 20  11  13  1   
 21  11  33  1   
 22  11  34  1   
 23  12  35  1   
 24  12  36  1   
 25  12  37  1   
 26  13  14  1   
 27  13  15  1   
 28  13  38  1   
 29  14  16  1   
 30  14  39  1   
 31  14  40  1   
 32  15  17  1   
 33  15  41  1   
 34  15  42  1   
 35  16  18  1   
 36  16  43  1   
 37  16  44  1   
 38  17  18  1   
 39  17  45  1   
 40  17  46  1   
 41  18  19  1   
 42  18  20  1   
 43  19  47  1   
 44  20  21  ar  
 45  20  22  ar  
 46  21  23  ar  
 47  22  24  ar  
 48  22  48  1   
 49  23  25  ar  
 50  23  49  1   
 51  24  25  ar  
 52  24  50  1   
 53  25  26  1   
 54  26  51  1   
 55  26  52  1   
 56  26  53  1   
@<TRIPOS>SUBSTRUCTURE
  1 ****  14 GROUP 4 **** **** 0

# MOE 2024.06 (io_trps.svl 2023.06)
