@<TRIPOS>MOLECULE
NONAME
44 46 1 0 0 
SMALL
USER_CHARGES


@<TRIPOS>ATOM
  1 S        1.7480     1.2540    -1.9500 S.3   1 <1>  -0.4600 
  2 C        3.3460     1.9930    -2.4250 C.3   1 <1>   0.2510 
  3 C        0.7940     2.6150    -1.2260 C.3   1 <1>  -0.0100 
  4 C        4.2240     2.2190    -1.1970 C.2   1 <1>   0.3350 
  5 N        5.2400     1.5080    -0.9140 N.2   1 <1>  -0.4100 
  6 N        4.0060     3.1940    -0.3110 N.2   1 <1>  -0.5650 
  7 O        5.7330     1.9480     0.2000 O.3   1 <1>  -0.0190 
  8 C        4.9450     2.9400     0.5210 C.2   1 <1>   0.2980 
  9 C        5.2220     3.6800     1.8290 C.3   1 <1>   0.3890 
 10 N        5.8100     5.0460     1.6440 N.pl3 1 <1>  -0.8690 
 11 C        5.5340     6.0650     0.8210 C.ar  1 <1>   0.7710 
 12 N        6.2280     7.1620     1.0340 N.ar  1 <1>  -0.6200 
 13 N        4.6070     5.9670    -0.1490 N.ar  1 <1>  -0.1790 
 14 C        6.0040     8.2050     0.2550 C.ar  1 <1>   0.4100 
 15 C        4.3260     7.0170    -0.9540 C.ar  1 <1>   0.2110 
 16 N        6.7480     9.3210     0.4630 N.pl3 1 <1>  -0.8380 
 17 C        5.0230     8.1600    -0.7580 C.ar  1 <1>  -0.1500 
 18 C        7.1320    10.3030    -0.6050 C.3   1 <1>   0.2090 
 19 C        7.3500     9.6540     1.7920 C.3   1 <1>   0.2090 
 20 C        6.6890    11.7210    -0.2090 C.3   1 <1>   0.2000 
 21 C        6.9090    11.0620     2.2160 C.3   1 <1>  -0.1600 
 22 O        7.1350    12.6300    -1.1520 O.3   1 <1>  -0.6800 
 23 C        7.2490    12.1270     1.1580 C.3   1 <1>  -0.1600 
 24 H        3.1410     2.9120    -2.9400 H     1 <1>   0.0800 
 25 H        3.8160     1.2970    -3.0960 H     1 <1>   0.0800 
 26 H       -0.1920     2.2400    -1.0120 H     1 <1>   0.0800 
 27 H        0.7480     3.4140    -1.9440 H     1 <1>   0.0800 
 28 H        1.2830     2.9250    -0.3200 H     1 <1>   0.0800 
 29 H        5.8990     3.0850     2.4190 H     1 <1>   0.0800 
 30 H        4.3020     3.7640     2.3820 H     1 <1>   0.0800 
 31 H        6.5470     5.2710     2.3230 H     1 <1>   0.4000 
 32 H        4.1570     5.0530    -0.2570 H     1 <1>   0.4570 
 33 H        3.5670     6.9140    -1.7140 H     1 <1>   0.1500 
 34 H        4.8340     9.0360    -1.3490 H     1 <1>   0.1500 
 35 H        6.7000    10.0410    -1.5530 H     1 <1>   0.0800 
 36 H        8.2020    10.2840    -0.7130 H     1 <1>   0.0800 
 37 H        8.4230     9.6100     1.7160 H     1 <1>   0.0800 
 38 H        7.0400     8.9500     2.5450 H     1 <1>   0.0800 
 39 H        5.6130    11.7670    -0.2020 H     1 <1>   0.0800 
 40 H        7.3850    11.3150     3.1460 H     1 <1>   0.0800 
 41 H        5.8460    11.0500     2.3880 H     1 <1>   0.0800 
 42 H        8.0900    12.8000    -1.0390 H     1 <1>   0.4000 
 43 H        6.8300    13.0730     1.4540 H     1 <1>   0.0800 
 44 H        8.3190    12.2240     1.1000 H     1 <1>   0.0800 
@<TRIPOS>BOND
  1   1   2  1   
  2   1   3  1   
  3   2   4  1   
  4   2  24  1   
  5   2  25  1   
  6   3  26  1   
  7   3  27  1   
  8   3  28  1   
  9   4   5  2   
 10   4   6  1   
 11   5   7  1   
 12   6   8  2   
 13   7   8  1   
 14   8   9  1   
 15   9  10  1   
 16   9  29  1   
 17   9  30  1   
 18  10  11  1   
 19  10  31  1   
 20  11  12  ar  
 21  11  13  ar  
 22  12  14  ar  
 23  13  15  ar  
 24  13  32  1   
 25  14  16  1   
 26  14  17  ar  
 27  15  17  ar  
 28  15  33  1   
 29  16  18  1   
 30  16  19  1   
 31  17  34  1   
 32  18  20  1   
 33  18  35  1   
 34  18  36  1   
 35  19  21  1   
 36  19  37  1   
 37  19  38  1   
 38  20  22  1   
 39  20  23  1   
 40  20  39  1   
 41  21  23  1   
 42  21  40  1   
 43  21  41  1   
 44  22  42  1   
 45  23  43  1   
 46  23  44  1   
@<TRIPOS>SUBSTRUCTURE
  1 ****  13 GROUP 4 **** **** 0

# MOE 2024.06 (io_trps.svl 2023.06)
