@<TRIPOS>MOLECULE
NONAME
36 36 1 0 0 
SMALL
USER_CHARGES


@<TRIPOS>ATOM
  1 S        0.7310     0.6250    -0.5810 S.3   1 <1>  -0.0800 
  2 C        1.9100    -0.6550    -0.3300 C.2   1 <1>   0.4620 
  3 C       -0.1530     0.0670     0.8020 C.2   1 <1>  -0.1100 
  4 N        1.6470    -1.3920     0.6870 N.2   1 <1>  -0.5650 
  5 N        2.9900    -0.7680    -1.1820 N.pl3 1 <1>  -0.8220 
  6 C        0.4700    -1.0010     1.3440 C.2   1 <1>   0.1410 
  7 C        3.1730     0.1100    -2.4020 C.3   1 <1>   0.2700 
  8 C        4.0440    -1.7990    -0.9680 C.3   1 <1>   0.1290 
  9 C       -0.0010    -1.7310     2.5140 C.2   1 <1>   0.7160 
 10 C        3.9060     1.4300    -2.1280 C.2   1 <1>   0.5690 
 11 O       -1.0060    -1.4100     3.1140 O.2   1 <1>  -0.5700 
 12 N        0.6700    -2.8090     2.9790 N.am  1 <1>  -0.8000 
 13 O        4.2140     2.1350    -3.0600 O.2   1 <1>  -0.5700 
 14 N        4.1870     1.7670    -0.8410 N.am  1 <1>  -0.7300 
 15 C        4.8120     3.0190    -0.3780 C.3   1 <1>   0.1400 
 16 C        3.8800     3.6950     0.6270 C.3   1 <1>  -0.1600 
 17 C        4.4770     5.0120     1.1390 C.3   1 <1>  -0.1600 
 18 C        3.5400     5.6850     2.1460 C.3   1 <1>  -0.2400 
 19 H       -1.0530     0.5840     1.0810 H     1 <1>   0.1500 
 20 H        2.2170     0.3400    -2.8360 H     1 <1>   0.0800 
 21 H        3.7310    -0.4290    -3.1460 H     1 <1>   0.0800 
 22 H        3.9080    -2.2970    -0.0240 H     1 <1>   0.0800 
 23 H        5.0150    -1.3360    -0.9740 H     1 <1>   0.0800 
 24 H        3.9970    -2.5340    -1.7530 H     1 <1>   0.0800 
 25 H        0.3250    -3.3260     3.7850 H     1 <1>   0.3700 
 26 H        1.5120    -3.1360     2.5040 H     1 <1>   0.3700 
 27 H        3.8870     1.1020    -0.1210 H     1 <1>   0.3700 
 28 H        4.9860     3.6730    -1.2180 H     1 <1>   0.0800 
 29 H        5.7590     2.7940     0.0820 H     1 <1>   0.0800 
 30 H        3.7120     3.0320     1.4580 H     1 <1>   0.0800 
 31 H        2.9370     3.8950     0.1480 H     1 <1>   0.0800 
 32 H        4.6430     5.6790     0.3100 H     1 <1>   0.0800 
 33 H        5.4260     4.8220     1.6110 H     1 <1>   0.0800 
 34 H        2.5910     5.9030     1.6890 H     1 <1>   0.0800 
 35 H        3.9730     6.6070     2.4920 H     1 <1>   0.0800 
 36 H        3.3770     5.0450     2.9950 H     1 <1>   0.0800 
@<TRIPOS>BOND
  1   1   2  1   
  2   1   3  1   
  3   2   4  2   
  4   2   5  1   
  5   3   6  2   
  6   3  19  1   
  7   4   6  1   
  8   5   7  1   
  9   5   8  1   
 10   6   9  1   
 11   7  10  1   
 12   7  20  1   
 13   7  21  1   
 14   8  22  1   
 15   8  23  1   
 16   8  24  1   
 17   9  11  2   
 18   9  12  am  
 19  10  13  2   
 20  10  14  am  
 21  12  25  1   
 22  12  26  1   
 23  14  15  1   
 24  14  27  1   
 25  15  16  1   
 26  15  28  1   
 27  15  29  1   
 28  16  17  1   
 29  16  30  1   
 30  16  31  1   
 31  17  18  1   
 32  17  32  1   
 33  17  33  1   
 34  18  34  1   
 35  18  35  1   
 36  18  36  1   
@<TRIPOS>SUBSTRUCTURE
  1 ****   2 GROUP 4 **** **** 0

# MOE 2024.06 (io_trps.svl 2023.06)
