@<TRIPOS>MOLECULE
NONAME
40 42 1 0 0 
SMALL
USER_CHARGES


@<TRIPOS>ATOM
  1 O        0.2650     0.2720    -1.2220 O.3   1 <1>  -0.5600 
  2 C        1.4340    -0.5090    -1.2140 C.3   1 <1>   0.2000 
  3 C        0.4710     1.6280    -1.4650 C.3   1 <1>   0.1200 
  4 C        2.5080     0.0590    -0.2290 C.3   1 <1>   0.3340 
  5 C        0.9550    -1.9390    -0.8920 C.3   1 <1>   0.1200 
  6 C        1.3490     2.2150    -0.3560 C.3   1 <1>   0.1100 
  7 N        2.6590     1.5390    -0.3250 N.3   1 <1>  -0.8100 
  8 C        3.8790    -0.5670    -0.5110 C.ar  1 <1>  -0.1440 
  9 O        1.9920    -2.8300    -0.6350 O.3   1 <1>  -0.6800 
 10 C        3.5200     2.0710     0.7480 C.3   1 <1>   0.2530 
 11 C        4.5630    -0.2710    -1.6820 C.ar  1 <1>  -0.1500 
 12 C        4.4600    -1.4330     0.4060 C.ar  1 <1>  -0.1500 
 13 C        3.8590     3.5260     0.4850 C.ar  1 <1>  -0.1440 
 14 C        5.8000    -0.8350    -1.9390 C.ar  1 <1>  -0.1500 
 15 C        5.6980    -1.9980     0.1520 C.ar  1 <1>  -0.1500 
 16 C        3.6080     4.5110     1.4120 C.ar  1 <1>   0.1600 
 17 C        4.4340     3.9170    -0.7010 C.ar  1 <1>   0.1600 
 18 C        6.3680    -1.7000    -1.0210 C.ar  1 <1>  -0.1500 
 19 N        3.8980     5.7750     1.1900 N.ar  1 <1>  -0.6200 
 20 N        4.7390     5.1720    -0.9550 N.ar  1 <1>  -0.6200 
 21 C        4.4510     6.0270     0.0130 C.ar  1 <1>   0.4700 
 22 H        1.8300    -0.4930    -2.2130 H     1 <1>   0.0800 
 23 H        0.9350     1.7490    -2.4280 H     1 <1>   0.0800 
 24 H       -0.4900     2.1100    -1.4740 H     1 <1>   0.0800 
 25 H        2.1970    -0.1960     0.7700 H     1 <1>   0.0800 
 26 H        0.3910    -2.3240    -1.7230 H     1 <1>   0.0800 
 27 H        0.3260    -1.9260    -0.0190 H     1 <1>   0.0800 
 28 H        0.8460     2.1070     0.5890 H     1 <1>   0.0800 
 29 H        1.4840     3.2660    -0.5510 H     1 <1>   0.0800 
 30 H        2.7500    -2.6810    -1.2380 H     1 <1>   0.4000 
 31 H        3.0280     1.9620     1.6990 H     1 <1>   0.0800 
 32 H        4.4460     1.5210     0.7870 H     1 <1>   0.0800 
 33 H        4.1320     0.4110    -2.3960 H     1 <1>   0.1500 
 34 H        3.9470    -1.6800     1.3190 H     1 <1>   0.1500 
 35 H        6.3210    -0.5980    -2.8500 H     1 <1>   0.1500 
 36 H        6.1380    -2.6710     0.8670 H     1 <1>   0.1500 
 37 H        3.1590     4.2640     2.3580 H     1 <1>   0.1500 
 38 H        4.6440     3.1790    -1.4580 H     1 <1>   0.1500 
 39 H        7.3310    -2.1400    -1.2190 H     1 <1>   0.1500 
 40 H        4.6960     7.0570    -0.1810 H     1 <1>   0.1500 
@<TRIPOS>BOND
  1   1   2  1   
  2   1   3  1   
  3   2   4  1   
  4   2   5  1   
  5   2  22  1   
  6   3   6  1   
  7   3  23  1   
  8   3  24  1   
  9   4   7  1   
 10   4   8  1   
 11   4  25  1   
 12   5   9  1   
 13   5  26  1   
 14   5  27  1   
 15   6   7  1   
 16   6  28  1   
 17   6  29  1   
 18   7  10  1   
 19   8  11  ar  
 20   8  12  ar  
 21   9  30  1   
 22  10  13  1   
 23  10  31  1   
 24  10  32  1   
 25  11  14  ar  
 26  11  33  1   
 27  12  15  ar  
 28  12  34  1   
 29  13  16  ar  
 30  13  17  ar  
 31  14  18  ar  
 32  14  35  1   
 33  15  18  ar  
 34  15  36  1   
 35  16  19  ar  
 36  16  37  1   
 37  17  20  ar  
 38  17  38  1   
 39  18  39  1   
 40  19  21  ar  
 41  20  21  ar  
 42  21  40  1   
@<TRIPOS>SUBSTRUCTURE
  1 ****   7 GROUP 4 **** **** 0

# MOE 2024.06 (io_trps.svl 2023.06)
