@<TRIPOS>MOLECULE
NONAME
49 52 1 0 0 
SMALL
USER_CHARGES


@<TRIPOS>ATOM
  1 O        0.9500     3.0520     0.6820 O.3   1 <1>  -0.5320 
  2 C        0.4800     4.0710    -0.0080 C.ar  1 <1>   0.3930 
  3 N       -0.8260     4.1900     0.0480 N.ar  1 <1>  -0.6200 
  4 C        1.3480     4.8970    -0.7020 C.ar  1 <1>  -0.1500 
  5 C       -1.3470     5.2130    -0.6540 C.ar  1 <1>   0.3960 
  6 C        0.8260     5.9500    -1.4150 C.ar  1 <1>  -0.1500 
  7 C       -2.7900     5.4440    -0.6470 C.2   1 <1>   0.5440 
  8 C       -0.5450     6.0950    -1.3810 C.ar  1 <1>  -0.1500 
  9 O       -3.4360     5.1220    -1.6290 O.2   1 <1>  -0.5700 
 10 N       -3.4110     6.0700     0.4280 N.am  1 <1>  -0.6600 
 11 C       -4.7520     6.7610     0.4110 C.3   1 <1>   0.2200 
 12 C       -2.5730     6.4240     1.6260 C.3   1 <1>   0.1400 
 13 C       -4.5610     8.2720     0.7430 C.3   1 <1>   0.1380 
 14 C       -5.7060     6.5290    -0.7720 C.3   1 <1>  -0.1600 
 15 C       -3.3480     7.1480     2.7460 C.3   1 <1>  -0.1600 
 16 C       -3.3970     8.9400    -0.0590 C.2   1 <1>  -0.2760 
 17 C       -5.8780     9.0430     0.4720 C.3   1 <1>   0.1200 
 18 C       -4.2880     8.2860     2.2720 C.3   1 <1>  -0.1600 
 19 C       -7.0380     7.2740    -0.5660 C.3   1 <1>   0.1200 
 20 C       -2.3300     9.5670     0.4630 C.2   1 <1>  -0.2880 
 21 C       -3.4690     8.8400    -1.5890 C.3   1 <1>  -0.0220 
 22 O       -6.9740     8.1740     0.5060 O.3   1 <1>  -0.5600 
 23 C       -1.1830    10.1450    -0.3570 C.3   1 <1>   0.2580 
 24 C       -2.4620     9.7710    -2.2760 C.3   1 <1>   0.1200 
 25 O       -1.2190     9.6480    -1.6610 O.3   1 <1>  -0.5600 
 26 H        0.1960     2.5730     1.0660 H     1 <1>   0.4500 
 27 H        2.4040     4.7040    -0.6730 H     1 <1>   0.1500 
 28 H        1.4510     6.6270    -1.9730 H     1 <1>   0.1500 
 29 H       -1.0100     6.9030    -1.9160 H     1 <1>   0.1500 
 30 H       -5.3010     6.3320     1.2330 H     1 <1>   0.0800 
 31 H       -2.1380     5.5250     2.0300 H     1 <1>   0.0800 
 32 H       -1.7670     7.0600     1.3020 H     1 <1>   0.0800 
 33 H       -5.9110     5.4780    -0.8650 H     1 <1>   0.0800 
 34 H       -5.2760     6.8530    -1.6970 H     1 <1>   0.0800 
 35 H       -3.9360     6.4070     3.2590 H     1 <1>   0.0800 
 36 H       -2.6470     7.5360     3.4630 H     1 <1>   0.0800 
 37 H       -5.8770     9.5310    -0.4840 H     1 <1>   0.0800 
 38 H       -6.0330     9.7990     1.2210 H     1 <1>   0.0800 
 39 H       -3.9270     9.2450     2.5900 H     1 <1>   0.0800 
 40 H       -5.2260     8.1470     2.7840 H     1 <1>   0.0800 
 41 H       -7.8220     6.5730    -0.3400 H     1 <1>   0.0800 
 42 H       -7.3110     7.8210    -1.4520 H     1 <1>   0.0800 
 43 H       -2.1570     9.7170     1.5110 H     1 <1>   0.1500 
 44 H       -4.4440     9.0900    -1.9590 H     1 <1>   0.0800 
 45 H       -3.2530     7.8360    -1.8990 H     1 <1>   0.0800 
 46 H       -0.2380     9.8560     0.0670 H     1 <1>   0.0800 
 47 H       -1.2390    11.2200    -0.3940 H     1 <1>   0.0800 
 48 H       -2.7790    10.7980    -2.2080 H     1 <1>   0.0800 
 49 H       -2.3500     9.5050    -3.3120 H     1 <1>   0.0800 
@<TRIPOS>BOND
  1   1   2  1   
  2   1  26  1   
  3   2   3  ar  
  4   2   4  ar  
  5   3   5  ar  
  6   4   6  ar  
  7   4  27  1   
  8   5   7  1   
  9   5   8  ar  
 10   6   8  ar  
 11   6  28  1   
 12   7   9  2   
 13   7  10  am  
 14   8  29  1   
 15  10  11  1   
 16  10  12  1   
 17  11  13  1   
 18  11  14  1   
 19  11  30  1   
 20  12  15  1   
 21  12  31  1   
 22  12  32  1   
 23  13  16  1   
 24  13  17  1   
 25  13  18  1   
 26  14  19  1   
 27  14  33  1   
 28  14  34  1   
 29  15  18  1   
 30  15  35  1   
 31  15  36  1   
 32  16  20  2   
 33  16  21  1   
 34  17  22  1   
 35  17  37  1   
 36  17  38  1   
 37  18  39  1   
 38  18  40  1   
 39  19  22  1   
 40  19  41  1   
 41  19  42  1   
 42  20  23  1   
 43  20  43  1   
 44  21  24  1   
 45  21  44  1   
 46  21  45  1   
 47  23  25  1   
 48  23  46  1   
 49  23  47  1   
 50  24  25  1   
 51  24  48  1   
 52  24  49  1   
@<TRIPOS>SUBSTRUCTURE
  1 ****  10 GROUP 4 **** **** 0

# MOE 2024.06 (io_trps.svl 2023.06)
