@<TRIPOS>MOLECULE
NONAME
34 35 1 0 0 
SMALL
USER_CHARGES


@<TRIPOS>ATOM
  1 F       -0.7000    -0.1190    -1.3350 F     1 <1>  -0.1900 
  2 C       -1.6070    -0.9460    -0.8640 C.ar  1 <1>   0.1900 
  3 C       -2.7160    -0.5340    -0.1310 C.ar  1 <1>   0.3920 
  4 C       -1.4500    -2.2840    -1.1140 C.ar  1 <1>   0.1600 
  5 O       -3.0180     0.7440     0.1970 O.3   1 <1>  -0.3630 
  6 N       -3.5880    -1.4160     0.3100 N.ar  1 <1>  -0.6200 
  7 N       -2.3180    -3.1730    -0.6780 N.ar  1 <1>  -0.6200 
  8 C       -2.2130     1.8630    -0.1030 C.3   1 <1>   0.0400 
  9 C       -3.3380    -2.6800     0.0200 C.ar  1 <1>   0.7200 
 10 N       -4.2510    -3.5420     0.5070 N.pl3 1 <1>  -0.8690 
 11 C       -4.6170    -4.7770    -0.1890 C.3   1 <1>   0.4330 
 12 C       -6.1370    -4.8940    -0.1510 C.ar  1 <1>  -0.1430 
 13 C       -3.9180    -5.9600     0.4970 C.3   1 <1>  -0.1600 
 14 C       -6.8510    -4.9480     1.0320 C.ar  1 <1>  -0.1500 
 15 C       -6.8870    -4.9480    -1.3110 C.ar  1 <1>  -0.1500 
 16 C       -4.2360    -7.3140    -0.1580 C.3   1 <1>  -0.2400 
 17 C       -8.2310    -5.0560     0.9990 C.ar  1 <1>   0.1600 
 18 C       -8.2650    -5.0550    -1.2340 C.ar  1 <1>   0.1600 
 19 N       -8.9550    -5.1130    -0.1070 N.ar  1 <1>  -0.6200 
 20 H       -0.6020    -2.6280    -1.6790 H     1 <1>   0.1500 
 21 H       -2.6890     2.7340     0.3090 H     1 <1>   0.0800 
 22 H       -2.1350     1.9630    -1.1710 H     1 <1>   0.0800 
 23 H       -1.2450     1.7310     0.3460 H     1 <1>   0.0800 
 24 H       -5.0650    -3.0420     0.8600 H     1 <1>   0.4000 
 25 H       -4.2910    -4.7260    -1.2150 H     1 <1>   0.0800 
 26 H       -4.2030    -5.9930     1.5330 H     1 <1>   0.0800 
 27 H       -2.8560    -5.7970     0.4510 H     1 <1>   0.0800 
 28 H       -6.3440    -4.9080     1.9790 H     1 <1>   0.1500 
 29 H       -6.4130    -4.9070    -2.2750 H     1 <1>   0.1500 
 30 H       -5.2870    -7.5350    -0.0860 H     1 <1>   0.0800 
 31 H       -3.6910    -8.0970     0.3390 H     1 <1>   0.0800 
 32 H       -3.9530    -7.3050    -1.1950 H     1 <1>   0.0800 
 33 H       -8.7670    -5.0970     1.9310 H     1 <1>   0.1500 
 34 H       -8.8310    -5.0960    -2.1490 H     1 <1>   0.1500 
@<TRIPOS>BOND
  1   1   2  1   
  2   2   3  ar  
  3   2   4  ar  
  4   3   5  1   
  5   3   6  ar  
  6   4   7  ar  
  7   4  20  1   
  8   5   8  1   
  9   6   9  ar  
 10   7   9  ar  
 11   8  21  1   
 12   8  22  1   
 13   8  23  1   
 14   9  10  1   
 15  10  11  1   
 16  10  24  1   
 17  11  12  1   
 18  11  13  1   
 19  11  25  1   
 20  12  14  ar  
 21  12  15  ar  
 22  13  16  1   
 23  13  26  1   
 24  13  27  1   
 25  14  17  ar  
 26  14  28  1   
 27  15  18  ar  
 28  15  29  1   
 29  16  30  1   
 30  16  31  1   
 31  16  32  1   
 32  17  19  ar  
 33  17  33  1   
 34  18  19  ar  
 35  18  34  1   
@<TRIPOS>SUBSTRUCTURE
  1 ****  10 GROUP 4 **** **** 0

# MOE 2024.06 (io_trps.svl 2023.06)
