@<TRIPOS>MOLECULE
NONAME
48 51 1 0 0 
SMALL
USER_CHARGES


@<TRIPOS>ATOM
  1 N        0.0880    -0.5180     0.3750 N.ar  1 <1>  -0.6200 
  2 C        1.1290     0.1910    -0.0390 C.ar  1 <1>   0.7710 
  3 C        0.2940    -1.7450     0.7890 C.ar  1 <1>   0.4100 
  4 N        2.3730    -0.3200    -0.0230 N.ar  1 <1>  -0.1790 
  5 N        0.9460     1.4650    -0.4830 N.pl3 1 <1>  -0.8380 
  6 N       -0.8000    -2.4060     1.1800 N.pl3 1 <1>  -0.8690 
  7 C        1.5770    -2.3190     0.8210 C.ar  1 <1>  -0.1500 
  8 C        2.6320    -1.5790     0.4040 C.ar  1 <1>   0.2170 
  9 C        1.9540     2.3490    -1.1450 C.3   1 <1>   0.2090 
 10 C       -0.3770     2.1620    -0.3410 C.3   1 <1>   0.2090 
 11 C       -1.0440    -3.8380     1.4640 C.3   1 <1>   0.3900 
 12 C        4.0660    -2.0820     0.3950 C.3   1 <1>  -0.0970 
 13 C        2.1930     3.5820    -0.2690 C.3   1 <1>  -0.1600 
 14 C       -0.1960     3.4050     0.5350 C.3   1 <1>  -0.1600 
 15 C       -2.4520    -4.1990     1.0060 C.2   1 <1>   0.1080 
 16 C        0.8860     4.3460    -0.0160 C.3   1 <1>  -0.1600 
 17 N       -3.4750    -3.3870     1.0820 N.2   1 <1>  -0.7070 
 18 C       -2.8170    -5.4200     0.4500 C.2   1 <1>  -0.1810 
 19 N       -4.5150    -4.0860     0.5700 N.pl3 1 <1>   0.3000 
 20 C       -4.1160    -5.3130     0.1900 C.2   1 <1>  -0.3320 
 21 C       -2.2730    -6.7640     0.0490 C.3   1 <1>   0.0210 
 22 C       -4.7310    -6.5340    -0.4290 C.3   1 <1>   0.0200 
 23 C       -3.5400    -7.5240    -0.4230 C.3   1 <1>  -0.1600 
 24 H        3.1010     0.3110    -0.3260 H     1 <1>   0.4570 
 25 H       -1.7110    -1.9310     1.0880 H     1 <1>   0.4000 
 26 H        1.6890    -3.3230     1.1820 H     1 <1>   0.1500 
 27 H        1.5680     2.6640    -2.1020 H     1 <1>   0.0800 
 28 H        2.8840     1.8430    -1.3250 H     1 <1>   0.0800 
 29 H       -1.1290     1.5300     0.1010 H     1 <1>   0.0800 
 30 H       -0.7340     2.4510    -1.3160 H     1 <1>   0.0800 
 31 H       -0.9670    -4.0110     2.5230 H     1 <1>   0.0800 
 32 H       -0.3290    -4.4520     0.9470 H     1 <1>   0.0800 
 33 H        4.6830    -1.4690     1.0290 H     1 <1>   0.0800 
 34 H        4.4640    -2.0680    -0.6040 H     1 <1>   0.0800 
 35 H        4.1110    -3.0930     0.7600 H     1 <1>   0.0800 
 36 H        2.8960     4.2360    -0.7550 H     1 <1>   0.0800 
 37 H        2.6220     3.2780     0.6700 H     1 <1>   0.0800 
 38 H        0.0640     3.0920     1.5310 H     1 <1>   0.0800 
 39 H       -1.1320     3.9330     0.5970 H     1 <1>   0.0800 
 40 H        0.5400     4.7800    -0.9390 H     1 <1>   0.0800 
 41 H        1.0590     5.1490     0.6800 H     1 <1>   0.0800 
 42 H       -5.4620    -3.6970     0.4960 H     1 <1>   0.2700 
 43 H       -1.8090    -7.2580     0.8840 H     1 <1>   0.0800 
 44 H       -1.5680    -6.6520    -0.7570 H     1 <1>   0.0800 
 45 H       -5.0570    -6.3230    -1.4330 H     1 <1>   0.0800 
 46 H       -5.5510    -6.9020     0.1620 H     1 <1>   0.0800 
 47 H       -3.7490    -8.3250     0.2640 H     1 <1>   0.0800 
 48 H       -3.3890    -7.9400    -1.4030 H     1 <1>   0.0800 
@<TRIPOS>BOND
  1   1   2  ar  
  2   1   3  ar  
  3   2   4  ar  
  4   2   5  1   
  5   3   6  1   
  6   3   7  ar  
  7   4   8  ar  
  8   4  24  1   
  9   5   9  1   
 10   5  10  1   
 11   6  11  1   
 12   6  25  1   
 13   7   8  ar  
 14   7  26  1   
 15   8  12  1   
 16   9  13  1   
 17   9  27  1   
 18   9  28  1   
 19  10  14  1   
 20  10  29  1   
 21  10  30  1   
 22  11  15  1   
 23  11  31  1   
 24  11  32  1   
 25  12  33  1   
 26  12  34  1   
 27  12  35  1   
 28  13  16  1   
 29  13  36  1   
 30  13  37  1   
 31  14  16  1   
 32  14  38  1   
 33  14  39  1   
 34  15  17  2   
 35  15  18  1   
 36  16  40  1   
 37  16  41  1   
 38  17  19  1   
 39  18  20  2   
 40  18  21  1   
 41  19  20  1   
 42  19  42  1   
 43  20  22  1   
 44  21  23  1   
 45  21  43  1   
 46  21  44  1   
 47  22  23  1   
 48  22  45  1   
 49  22  46  1   
 50  23  47  1   
 51  23  48  1   
@<TRIPOS>SUBSTRUCTURE
  1 ****   3 GROUP 4 **** **** 0

# MOE 2024.06 (io_trps.svl 2023.06)
