@<TRIPOS>MOLECULE
NONAME
42 43 1 0 0 
SMALL
USER_CHARGES


@<TRIPOS>ATOM
  1 S        1.1530    -0.2910    -1.7260 S.3   1 <1>  -0.0800 
  2 C        1.5250     1.1450    -0.7620 C.ar  1 <1>   0.0400 
  3 C        0.8000    -1.2400    -0.2760 C.2   1 <1>  -0.1400 
  4 C        1.3800     0.8620     0.5870 C.ar  1 <1>   0.0000 
  5 C        1.9050     2.3850    -1.2400 C.ar  1 <1>  -0.1500 
  6 C        0.9750    -0.4950     0.8310 C.2   1 <1>  -0.1500 
  7 C        0.3820    -2.6920    -0.4790 C.3   1 <1>   0.4970 
  8 C        1.6330     1.8810     1.5000 C.ar  1 <1>  -0.1500 
  9 C        2.1500     3.3870    -0.3180 C.ar  1 <1>  -0.1500 
 10 N       -1.1340    -2.7660    -0.5960 N.4   1 <1>  -0.9590 
 11 C        0.8610    -3.5950     0.6850 C.2   1 <1>   0.9060 
 12 C        2.0140     3.1330     1.0450 C.ar  1 <1>  -0.1500 
 13 C       -1.5360    -4.1750    -0.8710 C.3   1 <1>   0.3430 
 14 C       -1.7700    -1.7750    -1.5070 C.3   1 <1>   0.2630 
 15 O        0.2190    -3.5340     1.7460 O.co2 1 <1>  -0.9000 
 16 O        1.6890    -4.4830     0.4670 O.co2 1 <1>  -0.9000 
 17 C       -2.5650    -4.6280     0.1490 C.3   1 <1>  -0.0990 
 18 C       -2.7750    -6.1040    -0.0750 C.2   1 <1>   0.5690 
 19 O       -3.7130    -6.4040    -0.7740 O.2   1 <1>  -0.5700 
 20 N       -1.9030    -7.0360     0.4340 N.am  1 <1>  -0.6600 
 21 C       -0.6890    -6.7280     1.2560 C.3   1 <1>   0.0600 
 22 C       -2.0770    -8.4890     0.1530 C.3   1 <1>   0.0600 
 23 H        2.0060     2.5580    -2.2970 H     1 <1>   0.1500 
 24 H        0.8380    -0.8420     1.8430 H     1 <1>   0.1500 
 25 H        0.8430    -3.0660    -1.3750 H     1 <1>   0.0800 
 26 H        1.5320     1.6890     2.5530 H     1 <1>   0.1500 
 27 H        2.4480     4.3660    -0.6510 H     1 <1>   0.1500 
 28 H       -1.3960    -2.5830     0.3910 H     1 <1>   0.4500 
 29 H        2.2100     3.9210     1.7520 H     1 <1>   0.1500 
 30 H       -0.6790    -4.8280    -0.7960 H     1 <1>   0.0800 
 31 H       -1.9370    -4.2710    -1.8660 H     1 <1>   0.0800 
 32 H       -1.4080    -1.9090    -2.5130 H     1 <1>   0.0800 
 33 H       -1.5360    -0.7720    -1.1860 H     1 <1>   0.0800 
 34 H       -2.8400    -1.8960    -1.5000 H     1 <1>   0.0800 
 35 H       -3.4940    -4.1130    -0.0080 H     1 <1>   0.0800 
 36 H       -2.2360    -4.4480     1.1540 H     1 <1>   0.0800 
 37 H       -0.8340    -5.8620     1.8760 H     1 <1>   0.0800 
 38 H        0.1590    -6.5580     0.6150 H     1 <1>   0.0800 
 39 H       -0.4620    -7.5550     1.9060 H     1 <1>   0.0800 
 40 H       -2.9290    -8.6620    -0.4820 H     1 <1>   0.0800 
 41 H       -2.2260    -9.0200     1.0770 H     1 <1>   0.0800 
 42 H       -1.1990    -8.8710    -0.3380 H     1 <1>   0.0800 
@<TRIPOS>BOND
  1   1   2  1   
  2   1   3  1   
  3   2   4  ar  
  4   2   5  ar  
  5   3   6  2   
  6   3   7  1   
  7   4   6  1   
  8   4   8  ar  
  9   5   9  ar  
 10   5  23  1   
 11   6  24  1   
 12   7  10  1   
 13   7  11  1   
 14   7  25  1   
 15   8  12  ar  
 16   8  26  1   
 17   9  12  ar  
 18   9  27  1   
 19  10  13  1   
 20  10  14  1   
 21  10  28  1   
 22  11  15  ar  
 23  11  16  ar  
 24  12  29  1   
 25  13  17  1   
 26  13  30  1   
 27  13  31  1   
 28  14  32  1   
 29  14  33  1   
 30  14  34  1   
 31  17  18  1   
 32  17  35  1   
 33  17  36  1   
 34  18  19  2   
 35  18  20  am  
 36  20  21  1   
 37  20  22  1   
 38  21  37  1   
 39  21  38  1   
 40  21  39  1   
 41  22  40  1   
 42  22  41  1   
 43  22  42  1   
@<TRIPOS>SUBSTRUCTURE
  1 ****   7 GROUP 4 **** **** 0

# MOE 2024.06 (io_trps.svl 2023.06)
