@<TRIPOS>MOLECULE
NONAME
44 46 1 0 0 
SMALL
USER_CHARGES


@<TRIPOS>ATOM
  1 O       -0.6430    -1.7520    -0.6930 O.2   1 <1>  -0.5700 
  2 C        0.4880    -2.1780    -0.5780 C.2   1 <1>   0.6900 
  3 N        0.9400    -2.7750     0.5860 N.am  1 <1>  -0.4690 
  4 N        1.3410    -2.0810    -1.6290 N.am  1 <1>  -0.4900 
  5 C        2.2220    -3.3080     0.6520 C.2   1 <1>  -0.0410 
  6 C        0.0380    -2.9020     1.7740 C.3   1 <1>   0.2010 
  7 C        2.6110    -2.5690    -1.6060 C.2   1 <1>   0.6160 
  8 C        3.0590    -3.2180    -0.4090 C.2   1 <1>  -0.1240 
  9 C       -0.4000    -4.3440     2.0170 C.2   1 <1>   0.5690 
 10 O        3.2930    -2.4300    -2.6010 O.2   1 <1>  -0.5700 
 11 C        4.4690    -3.7920    -0.3720 C.3   1 <1>  -0.1020 
 12 O        0.1900    -4.9740     2.8640 O.2   1 <1>  -0.5700 
 13 N       -1.4270    -4.9040     1.3040 N.am  1 <1>  -0.6600 
 14 C       -2.2610    -4.2400     0.2710 C.3   1 <1>   0.1400 
 15 C       -1.7870    -6.3400     1.4130 C.3   1 <1>   0.1400 
 16 C       -3.4300    -5.1990     0.0550 C.3   1 <1>   0.2000 
 17 C       -2.8380    -6.5870     0.3170 C.3   1 <1>  -0.0800 
 18 O       -4.3860    -4.9540     1.0270 O.3   1 <1>  -0.6800 
 19 C       -2.2140    -7.1650    -0.9690 C.3   1 <1>  -0.0170 
 20 C       -1.7180    -8.5900    -0.7750 C.ar  1 <1>   0.1670 
 21 N       -0.4280    -8.7410    -0.5240 N.ar  1 <1>  -0.6200 
 22 C       -2.6130    -9.6550    -0.8680 C.ar  1 <1>   0.1600 
 23 C       -0.0970   -10.0120    -0.3700 C.ar  1 <1>   0.1600 
 24 N       -2.2850   -10.9270    -0.7140 N.ar  1 <1>  -0.6200 
 25 C       -0.9940   -11.0690    -0.4620 C.ar  1 <1>   0.1600 
 26 H        1.0200    -1.6250    -2.4730 H     1 <1>   0.3700 
 27 H        2.5070    -3.7920     1.5750 H     1 <1>   0.1500 
 28 H        0.5690    -2.5590     2.6440 H     1 <1>   0.0800 
 29 H       -0.8280    -2.2780     1.6630 H     1 <1>   0.0800 
 30 H        4.5830    -4.5310    -1.1460 H     1 <1>   0.0800 
 31 H        4.6750    -4.2530     0.5780 H     1 <1>   0.0800 
 32 H        5.1870    -3.0090    -0.5390 H     1 <1>   0.0800 
 33 H       -2.5980    -3.2650     0.5780 H     1 <1>   0.0800 
 34 H       -1.6900    -4.1530    -0.6380 H     1 <1>   0.0800 
 35 H       -0.9120    -6.9560     1.3000 H     1 <1>   0.0800 
 36 H       -2.2110    -6.5190     2.3870 H     1 <1>   0.0800 
 37 H       -3.8940    -5.0920    -0.9100 H     1 <1>   0.0800 
 38 H       -3.5970    -7.2660     0.6640 H     1 <1>   0.0800 
 39 H       -3.9470    -4.9190     1.9000 H     1 <1>   0.4000 
 40 H       -1.3930    -6.5490    -1.2950 H     1 <1>   0.0800 
 41 H       -2.9480    -7.1650    -1.7540 H     1 <1>   0.0800 
 42 H       -3.6470    -9.4460    -1.0780 H     1 <1>   0.1500 
 43 H        0.9360   -10.2280    -0.1610 H     1 <1>   0.1500 
 44 H       -0.6290   -12.0700    -0.3200 H     1 <1>   0.1500 
@<TRIPOS>BOND
  1   1   2  2   
  2   2   3  am  
  3   2   4  am  
  4   3   5  1   
  5   3   6  1   
  6   4   7  am  
  7   4  26  1   
  8   5   8  2   
  9   5  27  1   
 10   6   9  1   
 11   6  28  1   
 12   6  29  1   
 13   7   8  1   
 14   7  10  2   
 15   8  11  1   
 16   9  12  2   
 17   9  13  am  
 18  11  30  1   
 19  11  31  1   
 20  11  32  1   
 21  13  14  1   
 22  13  15  1   
 23  14  16  1   
 24  14  33  1   
 25  14  34  1   
 26  15  17  1   
 27  15  35  1   
 28  15  36  1   
 29  16  17  1   
 30  16  18  1   
 31  16  37  1   
 32  17  19  1   
 33  17  38  1   
 34  18  39  1   
 35  19  20  1   
 36  19  40  1   
 37  19  41  1   
 38  20  21  ar  
 39  20  22  ar  
 40  21  23  ar  
 41  22  24  ar  
 42  22  42  1   
 43  23  25  ar  
 44  23  43  1   
 45  24  25  ar  
 46  25  44  1   
@<TRIPOS>SUBSTRUCTURE
  1 ****  13 GROUP 4 **** **** 0

# MOE 2024.06 (io_trps.svl 2023.06)
