@<TRIPOS>MOLECULE
NONAME
52 55 1 0 0 
SMALL
USER_CHARGES


@<TRIPOS>ATOM
  1 CL      -0.5500    -0.1340    -0.3690 Cl    1 <1>  -0.1770 
  2 C       -2.2000     0.4030    -0.2040 C.ar  1 <1>   0.1770 
  3 C       -2.9830    -0.1020     0.8170 C.ar  1 <1>  -0.1500 
  4 C       -2.7070     1.3300    -1.0940 C.ar  1 <1>  -0.1500 
  5 C       -4.2920     0.3270     0.9430 C.ar  1 <1>  -0.1500 
  6 C       -4.0180     1.7510    -0.9590 C.ar  1 <1>  -0.1500 
  7 C       -4.8410     1.2570     0.0570 C.ar  1 <1>   0.0530 
  8 C       -6.2080     1.7000     0.1740 C.2   1 <1>   0.0870 
  9 O       -6.5660     2.8880    -0.2460 O.3   1 <1>  -0.0190 
 10 C       -7.3290     1.1040     0.6530 C.2   1 <1>  -0.0860 
 11 N       -7.8410     3.1270    -0.0770 N.2   1 <1>  -0.4100 
 12 C       -8.3200     2.0680     0.4740 C.2   1 <1>   0.3720 
 13 C       -7.5580    -0.1990     1.1800 C.2   1 <1>   0.7160 
 14 N       -9.6540     1.8870     0.8360 N.pl3 1 <1>  -0.8520 
 15 O       -7.3760    -0.4170     2.3640 O.2   1 <1>  -0.5700 
 16 N       -7.9960    -1.2200     0.3730 N.am  1 <1>  -0.6600 
 17 C      -10.5480     3.0770     0.8070 C.3   1 <1>   0.2090 
 18 C       -8.5050    -2.5030     0.9200 C.3   1 <1>   0.1400 
 19 C       -8.4430    -1.0520    -1.0350 C.3   1 <1>   0.1400 
 20 C      -12.0070     2.6300     0.9020 C.3   1 <1>   0.1200 
 21 C       -9.1120    -3.2160    -0.2880 C.3   1 <1>  -0.0800 
 22 C       -9.5830    -2.0600    -1.1820 C.3   1 <1>  -0.0800 
 23 O      -12.8220     3.7590     0.9450 O.3   1 <1>  -0.5600 
 24 C      -10.1860    -4.2660     0.0510 C.3   1 <1>  -0.0220 
 25 C      -10.9080    -1.4150    -0.7130 C.3   1 <1>  -0.0220 
 26 C      -14.1820     3.4710     1.0030 C.3   1 <1>   0.0400 
 27 C      -11.5790    -3.6770     0.1720 C.2   1 <1>  -0.2880 
 28 C      -11.8960    -2.4260    -0.1640 C.2   1 <1>  -0.2880 
 29 H       -2.5680    -0.8190     1.5020 H     1 <1>   0.1500 
 30 H       -2.0800     1.7140    -1.8780 H     1 <1>   0.1500 
 31 H       -4.8890    -0.0640     1.7480 H     1 <1>   0.1500 
 32 H       -4.4120     2.4740    -1.6530 H     1 <1>   0.1500 
 33 H       -9.7250     1.3930     1.7320 H     1 <1>   0.4000 
 34 H      -10.3100     3.7240     1.6350 H     1 <1>   0.0800 
 35 H      -10.4070     3.6180    -0.1130 H     1 <1>   0.0800 
 36 H       -7.7060    -3.0740     1.3640 H     1 <1>   0.0800 
 37 H       -9.2600    -2.2990     1.6610 H     1 <1>   0.0800 
 38 H       -8.7720    -0.0480    -1.2430 H     1 <1>   0.0800 
 39 H       -7.6310    -1.3070    -1.6930 H     1 <1>   0.0800 
 40 H      -12.1660     2.0610     1.8000 H     1 <1>   0.0800 
 41 H      -12.2680     2.0480     0.0350 H     1 <1>   0.0800 
 42 H       -8.3030    -3.7250    -0.7830 H     1 <1>   0.0800 
 43 H       -9.6880    -2.3890    -2.2010 H     1 <1>   0.0800 
 44 H      -10.2100    -5.0040    -0.7320 H     1 <1>   0.0800 
 45 H       -9.9230    -4.7690     0.9650 H     1 <1>   0.0800 
 46 H      -10.7230    -0.6910     0.0630 H     1 <1>   0.0800 
 47 H      -11.3520    -0.8930    -1.5420 H     1 <1>   0.0800 
 48 H      -14.7200     4.4020     1.0350 H     1 <1>   0.0800 
 49 H      -14.3880     2.9020     1.8940 H     1 <1>   0.0800 
 50 H      -14.4660     2.9170     0.1250 H     1 <1>   0.0800 
 51 H      -12.3020    -4.3780     0.5550 H     1 <1>   0.1500 
 52 H      -12.8930    -2.0310    -0.0600 H     1 <1>   0.1500 
@<TRIPOS>BOND
  1   1   2  1   
  2   2   3  ar  
  3   2   4  ar  
  4   3   5  ar  
  5   3  29  1   
  6   4   6  ar  
  7   4  30  1   
  8   5   7  ar  
  9   5  31  1   
 10   6   7  ar  
 11   6  32  1   
 12   7   8  1   
 13   8   9  1   
 14   8  10  2   
 15   9  11  1   
 16  10  12  1   
 17  10  13  1   
 18  11  12  2   
 19  12  14  1   
 20  13  15  2   
 21  13  16  am  
 22  14  17  1   
 23  14  33  1   
 24  16  18  1   
 25  16  19  1   
 26  17  20  1   
 27  17  34  1   
 28  17  35  1   
 29  18  21  1   
 30  18  36  1   
 31  18  37  1   
 32  19  22  1   
 33  19  38  1   
 34  19  39  1   
 35  20  23  1   
 36  20  40  1   
 37  20  41  1   
 38  21  22  1   
 39  21  24  1   
 40  21  42  1   
 41  22  25  1   
 42  22  43  1   
 43  23  26  1   
 44  24  27  1   
 45  24  44  1   
 46  24  45  1   
 47  25  28  1   
 48  25  46  1   
 49  25  47  1   
 50  26  48  1   
 51  26  49  1   
 52  26  50  1   
 53  27  28  2   
 54  27  51  1   
 55  28  52  1   
@<TRIPOS>SUBSTRUCTURE
  1 ****  10 GROUP 4 **** **** 0

# MOE 2024.06 (io_trps.svl 2023.06)
