@<TRIPOS>MOLECULE
NONAME
55 58 1 0 0 
SMALL
USER_CHARGES


@<TRIPOS>ATOM
  1 O        0.3210    -1.0790     1.8600 O.3   1 <1>  -0.5320 
  2 C        0.0210    -2.2850     1.3580 C.ar  1 <1>   0.0830 
  3 C       -1.0270    -2.4540     0.4940 C.ar  1 <1>  -0.1500 
  4 C        0.8110    -3.3740     1.7400 C.ar  1 <1>  -0.1500 
  5 C       -1.3330    -3.7270    -0.0260 C.ar  1 <1>   0.0000 
  6 C        0.5350    -4.6190     1.2470 C.ar  1 <1>  -0.1500 
  7 C       -0.5400    -4.8300     0.3580 C.ar  1 <1>   0.0000 
  8 C       -2.4000    -3.9430    -0.9200 C.ar  1 <1>  -0.1500 
  9 C       -0.8520    -6.1030    -0.1600 C.ar  1 <1>  -0.1500 
 10 C       -2.6820    -5.1890    -1.4060 C.ar  1 <1>  -0.1500 
 11 C       -1.9060    -6.2920    -1.0160 C.ar  1 <1>  -0.1430 
 12 C       -2.2500    -7.6710    -1.5420 C.3   1 <1>   0.4860 
 13 N       -2.9500    -8.4220    -0.4560 N.4   1 <1>  -0.9590 
 14 C       -3.0810    -9.8860    -0.7970 C.3   1 <1>   0.3430 
 15 C       -4.2740    -7.7900    -0.1640 C.3   1 <1>   0.3430 
 16 C       -3.8660   -10.7170     0.2710 C.3   1 <1>   0.4230 
 17 C       -4.9750    -8.5510     0.9660 C.3   1 <1>  -0.1600 
 18 N       -3.9850   -12.2150    -0.0140 N.4   1 <1>  -0.9590 
 19 C       -5.2200   -10.0540     0.6620 C.3   1 <1>   0.0000 
 20 C       -5.0210   -12.9110     0.8250 C.3   1 <1>   0.3430 
 21 C       -4.2140   -12.5730    -1.4560 C.3   1 <1>   0.2630 
 22 C       -5.7400   -10.7320     1.9620 C.3   1 <1>  -0.1600 
 23 C       -6.3230   -10.1850    -0.4290 C.3   1 <1>   0.1200 
 24 C       -5.2450   -12.1810     2.1500 C.3   1 <1>  -0.1600 
 25 O       -5.8500    -9.8300    -1.6840 O.3   1 <1>  -0.6800 
 26 H       -0.2640    -0.3680     1.5440 H     1 <1>   0.4500 
 27 H       -1.6340    -1.6190     0.1980 H     1 <1>   0.1500 
 28 H        1.6270    -3.2020     2.4180 H     1 <1>   0.1500 
 29 H        1.1440    -5.4560     1.5370 H     1 <1>   0.1500 
 30 H       -2.9910    -3.0950    -1.2190 H     1 <1>   0.1500 
 31 H       -0.2210    -6.9190     0.1450 H     1 <1>   0.1500 
 32 H       -3.5010    -5.3160    -2.0950 H     1 <1>   0.1500 
 33 H       -1.3390    -8.1760    -1.8190 H     1 <1>   0.0800 
 34 H       -2.8780    -7.5910    -2.4150 H     1 <1>   0.0800 
 35 H       -2.3660    -8.2850     0.3810 H     1 <1>   0.4500 
 36 H       -3.5900    -9.9730    -1.7410 H     1 <1>   0.0800 
 37 H       -2.0980   -10.3110    -0.9090 H     1 <1>   0.0800 
 38 H       -4.1350    -6.7620     0.1350 H     1 <1>   0.0800 
 39 H       -4.8910    -7.7970    -1.0490 H     1 <1>   0.0800 
 40 H       -3.2660   -10.6420     1.1620 H     1 <1>   0.0800 
 41 H       -4.3800    -8.4350     1.8550 H     1 <1>   0.0800 
 42 H       -5.9170    -8.0660     1.1640 H     1 <1>   0.0800 
 43 H       -3.0880   -12.6440     0.2620 H     1 <1>   0.4500 
 44 H       -5.9580   -12.9480     0.2940 H     1 <1>   0.0800 
 45 H       -4.7160   -13.9290     1.0170 H     1 <1>   0.0800 
 46 H       -5.1410   -12.1520    -1.8090 H     1 <1>   0.0800 
 47 H       -4.2650   -13.6450    -1.5700 H     1 <1>   0.0800 
 48 H       -3.4110   -12.2090    -2.0750 H     1 <1>   0.0800 
 49 H       -5.4370   -10.1790     2.8360 H     1 <1>   0.0800 
 50 H       -6.8190   -10.7230     1.9710 H     1 <1>   0.0800 
 51 H       -7.1590    -9.5450    -0.1950 H     1 <1>   0.0800 
 52 H       -6.6940   -11.1930    -0.4960 H     1 <1>   0.0800 
 53 H       -5.9690   -12.7260     2.7330 H     1 <1>   0.0800 
 54 H       -4.3270   -12.1900     2.7130 H     1 <1>   0.0800 
 55 H       -6.6000    -9.7650    -2.3220 H     1 <1>   0.4000 
@<TRIPOS>BOND
  1   1   2  1   
  2   1  26  1   
  3   2   3  ar  
  4   2   4  ar  
  5   3   5  ar  
  6   3  27  1   
  7   4   6  ar  
  8   4  28  1   
  9   5   7  ar  
 10   5   8  ar  
 11   6   7  ar  
 12   6  29  1   
 13   7   9  ar  
 14   8  10  ar  
 15   8  30  1   
 16   9  11  ar  
 17   9  31  1   
 18  10  11  ar  
 19  10  32  1   
 20  11  12  1   
 21  12  13  1   
 22  12  33  1   
 23  12  34  1   
 24  13  14  1   
 25  13  15  1   
 26  13  35  1   
 27  14  16  1   
 28  14  36  1   
 29  14  37  1   
 30  15  17  1   
 31  15  38  1   
 32  15  39  1   
 33  16  18  1   
 34  16  19  1   
 35  16  40  1   
 36  17  19  1   
 37  17  41  1   
 38  17  42  1   
 39  18  20  1   
 40  18  21  1   
 41  18  43  1   
 42  19  22  1   
 43  19  23  1   
 44  20  24  1   
 45  20  44  1   
 46  20  45  1   
 47  21  46  1   
 48  21  47  1   
 49  21  48  1   
 50  22  24  1   
 51  22  49  1   
 52  22  50  1   
 53  23  25  1   
 54  23  51  1   
 55  23  52  1   
 56  24  53  1   
 57  24  54  1   
 58  25  55  1   
@<TRIPOS>SUBSTRUCTURE
  1 ****  13 GROUP 4 **** **** 0

# MOE 2024.06 (io_trps.svl 2023.06)
