@<TRIPOS>MOLECULE
NONAME
47 50 1 0 0 
SMALL
USER_CHARGES


@<TRIPOS>ATOM
  1 O       -3.4290    -2.8070    -2.4180 O.2   1 <1>  -0.5700 
  2 C       -3.0520    -2.5230    -1.3050 C.2   1 <1>   0.5690 
  3 N       -2.7710    -1.2320    -0.9350 N.am  1 <1>  -0.6600 
  4 C       -2.9370    -3.6520    -0.2950 C.3   1 <1>  -0.0190 
  5 C       -2.4480    -0.8670     0.4870 C.3   1 <1>   0.2200 
  6 C       -2.9570    -0.0870    -1.8690 C.3   1 <1>   0.0600 
  7 C       -1.5030    -3.7600     0.2420 C.3   1 <1>   0.1200 
  8 C       -3.9980    -3.5600     0.8200 C.3   1 <1>   0.1400 
  9 C       -1.1210    -1.5200     0.9260 C.3   1 <1>   0.1200 
 10 C       -3.6070    -1.1680     1.4770 C.3   1 <1>   0.1400 
 11 O       -1.2680    -2.8630     1.2840 O.3   1 <1>  -0.5600 
 12 N       -4.5800    -2.1870     0.9610 N.am  1 <1>  -0.6600 
 13 C       -5.7800    -1.7640     0.4310 C.2   1 <1>   0.5690 
 14 O       -6.2680    -0.7070     0.7620 O.2   1 <1>  -0.5700 
 15 C       -6.5240    -2.5330    -0.6500 C.3   1 <1>   0.1570 
 16 N       -7.0720    -3.8220    -0.1850 N.pl3 1 <1>   0.0480 
 17 C       -6.7940    -5.0350    -0.7370 C.ar  1 <1>  -0.1520 
 18 C       -7.8960    -4.0840     0.8700 C.2   1 <1>   0.0060 
 19 C       -7.4700    -5.9570     0.0380 C.ar  1 <1>   0.2270 
 20 C       -6.0120    -5.4420    -1.8240 C.ar  1 <1>  -0.1500 
 21 N       -8.1530    -5.3330     1.0350 N.2   1 <1>  -0.5650 
 22 C       -8.4620    -3.0070     1.7750 C.3   1 <1>  -0.0600 
 23 C       -7.3780    -7.3160    -0.2550 C.ar  1 <1>  -0.1500 
 24 C       -5.9260    -6.7880    -2.1050 C.ar  1 <1>  -0.1500 
 25 C       -6.6080    -7.7260    -1.3210 C.ar  1 <1>  -0.1500 
 26 H       -3.1190    -4.5670    -0.8290 H     1 <1>   0.0800 
 27 H       -2.2760     0.1940     0.5230 H     1 <1>   0.0800 
 28 H       -2.0620     0.5100    -1.8990 H     1 <1>   0.0800 
 29 H       -3.7810     0.5210    -1.5370 H     1 <1>   0.0800 
 30 H       -3.1670    -0.4360    -2.8650 H     1 <1>   0.0800 
 31 H       -0.7770    -3.5990    -0.5370 H     1 <1>   0.0800 
 32 H       -1.3490    -4.7460     0.6470 H     1 <1>   0.0800 
 33 H       -3.5630    -3.8480     1.7620 H     1 <1>   0.0800 
 34 H       -4.7720    -4.2750     0.6290 H     1 <1>   0.0800 
 35 H       -0.7560    -1.0120     1.8000 H     1 <1>   0.0800 
 36 H       -0.3760    -1.4360     0.1530 H     1 <1>   0.0800 
 37 H       -4.1220    -0.2450     1.6770 H     1 <1>   0.0800 
 38 H       -3.2100    -1.5030     2.4190 H     1 <1>   0.0800 
 39 H       -5.8590    -2.7020    -1.4730 H     1 <1>   0.0800 
 40 H       -7.3400    -1.9330    -1.0050 H     1 <1>   0.0800 
 41 H       -5.4870    -4.7210    -2.4280 H     1 <1>   0.1500 
 42 H       -9.2180    -3.4290     2.4130 H     1 <1>   0.0800 
 43 H       -8.9050    -2.2200     1.1930 H     1 <1>   0.0800 
 44 H       -7.6850    -2.5970     2.3930 H     1 <1>   0.0800 
 45 H       -7.9140    -8.0110     0.3650 H     1 <1>   0.1500 
 46 H       -5.3330    -7.1300    -2.9350 H     1 <1>   0.1500 
 47 H       -6.5270    -8.7720    -1.5610 H     1 <1>   0.1500 
@<TRIPOS>BOND
  1   1   2  2   
  2   2   3  am  
  3   2   4  1   
  4   3   5  1   
  5   3   6  1   
  6   4   7  1   
  7   4   8  1   
  8   4  26  1   
  9   5   9  1   
 10   5  10  1   
 11   5  27  1   
 12   6  28  1   
 13   6  29  1   
 14   6  30  1   
 15   7  11  1   
 16   7  31  1   
 17   7  32  1   
 18   8  12  1   
 19   8  33  1   
 20   8  34  1   
 21   9  11  1   
 22   9  35  1   
 23   9  36  1   
 24  10  12  1   
 25  10  37  1   
 26  10  38  1   
 27  12  13  am  
 28  13  14  2   
 29  13  15  1   
 30  15  16  1   
 31  15  39  1   
 32  15  40  1   
 33  16  17  1   
 34  16  18  1   
 35  17  19  ar  
 36  17  20  ar  
 37  18  21  2   
 38  18  22  1   
 39  19  21  1   
 40  19  23  ar  
 41  20  24  ar  
 42  20  41  1   
 43  22  42  1   
 44  22  43  1   
 45  22  44  1   
 46  23  25  ar  
 47  23  45  1   
 48  24  25  ar  
 49  24  46  1   
 50  25  47  1   
@<TRIPOS>SUBSTRUCTURE
  1 ****   8 GROUP 4 **** **** 0

# MOE 2024.06 (io_trps.svl 2023.06)
