@<TRIPOS>MOLECULE
NONAME
33 33 1 0 0 
SMALL
USER_CHARGES


@<TRIPOS>ATOM
  1 CL      -0.8250     0.2460    -1.9740 Cl    1 <1>  -0.1770 
  2 C       -1.9440    -0.6740    -0.9970 C.ar  1 <1>   0.1770 
  3 C       -1.7940    -2.0450    -0.9030 C.ar  1 <1>  -0.1500 
  4 C       -2.9580    -0.0130    -0.3350 C.ar  1 <1>  -0.1500 
  5 C       -2.6740    -2.8060    -0.1400 C.ar  1 <1>  -0.1440 
  6 C       -3.8390    -0.7530     0.4320 C.ar  1 <1>  -0.1500 
  7 C       -3.7080    -2.1340     0.5240 C.ar  1 <1>   0.0820 
  8 C       -2.4090    -4.3280    -0.0960 C.3   1 <1>   0.2280 
  9 O       -4.6110    -2.7780     1.2900 O.3   1 <1>  -0.3630 
 10 N       -3.6480    -5.1370    -0.4490 N.3   1 <1>  -0.8100 
 11 C       -1.5150    -4.8160     1.0900 C.2   1 <1>   0.9060 
 12 C       -5.8810    -2.9740     0.7110 C.3   1 <1>   0.0400 
 13 C       -4.1550    -5.8490     0.7700 C.3   1 <1>   0.1710 
 14 C       -3.3370    -6.0940    -1.5170 C.3   1 <1>   0.0300 
 15 O       -0.9520    -5.9190     0.9700 O.co2 1 <1>  -0.9000 
 16 O       -1.3600    -4.1450     2.1200 O.co2 1 <1>  -0.9000 
 17 C       -5.4560    -6.6480     0.5920 C.2   1 <1>   0.5690 
 18 O       -6.5410    -6.1340     0.7200 O.2   1 <1>  -0.5700 
 19 N       -5.3840    -7.9670     0.3100 N.am  1 <1>  -0.8000 
 20 H       -0.9790    -2.5080    -1.4250 H     1 <1>   0.1500 
 21 H       -3.0510     1.0530    -0.4160 H     1 <1>   0.1500 
 22 H       -4.6310    -0.2670     0.9700 H     1 <1>   0.1500 
 23 H       -1.7350    -4.4820    -0.9170 H     1 <1>   0.0800 
 24 H       -6.4720    -3.5600     1.3900 H     1 <1>   0.0800 
 25 H       -5.7600    -3.5050    -0.2170 H     1 <1>   0.0800 
 26 H       -6.3440    -2.0200     0.5410 H     1 <1>   0.0800 
 27 H       -4.3100    -5.1420     1.5630 H     1 <1>   0.0800 
 28 H       -3.4060    -6.5390     1.1160 H     1 <1>   0.0800 
 29 H       -2.9770    -5.5660    -2.3830 H     1 <1>   0.0800 
 30 H       -4.2210    -6.6360    -1.8020 H     1 <1>   0.0800 
 31 H       -2.5790    -6.7860    -1.1870 H     1 <1>   0.0800 
 32 H       -6.2410    -8.5060     0.1980 H     1 <1>   0.3700 
 33 H       -4.4950    -8.4560     0.2050 H     1 <1>   0.3700 
@<TRIPOS>BOND
  1   1   2  1   
  2   2   3  ar  
  3   2   4  ar  
  4   3   5  ar  
  5   3  20  1   
  6   4   6  ar  
  7   4  21  1   
  8   5   7  ar  
  9   5   8  1   
 10   6   7  ar  
 11   6  22  1   
 12   7   9  1   
 13   8  10  1   
 14   8  11  1   
 15   8  23  1   
 16   9  12  1   
 17  10  13  1   
 18  10  14  1   
 19  11  15  ar  
 20  11  16  ar  
 21  12  24  1   
 22  12  25  1   
 23  12  26  1   
 24  13  17  1   
 25  13  27  1   
 26  13  28  1   
 27  14  29  1   
 28  14  30  1   
 29  14  31  1   
 30  17  18  2   
 31  17  19  am  
 32  19  32  1   
 33  19  33  1   
@<TRIPOS>SUBSTRUCTURE
  1 ****   8 GROUP 4 **** **** 0

# MOE 2024.06 (io_trps.svl 2023.06)
