@<TRIPOS>MOLECULE
NONAME
54 57 1 0 0 
SMALL
USER_CHARGES


@<TRIPOS>ATOM
  1 O        0.4480     1.8880     1.0860 O.2   1 <1>  -0.5700 
  2 C        0.3800     2.7510     0.2410 C.2   1 <1>   0.5690 
  3 N       -0.7970     3.3970    -0.0390 N.am  1 <1>  -0.6600 
  4 C        1.6490     3.1090    -0.5280 C.3   1 <1>  -0.0990 
  5 C       -2.0650     3.0330     0.6680 C.3   1 <1>   0.1400 
  6 C       -0.9990     4.4370    -1.0840 C.3   1 <1>   0.1400 
  7 C        2.8900     2.2850    -0.1290 C.3   1 <1>  -0.1600 
  8 C       -3.1100     2.4760    -0.3320 C.3   1 <1>   0.0000 
  9 C       -2.0040     3.9270    -2.1240 C.3   1 <1>  -0.1600 
 10 C        4.1290     2.6840    -0.9430 C.3   1 <1>   0.0200 
 11 C       -4.4310     2.1270     0.3760 C.3   1 <1>   0.2000 
 12 C       -3.3300     3.4990    -1.4700 C.3   1 <1>  -0.1600 
 13 C       -2.6690     1.0990    -0.8590 C.3   1 <1>  -0.1600 
 14 C        5.3500     1.8830    -0.5320 C.2   1 <1>   0.2980 
 15 O       -4.7720     3.0910     1.3280 O.3   1 <1>  -0.5600 
 16 C       -4.2060     0.7550     1.0200 C.3   1 <1>  -0.1600 
 17 C       -3.0640     0.0990     0.2310 C.3   1 <1>  -0.1600 
 18 O        5.3790     0.6020    -0.7890 O.3   1 <1>  -0.0190 
 19 N        6.3780     2.3490     0.0460 N.2   1 <1>  -0.5650 
 20 C       -6.0790     3.0140     1.8000 C.3   1 <1>   0.0400 
 21 N        6.5280     0.2140    -0.3320 N.2   1 <1>  -0.4100 
 22 C        7.1210     1.2420     0.1650 C.2   1 <1>   0.5150 
 23 C        8.4290     1.2680     0.7850 C.2   1 <1>   0.1410 
 24 O        9.1670     0.1660     0.8880 O.3   1 <1>  -0.2800 
 25 C        9.1190     2.3020     1.3400 C.2   1 <1>  -0.1500 
 26 C       10.2990     0.4700     1.4880 C.2   1 <1>  -0.0100 
 27 C       10.3330     1.7830     1.7950 C.2   1 <1>  -0.1500 
 28 H        1.4540     2.9580    -1.5740 H     1 <1>   0.0800 
 29 H        1.8530     4.1510    -0.3630 H     1 <1>   0.0800 
 30 H       -1.8750     2.3120     1.4440 H     1 <1>   0.0800 
 31 H       -2.4530     3.9170     1.1430 H     1 <1>   0.0800 
 32 H       -1.3840     5.3270    -0.6160 H     1 <1>   0.0800 
 33 H       -0.0760     4.6940    -1.5700 H     1 <1>   0.0800 
 34 H        3.0910     2.4320     0.9200 H     1 <1>   0.0800 
 35 H        2.6830     1.2390    -0.2780 H     1 <1>   0.0800 
 36 H       -2.1950     4.7050    -2.8410 H     1 <1>   0.0800 
 37 H       -1.5700     3.0960    -2.6510 H     1 <1>   0.0800 
 38 H        4.3380     3.7290    -0.7930 H     1 <1>   0.0800 
 39 H        3.9500     2.5240    -1.9900 H     1 <1>   0.0800 
 40 H       -5.2180     2.0630    -0.3570 H     1 <1>   0.0800 
 41 H       -3.9870     3.0910    -2.2170 H     1 <1>   0.0800 
 42 H       -3.8090     4.3710    -1.0570 H     1 <1>   0.0800 
 43 H       -3.2130     0.8640    -1.7580 H     1 <1>   0.0800 
 44 H       -1.6170     1.0500    -1.0750 H     1 <1>   0.0800 
 45 H       -3.9090     0.8710     2.0490 H     1 <1>   0.0800 
 46 H       -5.1000     0.1620     0.9650 H     1 <1>   0.0800 
 47 H       -2.2240    -0.0700     0.8860 H     1 <1>   0.0800 
 48 H       -3.3640    -0.8420    -0.1960 H     1 <1>   0.0800 
 49 H       -6.2270     3.8140     2.5040 H     1 <1>   0.0800 
 50 H       -6.2290     2.0690     2.2930 H     1 <1>   0.0800 
 51 H       -6.7620     3.1260     0.9760 H     1 <1>   0.0800 
 52 H        8.8030     3.3270     1.4190 H     1 <1>   0.1500 
 53 H       11.0240    -0.3080     1.6560 H     1 <1>   0.1500 
 54 H       11.1120     2.3410     2.2850 H     1 <1>   0.1500 
@<TRIPOS>BOND
  1   1   2  2   
  2   2   3  am  
  3   2   4  1   
  4   3   5  1   
  5   3   6  1   
  6   4   7  1   
  7   4  28  1   
  8   4  29  1   
  9   5   8  1   
 10   5  30  1   
 11   5  31  1   
 12   6   9  1   
 13   6  32  1   
 14   6  33  1   
 15   7  10  1   
 16   7  34  1   
 17   7  35  1   
 18   8  11  1   
 19   8  12  1   
 20   8  13  1   
 21   9  12  1   
 22   9  36  1   
 23   9  37  1   
 24  10  14  1   
 25  10  38  1   
 26  10  39  1   
 27  11  15  1   
 28  11  16  1   
 29  11  40  1   
 30  12  41  1   
 31  12  42  1   
 32  13  17  1   
 33  13  43  1   
 34  13  44  1   
 35  14  18  1   
 36  14  19  2   
 37  15  20  1   
 38  16  17  1   
 39  16  45  1   
 40  16  46  1   
 41  17  47  1   
 42  17  48  1   
 43  18  21  1   
 44  19  22  1   
 45  20  49  1   
 46  20  50  1   
 47  20  51  1   
 48  21  22  2   
 49  22  23  1   
 50  23  24  1   
 51  23  25  2   
 52  24  26  1   
 53  25  27  1   
 54  25  52  1   
 55  26  27  2   
 56  26  53  1   
 57  27  54  1   
@<TRIPOS>SUBSTRUCTURE
  1 ****   7 GROUP 4 **** **** 0

# MOE 2024.06 (io_trps.svl 2023.06)
