@<TRIPOS>MOLECULE
NONAME
45 47 1 0 0 
SMALL
USER_CHARGES


@<TRIPOS>ATOM
  1 O       -2.5620     0.9050    -3.1940 O.2   1 <1>  -0.5700 
  2 C       -1.7680     0.8850    -2.2850 C.2   1 <1>   0.5690 
  3 N       -1.5330    -0.2420    -1.5690 N.am  1 <1>  -0.7300 
  4 C       -1.0240     2.1590    -1.9210 C.3   1 <1>   0.0440 
  5 C       -2.2320    -1.5330    -1.7340 C.3   1 <1>   0.2200 
  6 C       -0.4040     2.0940    -0.5230 C.ar  1 <1>  -0.1440 
  7 C       -3.2390    -1.6930    -0.6090 C.3   1 <1>  -0.0800 
  8 C       -1.2640    -2.6850    -1.4650 C.3   1 <1>   0.1200 
  9 C       -1.1640     2.2700     0.6310 C.ar  1 <1>  -0.1440 
 10 C        0.9530     1.8240    -0.4120 C.ar  1 <1>  -0.1500 
 11 C       -2.3540    -2.2310     0.5160 C.3   1 <1>   0.1200 
 12 C       -4.3620    -2.6760    -0.9900 C.3   1 <1>  -0.0160 
 13 O       -1.3410    -2.9720    -0.0980 O.3   1 <1>  -0.5600 
 14 C       -0.5530     2.1730     1.8720 C.ar  1 <1>  -0.1500 
 15 C       -2.6570     2.5670     0.5740 C.3   1 <1>  -0.0970 
 16 C        1.5540     1.7280     0.8300 C.ar  1 <1>  -0.1500 
 17 C       -5.3870    -2.8080     0.1260 C.ar  1 <1>  -0.1440 
 18 C        0.7990     1.9020     1.9740 C.ar  1 <1>  -0.1500 
 19 C       -5.4180    -3.9010     0.9690 C.ar  1 <1>  -0.1500 
 20 C       -6.3420    -1.8380     0.3520 C.ar  1 <1>  -0.1500 
 21 C       -6.3710    -3.9670     1.9710 C.ar  1 <1>   0.1600 
 22 C       -7.2530    -2.0010     1.3830 C.ar  1 <1>   0.1600 
 23 N       -7.2890    -3.0410     2.2000 N.ar  1 <1>  -0.6200 
 24 H       -0.9040    -0.1800    -0.7600 H     1 <1>   0.3700 
 25 H       -0.2600     2.3180    -2.6590 H     1 <1>   0.0800 
 26 H       -1.7030     2.9880    -1.9860 H     1 <1>   0.0800 
 27 H       -2.6740    -1.5920    -2.7140 H     1 <1>   0.0800 
 28 H       -3.6790    -0.7490    -0.3390 H     1 <1>   0.0800 
 29 H       -0.2490    -2.4390    -1.7250 H     1 <1>   0.0800 
 30 H       -1.5710    -3.5680    -1.9970 H     1 <1>   0.0800 
 31 H        1.5550     1.6840    -1.2930 H     1 <1>   0.1500 
 32 H       -2.8790    -2.8580     1.2150 H     1 <1>   0.0800 
 33 H       -1.8850    -1.4200     1.0480 H     1 <1>   0.0800 
 34 H       -3.9500    -3.6440    -1.2170 H     1 <1>   0.0800 
 35 H       -4.8610    -2.3210    -1.8740 H     1 <1>   0.0800 
 36 H       -1.1260     2.3080     2.7720 H     1 <1>   0.1500 
 37 H       -3.0820     2.5990     1.5610 H     1 <1>   0.0800 
 38 H       -3.1720     1.8060     0.0150 H     1 <1>   0.0800 
 39 H       -2.8250     3.5200     0.1060 H     1 <1>   0.0800 
 40 H        2.6070     1.5190     0.9060 H     1 <1>   0.1500 
 41 H        1.2630     1.8280     2.9420 H     1 <1>   0.1500 
 42 H       -4.7080    -4.7010     0.8570 H     1 <1>   0.1500 
 43 H       -6.3870    -0.9580    -0.2640 H     1 <1>   0.1500 
 44 H       -6.3790    -4.8260     2.6190 H     1 <1>   0.1500 
 45 H       -7.9910    -1.2330     1.5440 H     1 <1>   0.1500 
@<TRIPOS>BOND
  1   1   2  2   
  2   2   3  am  
  3   2   4  1   
  4   3   5  1   
  5   3  24  1   
  6   4   6  1   
  7   4  25  1   
  8   4  26  1   
  9   5   7  1   
 10   5   8  1   
 11   5  27  1   
 12   6   9  ar  
 13   6  10  ar  
 14   7  11  1   
 15   7  12  1   
 16   7  28  1   
 17   8  13  1   
 18   8  29  1   
 19   8  30  1   
 20   9  14  ar  
 21   9  15  1   
 22  10  16  ar  
 23  10  31  1   
 24  11  13  1   
 25  11  32  1   
 26  11  33  1   
 27  12  17  1   
 28  12  34  1   
 29  12  35  1   
 30  14  18  ar  
 31  14  36  1   
 32  15  37  1   
 33  15  38  1   
 34  15  39  1   
 35  16  18  ar  
 36  16  40  1   
 37  17  19  ar  
 38  17  20  ar  
 39  18  41  1   
 40  19  21  ar  
 41  19  42  1   
 42  20  22  ar  
 43  20  43  1   
 44  21  23  ar  
 45  21  44  1   
 46  22  23  ar  
 47  22  45  1   
@<TRIPOS>SUBSTRUCTURE
  1 ****   7 GROUP 4 **** **** 0

# MOE 2024.06 (io_trps.svl 2023.06)
