@<TRIPOS>MOLECULE
NONAME
57 60 1 0 0 
SMALL
USER_CHARGES


@<TRIPOS>ATOM
  1 O       -3.9330     2.2060    -3.0760 O.2   1 <1>  -0.5700 
  2 C       -3.0420     1.7950    -2.3730 C.2   1 <1>   0.5690 
  3 N       -2.8460     0.4720    -2.1620 N.am  1 <1>  -0.7300 
  4 C       -2.1020     2.7770    -1.6950 C.3   1 <1>   0.0440 
  5 C       -3.6610    -0.6440    -2.6790 C.3   1 <1>   0.2200 
  6 C       -1.6370     2.2390    -0.3330 C.ar  1 <1>  -0.1440 
  7 C       -3.9900    -1.6360    -1.5680 C.3   1 <1>  -0.0800 
  8 C       -2.7960    -1.5090    -3.5850 C.3   1 <1>   0.1200 
  9 C       -2.4200     2.4520     0.8020 C.ar  1 <1>  -0.1440 
 10 C       -0.4560     1.5030    -0.2220 C.ar  1 <1>  -0.1440 
 11 C       -2.7330    -2.5140    -1.5200 C.3   1 <1>   0.1200 
 12 C       -4.3650    -1.0110    -0.2050 C.3   1 <1>  -0.0160 
 13 O       -2.0620    -2.3350    -2.7320 O.3   1 <1>  -0.5600 
 14 C       -2.0190     1.9320     2.0210 C.ar  1 <1>  -0.1500 
 15 C       -3.7270     3.2350     0.7560 C.3   1 <1>  -0.0970 
 16 C       -0.0820     0.9860     1.0080 C.ar  1 <1>  -0.1500 
 17 C        0.4620     1.2330    -1.4110 C.3   1 <1>  -0.0970 
 18 C       -4.7970    -1.9900     0.8960 C.ar  1 <1>  -0.1440 
 19 C       -0.8600     1.1910     2.1310 C.ar  1 <1>  -0.1440 
 20 C       -4.9340    -1.5310     2.2300 C.ar  1 <1>   0.0000 
 21 C       -5.0710    -3.3110     0.6700 C.ar  1 <1>  -0.1500 
 22 C       -0.4570     0.6150     3.4760 C.3   1 <1>  -0.0970 
 23 C       -5.3040    -2.4690     3.2250 C.ar  1 <1>   0.3100 
 24 C       -4.7320    -0.1900     2.6360 C.ar  1 <1>  -0.1500 
 25 C       -5.4410    -4.1530     1.7250 C.ar  1 <1>   0.1600 
 26 N       -5.5530    -3.7740     2.9570 N.ar  1 <1>  -0.6200 
 27 C       -5.4290    -2.0390     4.5560 C.ar  1 <1>  -0.1500 
 28 C       -4.8660     0.1980     3.9410 C.ar  1 <1>  -0.1500 
 29 C       -5.2160    -0.7370     4.9180 C.ar  1 <1>  -0.1500 
 30 H       -2.0800     0.1950    -1.5390 H     1 <1>   0.3700 
 31 H       -1.2730     2.9590    -2.3490 H     1 <1>   0.0800 
 32 H       -2.6050     3.7180    -1.5820 H     1 <1>   0.0800 
 33 H       -4.5360    -0.2720    -3.1840 H     1 <1>   0.0800 
 34 H       -4.8110    -2.2350    -1.9160 H     1 <1>   0.0800 
 35 H       -2.1260    -0.9290    -4.1960 H     1 <1>   0.0800 
 36 H       -3.4080    -2.1390    -4.2070 H     1 <1>   0.0800 
 37 H       -2.9690    -3.5580    -1.4060 H     1 <1>   0.0800 
 38 H       -2.0660    -2.2060    -0.7320 H     1 <1>   0.0800 
 39 H       -5.1610    -0.3040    -0.3600 H     1 <1>   0.0800 
 40 H       -3.5120    -0.4650     0.1590 H     1 <1>   0.0800 
 41 H       -2.6130     2.1000     2.9010 H     1 <1>   0.1500 
 42 H       -4.2380     3.1940     1.7010 H     1 <1>   0.0800 
 43 H       -4.3830     2.8300     0.0070 H     1 <1>   0.0800 
 44 H       -3.5300     4.2670     0.5300 H     1 <1>   0.0800 
 45 H        0.8250     0.4150     1.0970 H     1 <1>   0.1500 
 46 H        1.2580     0.5630    -1.1400 H     1 <1>   0.0800 
 47 H        0.9040     2.1530    -1.7480 H     1 <1>   0.0800 
 48 H       -0.0800     0.7840    -2.2220 H     1 <1>   0.0800 
 49 H       -5.0200    -3.7590    -0.3030 H     1 <1>   0.1500 
 50 H       -1.2950     0.1090     3.9240 H     1 <1>   0.0800 
 51 H       -0.1360     1.4050     4.1300 H     1 <1>   0.0800 
 52 H        0.3460    -0.0910     3.3670 H     1 <1>   0.0800 
 53 H       -4.4690     0.5470     1.9030 H     1 <1>   0.1500 
 54 H       -5.6430    -5.1860     1.4960 H     1 <1>   0.1500 
 55 H       -5.7020    -2.7770     5.2880 H     1 <1>   0.1500 
 56 H       -4.7080     1.2220     4.2330 H     1 <1>   0.1500 
 57 H       -5.3160    -0.4230     5.9420 H     1 <1>   0.1500 
@<TRIPOS>BOND
  1   1   2  2   
  2   2   3  am  
  3   2   4  1   
  4   3   5  1   
  5   3  30  1   
  6   4   6  1   
  7   4  31  1   
  8   4  32  1   
  9   5   7  1   
 10   5   8  1   
 11   5  33  1   
 12   6   9  ar  
 13   6  10  ar  
 14   7  11  1   
 15   7  12  1   
 16   7  34  1   
 17   8  13  1   
 18   8  35  1   
 19   8  36  1   
 20   9  14  ar  
 21   9  15  1   
 22  10  16  ar  
 23  10  17  1   
 24  11  13  1   
 25  11  37  1   
 26  11  38  1   
 27  12  18  1   
 28  12  39  1   
 29  12  40  1   
 30  14  19  ar  
 31  14  41  1   
 32  15  42  1   
 33  15  43  1   
 34  15  44  1   
 35  16  19  ar  
 36  16  45  1   
 37  17  46  1   
 38  17  47  1   
 39  17  48  1   
 40  18  20  ar  
 41  18  21  ar  
 42  19  22  1   
 43  20  23  ar  
 44  20  24  ar  
 45  21  25  ar  
 46  21  49  1   
 47  22  50  1   
 48  22  51  1   
 49  22  52  1   
 50  23  26  ar  
 51  23  27  ar  
 52  24  28  ar  
 53  24  53  1   
 54  25  26  ar  
 55  25  54  1   
 56  27  29  ar  
 57  27  55  1   
 58  28  29  ar  
 59  28  56  1   
 60  29  57  1   
@<TRIPOS>SUBSTRUCTURE
  1 ****  12 GROUP 4 **** **** 0

# MOE 2024.06 (io_trps.svl 2023.06)
