@<TRIPOS>MOLECULE
NONAME
41 42 1 0 0 
SMALL
USER_CHARGES


@<TRIPOS>ATOM
  1 CL      -0.1580    -0.8670    -1.5900 Cl    1 <1>  -0.1770 
  2 C       -1.6590    -1.3210    -0.8170 C.ar  1 <1>   0.1770 
  3 C       -2.6970    -0.4130    -0.6890 C.ar  1 <1>   0.1900 
  4 C       -1.8060    -2.6050    -0.3300 C.ar  1 <1>  -0.1500 
  5 F       -2.5670     0.8010    -1.1500 F     1 <1>  -0.1900 
  6 C       -3.8840    -0.7670    -0.0750 C.ar  1 <1>  -0.1500 
  7 C       -2.9950    -3.0010     0.2850 C.ar  1 <1>   0.0860 
  8 C       -4.0210    -2.0570     0.4100 C.ar  1 <1>  -0.1500 
  9 C       -3.1420    -4.3530     0.7880 C.2   1 <1>   0.5440 
 10 O       -2.3260    -4.7870     1.5750 O.2   1 <1>  -0.5700 
 11 N       -4.1760    -5.1680     0.3880 N.am  1 <1>  -0.6600 
 12 C       -5.0420    -4.9430    -0.7970 C.3   1 <1>   0.1400 
 13 C       -4.3200    -6.5690     0.8680 C.3   1 <1>   0.1400 
 14 C       -6.0710    -6.0680    -0.7290 C.3   1 <1>   0.2000 
 15 C       -5.2950    -7.2350    -0.1140 C.3   1 <1>  -0.0800 
 16 O       -7.0760    -5.6780     0.1430 O.3   1 <1>  -0.6800 
 17 C       -6.1910    -8.3260     0.5130 C.3   1 <1>  -0.0550 
 18 S       -5.3070    -9.7890     1.0590 S.o2  1 <1>   1.3330 
 19 O       -6.2630   -10.8110     1.4160 O.2   1 <1>  -0.6500 
 20 O       -4.3090    -9.3770     2.0190 O.2   1 <1>  -0.6500 
 21 N       -4.5040   -10.3030    -0.3480 N.am  1 <1>  -0.8490 
 22 C       -5.3410   -11.1300    -1.2240 C.3   1 <1>   0.1160 
 23 C       -3.2530   -11.0060    -0.0460 C.3   1 <1>   0.1160 
 24 H       -0.9950    -3.3070    -0.4200 H     1 <1>   0.1500 
 25 H       -4.6760    -0.0440     0.0210 H     1 <1>   0.1500 
 26 H       -4.9350    -2.3450     0.9020 H     1 <1>   0.1500 
 27 H       -5.5160    -3.9770    -0.7850 H     1 <1>   0.0800 
 28 H       -4.4470    -5.0430    -1.6890 H     1 <1>   0.0800 
 29 H       -3.3670    -7.0720     0.8770 H     1 <1>   0.0800 
 30 H       -4.7180    -6.5580     1.8680 H     1 <1>   0.0800 
 31 H       -6.5130    -6.2980    -1.6840 H     1 <1>   0.0800 
 32 H       -4.7060    -7.6790    -0.8980 H     1 <1>   0.0800 
 33 H       -6.6630    -5.3420     0.9650 H     1 <1>   0.4000 
 34 H       -6.9240    -8.6200    -0.2120 H     1 <1>   0.0800 
 35 H       -6.7220    -7.9150     1.3500 H     1 <1>   0.0800 
 36 H       -4.8150   -11.3500    -2.1380 H     1 <1>   0.0800 
 37 H       -6.2490   -10.6080    -1.4710 H     1 <1>   0.0800 
 38 H       -5.5970   -12.0560    -0.7350 H     1 <1>   0.0800 
 39 H       -2.7650   -11.3100    -0.9560 H     1 <1>   0.0800 
 40 H       -3.4500   -11.8760     0.5600 H     1 <1>   0.0800 
 41 H       -2.5840   -10.3550     0.4920 H     1 <1>   0.0800 
@<TRIPOS>BOND
  1   1   2  1   
  2   2   3  ar  
  3   2   4  ar  
  4   3   5  1   
  5   3   6  ar  
  6   4   7  ar  
  7   4  24  1   
  8   6   8  ar  
  9   6  25  1   
 10   7   8  ar  
 11   7   9  1   
 12   8  26  1   
 13   9  10  2   
 14   9  11  am  
 15  11  12  1   
 16  11  13  1   
 17  12  14  1   
 18  12  27  1   
 19  12  28  1   
 20  13  15  1   
 21  13  29  1   
 22  13  30  1   
 23  14  15  1   
 24  14  16  1   
 25  14  31  1   
 26  15  17  1   
 27  15  32  1   
 28  16  33  1   
 29  17  18  1   
 30  17  34  1   
 31  17  35  1   
 32  18  19  2   
 33  18  20  2   
 34  18  21  am  
 35  21  22  1   
 36  21  23  1   
 37  22  36  1   
 38  22  37  1   
 39  22  38  1   
 40  23  39  1   
 41  23  40  1   
 42  23  41  1   
@<TRIPOS>SUBSTRUCTURE
  1 ****  11 GROUP 4 **** **** 0

# MOE 2024.06 (io_trps.svl 2023.06)
