@<TRIPOS>MOLECULE
NONAME
50 52 1 0 0 
SMALL
USER_CHARGES


@<TRIPOS>ATOM
  1 O       -1.4820    -0.5440    -2.4390 O.2   1 <1>  -0.5700 
  2 C       -1.8950    -0.8650    -1.3490 C.2   1 <1>   0.5690 
  3 N       -2.0240     0.0330    -0.3300 N.am  1 <1>  -0.6600 
  4 C       -2.2700    -2.3130    -1.1400 C.3   1 <1>  -0.0190 
  5 C       -2.5770    -0.3590     0.9980 C.3   1 <1>   0.2200 
  6 C       -1.6630     1.4700    -0.4920 C.3   1 <1>   0.0600 
  7 C       -1.3720    -2.9670    -0.0730 C.3   1 <1>   0.1200 
  8 C       -3.7950    -2.4700    -0.9910 C.3   1 <1>   0.1400 
  9 C       -1.6710    -1.3930     1.7110 C.3   1 <1>   0.1200 
 10 C       -4.0710    -0.7430     0.8920 C.3   1 <1>   0.1400 
 11 O       -1.7750    -2.7070     1.2360 O.3   1 <1>  -0.5600 
 12 N       -4.3640    -2.1130     0.3500 N.am  1 <1>  -0.6600 
 13 C       -5.1890    -2.9710     1.0530 C.2   1 <1>   0.5440 
 14 O       -5.9030    -2.5210     1.9310 O.2   1 <1>  -0.5700 
 15 C       -5.2650    -4.3850     0.7500 C.ar  1 <1>   0.0860 
 16 C       -6.4610    -4.9550     0.3260 C.ar  1 <1>  -0.1500 
 17 C       -4.1510    -5.2120     0.8590 C.ar  1 <1>  -0.1500 
 18 C       -6.5480    -6.3030    -0.0010 C.ar  1 <1>   0.0820 
 19 C       -4.2000    -6.5510     0.5210 C.ar  1 <1>   0.0820 
 20 O       -7.7130    -6.8750    -0.4250 O.3   1 <1>  -0.3630 
 21 C       -5.4130    -7.1120     0.1020 C.ar  1 <1>   0.0820 
 22 O       -3.0250    -7.2290     0.6380 O.3   1 <1>  -0.3630 
 23 C       -8.9160    -6.1420    -0.5010 C.3   1 <1>   0.0400 
 24 O       -5.5040    -8.4330    -0.1970 O.3   1 <1>  -0.3630 
 25 C       -2.6710    -8.2030    -0.3200 C.3   1 <1>   0.0400 
 26 C       -6.0570    -9.2500     0.8090 C.3   1 <1>   0.0400 
 27 H       -2.0180    -2.8030    -2.0620 H     1 <1>   0.0800 
 28 H       -2.5470     0.5220     1.6140 H     1 <1>   0.0800 
 29 H       -0.9110     1.7410     0.2280 H     1 <1>   0.0800 
 30 H       -2.5350     2.0840    -0.3470 H     1 <1>   0.0800 
 31 H       -1.2740     1.6590    -1.4780 H     1 <1>   0.0800 
 32 H       -0.3500    -2.6470    -0.1860 H     1 <1>   0.0800 
 33 H       -1.4040    -4.0350    -0.1950 H     1 <1>   0.0800 
 34 H       -4.0450    -3.4860    -1.2340 H     1 <1>   0.0800 
 35 H       -4.2740    -1.8520    -1.7310 H     1 <1>   0.0800 
 36 H       -1.9500    -1.4310     2.7490 H     1 <1>   0.0800 
 37 H       -0.6400    -1.0890     1.6550 H     1 <1>   0.0800 
 38 H       -4.5790    -0.0140     0.2860 H     1 <1>   0.0800 
 39 H       -4.4800    -0.6630     1.8840 H     1 <1>   0.0800 
 40 H       -7.3140    -4.3070     0.2630 H     1 <1>   0.1500 
 41 H       -3.2260    -4.7980     1.2140 H     1 <1>   0.1500 
 42 H       -9.6910    -6.8080    -0.8370 H     1 <1>   0.0800 
 43 H       -8.7940    -5.3410    -1.2080 H     1 <1>   0.0800 
 44 H       -9.1580    -5.7640     0.4760 H     1 <1>   0.0800 
 45 H       -1.6020    -8.3120    -0.3080 H     1 <1>   0.0800 
 46 H       -3.0000    -7.8800    -1.2920 H     1 <1>   0.0800 
 47 H       -3.1330    -9.1360    -0.0550 H     1 <1>   0.0800 
 48 H       -6.0400   -10.2670     0.4630 H     1 <1>   0.0800 
 49 H       -7.0690    -8.9410     0.9960 H     1 <1>   0.0800 
 50 H       -5.4630    -9.1510     1.7000 H     1 <1>   0.0800 
@<TRIPOS>BOND
  1   1   2  2   
  2   2   3  am  
  3   2   4  1   
  4   3   5  1   
  5   3   6  1   
  6   4   7  1   
  7   4   8  1   
  8   4  27  1   
  9   5   9  1   
 10   5  10  1   
 11   5  28  1   
 12   6  29  1   
 13   6  30  1   
 14   6  31  1   
 15   7  11  1   
 16   7  32  1   
 17   7  33  1   
 18   8  12  1   
 19   8  34  1   
 20   8  35  1   
 21   9  11  1   
 22   9  36  1   
 23   9  37  1   
 24  10  12  1   
 25  10  38  1   
 26  10  39  1   
 27  12  13  am  
 28  13  14  2   
 29  13  15  1   
 30  15  16  ar  
 31  15  17  ar  
 32  16  18  ar  
 33  16  40  1   
 34  17  19  ar  
 35  17  41  1   
 36  18  20  1   
 37  18  21  ar  
 38  19  21  ar  
 39  19  22  1   
 40  20  23  1   
 41  21  24  1   
 42  22  25  1   
 43  23  42  1   
 44  23  43  1   
 45  23  44  1   
 46  24  26  1   
 47  25  45  1   
 48  25  46  1   
 49  25  47  1   
 50  26  48  1   
 51  26  49  1   
 52  26  50  1   
@<TRIPOS>SUBSTRUCTURE
  1 ****  15 GROUP 4 **** **** 0

# MOE 2024.06 (io_trps.svl 2023.06)
