@<TRIPOS>MOLECULE
NONAME
38 40 1 0 0 
SMALL
USER_CHARGES


@<TRIPOS>ATOM
  1 F       -0.5350    -0.1420     0.3620 F     1 <1>  -0.1900 
  2 C       -1.6730    -0.7930     0.3310 C.ar  1 <1>   0.1900 
  3 C       -2.7820    -0.2310    -0.2500 C.ar  1 <1>   0.1600 
  4 C       -1.7740    -2.0480     0.8750 C.ar  1 <1>   0.1600 
  5 N       -3.9290    -0.8750    -0.2870 N.ar  1 <1>  -0.6200 
  6 N       -2.9100    -2.7110     0.8490 N.ar  1 <1>  -0.6200 
  7 C       -3.9440    -2.0900     0.2720 C.ar  1 <1>   0.7200 
  8 N       -5.1390    -2.7620     0.2500 N.pl3 1 <1>  -0.8380 
  9 C       -6.3510    -2.2710    -0.4510 C.3   1 <1>   0.2090 
 10 C       -5.3270    -4.1700     0.6630 C.3   1 <1>   0.2090 
 11 C       -7.3510    -3.4390    -0.4300 C.3   1 <1>   0.2000 
 12 C       -6.4690    -4.6760    -0.2200 C.3   1 <1>  -0.0800 
 13 O       -8.2290    -3.3240     0.6570 O.3   1 <1>  -0.5600 
 14 C       -7.2020    -5.8980     0.3630 C.3   1 <1>   0.0200 
 15 C       -9.3180    -2.4770     0.4560 C.3   1 <1>   0.0400 
 16 C       -6.3500    -7.1560     0.3790 C.2   1 <1>  -0.0400 
 17 O       -6.8320    -8.2340     0.9400 O.3   1 <1>  -0.0190 
 18 C       -5.1250    -7.4530    -0.0850 C.2   1 <1>  -0.1500 
 19 N       -5.9980    -9.2320     0.8780 N.2   1 <1>  -0.4100 
 20 C       -4.9590    -8.7900     0.2660 C.2   1 <1>   0.1080 
 21 C       -3.7280    -9.6170    -0.0280 C.3   1 <1>  -0.0590 
 22 H       -2.7230     0.7510    -0.6830 H     1 <1>   0.1500 
 23 H       -0.9160    -2.5060     1.3340 H     1 <1>   0.1500 
 24 H       -6.7400    -1.3960     0.0380 H     1 <1>   0.0800 
 25 H       -6.0900    -2.0290    -1.4660 H     1 <1>   0.0800 
 26 H       -4.4290    -4.7470     0.5240 H     1 <1>   0.0800 
 27 H       -5.6110    -4.1900     1.7010 H     1 <1>   0.0800 
 28 H       -7.9230    -3.5060    -1.3390 H     1 <1>   0.0800 
 29 H       -6.0510    -4.9420    -1.1740 H     1 <1>   0.0800 
 30 H       -8.0830    -6.0950    -0.2210 H     1 <1>   0.0800 
 31 H       -7.5200    -5.6860     1.3690 H     1 <1>   0.0800 
 32 H       -9.9100    -2.4800     1.3540 H     1 <1>   0.0800 
 33 H       -9.9070    -2.8440    -0.3660 H     1 <1>   0.0800 
 34 H       -8.9690    -1.4790     0.2590 H     1 <1>   0.0800 
 35 H       -4.4100    -6.8450    -0.6070 H     1 <1>   0.1500 
 36 H       -3.5290    -9.6130    -1.0840 H     1 <1>   0.0800 
 37 H       -3.8830   -10.6320     0.2930 H     1 <1>   0.0800 
 38 H       -2.8830    -9.2110     0.4960 H     1 <1>   0.0800 
@<TRIPOS>BOND
  1   1   2  1   
  2   2   3  ar  
  3   2   4  ar  
  4   3   5  ar  
  5   3  22  1   
  6   4   6  ar  
  7   4  23  1   
  8   5   7  ar  
  9   6   7  ar  
 10   7   8  1   
 11   8   9  1   
 12   8  10  1   
 13   9  11  1   
 14   9  24  1   
 15   9  25  1   
 16  10  12  1   
 17  10  26  1   
 18  10  27  1   
 19  11  12  1   
 20  11  13  1   
 21  11  28  1   
 22  12  14  1   
 23  12  29  1   
 24  13  15  1   
 25  14  16  1   
 26  14  30  1   
 27  14  31  1   
 28  15  32  1   
 29  15  33  1   
 30  15  34  1   
 31  16  17  1   
 32  16  18  2   
 33  17  19  1   
 34  18  20  1   
 35  18  35  1   
 36  19  20  2   
 37  20  21  1   
 38  21  36  1   
 39  21  37  1   
 40  21  38  1   
@<TRIPOS>SUBSTRUCTURE
  1 ****  10 GROUP 4 **** **** 0

# MOE 2024.06 (io_trps.svl 2023.06)
