@<TRIPOS>MOLECULE
NONAME
51 53 1 0 0 
SMALL
USER_CHARGES


@<TRIPOS>ATOM
  1 S        0.4910    -0.9990     1.2500 S.3   1 <1>  -0.0800 
  2 C       -0.7380     0.1190     0.6770 C.2   1 <1>  -0.1400 
  3 C        1.7760     0.0760     0.7290 C.2   1 <1>  -0.1100 
  4 C       -0.1640     1.2120     0.1400 C.2   1 <1>  -0.1500 
  5 C       -2.1910    -0.2730     0.8630 C.3   1 <1>   0.0200 
  6 C        1.2670     1.1880     0.1690 C.2   1 <1>  -0.1500 
  7 C       -2.5820    -1.4230    -0.0730 C.3   1 <1>  -0.1600 
  8 C       -4.0590    -1.8260     0.1060 C.3   1 <1>  -0.0990 
  9 C       -4.5100    -2.9840    -0.7800 C.2   1 <1>   0.5690 
 10 O       -3.8390    -3.2660    -1.7460 O.2   1 <1>  -0.5700 
 11 N       -5.6560    -3.6700    -0.4790 N.am  1 <1>  -0.6600 
 12 C       -6.0110    -4.9140    -1.2490 C.3   1 <1>   0.1400 
 13 C       -6.6090    -3.2830     0.6150 C.3   1 <1>   0.1400 
 14 C       -6.8960    -5.8340    -0.4000 C.3   1 <1>   0.2000 
 15 C       -8.0360    -3.6420     0.2020 C.3   1 <1>  -0.1600 
 16 O       -7.1270    -7.0380    -1.0440 O.3   1 <1>  -0.6800 
 17 C       -8.2370    -5.1780     0.0140 C.3   1 <1>  -0.1060 
 18 C       -8.5760    -5.8990     1.3210 C.2   1 <1>   0.9060 
 19 C       -9.3650    -5.4030    -1.0380 C.3   1 <1>  -0.0160 
 20 O       -8.4700    -5.3120     2.4040 O.co2 1 <1>  -0.9000 
 21 O       -8.8610    -7.1040     1.2590 O.co2 1 <1>  -0.9000 
 22 C      -10.6280    -4.5770    -0.8020 C.ar  1 <1>  -0.1440 
 23 C      -10.9540    -3.5290    -1.6520 C.ar  1 <1>  -0.1500 
 24 C      -11.4670    -4.8680     0.2620 C.ar  1 <1>  -0.1500 
 25 C      -12.0990    -2.7810    -1.4380 C.ar  1 <1>  -0.1500 
 26 C      -12.6110    -4.1200     0.4790 C.ar  1 <1>  -0.1500 
 27 C      -12.9290    -3.0750    -0.3710 C.ar  1 <1>  -0.1500 
 28 H        2.7880    -0.2450     0.9000 H     1 <1>   0.1500 
 29 H       -0.6900     2.0500    -0.2830 H     1 <1>   0.1500 
 30 H       -2.3470    -0.5610     1.8880 H     1 <1>   0.0800 
 31 H       -2.8110     0.5820     0.6570 H     1 <1>   0.0800 
 32 H        1.8410     2.0050    -0.2320 H     1 <1>   0.1500 
 33 H       -2.4120    -1.1220    -1.0930 H     1 <1>   0.0800 
 34 H       -1.9590    -2.2790     0.1230 H     1 <1>   0.0800 
 35 H       -4.6870    -0.9820    -0.1110 H     1 <1>   0.0800 
 36 H       -4.2090    -2.1080     1.1320 H     1 <1>   0.0800 
 37 H       -6.5330    -4.6340    -2.1460 H     1 <1>   0.0800 
 38 H       -5.1110    -5.4390    -1.5170 H     1 <1>   0.0800 
 39 H       -6.3540    -3.8070     1.5230 H     1 <1>   0.0800 
 40 H       -6.5590    -2.2260     0.8040 H     1 <1>   0.0800 
 41 H       -6.3300    -6.0760     0.4860 H     1 <1>   0.0800 
 42 H       -8.7290    -3.2740     0.9410 H     1 <1>   0.0800 
 43 H       -8.2460    -3.1190    -0.7130 H     1 <1>   0.0800 
 44 H       -7.7280    -7.5490    -0.4420 H     1 <1>   0.4000 
 45 H       -8.9770    -5.1730    -2.0130 H     1 <1>   0.0800 
 46 H       -9.6490    -6.4410    -1.0590 H     1 <1>   0.0800 
 47 H      -10.3130    -3.2930    -2.4820 H     1 <1>   0.1500 
 48 H      -11.2270    -5.6800     0.9300 H     1 <1>   0.1500 
 49 H      -12.3410    -1.9700    -2.1010 H     1 <1>   0.1500 
 50 H      -13.2480    -4.3560     1.3130 H     1 <1>   0.1500 
 51 H      -13.8170    -2.4950    -0.2000 H     1 <1>   0.1500 
@<TRIPOS>BOND
  1   1   2  1   
  2   1   3  1   
  3   2   4  2   
  4   2   5  1   
  5   3   6  2   
  6   3  28  1   
  7   4   6  1   
  8   4  29  1   
  9   5   7  1   
 10   5  30  1   
 11   5  31  1   
 12   6  32  1   
 13   7   8  1   
 14   7  33  1   
 15   7  34  1   
 16   8   9  1   
 17   8  35  1   
 18   8  36  1   
 19   9  10  2   
 20   9  11  am  
 21  11  12  1   
 22  11  13  1   
 23  12  14  1   
 24  12  37  1   
 25  12  38  1   
 26  13  15  1   
 27  13  39  1   
 28  13  40  1   
 29  14  16  1   
 30  14  17  1   
 31  14  41  1   
 32  15  17  1   
 33  15  42  1   
 34  15  43  1   
 35  16  44  1   
 36  17  18  1   
 37  17  19  1   
 38  18  20  ar  
 39  18  21  ar  
 40  19  22  1   
 41  19  45  1   
 42  19  46  1   
 43  22  23  ar  
 44  22  24  ar  
 45  23  25  ar  
 46  23  47  1   
 47  24  26  ar  
 48  24  48  1   
 49  25  27  ar  
 50  25  49  1   
 51  26  27  ar  
 52  26  50  1   
 53  27  51  1   
@<TRIPOS>SUBSTRUCTURE
  1 ****  13 GROUP 4 **** **** 0

# MOE 2024.06 (io_trps.svl 2023.06)
