@<TRIPOS>MOLECULE
NONAME
48 51 1 0 0 
SMALL
USER_CHARGES


@<TRIPOS>ATOM
  1 O       -1.9110     0.2480    -1.0820 O.2   1 <1>  -0.5700 
  2 C       -2.1360     0.8470    -0.0530 C.2   1 <1>   0.9370 
  3 N       -1.9800     2.2500    -0.0680 N.pl3 1 <1>  -0.5760 
  4 C       -2.5540     0.1970     1.1390 C.2   1 <1>   0.0290 
  5 C       -2.2260     2.9710     1.0560 C.cat 1 <1>   0.7390 
  6 C       -1.5680     2.9080    -1.2060 C.2   1 <1>   0.1910 
  7 C       -2.6790    -1.2200     1.1920 C.2   1 <1>   0.6160 
  8 C       -2.7750     0.9580     2.2370 C.2   1 <1>   0.1910 
  9 N       -2.6210     2.3180     2.1760 N.pl3 1 <1>  -0.6450 
 10 C       -2.0720     4.3640     1.0460 C.2   1 <1>  -0.1800 
 11 C       -1.4110     4.2660    -1.2310 C.2   1 <1>  -0.1500 
 12 O       -2.0950    -1.7880     2.0920 O.2   1 <1>  -0.5700 
 13 N       -3.4670    -1.9580     0.3440 N.am  1 <1>  -0.6600 
 14 C       -1.6670     5.0210    -0.0850 C.2   1 <1>  -0.1500 
 15 C       -4.4320    -1.4390    -0.6650 C.3   1 <1>   0.1400 
 16 C       -3.7730    -3.3850     0.6250 C.3   1 <1>   0.1400 
 17 C       -5.5680    -2.4590    -0.7040 C.3   1 <1>   0.2000 
 18 C       -4.8680    -3.7810    -0.3720 C.3   1 <1>  -0.0800 
 19 O       -6.4690    -2.1240     0.3150 O.3   1 <1>  -0.5600 
 20 C       -5.7950    -4.8940     0.1480 C.3   1 <1>   0.0200 
 21 C       -7.8140    -2.1400    -0.0500 C.3   1 <1>   0.0400 
 22 C       -5.0930    -6.2300     0.3250 C.2   1 <1>  -0.0400 
 23 O       -5.7600    -7.2220     0.8520 O.3   1 <1>  -0.0190 
 24 C       -3.8570    -6.6750     0.0440 C.2   1 <1>  -0.1500 
 25 N       -5.0410    -8.3020     0.9400 N.2   1 <1>  -0.4100 
 26 C       -3.8880    -8.0020     0.4620 C.2   1 <1>   0.1080 
 27 C       -2.7270    -8.9670     0.3710 C.3   1 <1>  -0.0590 
 28 H       -1.3640     2.3330    -2.1000 H     1 <1>   0.1500 
 29 H       -3.0700     0.5130     3.1790 H     1 <1>   0.1500 
 30 H       -2.7880     2.8820     3.0190 H     1 <1>   0.4500 
 31 H       -2.2740     4.9200     1.9430 H     1 <1>   0.1500 
 32 H       -1.0890     4.7670    -2.1300 H     1 <1>   0.1500 
 33 H       -1.5430     6.0940    -0.1090 H     1 <1>   0.1500 
 34 H       -4.8050    -0.4630    -0.4120 H     1 <1>   0.0800 
 35 H       -3.9450    -1.4070    -1.6250 H     1 <1>   0.0800 
 36 H       -2.8890    -3.9880     0.5140 H     1 <1>   0.0800 
 37 H       -4.1360    -3.4720     1.6360 H     1 <1>   0.0800 
 38 H       -6.0670    -2.4700    -1.6590 H     1 <1>   0.0800 
 39 H       -4.3850    -4.1280    -1.2690 H     1 <1>   0.0800 
 40 H       -6.6050    -5.0350    -0.5440 H     1 <1>   0.0800 
 41 H       -6.2190    -4.6030     1.0940 H     1 <1>   0.0800 
 42 H       -8.4000    -1.9000     0.8200 H     1 <1>   0.0800 
 43 H       -8.0810    -3.1210    -0.4040 H     1 <1>   0.0800 
 44 H       -7.9850    -1.4030    -0.8150 H     1 <1>   0.0800 
 45 H       -3.0160    -6.1740    -0.3970 H     1 <1>   0.1500 
 46 H       -1.8730    -8.5600     0.8810 H     1 <1>   0.0800 
 47 H       -2.4770    -9.1400    -0.6590 H     1 <1>   0.0800 
 48 H       -2.9920    -9.9030     0.8280 H     1 <1>   0.0800 
@<TRIPOS>BOND
  1   1   2  2   
  2   2   3  1   
  3   2   4  1   
  4   3   5  ar  
  5   3   6  1   
  6   4   7  1   
  7   4   8  2   
  8   5   9  ar  
  9   5  10  1   
 10   6  11  2   
 11   6  28  1   
 12   7  12  2   
 13   7  13  am  
 14   8   9  1   
 15   8  29  1   
 16   9  30  1   
 17  10  14  2   
 18  10  31  1   
 19  11  14  1   
 20  11  32  1   
 21  13  15  1   
 22  13  16  1   
 23  14  33  1   
 24  15  17  1   
 25  15  34  1   
 26  15  35  1   
 27  16  18  1   
 28  16  36  1   
 29  16  37  1   
 30  17  18  1   
 31  17  19  1   
 32  17  38  1   
 33  18  20  1   
 34  18  39  1   
 35  19  21  1   
 36  20  22  1   
 37  20  40  1   
 38  20  41  1   
 39  21  42  1   
 40  21  43  1   
 41  21  44  1   
 42  22  23  1   
 43  22  24  2   
 44  23  25  1   
 45  24  26  1   
 46  24  45  1   
 47  25  26  2   
 48  26  27  1   
 49  27  46  1   
 50  27  47  1   
 51  27  48  1   
@<TRIPOS>SUBSTRUCTURE
  1 ****  13 GROUP 4 **** **** 0

# MOE 2024.06 (io_trps.svl 2023.06)
