@<TRIPOS>MOLECULE
NONAME
53 56 1 0 0 
SMALL
USER_CHARGES


@<TRIPOS>ATOM
  1 O        2.6600    -0.4070    -1.7190 O.2   1 <1>  -0.5700 
  2 C        2.5540    -0.9490    -0.6350 C.2   1 <1>   0.5440 
  3 N        2.8630    -0.2240     0.5020 N.am  1 <1>  -0.6600 
  4 C        2.1340    -2.3330    -0.5750 C.ar  1 <1>   0.0860 
  5 C        3.0430     1.2630     0.4570 C.3   1 <1>   0.1400 
  6 C        3.0350    -0.8420     1.8480 C.3   1 <1>   0.0600 
  7 C        1.0670    -2.7450     0.2250 C.ar  1 <1>  -0.1500 
  8 C        2.7860    -3.3090    -1.3260 C.ar  1 <1>  -0.1500 
  9 C        4.5260     1.6510     0.3660 C.3   1 <1>   0.2000 
 10 C        0.6790    -4.0700     0.3010 C.ar  1 <1>  -0.1430 
 11 C        2.4070    -4.6340    -1.2610 C.ar  1 <1>  -0.1500 
 12 O        4.6770     3.0190     0.7280 O.3   1 <1>  -0.3620 
 13 C        5.1590     1.5030    -1.0330 C.3   1 <1>  -0.0170 
 14 C        1.3550    -5.0360    -0.4460 C.ar  1 <1>   0.1000 
 15 C       -0.4880    -4.4700     1.1930 C.3   1 <1>  -0.0970 
 16 C        5.5360     3.6110    -0.1180 C.ar  1 <1>   0.0830 
 17 C        5.8910     2.8040    -1.1660 C.ar  1 <1>  -0.1430 
 18 N        0.9850    -6.3700    -0.3910 N.pl3 1 <1>  -0.8380 
 19 C        6.0430     4.8900     0.0150 C.ar  1 <1>  -0.1500 
 20 C        6.7790     3.2480    -2.1270 C.ar  1 <1>  -0.1500 
 21 C        0.2650    -6.9230    -1.5730 C.3   1 <1>   0.2090 
 22 C        1.9610    -7.3410     0.1810 C.3   1 <1>   0.2090 
 23 C        6.9350     5.3460    -0.9440 C.ar  1 <1>  -0.1500 
 24 C        7.3020     4.5290    -2.0080 C.ar  1 <1>  -0.1500 
 25 C       -0.3060    -8.3180    -1.2620 C.3   1 <1>   0.1200 
 26 C        1.2980    -8.7130     0.4020 C.3   1 <1>   0.1200 
 27 O        0.6920    -9.1750    -0.7760 O.3   1 <1>  -0.5600 
 28 H        2.6230     1.6870     1.3520 H     1 <1>   0.0800 
 29 H        2.5120     1.6720    -0.3850 H     1 <1>   0.0800 
 30 H        3.2210    -1.8980     1.7640 H     1 <1>   0.0800 
 31 H        2.1450    -0.6870     2.4330 H     1 <1>   0.0800 
 32 H        3.8690    -0.3940     2.3590 H     1 <1>   0.0800 
 33 H        0.5390    -1.9990     0.7910 H     1 <1>   0.1500 
 34 H        3.5980    -3.0120    -1.9670 H     1 <1>   0.1500 
 35 H        5.0980     1.0910     1.0830 H     1 <1>   0.0800 
 36 H        2.9220    -5.3700    -1.8480 H     1 <1>   0.1500 
 37 H        4.4120     1.4250    -1.8020 H     1 <1>   0.0800 
 38 H        5.8140     0.6530    -1.0770 H     1 <1>   0.0800 
 39 H       -0.8900    -3.6220     1.7170 H     1 <1>   0.0800 
 40 H       -0.1600    -5.1980     1.9120 H     1 <1>   0.0800 
 41 H       -1.2660    -4.9070     0.5950 H     1 <1>   0.0800 
 42 H        5.7460     5.5020     0.8460 H     1 <1>   0.1500 
 43 H        7.0560     2.6160    -2.9520 H     1 <1>   0.1500 
 44 H        0.9420    -6.9940    -2.4070 H     1 <1>   0.0800 
 45 H       -0.5350    -6.2570    -1.8450 H     1 <1>   0.0800 
 46 H        2.3300    -6.9630     1.1190 H     1 <1>   0.0800 
 47 H        2.7950    -7.4550    -0.4890 H     1 <1>   0.0800 
 48 H        7.3450     6.3380    -0.8630 H     1 <1>   0.1500 
 49 H        7.9950     4.8930    -2.7460 H     1 <1>   0.1500 
 50 H       -0.7130    -8.7600    -2.1530 H     1 <1>   0.0800 
 51 H       -1.0850    -8.2440    -0.5230 H     1 <1>   0.0800 
 52 H        0.5480    -8.6450     1.1700 H     1 <1>   0.0800 
 53 H        2.0340    -9.4380     0.6990 H     1 <1>   0.0800 
@<TRIPOS>BOND
  1   1   2  2   
  2   2   3  am  
  3   2   4  1   
  4   3   5  1   
  5   3   6  1   
  6   4   7  ar  
  7   4   8  ar  
  8   5   9  1   
  9   5  28  1   
 10   5  29  1   
 11   6  30  1   
 12   6  31  1   
 13   6  32  1   
 14   7  10  ar  
 15   7  33  1   
 16   8  11  ar  
 17   8  34  1   
 18   9  12  1   
 19   9  13  1   
 20   9  35  1   
 21  10  14  ar  
 22  10  15  1   
 23  11  14  ar  
 24  11  36  1   
 25  12  16  1   
 26  13  17  1   
 27  13  37  1   
 28  13  38  1   
 29  14  18  1   
 30  15  39  1   
 31  15  40  1   
 32  15  41  1   
 33  16  17  ar  
 34  16  19  ar  
 35  17  20  ar  
 36  18  21  1   
 37  18  22  1   
 38  19  23  ar  
 39  19  42  1   
 40  20  24  ar  
 41  20  43  1   
 42  21  25  1   
 43  21  44  1   
 44  21  45  1   
 45  22  26  1   
 46  22  46  1   
 47  22  47  1   
 48  23  24  ar  
 49  23  48  1   
 50  24  49  1   
 51  25  27  1   
 52  25  50  1   
 53  25  51  1   
 54  26  27  1   
 55  26  52  1   
 56  26  53  1   
@<TRIPOS>SUBSTRUCTURE
  1 ****   2 GROUP 4 **** **** 0

# MOE 2024.06 (io_trps.svl 2023.06)
