@<TRIPOS>MOLECULE
NONAME
58 62 1 0 0 
SMALL
USER_CHARGES


@<TRIPOS>ATOM
  1 O        1.4120    -1.1880     2.2970 O.2   1 <1>  -0.5700 
  2 C        0.8260    -1.7810     1.4100 C.2   1 <1>   0.5440 
  3 N        1.4570    -1.9440     0.1980 N.am  1 <1>  -0.6600 
  4 C       -0.5000    -2.3100     1.6660 C.ar  1 <1>   0.0860 
  5 C        1.0860    -2.9370    -0.8350 C.3   1 <1>   0.1400 
  6 C        2.8060    -1.3930    -0.0640 C.3   1 <1>   0.1400 
  7 C       -1.5540    -2.2050     0.7770 C.ar  1 <1>  -0.1500 
  8 C       -0.8050    -2.9610     2.8540 C.ar  1 <1>  -0.1500 
  9 C        2.3840    -3.2260    -1.5780 C.3   1 <1>  -0.1600 
 10 C        3.2010    -1.9460    -1.4290 C.3   1 <1>  -0.1600 
 11 C       -2.7960    -2.7450     1.0750 C.ar  1 <1>   0.4100 
 12 C       -2.0720    -3.4630     3.0680 C.ar  1 <1>   0.1600 
 13 N       -3.0720    -3.3780     2.2080 N.ar  1 <1>  -0.6200 
 14 N       -3.8180    -2.6380     0.1580 N.pl3 1 <1>  -0.8380 
 15 C       -4.2140    -3.9110    -0.5180 C.3   1 <1>   0.2090 
 16 C       -5.0540    -1.9760     0.6380 C.3   1 <1>   0.2090 
 17 C       -5.6960    -4.1230    -0.2000 C.3   1 <1>   0.2800 
 18 C       -6.0780    -3.1010     0.8610 C.3   1 <1>  -0.0800 
 19 O       -6.5530    -3.7540    -1.2260 O.3   1 <1>  -0.5600 
 20 C       -6.2110    -5.5190     0.1450 C.3   1 <1>  -0.1600 
 21 C       -7.5810    -2.8770     0.5550 C.3   1 <1>  -0.0800 
 22 C       -7.7660    -3.8790    -0.5960 C.3   1 <1>   0.2000 
 23 C       -7.7100    -5.3320    -0.1020 C.3   1 <1>  -0.1600 
 24 C       -7.9050    -1.4440     0.1040 C.3   1 <1>   0.3430 
 25 N       -9.3420    -1.0690     0.3160 N.4   1 <1>  -0.9590 
 26 C      -10.2850    -1.7840    -0.6010 C.3   1 <1>   0.2630 
 27 C       -9.5060     0.4090     0.1540 C.3   1 <1>   0.2630 
 28 H        0.6770    -3.8300    -0.3920 H     1 <1>   0.0800 
 29 H        0.3670    -2.4980    -1.5050 H     1 <1>   0.0800 
 30 H        2.7850    -0.3170    -0.0570 H     1 <1>   0.0800 
 31 H        3.4820    -1.7440     0.6980 H     1 <1>   0.0800 
 32 H       -1.4290    -1.6950    -0.1580 H     1 <1>   0.1500 
 33 H       -0.0440    -3.0660     3.6060 H     1 <1>   0.1500 
 34 H        2.8910    -4.0410    -1.0920 H     1 <1>   0.0800 
 35 H        2.2080    -3.4840    -2.6070 H     1 <1>   0.0800 
 36 H        2.9160    -1.2380    -2.1870 H     1 <1>   0.0800 
 37 H        4.2600    -2.1230    -1.4950 H     1 <1>   0.0800 
 38 H       -2.2770    -3.9640     4.0000 H     1 <1>   0.1500 
 39 H       -4.0590    -3.8420    -1.5800 H     1 <1>   0.0800 
 40 H       -3.6350    -4.7290    -0.1240 H     1 <1>   0.0800 
 41 H       -4.8720    -1.4280     1.5480 H     1 <1>   0.0800 
 42 H       -5.3640    -1.2930    -0.1320 H     1 <1>   0.0800 
 43 H       -5.9250    -3.5130     1.8430 H     1 <1>   0.0800 
 44 H       -5.7940    -6.2460    -0.5300 H     1 <1>   0.0800 
 45 H       -5.9790    -5.7940     1.1590 H     1 <1>   0.0800 
 46 H       -8.1750    -3.1440     1.4100 H     1 <1>   0.0800 
 47 H       -8.5690    -3.6830    -1.2840 H     1 <1>   0.0800 
 48 H       -8.2980    -5.4830     0.7860 H     1 <1>   0.0800 
 49 H       -8.0530    -6.0000    -0.8740 H     1 <1>   0.0800 
 50 H       -7.6310    -1.3240    -0.9330 H     1 <1>   0.0800 
 51 H       -7.2960    -0.7680     0.6820 H     1 <1>   0.0800 
 52 H       -9.5900    -1.3080     1.2890 H     1 <1>   0.4500 
 53 H      -10.0100    -1.6130    -1.6290 H     1 <1>   0.0800 
 54 H      -11.2920    -1.4310    -0.4500 H     1 <1>   0.0800 
 55 H      -10.2660    -2.8440    -0.4080 H     1 <1>   0.0800 
 56 H       -9.2500     0.7070    -0.8500 H     1 <1>   0.0800 
 57 H       -8.8660     0.9360     0.8440 H     1 <1>   0.0800 
 58 H      -10.5270     0.6960     0.3490 H     1 <1>   0.0800 
@<TRIPOS>BOND
  1   1   2  2   
  2   2   3  am  
  3   2   4  1   
  4   3   5  1   
  5   3   6  1   
  6   4   7  ar  
  7   4   8  ar  
  8   5   9  1   
  9   5  28  1   
 10   5  29  1   
 11   6  10  1   
 12   6  30  1   
 13   6  31  1   
 14   7  11  ar  
 15   7  32  1   
 16   8  12  ar  
 17   8  33  1   
 18   9  10  1   
 19   9  34  1   
 20   9  35  1   
 21  10  36  1   
 22  10  37  1   
 23  11  13  ar  
 24  11  14  1   
 25  12  13  ar  
 26  12  38  1   
 27  14  15  1   
 28  14  16  1   
 29  15  17  1   
 30  15  39  1   
 31  15  40  1   
 32  16  18  1   
 33  16  41  1   
 34  16  42  1   
 35  17  18  1   
 36  17  19  1   
 37  17  20  1   
 38  18  21  1   
 39  18  43  1   
 40  19  22  1   
 41  20  23  1   
 42  20  44  1   
 43  20  45  1   
 44  21  22  1   
 45  21  24  1   
 46  21  46  1   
 47  22  23  1   
 48  22  47  1   
 49  23  48  1   
 50  23  49  1   
 51  24  25  1   
 52  24  50  1   
 53  24  51  1   
 54  25  26  1   
 55  25  27  1   
 56  25  52  1   
 57  26  53  1   
 58  26  54  1   
 59  26  55  1   
 60  27  56  1   
 61  27  57  1   
 62  27  58  1   
@<TRIPOS>SUBSTRUCTURE
  1 ****  14 GROUP 4 **** **** 0

# MOE 2024.06 (io_trps.svl 2023.06)
