@<TRIPOS>MOLECULE
NONAME
52 56 1 0 0 
SMALL
USER_CHARGES


@<TRIPOS>ATOM
  1 O       -0.6230     0.3560     0.0620 O.2   1 <1>  -0.5700 
  2 C       -1.7280     0.8490     0.0740 C.2   1 <1>   0.5690 
  3 N       -2.8360     0.0740     0.3260 N.am  1 <1>  -0.6600 
  4 C       -1.8510     2.3530    -0.2060 C.3   1 <1>  -0.0190 
  5 C       -2.6340    -1.3490     0.7410 C.3   1 <1>   0.1400 
  6 C       -4.2510     0.5300     0.1580 C.3   1 <1>   0.1400 
  7 C       -1.9510     2.6390    -1.7150 C.3   1 <1>  -0.1600 
  8 C       -0.6790     3.1700     0.3720 C.3   1 <1>  -0.1600 
  9 C       -3.8790    -1.9140     1.4260 C.3   1 <1>  -0.1600 
 10 C       -5.0840    -0.6120    -0.4170 C.3   1 <1>  -0.1600 
 11 C       -2.0000     4.1480    -1.9810 C.3   1 <1>   0.1200 
 12 C       -0.8040     4.6480    -0.0140 C.3   1 <1>   0.1200 
 13 C       -5.1390    -1.8050     0.5520 C.3   1 <1>   0.4600 
 14 O       -0.8910     4.7600    -1.4010 O.3   1 <1>  -0.5600 
 15 O       -6.1970    -1.5920     1.4600 O.3   1 <1>  -0.5600 
 16 C       -5.3700    -3.1090    -0.2070 C.2   1 <1>  -0.3320 
 17 C       -7.5020    -1.9630     1.0770 C.3   1 <1>   0.1200 
 18 N       -4.5130    -3.6930    -1.0990 N.pl3 1 <1>   0.0330 
 19 C       -6.4720    -3.8740    -0.0850 C.2   1 <1>  -0.1810 
 20 C       -7.6040    -3.4760     0.8270 C.3   1 <1>   0.0210 
 21 C       -5.0910    -4.8570    -1.5430 C.ar  1 <1>  -0.1520 
 22 C       -6.3270    -5.0020    -0.9200 C.ar  1 <1>   0.0000 
 23 C       -4.6310    -5.8130    -2.4530 C.ar  1 <1>  -0.1500 
 24 C       -7.1190    -6.1180    -1.2050 C.ar  1 <1>  -0.1500 
 25 C       -5.4200    -6.9060    -2.7240 C.ar  1 <1>  -0.1500 
 26 C       -6.6650    -7.0590    -2.1000 C.ar  1 <1>  -0.1500 
 27 H       -2.7400     2.7180     0.2730 H     1 <1>   0.0800 
 28 H       -1.7990    -1.4080     1.4180 H     1 <1>   0.0800 
 29 H       -2.3930    -1.9320    -0.1300 H     1 <1>   0.0800 
 30 H       -4.3040     1.3670    -0.5120 H     1 <1>   0.0800 
 31 H       -4.6470     0.8280     1.1150 H     1 <1>   0.0800 
 32 H       -2.8270     2.1730    -2.1270 H     1 <1>   0.0800 
 33 H       -1.0930     2.2270    -2.2180 H     1 <1>   0.0800 
 34 H        0.2570     2.7970    -0.0070 H     1 <1>   0.0800 
 35 H       -0.6600     3.0740     1.4430 H     1 <1>   0.0800 
 36 H       -4.0230    -1.3670     2.3410 H     1 <1>   0.0800 
 37 H       -3.7090    -2.9420     1.6890 H     1 <1>   0.0800 
 38 H       -4.6330    -0.9130    -1.3440 H     1 <1>   0.0800 
 39 H       -6.0740    -0.2680    -0.6450 H     1 <1>   0.0800 
 40 H       -2.8910     4.5920    -1.5690 H     1 <1>   0.0800 
 41 H       -1.9660     4.3450    -3.0380 H     1 <1>   0.0800 
 42 H        0.0680     5.1940     0.3050 H     1 <1>   0.0800 
 43 H       -1.6790     5.0970     0.4240 H     1 <1>   0.0800 
 44 H       -7.7650    -1.4230     0.1850 H     1 <1>   0.0800 
 45 H       -8.1710    -1.6710     1.8670 H     1 <1>   0.0800 
 46 H       -3.5980    -3.3400    -1.3950 H     1 <1>   0.2700 
 47 H       -8.5480    -3.7060     0.3700 H     1 <1>   0.0800 
 48 H       -7.5290    -4.0100     1.7570 H     1 <1>   0.0800 
 49 H       -3.6740    -5.6880    -2.9270 H     1 <1>   0.1500 
 50 H       -8.0700    -6.2230    -0.7180 H     1 <1>   0.1500 
 51 H       -5.0890    -7.6560    -3.4210 H     1 <1>   0.1500 
 52 H       -7.2620    -7.9240    -2.3290 H     1 <1>   0.1500 
@<TRIPOS>BOND
  1   1   2  2   
  2   2   3  am  
  3   2   4  1   
  4   3   5  1   
  5   3   6  1   
  6   4   7  1   
  7   4   8  1   
  8   4  27  1   
  9   5   9  1   
 10   5  28  1   
 11   5  29  1   
 12   6  10  1   
 13   6  30  1   
 14   6  31  1   
 15   7  11  1   
 16   7  32  1   
 17   7  33  1   
 18   8  12  1   
 19   8  34  1   
 20   8  35  1   
 21   9  13  1   
 22   9  36  1   
 23   9  37  1   
 24  10  13  1   
 25  10  38  1   
 26  10  39  1   
 27  11  14  1   
 28  11  40  1   
 29  11  41  1   
 30  12  14  1   
 31  12  42  1   
 32  12  43  1   
 33  13  15  1   
 34  13  16  1   
 35  15  17  1   
 36  16  18  1   
 37  16  19  2   
 38  17  20  1   
 39  17  44  1   
 40  17  45  1   
 41  18  21  1   
 42  18  46  1   
 43  19  20  1   
 44  19  22  1   
 45  20  47  1   
 46  20  48  1   
 47  21  22  ar  
 48  21  23  ar  
 49  22  24  ar  
 50  23  25  ar  
 51  23  49  1   
 52  24  26  ar  
 53  24  50  1   
 54  25  26  ar  
 55  25  51  1   
 56  26  52  1   
@<TRIPOS>SUBSTRUCTURE
  1 ****  10 GROUP 4 **** **** 0

# MOE 2024.06 (io_trps.svl 2023.06)
