@<TRIPOS>MOLECULE
NONAME
39 40 1 0 0 
SMALL
USER_CHARGES


@<TRIPOS>ATOM
  1 O       -1.1080    -0.7130     1.1220 O.2   1 <1>  -0.5700 
  2 C       -1.9980    -0.1790     0.4930 C.2   1 <1>   0.6900 
  3 N       -2.9560    -0.8250    -0.2070 N.am  1 <1>  -0.6600 
  4 N       -2.1420     1.1490     0.3850 N.am  1 <1>  -0.7300 
  5 C       -3.8380     0.1330    -0.9090 C.3   1 <1>   0.1400 
  6 C       -3.0980    -2.2910    -0.3400 C.3   1 <1>   0.1400 
  7 C       -3.2350     1.5030    -0.5430 C.3   1 <1>   0.1400 
  8 C       -3.8530    -2.8510     0.8670 C.3   1 <1>   0.1400 
  9 N       -4.0760    -4.3080     0.7050 N.am  1 <1>  -0.7300 
 10 C       -5.0480    -4.8740    -0.0600 C.2   1 <1>   0.7150 
 11 O       -5.7910    -4.1460    -0.6880 O.2   1 <1>  -0.5700 
 12 C       -5.1270    -6.3070    -0.1120 C.2   1 <1>  -0.2370 
 13 N       -6.2780    -7.0720    -0.1070 N.pl3 1 <1>   0.0480 
 14 C       -4.0570    -7.1670    -0.1710 C.2   1 <1>  -0.1500 
 15 C       -5.8960    -8.3750    -0.1640 C.2   1 <1>  -0.3020 
 16 C       -7.7200    -6.6920     0.0030 C.3   1 <1>   0.1760 
 17 C       -4.5430    -8.4670    -0.2060 C.2   1 <1>  -0.1500 
 18 C       -8.2660    -6.1630    -1.3280 C.3   1 <1>  -0.2400 
 19 C       -7.9890    -5.7320     1.1690 C.3   1 <1>  -0.2400 
 20 H       -1.3760     1.7730     0.6350 H     1 <1>   0.3700 
 21 H       -4.8490     0.0450    -0.5490 H     1 <1>   0.0800 
 22 H       -3.8100    -0.0320    -1.9720 H     1 <1>   0.0800 
 23 H       -2.1180    -2.7340    -0.3880 H     1 <1>   0.0800 
 24 H       -3.6320    -2.5180    -1.2460 H     1 <1>   0.0800 
 25 H       -2.8440     1.9970    -1.4150 H     1 <1>   0.0800 
 26 H       -3.9610     2.1300    -0.0550 H     1 <1>   0.0800 
 27 H       -4.8060    -2.3570     0.9510 H     1 <1>   0.0800 
 28 H       -3.2860    -2.6710     1.7640 H     1 <1>   0.0800 
 29 H       -3.4630    -4.9320     1.2300 H     1 <1>   0.3700 
 30 H       -3.0140    -6.9040    -0.1970 H     1 <1>   0.1500 
 31 H       -6.6040    -9.1850    -0.1720 H     1 <1>   0.1500 
 32 H       -8.2560    -7.5980     0.2220 H     1 <1>   0.0800 
 33 H       -3.9430    -9.3590    -0.2560 H     1 <1>   0.1500 
 34 H       -7.8160    -5.2250    -1.5910 H     1 <1>   0.0800 
 35 H       -9.3270    -6.0140    -1.2540 H     1 <1>   0.0800 
 36 H       -8.0760    -6.8730    -2.1120 H     1 <1>   0.0800 
 37 H       -7.6060    -4.7500     0.9680 H     1 <1>   0.0800 
 38 H       -7.5440    -6.1110     2.0720 H     1 <1>   0.0800 
 39 H       -9.0490    -5.6440     1.3250 H     1 <1>   0.0800 
@<TRIPOS>BOND
  1   1   2  2   
  2   2   3  am  
  3   2   4  am  
  4   3   5  1   
  5   3   6  1   
  6   4   7  1   
  7   4  20  1   
  8   5   7  1   
  9   5  21  1   
 10   5  22  1   
 11   6   8  1   
 12   6  23  1   
 13   6  24  1   
 14   7  25  1   
 15   7  26  1   
 16   8   9  1   
 17   8  27  1   
 18   8  28  1   
 19   9  10  am  
 20   9  29  1   
 21  10  11  2   
 22  10  12  1   
 23  12  13  1   
 24  12  14  2   
 25  13  15  1   
 26  13  16  1   
 27  14  17  1   
 28  14  30  1   
 29  15  17  2   
 30  15  31  1   
 31  16  18  1   
 32  16  19  1   
 33  16  32  1   
 34  17  33  1   
 35  18  34  1   
 36  18  35  1   
 37  18  36  1   
 38  19  37  1   
 39  19  38  1   
 40  19  39  1   
@<TRIPOS>SUBSTRUCTURE
  1 ****   9 GROUP 4 **** **** 0

# MOE 2024.06 (io_trps.svl 2023.06)
