@<TRIPOS>MOLECULE
NONAME
61 65 1 0 0 
SMALL
USER_CHARGES


@<TRIPOS>ATOM
  1 O        2.7830    -1.2350    -3.4460 O.2   1 <1>  -0.5700 
  2 C        2.7490    -2.0030    -2.5180 C.2   1 <1>   0.5690 
  3 N        1.9470    -1.7540    -1.4330 N.am  1 <1>  -0.6600 
  4 C        3.6570    -3.2120    -2.6400 C.3   1 <1>  -0.0990 
  5 C        1.8300    -2.6020    -0.2030 C.3   1 <1>   0.1400 
  6 C        1.1730    -0.4660    -1.3720 C.3   1 <1>   0.3200 
  7 C        3.4060    -4.3670    -1.6750 C.3   1 <1>   0.1200 
  8 C        3.1880    -3.0680     0.3940 C.3   1 <1>   0.2800 
  9 C        1.7320     0.4550    -0.2970 C.2   1 <1>   0.2980 
 10 O        3.8410    -4.0470    -0.3840 O.3   1 <1>  -0.5600 
 11 C        4.1740    -1.8970     0.5920 C.3   1 <1>  -0.1600 
 12 C        2.9610    -3.7260     1.7720 C.3   1 <1>  -0.1600 
 13 O        2.9070     1.0030    -0.4880 O.3   1 <1>  -0.0190 
 14 N        1.1760     0.7280     0.8180 N.2   1 <1>  -0.5650 
 15 C        5.5070    -2.3000     1.2340 C.3   1 <1>   0.3430 
 16 C        4.2390    -3.9200     2.6060 C.3   1 <1>   0.3430 
 17 N        3.1150     1.6840     0.5980 N.2   1 <1>  -0.4100 
 18 C        2.0910     1.5310     1.3380 C.2   1 <1>   0.3350 
 19 N        5.4310    -3.6930     1.7580 N.4   1 <1>  -0.9590 
 20 C        1.8870     2.1760     2.6880 C.3   1 <1>  -0.0590 
 21 C        6.7110    -4.1910     2.3180 C.3   1 <1>   0.4860 
 22 C        7.7460    -4.1820     1.2090 C.ar  1 <1>  -0.1440 
 23 C        7.5410    -4.9320     0.0510 C.ar  1 <1>  -0.1500 
 24 C        8.8970    -3.4130     1.3350 C.ar  1 <1>  -0.1500 
 25 C        8.4530    -4.9210    -0.9960 C.ar  1 <1>   0.0820 
 26 C        9.8020    -3.4190     0.2910 C.ar  1 <1>   0.0820 
 27 O        8.1280    -5.6760    -2.0800 O.3   1 <1>  -0.3630 
 28 C        9.6030    -4.1440    -0.8480 C.ar  1 <1>   0.0820 
 29 O       10.9570    -2.7500     0.2290 O.3   1 <1>  -0.3620 
 30 C        8.9950    -5.7660    -3.1890 C.3   1 <1>   0.0400 
 31 O       10.6440    -3.9530    -1.6800 O.3   1 <1>  -0.3620 
 32 C       11.5540    -3.0770    -1.0220 C.3   1 <1>   0.4000 
 33 H        4.6780    -2.8900    -2.5550 H     1 <1>   0.0800 
 34 H        3.5320    -3.5910    -3.6380 H     1 <1>   0.0800 
 35 H        1.1960    -3.4480    -0.4040 H     1 <1>   0.0800 
 36 H        1.3240    -2.0300     0.5560 H     1 <1>   0.0800 
 37 H        0.1440    -0.6840    -1.1470 H     1 <1>   0.0800 
 38 H        1.1920     0.0530    -2.3140 H     1 <1>   0.0800 
 39 H        3.9900    -5.2140    -1.9950 H     1 <1>   0.0800 
 40 H        2.3740    -4.6720    -1.6620 H     1 <1>   0.0800 
 41 H        3.7140    -1.1570     1.2220 H     1 <1>   0.0800 
 42 H        4.3830    -1.4100    -0.3420 H     1 <1>   0.0800 
 43 H        2.4760    -4.6760     1.6350 H     1 <1>   0.0800 
 44 H        2.2910    -3.1200     2.3550 H     1 <1>   0.0800 
 45 H        5.7540    -1.6110     2.0250 H     1 <1>   0.0800 
 46 H        6.2820    -2.2430     0.4850 H     1 <1>   0.0800 
 47 H        4.2530    -4.9210     3.0070 H     1 <1>   0.0800 
 48 H        4.2460    -3.2240     3.4300 H     1 <1>   0.0800 
 49 H        5.2460    -4.2440     0.8970 H     1 <1>   0.4500 
 50 H        1.7560     1.4190     3.4370 H     1 <1>   0.0800 
 51 H        1.0120     2.7970     2.6580 H     1 <1>   0.0800 
 52 H        2.7380     2.7820     2.9400 H     1 <1>   0.0800 
 53 H        6.5900    -5.1990     2.6810 H     1 <1>   0.0800 
 54 H        7.0310    -3.5650     3.1340 H     1 <1>   0.0800 
 55 H        6.6630    -5.5430    -0.0670 H     1 <1>   0.1500 
 56 H        9.1090    -2.8190     2.2070 H     1 <1>   0.1500 
 57 H        8.5470    -6.4200    -3.9140 H     1 <1>   0.0800 
 58 H        9.9380    -6.1690    -2.8630 H     1 <1>   0.0800 
 59 H        9.1250    -4.7850    -3.6110 H     1 <1>   0.0800 
 60 H       12.4870    -3.5850    -0.8540 H     1 <1>   0.0800 
 61 H       11.6850    -2.1830    -1.6060 H     1 <1>   0.0800 
@<TRIPOS>BOND
  1   1   2  2   
  2   2   3  am  
  3   2   4  1   
  4   3   5  1   
  5   3   6  1   
  6   4   7  1   
  7   4  33  1   
  8   4  34  1   
  9   5   8  1   
 10   5  35  1   
 11   5  36  1   
 12   6   9  1   
 13   6  37  1   
 14   6  38  1   
 15   7  10  1   
 16   7  39  1   
 17   7  40  1   
 18   8  10  1   
 19   8  11  1   
 20   8  12  1   
 21   9  13  1   
 22   9  14  2   
 23  11  15  1   
 24  11  41  1   
 25  11  42  1   
 26  12  16  1   
 27  12  43  1   
 28  12  44  1   
 29  13  17  1   
 30  14  18  1   
 31  15  19  1   
 32  15  45  1   
 33  15  46  1   
 34  16  19  1   
 35  16  47  1   
 36  16  48  1   
 37  17  18  2   
 38  18  20  1   
 39  19  21  1   
 40  19  49  1   
 41  20  50  1   
 42  20  51  1   
 43  20  52  1   
 44  21  22  1   
 45  21  53  1   
 46  21  54  1   
 47  22  23  ar  
 48  22  24  ar  
 49  23  25  ar  
 50  23  55  1   
 51  24  26  ar  
 52  24  56  1   
 53  25  27  1   
 54  25  28  ar  
 55  26  28  ar  
 56  26  29  1   
 57  27  30  1   
 58  28  31  1   
 59  29  32  1   
 60  30  57  1   
 61  30  58  1   
 62  30  59  1   
 63  31  32  1   
 64  32  60  1   
 65  32  61  1   
@<TRIPOS>SUBSTRUCTURE
  1 ****  15 GROUP 4 **** **** 0

# MOE 2024.06 (io_trps.svl 2023.06)
