@<TRIPOS>MOLECULE
NONAME
36 37 1 0 0 
SMALL
USER_CHARGES


@<TRIPOS>ATOM
  1 O       -1.4580    -0.5580     0.3740 O.2   1 <1>  -0.5700 
  2 C       -2.2720     0.3390     0.4090 C.2   1 <1>   0.5690 
  3 N       -3.5130     0.1240     0.9540 N.am  1 <1>  -0.6600 
  4 C       -1.8910     1.7030    -0.1860 C.3   1 <1>  -0.0190 
  5 C       -3.8270    -1.1920     1.5870 C.3   1 <1>   0.3200 
  6 C       -4.6740     1.0550     0.8370 C.3   1 <1>   0.1400 
  7 C       -0.7020     1.6990    -1.1530 C.3   1 <1>  -0.1600 
  8 C       -1.4680     2.7280     0.8690 C.3   1 <1>  -0.1600 
  9 C       -4.2310    -2.2000     0.5260 C.2   1 <1>   0.0060 
 10 C       -5.4520     0.7920    -0.4580 C.3   1 <1>   0.1200 
 11 C       -0.2570     3.1600    -1.2240 C.3   1 <1>  -0.1600 
 12 C       -0.6740     3.7950     0.1080 C.3   1 <1>  -0.1600 
 13 N       -5.4030    -2.7420     0.4140 N.2   1 <1>  -0.5650 
 14 N       -3.3540    -2.6060    -0.4150 N.pl3 1 <1>   0.0330 
 15 O       -6.4790     1.7180    -0.5650 O.3   1 <1>  -0.6800 
 16 C       -5.2800    -3.5480    -0.6590 C.2   1 <1>   0.0770 
 17 C       -4.0350    -3.4770    -1.1800 C.2   1 <1>  -0.3020 
 18 H       -2.7300     2.0970    -0.7300 H     1 <1>   0.0800 
 19 H       -4.6240    -1.0830     2.3000 H     1 <1>   0.0800 
 20 H       -2.9630    -1.5590     2.1140 H     1 <1>   0.0800 
 21 H       -4.3320     2.0740     0.8450 H     1 <1>   0.0800 
 22 H       -5.3280     0.9210     1.6810 H     1 <1>   0.0800 
 23 H       -0.9680     1.3070    -2.1190 H     1 <1>   0.0800 
 24 H        0.1020     1.1100    -0.7440 H     1 <1>   0.0800 
 25 H       -0.8200     2.2500     1.5850 H     1 <1>   0.0800 
 26 H       -2.3100     3.1500     1.3880 H     1 <1>   0.0800 
 27 H       -5.8830    -0.1940    -0.4680 H     1 <1>   0.0800 
 28 H       -4.8110     0.9150    -1.3130 H     1 <1>   0.0800 
 29 H       -0.7680     3.6540    -2.0320 H     1 <1>   0.0800 
 30 H        0.8050     3.2350    -1.3860 H     1 <1>   0.0800 
 31 H        0.1870     4.1010     0.6780 H     1 <1>   0.0800 
 32 H       -1.2910     4.6570    -0.0780 H     1 <1>   0.0800 
 33 H       -2.3850    -2.2660    -0.4970 H     1 <1>   0.2700 
 34 H       -7.2460     1.4450    -0.0230 H     1 <1>   0.4000 
 35 H       -6.1060    -4.1460    -1.0060 H     1 <1>   0.1500 
 36 H       -3.6080    -3.9820    -2.0270 H     1 <1>   0.1500 
@<TRIPOS>BOND
  1   1   2  2   
  2   2   3  am  
  3   2   4  1   
  4   3   5  1   
  5   3   6  1   
  6   4   7  1   
  7   4   8  1   
  8   4  18  1   
  9   5   9  1   
 10   5  19  1   
 11   5  20  1   
 12   6  10  1   
 13   6  21  1   
 14   6  22  1   
 15   7  11  1   
 16   7  23  1   
 17   7  24  1   
 18   8  12  1   
 19   8  25  1   
 20   8  26  1   
 21   9  13  2   
 22   9  14  1   
 23  10  15  1   
 24  10  27  1   
 25  10  28  1   
 26  11  12  1   
 27  11  29  1   
 28  11  30  1   
 29  12  31  1   
 30  12  32  1   
 31  13  16  1   
 32  14  17  1   
 33  14  33  1   
 34  15  34  1   
 35  16  17  2   
 36  16  35  1   
 37  17  36  1   
@<TRIPOS>SUBSTRUCTURE
  1 ****   3 GROUP 4 **** **** 0

# MOE 2024.06 (io_trps.svl 2023.06)
