@<TRIPOS>MOLECULE
NONAME
40 42 1 0 0 
SMALL
USER_CHARGES


@<TRIPOS>ATOM
  1 S       -1.0260     0.0210     1.4070 S.3   1 <1>  -0.0800 
  2 C       -1.8490     0.5410    -0.0470 C.2   1 <1>   0.1980 
  3 C        0.4490     0.7100     0.7910 C.2   1 <1>  -0.1400 
  4 N       -1.1040     1.1530    -0.8780 N.2   1 <1>  -0.5650 
  5 C       -3.3270     0.2110    -0.1650 C.3   1 <1>   0.3200 
  6 C        0.1960     1.2520    -0.4130 C.2   1 <1>   0.0460 
  7 C        1.6780     0.5790     1.6690 C.3   1 <1>  -0.0600 
  8 N       -3.5190    -1.2410    -0.3810 N.am  1 <1>  -0.7300 
  9 C        1.1720     1.9620    -1.3270 C.3   1 <1>  -0.0590 
 10 C       -4.2780    -2.0710     0.3860 C.2   1 <1>   0.7160 
 11 O       -5.0130    -1.5790     1.2240 O.2   1 <1>  -0.5700 
 12 C       -4.1780    -3.5090     0.1880 C.2   1 <1>   0.2030 
 13 N       -3.3860    -4.1060    -0.6870 N.2   1 <1>  -0.7070 
 14 C       -4.8990    -4.4650     0.8980 C.2   1 <1>  -0.1500 
 15 N       -3.6020    -5.4150    -0.5310 N.pl3 1 <1>   0.3140 
 16 C       -4.5160    -5.6810     0.4300 C.2   1 <1>  -0.2370 
 17 C       -2.8570    -6.3840    -1.3460 C.3   1 <1>   0.0960 
 18 C       -4.9840    -6.9750     0.8350 C.2   1 <1>   0.7150 
 19 C       -2.1420    -7.3720    -0.4270 C.3   1 <1>   0.2000 
 20 O       -5.9860    -7.0700     1.5070 O.2   1 <1>  -0.5700 
 21 N       -4.3920    -8.1560     0.5220 N.am  1 <1>  -0.7300 
 22 O       -1.0630    -7.9140    -1.1160 O.3   1 <1>  -0.6800 
 23 C       -3.0330    -8.5320     0.0440 C.3   1 <1>   0.1400 
 24 H       -3.7390     0.7460    -1.0020 H     1 <1>   0.0800 
 25 H       -3.8360     0.5310     0.7270 H     1 <1>   0.0800 
 26 H        1.5020     1.0610     2.6140 H     1 <1>   0.0800 
 27 H        2.5320     1.0330     1.2030 H     1 <1>   0.0800 
 28 H        1.8900    -0.4610     1.8430 H     1 <1>   0.0800 
 29 H       -2.8640    -1.6940    -1.0240 H     1 <1>   0.3700 
 30 H        2.1530     1.9950    -0.8940 H     1 <1>   0.0800 
 31 H        0.8340     2.9670    -1.5010 H     1 <1>   0.0800 
 32 H        1.2220     1.4460    -2.2680 H     1 <1>   0.0800 
 33 H       -5.6210    -4.2530     1.6680 H     1 <1>   0.1500 
 34 H       -2.1350    -5.8380    -1.9260 H     1 <1>   0.0800 
 35 H       -3.5420    -6.8850    -2.0020 H     1 <1>   0.0800 
 36 H       -1.7300    -6.8520     0.4220 H     1 <1>   0.0800 
 37 H       -4.9310    -8.9430     0.8930 H     1 <1>   0.3700 
 38 H       -1.3420    -8.3710    -1.9330 H     1 <1>   0.4000 
 39 H       -2.5230    -9.0470     0.8410 H     1 <1>   0.0800 
 40 H       -3.1590    -9.2240    -0.7700 H     1 <1>   0.0800 
@<TRIPOS>BOND
  1   1   2  1   
  2   1   3  1   
  3   2   4  2   
  4   2   5  1   
  5   3   6  2   
  6   3   7  1   
  7   4   6  1   
  8   5   8  1   
  9   5  24  1   
 10   5  25  1   
 11   6   9  1   
 12   7  26  1   
 13   7  27  1   
 14   7  28  1   
 15   8  10  am  
 16   8  29  1   
 17   9  30  1   
 18   9  31  1   
 19   9  32  1   
 20  10  11  2   
 21  10  12  1   
 22  12  13  2   
 23  12  14  1   
 24  13  15  1   
 25  14  16  2   
 26  14  33  1   
 27  15  16  1   
 28  15  17  1   
 29  16  18  1   
 30  17  19  1   
 31  17  34  1   
 32  17  35  1   
 33  18  20  2   
 34  18  21  am  
 35  19  22  1   
 36  19  23  1   
 37  19  36  1   
 38  21  23  1   
 39  21  37  1   
 40  22  38  1   
 41  23  39  1   
 42  23  40  1   
@<TRIPOS>SUBSTRUCTURE
  1 ****  13 GROUP 4 **** **** 0

# MOE 2024.06 (io_trps.svl 2023.06)
