@<TRIPOS>MOLECULE
NONAME
45 46 1 0 0 
SMALL
USER_CHARGES


@<TRIPOS>ATOM
  1 S       -0.6980    -0.1210    -1.1800 S.o2  1 <1>   1.3330 
  2 O       -0.4940     1.3040    -1.0480 O.2   1 <1>  -0.6500 
  3 O       -1.0340    -0.6550    -2.4810 O.2   1 <1>  -0.6500 
  4 N       -1.9190    -0.5900    -0.1030 N.am  1 <1>  -0.8490 
  5 C        0.7640    -0.9830    -0.5730 C.3   1 <1>  -0.0550 
  6 C       -2.4010    -1.9630    -0.3550 C.3   1 <1>   0.1960 
  7 C       -3.0310     0.3680    -0.0900 C.3   1 <1>   0.1960 
  8 C        1.1040    -0.8110     0.9230 C.3   1 <1>  -0.1600 
  9 C       -3.4660    -2.4000     0.6660 C.3   1 <1>   0.2000 
 10 C       -4.0570    -0.0160     0.9810 C.3   1 <1>  -0.1600 
 11 C        1.6670     0.5760     1.2560 C.3   1 <1>  -0.2400 
 12 O       -3.9140    -3.6690     0.3350 O.3   1 <1>  -0.6800 
 13 C       -4.6640    -1.4290     0.7590 C.3   1 <1>  -0.1060 
 14 C       -5.4970    -1.8890     1.9640 C.2   1 <1>   0.9060 
 15 C       -5.5500    -1.4840    -0.5250 C.3   1 <1>  -0.0170 
 16 O       -5.7660    -1.1080     2.8810 O.co2 1 <1>  -0.9000 
 17 O       -5.8700    -3.0730     1.9950 O.co2 1 <1>  -0.9000 
 18 C       -6.4850    -0.2940    -0.7340 C.ar  1 <1>  -0.1440 
 19 C       -7.5240    -0.0470     0.1500 C.ar  1 <1>  -0.1500 
 20 C       -6.3070     0.5550    -1.8180 C.ar  1 <1>  -0.1500 
 21 C       -8.3690     1.0320    -0.0410 C.ar  1 <1>  -0.1500 
 22 C       -7.1510     1.6350    -2.0120 C.ar  1 <1>  -0.1500 
 23 C       -8.1840     1.8750    -1.1230 C.ar  1 <1>  -0.1500 
 24 H        0.6220    -2.0310    -0.7520 H     1 <1>   0.0800 
 25 H        1.6110    -0.6820    -1.1590 H     1 <1>   0.0800 
 26 H       -2.8100    -2.0280    -1.3480 H     1 <1>   0.0800 
 27 H       -1.5760    -2.6490    -0.2870 H     1 <1>   0.0800 
 28 H       -2.6580     1.3520     0.1390 H     1 <1>   0.0800 
 29 H       -3.4970     0.4060    -1.0600 H     1 <1>   0.0800 
 30 H        0.2270    -0.9970     1.5210 H     1 <1>   0.0800 
 31 H        1.8410    -1.5480     1.1910 H     1 <1>   0.0800 
 32 H       -3.0000    -2.4760     1.6340 H     1 <1>   0.0800 
 33 H       -3.5690     0.0140     1.9400 H     1 <1>   0.0800 
 34 H       -4.8370     0.7230     1.0170 H     1 <1>   0.0800 
 35 H        0.9250     1.3390     1.0970 H     1 <1>   0.0800 
 36 H        2.5260     0.7960     0.6460 H     1 <1>   0.0800 
 37 H        1.9640     0.6110     2.2890 H     1 <1>   0.0800 
 38 H       -4.7160    -3.8190     0.9200 H     1 <1>   0.4000 
 39 H       -4.9270    -1.5710    -1.3940 H     1 <1>   0.0800 
 40 H       -6.1490    -2.3780    -0.5030 H     1 <1>   0.0800 
 41 H       -7.6770    -0.6940     1.0000 H     1 <1>   0.1500 
 42 H       -5.5100     0.3780    -2.5170 H     1 <1>   0.1500 
 43 H       -9.1650     1.2110     0.6590 H     1 <1>   0.1500 
 44 H       -7.0040     2.2860    -2.8540 H     1 <1>   0.1500 
 45 H       -8.8400     2.7140    -1.2690 H     1 <1>   0.1500 
@<TRIPOS>BOND
  1   1   2  2   
  2   1   3  2   
  3   1   4  am  
  4   1   5  1   
  5   4   6  1   
  6   4   7  1   
  7   5   8  1   
  8   5  24  1   
  9   5  25  1   
 10   6   9  1   
 11   6  26  1   
 12   6  27  1   
 13   7  10  1   
 14   7  28  1   
 15   7  29  1   
 16   8  11  1   
 17   8  30  1   
 18   8  31  1   
 19   9  12  1   
 20   9  13  1   
 21   9  32  1   
 22  10  13  1   
 23  10  33  1   
 24  10  34  1   
 25  11  35  1   
 26  11  36  1   
 27  11  37  1   
 28  12  38  1   
 29  13  14  1   
 30  13  15  1   
 31  14  16  ar  
 32  14  17  ar  
 33  15  18  1   
 34  15  39  1   
 35  15  40  1   
 36  18  19  ar  
 37  18  20  ar  
 38  19  21  ar  
 39  19  41  1   
 40  20  22  ar  
 41  20  42  1   
 42  21  23  ar  
 43  21  43  1   
 44  22  23  ar  
 45  22  44  1   
 46  23  45  1   
@<TRIPOS>SUBSTRUCTURE
  1 ****  10 GROUP 4 **** **** 0

# MOE 2024.06 (io_trps.svl 2023.06)
