@<TRIPOS>MOLECULE
NONAME
47 49 1 0 0 
SMALL
USER_CHARGES


@<TRIPOS>ATOM
  1 O        0.4250     0.0660     1.2210 O.2   1 <1>  -0.5700 
  2 C        0.3680     1.1920     0.7790 C.2   1 <1>   0.5690 
  3 N       -0.7840     1.7000     0.2270 N.am  1 <1>  -0.6600 
  4 C        1.6430     2.0500     0.8330 C.3   1 <1>   0.2700 
  5 C       -1.9960     0.8460     0.0410 C.3   1 <1>   0.2200 
  6 C       -0.8100     3.1170    -0.2530 C.3   1 <1>   0.1400 
  7 N        1.4500     3.5520     0.7540 N.pl3 1 <1>  -0.8380 
  8 C       -2.4520     0.8190    -1.4220 C.3   1 <1>  -0.1600 
  9 C       -3.1860     1.3740     0.8540 C.3   1 <1>  -0.1600 
 10 C        0.0440     4.0360     0.6360 C.3   1 <1>   0.2090 
 11 C        2.5430     4.3810     0.6140 C.ar  1 <1>   0.4100 
 12 C       -3.6780     1.7260    -1.5090 C.3   1 <1>  -0.1600 
 13 C       -4.3320     1.6150    -0.1350 C.3   1 <1>  -0.1600 
 14 N        3.6300     3.8470     0.0670 N.ar  1 <1>  -0.6200 
 15 C        2.5030     5.7090     1.0390 C.ar  1 <1>  -0.1500 
 16 C        4.6750     4.6440    -0.0730 C.ar  1 <1>   0.1600 
 17 C        3.5970     6.5250     0.8790 C.ar  1 <1>  -0.1500 
 18 C        4.7340     5.9860     0.2860 C.ar  1 <1>   0.0860 
 19 C        5.9380     6.7480     0.0550 C.2   1 <1>   0.5440 
 20 O        7.0140     6.2440     0.3160 O.2   1 <1>  -0.5700 
 21 N        5.9120     8.0290    -0.4670 N.am  1 <1>  -0.6600 
 22 C        4.7840     8.5720    -1.2720 C.3   1 <1>   0.0600 
 23 C        7.1240     8.8950    -0.4440 C.3   1 <1>   0.0600 
 24 H        2.2680     1.7300     0.0190 H     1 <1>   0.0800 
 25 H        2.1610     1.8210     1.7470 H     1 <1>   0.0800 
 26 H       -1.7780    -0.1640     0.3490 H     1 <1>   0.0800 
 27 H       -1.8170     3.4890    -0.2500 H     1 <1>   0.0800 
 28 H       -0.4400     3.1550    -1.2630 H     1 <1>   0.0800 
 29 H       -2.7560    -0.1860    -1.6560 H     1 <1>   0.0800 
 30 H       -1.6730     1.1040    -2.1070 H     1 <1>   0.0800 
 31 H       -2.9340     2.2860     1.3640 H     1 <1>   0.0800 
 32 H       -3.4810     0.6480     1.5900 H     1 <1>   0.0800 
 33 H       -0.3950     4.0840     1.6170 H     1 <1>   0.0800 
 34 H        0.0320     5.0250     0.2130 H     1 <1>   0.0800 
 35 H       -4.3460     1.4210    -2.2970 H     1 <1>   0.0800 
 36 H       -3.3730     2.7410    -1.6880 H     1 <1>   0.0800 
 37 H       -4.9010     2.4950     0.1120 H     1 <1>   0.0800 
 38 H       -4.9900     0.7620    -0.1270 H     1 <1>   0.0800 
 39 H        1.6150     6.0860     1.5060 H     1 <1>   0.1500 
 40 H        5.5600     4.2090    -0.5080 H     1 <1>   0.1500 
 41 H        3.5890     7.5490     1.2070 H     1 <1>   0.1500 
 42 H        4.0850     7.7950    -1.5280 H     1 <1>   0.0800 
 43 H        5.1620     8.9970    -2.1860 H     1 <1>   0.0800 
 44 H        4.2750     9.3370    -0.7130 H     1 <1>   0.0800 
 45 H        7.8210     8.5500     0.3020 H     1 <1>   0.0800 
 46 H        6.8480     9.9080    -0.2100 H     1 <1>   0.0800 
 47 H        7.6060     8.8680    -1.4050 H     1 <1>   0.0800 
@<TRIPOS>BOND
  1   1   2  2   
  2   2   3  am  
  3   2   4  1   
  4   3   5  1   
  5   3   6  1   
  6   4   7  1   
  7   4  24  1   
  8   4  25  1   
  9   5   8  1   
 10   5   9  1   
 11   5  26  1   
 12   6  10  1   
 13   6  27  1   
 14   6  28  1   
 15   7  10  1   
 16   7  11  1   
 17   8  12  1   
 18   8  29  1   
 19   8  30  1   
 20   9  13  1   
 21   9  31  1   
 22   9  32  1   
 23  10  33  1   
 24  10  34  1   
 25  11  14  ar  
 26  11  15  ar  
 27  12  13  1   
 28  12  35  1   
 29  12  36  1   
 30  13  37  1   
 31  13  38  1   
 32  14  16  ar  
 33  15  17  ar  
 34  15  39  1   
 35  16  18  ar  
 36  16  40  1   
 37  17  18  ar  
 38  17  41  1   
 39  18  19  1   
 40  19  20  2   
 41  19  21  am  
 42  21  22  1   
 43  21  23  1   
 44  22  42  1   
 45  22  43  1   
 46  22  44  1   
 47  23  45  1   
 48  23  46  1   
 49  23  47  1   
@<TRIPOS>SUBSTRUCTURE
  1 ****   7 GROUP 4 **** **** 0

# MOE 2024.06 (io_trps.svl 2023.06)
