@<TRIPOS>MOLECULE
NONAME
41 42 1 0 0 
SMALL
USER_CHARGES


@<TRIPOS>ATOM
  1 CL       1.7140    -0.8630     0.3930 Cl    1 <1>  -0.1770 
  2 C        0.7920    -2.3210     0.1220 C.ar  1 <1>   0.1770 
  3 C        0.5030    -2.7630    -1.1570 C.ar  1 <1>   0.1900 
  4 C        0.3400    -3.0500     1.2060 C.ar  1 <1>  -0.1500 
  5 F        0.9230    -2.0810    -2.1910 F     1 <1>  -0.1900 
  6 C       -0.2240    -3.9160    -1.3770 C.ar  1 <1>  -0.1500 
  7 C       -0.3910    -4.2090     0.9920 C.ar  1 <1>  -0.1500 
  8 C       -0.6860    -4.6730    -0.2980 C.ar  1 <1>   0.0860 
  9 C       -1.4440    -5.8910    -0.5250 C.2   1 <1>   0.5440 
 10 O       -2.0790    -6.0440    -1.5500 O.2   1 <1>  -0.5700 
 11 N       -1.4700    -6.8920     0.4020 N.am  1 <1>  -0.7300 
 12 C       -2.2100    -8.1660     0.2430 C.3   1 <1>   0.2200 
 13 C       -3.6590    -7.9640     0.6940 C.3   1 <1>  -0.0800 
 14 C       -1.6840    -9.2070     1.2280 C.3   1 <1>   0.1200 
 15 C       -3.7710    -8.8160     1.9650 C.3   1 <1>   0.1200 
 16 C       -4.6940    -8.2250    -0.4240 C.3   1 <1>  -0.0550 
 17 O       -2.4590    -9.0370     2.3700 O.3   1 <1>  -0.5600 
 18 S       -4.8670    -9.9100    -1.0360 S.o2  1 <1>   1.3330 
 19 O       -3.5720   -10.5550    -1.0290 O.2   1 <1>  -0.6500 
 20 O       -5.6410    -9.8870    -2.2560 O.2   1 <1>  -0.6500 
 21 N       -5.8330   -10.6640     0.1420 N.am  1 <1>  -0.8490 
 22 C       -7.2700   -10.4270    -0.0410 C.3   1 <1>   0.1160 
 23 C       -5.5780   -12.1050     0.2300 C.3   1 <1>   0.1160 
 24 H        0.5580    -2.7080     2.2030 H     1 <1>   0.1500 
 25 H       -0.4340    -4.2310    -2.3850 H     1 <1>   0.1500 
 26 H       -0.7450    -4.7590     1.8470 H     1 <1>   0.1500 
 27 H       -1.0120    -6.7850     1.3070 H     1 <1>   0.3700 
 28 H       -2.1180    -8.5140    -0.7730 H     1 <1>   0.0800 
 29 H       -3.7910    -6.9390     0.9960 H     1 <1>   0.0800 
 30 H       -0.6440    -9.0760     1.4680 H     1 <1>   0.0800 
 31 H       -1.8520   -10.2040     0.8580 H     1 <1>   0.0800 
 32 H       -4.2130    -9.7790     1.7890 H     1 <1>   0.0800 
 33 H       -4.3010    -8.3120     2.7540 H     1 <1>   0.0800 
 34 H       -4.4210    -7.6010    -1.2540 H     1 <1>   0.0800 
 35 H       -5.6530    -7.8840    -0.0880 H     1 <1>   0.0800 
 36 H       -7.8210   -10.8440     0.7840 H     1 <1>   0.0800 
 37 H       -7.6130   -10.8810    -0.9570 H     1 <1>   0.0800 
 38 H       -7.4710    -9.3710    -0.0850 H     1 <1>   0.0800 
 39 H       -6.1990   -12.5500     0.9880 H     1 <1>   0.0800 
 40 H       -4.5480   -12.2830     0.4930 H     1 <1>   0.0800 
 41 H       -5.7790   -12.5790    -0.7170 H     1 <1>   0.0800 
@<TRIPOS>BOND
  1   1   2  1   
  2   2   3  ar  
  3   2   4  ar  
  4   3   5  1   
  5   3   6  ar  
  6   4   7  ar  
  7   4  24  1   
  8   6   8  ar  
  9   6  25  1   
 10   7   8  ar  
 11   7  26  1   
 12   8   9  1   
 13   9  10  2   
 14   9  11  am  
 15  11  12  1   
 16  11  27  1   
 17  12  13  1   
 18  12  14  1   
 19  12  28  1   
 20  13  15  1   
 21  13  16  1   
 22  13  29  1   
 23  14  17  1   
 24  14  30  1   
 25  14  31  1   
 26  15  17  1   
 27  15  32  1   
 28  15  33  1   
 29  16  18  1   
 30  16  34  1   
 31  16  35  1   
 32  18  19  2   
 33  18  20  2   
 34  18  21  am  
 35  21  22  1   
 36  21  23  1   
 37  22  36  1   
 38  22  37  1   
 39  22  38  1   
 40  23  39  1   
 41  23  40  1   
 42  23  41  1   
@<TRIPOS>SUBSTRUCTURE
  1 ****  11 GROUP 4 **** **** 0

# MOE 2024.06 (io_trps.svl 2023.06)
