@<TRIPOS>MOLECULE
NONAME
50 52 1 0 0 
SMALL
USER_CHARGES


@<TRIPOS>ATOM
  1 F       -5.1530    -2.5800     1.8430 F     1 <1>  -0.3400 
  2 C       -4.5870    -1.3780     1.9320 C.3   1 <1>   0.8800 
  3 F       -4.0880    -1.3060     3.1560 F     1 <1>  -0.3400 
  4 O       -5.6180    -0.4190     1.8300 O.3   1 <1>  -0.3630 
  5 C       -5.4900     0.5690     0.9190 C.ar  1 <1>   0.0830 
  6 C       -5.4470     0.3150    -0.4590 C.ar  1 <1>   0.0860 
  7 C       -5.4380     1.8680     1.3990 C.ar  1 <1>  -0.1500 
  8 C       -5.5430    -1.0270    -0.9800 C.2   1 <1>   0.5440 
  9 C       -5.3230     1.4030    -1.3210 C.ar  1 <1>  -0.1500 
 10 C       -5.3210     2.9320     0.5240 C.ar  1 <1>  -0.1500 
 11 O       -4.5320    -1.6980    -1.0630 O.2   1 <1>  -0.5700 
 12 N       -6.7510    -1.6080    -1.3080 N.am  1 <1>  -0.6600 
 13 C       -5.2600     2.6970    -0.8390 C.ar  1 <1>  -0.1500 
 14 C       -6.8350    -3.0600    -1.6180 C.3   1 <1>   0.1400 
 15 C       -8.0640    -0.9990    -0.9560 C.3   1 <1>   0.1400 
 16 C       -7.3430    -3.8010    -0.3620 C.3   1 <1>   0.4230 
 17 C       -8.6090    -1.7140     0.2870 C.3   1 <1>  -0.1600 
 18 N       -7.2660    -5.3170    -0.4620 N.4   1 <1>  -0.9590 
 19 C       -8.7220    -3.2600     0.1250 C.3   1 <1>   0.0000 
 20 C       -8.0990    -6.0380     0.5550 C.3   1 <1>   0.3430 
 21 C       -7.5050    -5.8890    -1.8270 C.3   1 <1>   0.2630 
 22 C       -9.0550    -3.8820     1.5140 C.3   1 <1>  -0.1600 
 23 C       -9.8290    -3.6150    -0.9090 C.3   1 <1>   0.1200 
 24 C       -8.2910    -5.1870     1.8090 C.3   1 <1>  -0.1600 
 25 O      -11.0260    -2.9830    -0.6180 O.3   1 <1>  -0.6800 
 26 H       -3.8060    -1.2680     1.2000 H     1 <1>   0.0800 
 27 H       -5.4890     2.0450     2.4600 H     1 <1>   0.1500 
 28 H       -5.2760     1.2270    -2.3820 H     1 <1>   0.1500 
 29 H       -5.2760     3.9400     0.9010 H     1 <1>   0.1500 
 30 H       -5.1640     3.5250    -1.5210 H     1 <1>   0.1500 
 31 H       -7.4960    -3.1950    -2.4540 H     1 <1>   0.0800 
 32 H       -5.8660    -3.4370    -1.8950 H     1 <1>   0.0800 
 33 H       -7.9620     0.0540    -0.7560 H     1 <1>   0.0800 
 34 H       -8.7470    -1.1060    -1.7830 H     1 <1>   0.0800 
 35 H       -6.6510    -3.5240     0.4150 H     1 <1>   0.0800 
 36 H       -7.9490    -1.4820     1.1040 H     1 <1>   0.0800 
 37 H       -9.5630    -1.2860     0.5410 H     1 <1>   0.0800 
 38 H       -6.2860    -5.5280    -0.2190 H     1 <1>   0.4500 
 39 H       -9.0700    -6.2580     0.1410 H     1 <1>   0.0800 
 40 H       -7.6300    -6.9730     0.8160 H     1 <1>   0.0800 
 41 H       -8.5040    -5.6630    -2.1620 H     1 <1>   0.0800 
 42 H       -7.3840    -6.9600    -1.8090 H     1 <1>   0.0800 
 43 H       -6.8020    -5.4830    -2.5360 H     1 <1>   0.0800 
 44 H       -8.8200    -3.1910     2.3060 H     1 <1>   0.0800 
 45 H      -10.1120    -4.0720     1.5910 H     1 <1>   0.0800 
 46 H      -10.0220    -4.6720    -0.9310 H     1 <1>   0.0800 
 47 H       -9.5570    -3.2990    -1.9000 H     1 <1>   0.0800 
 48 H       -8.8350    -5.7550     2.5450 H     1 <1>   0.0800 
 49 H       -7.3270    -4.9630     2.2350 H     1 <1>   0.0800 
 50 H      -11.3700    -3.2290     0.2640 H     1 <1>   0.4000 
@<TRIPOS>BOND
  1   1   2  1   
  2   2   3  1   
  3   2   4  1   
  4   2  26  1   
  5   4   5  1   
  6   5   6  ar  
  7   5   7  ar  
  8   6   8  1   
  9   6   9  ar  
 10   7  10  ar  
 11   7  27  1   
 12   8  11  2   
 13   8  12  am  
 14   9  13  ar  
 15   9  28  1   
 16  10  13  ar  
 17  10  29  1   
 18  12  14  1   
 19  12  15  1   
 20  13  30  1   
 21  14  16  1   
 22  14  31  1   
 23  14  32  1   
 24  15  17  1   
 25  15  33  1   
 26  15  34  1   
 27  16  18  1   
 28  16  19  1   
 29  16  35  1   
 30  17  19  1   
 31  17  36  1   
 32  17  37  1   
 33  18  20  1   
 34  18  21  1   
 35  18  38  1   
 36  19  22  1   
 37  19  23  1   
 38  20  24  1   
 39  20  39  1   
 40  20  40  1   
 41  21  41  1   
 42  21  42  1   
 43  21  43  1   
 44  22  24  1   
 45  22  44  1   
 46  22  45  1   
 47  23  25  1   
 48  23  46  1   
 49  23  47  1   
 50  24  48  1   
 51  24  49  1   
 52  25  50  1   
@<TRIPOS>SUBSTRUCTURE
  1 ****  12 GROUP 4 **** **** 0

# MOE 2024.06 (io_trps.svl 2023.06)
