@<TRIPOS>MOLECULE
NONAME
42 44 1 0 0 
SMALL
USER_CHARGES


@<TRIPOS>ATOM
  1 O       -2.2960     0.7310    -1.8800 O.2   1 <1>  -0.5700 
  2 C       -2.0910     0.6800    -0.6930 C.2   1 <1>   0.5690 
  3 N       -1.9990    -0.4970    -0.0320 N.am  1 <1>  -0.7300 
  4 C       -1.9370     1.9670     0.0760 C.3   1 <1>  -0.0990 
  5 C       -2.1090    -1.8350    -0.6590 C.3   1 <1>   0.2200 
  6 C       -0.7280     2.7460    -0.4500 C.3   1 <1>   0.0960 
  7 C       -3.4540    -2.4800    -0.3540 C.3   1 <1>  -0.0800 
  8 C       -1.1720    -2.7930     0.0630 C.3   1 <1>   0.1200 
  9 N       -0.5420     3.9850     0.3240 N.pl3 1 <1>   0.3140 
 10 C       -3.2270    -3.1240     1.0190 C.3   1 <1>   0.1200 
 11 C       -4.6800    -1.5500    -0.4250 C.3   1 <1>  -0.0170 
 12 O       -1.8450    -3.1430     1.2330 O.3   1 <1>  -0.5600 
 13 N       -0.1230     3.9640     1.6030 N.2   1 <1>  -0.7070 
 14 C       -0.7620     5.2450    -0.0980 C.2   1 <1>  -0.3020 
 15 C       -5.9650    -2.3270    -0.1850 C.ar  1 <1>  -0.1440 
 16 C       -0.0830     5.2110     1.9610 C.2   1 <1>   0.1390 
 17 C       -0.4740     6.0640     0.9360 C.2   1 <1>  -0.1500 
 18 C       -6.5680    -3.0570    -1.1880 C.ar  1 <1>  -0.1500 
 19 C       -6.5940    -2.3440     1.0440 C.ar  1 <1>  -0.1500 
 20 C       -7.7350    -3.7550    -0.9210 C.ar  1 <1>   0.1600 
 21 C       -7.7590    -3.0750     1.2060 C.ar  1 <1>   0.1600 
 22 N       -8.3430    -3.7830     0.2530 N.ar  1 <1>  -0.6200 
 23 H       -1.8380    -0.5270     0.9790 H     1 <1>   0.3700 
 24 H       -2.8300     2.5500    -0.0520 H     1 <1>   0.0800 
 25 H       -1.8060     1.7540     1.1210 H     1 <1>   0.0800 
 26 H       -1.9040    -1.7780    -1.7150 H     1 <1>   0.0800 
 27 H       -0.8670     2.9970    -1.4860 H     1 <1>   0.0800 
 28 H        0.1640     2.1540    -0.3530 H     1 <1>   0.0800 
 29 H       -3.6010    -3.2780    -1.0600 H     1 <1>   0.0800 
 30 H       -0.2230    -2.3480     0.3060 H     1 <1>   0.0800 
 31 H       -1.0220    -3.6890    -0.5140 H     1 <1>   0.0800 
 32 H       -3.6010    -4.1330     1.0530 H     1 <1>   0.0800 
 33 H       -3.6700    -2.5450     1.8100 H     1 <1>   0.0800 
 34 H       -4.7190    -1.0850    -1.3950 H     1 <1>   0.0800 
 35 H       -4.6000    -0.7650     0.3060 H     1 <1>   0.0800 
 36 H       -1.1040     5.4850    -1.0880 H     1 <1>   0.1500 
 37 H        0.2190     5.5360     2.9420 H     1 <1>   0.1500 
 38 H       -0.5250     7.1370     0.9870 H     1 <1>   0.1500 
 39 H       -6.1440    -3.0910    -2.1750 H     1 <1>   0.1500 
 40 H       -6.1920    -1.7960     1.8760 H     1 <1>   0.1500 
 41 H       -8.1910    -4.3190    -1.7160 H     1 <1>   0.1500 
 42 H       -8.2360    -3.0770     2.1710 H     1 <1>   0.1500 
@<TRIPOS>BOND
  1   1   2  2   
  2   2   3  am  
  3   2   4  1   
  4   3   5  1   
  5   3  23  1   
  6   4   6  1   
  7   4  24  1   
  8   4  25  1   
  9   5   7  1   
 10   5   8  1   
 11   5  26  1   
 12   6   9  1   
 13   6  27  1   
 14   6  28  1   
 15   7  10  1   
 16   7  11  1   
 17   7  29  1   
 18   8  12  1   
 19   8  30  1   
 20   8  31  1   
 21   9  13  1   
 22   9  14  1   
 23  10  12  1   
 24  10  32  1   
 25  10  33  1   
 26  11  15  1   
 27  11  34  1   
 28  11  35  1   
 29  13  16  2   
 30  14  17  2   
 31  14  36  1   
 32  15  18  ar  
 33  15  19  ar  
 34  16  17  1   
 35  16  37  1   
 36  17  38  1   
 37  18  20  ar  
 38  18  39  1   
 39  19  21  ar  
 40  19  40  1   
 41  20  22  ar  
 42  20  41  1   
 43  21  22  ar  
 44  21  42  1   
@<TRIPOS>SUBSTRUCTURE
  1 ****   3 GROUP 4 **** **** 0

# MOE 2024.06 (io_trps.svl 2023.06)
