@<TRIPOS>MOLECULE
NONAME
35 37 1 0 0 
SMALL
USER_CHARGES


@<TRIPOS>ATOM
  1 F       -0.9080    -1.8500     2.6420 F     1 <1>  -0.3400 
  2 C       -0.1750    -1.6060     1.5580 C.3   1 <1>   1.2010 
  3 F       -0.4650    -0.3560     1.2000 F     1 <1>  -0.3400 
  4 F        1.0910    -1.5790     1.9700 F     1 <1>  -0.3400 
  5 C       -0.4150    -2.6480     0.4230 C.2   1 <1>   0.3350 
  6 N       -0.8430    -2.3770    -0.7570 N.2   1 <1>  -0.4100 
  7 N       -0.1950    -3.9620     0.5830 N.2   1 <1>  -0.5650 
  8 O       -0.9250    -3.4900    -1.4180 O.3   1 <1>  -0.0190 
  9 C       -0.5330    -4.3990    -0.5640 C.2   1 <1>   0.2980 
 10 C       -0.5130    -5.8610    -1.0030 C.3   1 <1>   0.2900 
 11 N       -1.8340    -6.5270    -0.8330 N.3   1 <1>  -0.8100 
 12 C       -1.7310    -7.9980    -0.8080 C.3   1 <1>   0.2780 
 13 C       -2.8190    -6.0590    -1.8280 C.3   1 <1>   0.0300 
 14 C       -2.7960    -8.5790     0.1180 C.2   1 <1>   0.1820 
 15 N       -3.1050    -9.9260     0.2090 N.pl3 1 <1>  -0.6290 
 16 C       -3.5830    -7.9110     0.9870 C.2   1 <1>   0.2000 
 17 C       -4.0860   -10.0420     1.1400 C.cat 1 <1>   0.7910 
 18 C       -2.6220   -11.0500    -0.4300 C.2   1 <1>   0.2290 
 19 N       -4.3850    -8.8250     1.6180 N.pl3 1 <1>  -0.7000 
 20 C       -4.6220   -11.2990     1.4640 C.2   1 <1>  -0.1410 
 21 C       -3.1310   -12.2800    -0.1280 C.2   1 <1>  -0.1500 
 22 C       -4.1510   -12.4190     0.8360 C.2   1 <1>  -0.1500 
 23 H        0.2180    -6.3570    -0.3890 H     1 <1>   0.0800 
 24 H       -0.1870    -5.9260    -2.0270 H     1 <1>   0.0800 
 25 H       -0.7690    -8.3010    -0.4310 H     1 <1>   0.0800 
 26 H       -1.8440    -8.3950    -1.8030 H     1 <1>   0.0800 
 27 H       -2.9950    -5.0030    -1.7110 H     1 <1>   0.0800 
 28 H       -3.7600    -6.5650    -1.6940 H     1 <1>   0.0800 
 29 H       -2.4670    -6.2430    -2.8300 H     1 <1>   0.0800 
 30 H       -3.6090    -6.8500     1.1850 H     1 <1>   0.1500 
 31 H       -1.8410   -10.9280    -1.1640 H     1 <1>   0.1500 
 32 H       -5.0880    -8.6280     2.3330 H     1 <1>   0.4500 
 33 H       -5.3980   -11.3540     2.2050 H     1 <1>   0.1500 
 34 H       -2.7630   -13.1650    -0.6200 H     1 <1>   0.1500 
 35 H       -4.5380   -13.4020     1.0580 H     1 <1>   0.1500 
@<TRIPOS>BOND
  1   1   2  1   
  2   2   3  1   
  3   2   4  1   
  4   2   5  1   
  5   5   6  2   
  6   5   7  1   
  7   6   8  1   
  8   7   9  2   
  9   8   9  1   
 10   9  10  1   
 11  10  11  1   
 12  10  23  1   
 13  10  24  1   
 14  11  12  1   
 15  11  13  1   
 16  12  14  1   
 17  12  25  1   
 18  12  26  1   
 19  13  27  1   
 20  13  28  1   
 21  13  29  1   
 22  14  15  1   
 23  14  16  2   
 24  15  17  ar  
 25  15  18  1   
 26  16  19  1   
 27  16  30  1   
 28  17  19  ar  
 29  17  20  1   
 30  18  21  2   
 31  18  31  1   
 32  19  32  1   
 33  20  22  2   
 34  20  33  1   
 35  21  22  1   
 36  21  34  1   
 37  22  35  1   
@<TRIPOS>SUBSTRUCTURE
  1 ****  11 GROUP 4 **** **** 0

# MOE 2024.06 (io_trps.svl 2023.06)
