@<TRIPOS>MOLECULE
NONAME
47 49 1 0 0 
SMALL
USER_CHARGES


@<TRIPOS>ATOM
  1 CL       0.2740    -1.3260    -0.4870 Cl    1 <1>  -0.1770 
  2 C       -0.2090    -2.9760    -0.7930 C.ar  1 <1>   0.1770 
  3 C       -1.2040    -3.5440    -0.0230 C.ar  1 <1>  -0.1500 
  4 C        0.4160    -3.6860    -1.8020 C.ar  1 <1>  -0.1500 
  5 C       -1.5890    -4.8530    -0.2630 C.ar  1 <1>   0.0830 
  6 C        0.0320    -4.9940    -2.0440 C.ar  1 <1>  -0.1500 
  7 O       -2.5720    -5.3540     0.5260 O.3   1 <1>  -0.3630 
  8 C       -0.9660    -5.5780    -1.2800 C.ar  1 <1>  -0.1500 
  9 C       -3.0290    -6.6790     0.3480 C.3   1 <1>   0.1200 
 10 C       -4.1390    -6.9760     1.3550 C.3   1 <1>   0.2090 
 11 N       -4.5480    -8.4040     1.2460 N.pl3 1 <1>  -0.8380 
 12 C       -5.3930    -8.7780     0.2190 C.ar  1 <1>   0.4100 
 13 C       -3.7850    -9.3860     2.0590 C.3   1 <1>   0.1290 
 14 N       -6.6240    -8.2820     0.3250 N.ar  1 <1>  -0.6200 
 15 C       -4.9770    -9.5980    -0.8490 C.ar  1 <1>   0.0860 
 16 C       -7.4790    -8.6030    -0.6230 C.ar  1 <1>   0.1600 
 17 C       -3.6300   -10.0960    -0.9500 C.2   1 <1>   0.5440 
 18 C       -5.9070    -9.9140    -1.8290 C.ar  1 <1>  -0.1500 
 19 C       -7.1800    -9.4060    -1.7080 C.ar  1 <1>  -0.1500 
 20 O       -2.7150    -9.3560    -1.2730 O.2   1 <1>  -0.5700 
 21 N       -3.3470   -11.4210    -0.7110 N.am  1 <1>  -0.6600 
 22 C       -4.3180   -12.4330    -0.2420 C.3   1 <1>   0.1400 
 23 C       -1.9760   -11.9710    -0.7530 C.3   1 <1>   0.1400 
 24 C       -3.4540   -13.5490     0.3340 C.3   1 <1>  -0.1600 
 25 C       -2.1410   -13.4550    -0.4400 C.3   1 <1>  -0.1600 
 26 H       -1.6790    -2.9780     0.7560 H     1 <1>   0.1500 
 27 H        1.1880    -3.2180    -2.3850 H     1 <1>   0.1500 
 28 H        0.5080    -5.5610    -2.8270 H     1 <1>   0.1500 
 29 H       -1.2430    -6.5960    -1.4920 H     1 <1>   0.1500 
 30 H       -2.2000    -7.3460     0.5020 H     1 <1>   0.0800 
 31 H       -3.4080    -6.7770    -0.6540 H     1 <1>   0.0800 
 32 H       -4.9860    -6.3450     1.1500 H     1 <1>   0.0800 
 33 H       -3.7920    -6.7760     2.3540 H     1 <1>   0.0800 
 34 H       -3.8130    -9.1000     3.0950 H     1 <1>   0.0800 
 35 H       -2.7620    -9.4240     1.7260 H     1 <1>   0.0800 
 36 H       -4.2220   -10.3640     1.9610 H     1 <1>   0.0800 
 37 H       -8.4750    -8.2030    -0.5350 H     1 <1>   0.1500 
 38 H       -5.6280   -10.5360    -2.6620 H     1 <1>   0.1500 
 39 H       -7.9330    -9.6230    -2.4440 H     1 <1>   0.1500 
 40 H       -4.8820   -12.7950    -1.0850 H     1 <1>   0.0800 
 41 H       -4.9880   -12.0270     0.4980 H     1 <1>   0.0800 
 42 H       -1.3790   -11.4850    -0.0010 H     1 <1>   0.0800 
 43 H       -1.5330   -11.8130    -1.7220 H     1 <1>   0.0800 
 44 H       -3.9230   -14.5110     0.2330 H     1 <1>   0.0800 
 45 H       -3.2780   -13.3520     1.3770 H     1 <1>   0.0800 
 46 H       -1.3060   -13.8390     0.1190 H     1 <1>   0.0800 
 47 H       -2.2210   -13.9980    -1.3650 H     1 <1>   0.0800 
@<TRIPOS>BOND
  1   1   2  1   
  2   2   3  ar  
  3   2   4  ar  
  4   3   5  ar  
  5   3  26  1   
  6   4   6  ar  
  7   4  27  1   
  8   5   7  1   
  9   5   8  ar  
 10   6   8  ar  
 11   6  28  1   
 12   7   9  1   
 13   8  29  1   
 14   9  10  1   
 15   9  30  1   
 16   9  31  1   
 17  10  11  1   
 18  10  32  1   
 19  10  33  1   
 20  11  12  1   
 21  11  13  1   
 22  12  14  ar  
 23  12  15  ar  
 24  13  34  1   
 25  13  35  1   
 26  13  36  1   
 27  14  16  ar  
 28  15  17  1   
 29  15  18  ar  
 30  16  19  ar  
 31  16  37  1   
 32  17  20  2   
 33  17  21  am  
 34  18  19  ar  
 35  18  38  1   
 36  19  39  1   
 37  21  22  1   
 38  21  23  1   
 39  22  24  1   
 40  22  40  1   
 41  22  41  1   
 42  23  25  1   
 43  23  42  1   
 44  23  43  1   
 45  24  25  1   
 46  24  44  1   
 47  24  45  1   
 48  25  46  1   
 49  25  47  1   
@<TRIPOS>SUBSTRUCTURE
  1 ****   9 GROUP 4 **** **** 0

# MOE 2024.06 (io_trps.svl 2023.06)
