@<TRIPOS>MOLECULE
NONAME
48 50 1 0 0 
SMALL
USER_CHARGES


@<TRIPOS>ATOM
  1 O        3.8760     1.9420     1.9250 O.co2 1 <1>  -0.9000 
  2 C        3.1460     0.9850     1.6220 C.2   1 <1>   0.9060 
  3 O        3.0000     0.0360     2.3890 O.co2 1 <1>  -0.9000 
  4 C        2.6660     0.8210     0.1720 C.3   1 <1>  -0.1060 
  5 C        3.5200    -0.3550    -0.3580 C.3   1 <1>   0.2000 
  6 C        2.9710     2.0830    -0.7020 C.3   1 <1>  -0.1600 
  7 C        1.1520     0.4880     0.1590 C.3   1 <1>  -0.0160 
  8 O        3.2410    -0.5770    -1.7090 O.3   1 <1>  -0.6800 
  9 C        5.0320    -0.0340    -0.2150 C.3   1 <1>   0.3430 
 10 C        4.4180     2.1650    -1.2210 C.3   1 <1>   0.3430 
 11 C        0.2730     1.6720     0.5480 C.ar  1 <1>  -0.1440 
 12 N        5.3150     1.4430    -0.2880 N.4   1 <1>  -0.9590 
 13 C        0.1410     2.0360     1.8800 C.ar  1 <1>  -0.1500 
 14 C       -0.4060     2.3960    -0.4210 C.ar  1 <1>  -0.1500 
 15 C        6.7470     1.7960    -0.3220 C.3   1 <1>   0.4860 
 16 C       -0.6510     3.1120     2.2380 C.ar  1 <1>  -0.1500 
 17 C       -1.2000     3.4730    -0.0640 C.ar  1 <1>  -0.1500 
 18 C        6.9110     3.2830    -0.1040 C.ar  1 <1>  -0.1430 
 19 C       -1.3220     3.8330     1.2660 C.ar  1 <1>  -0.1500 
 20 C        6.7540     3.8090     1.1780 C.ar  1 <1>   0.4100 
 21 C        7.2350     4.1270    -1.1450 C.ar  1 <1>  -0.1500 
 22 N        6.9110     5.0830     1.4790 N.ar  1 <1>  -0.6200 
 23 N        6.4290     3.0360     2.2450 N.pl3 1 <1>  -0.9000 
 24 C        7.3870     5.4640    -0.8380 C.ar  1 <1>  -0.1500 
 25 C        7.2180     5.8800     0.4700 C.ar  1 <1>   0.1600 
 26 H        3.2980    -1.2650     0.1760 H     1 <1>   0.0800 
 27 H        2.7480     2.9720    -0.1360 H     1 <1>   0.0800 
 28 H        2.3250     2.0990    -1.5610 H     1 <1>   0.0800 
 29 H        0.8560     0.1560    -0.8180 H     1 <1>   0.0800 
 30 H        0.9540    -0.3240     0.8390 H     1 <1>   0.0800 
 31 H        2.3190    -0.8890    -1.8080 H     1 <1>   0.4000 
 32 H        5.5740    -0.5660    -0.9770 H     1 <1>   0.0800 
 33 H        5.3580    -0.3910     0.7500 H     1 <1>   0.0800 
 34 H        4.7060     3.2000    -1.3040 H     1 <1>   0.0800 
 35 H        4.4770     1.7070    -2.1950 H     1 <1>   0.0800 
 36 H        4.9920     1.8000     0.6460 H     1 <1>   0.4500 
 37 H        0.6600     1.4830     2.6470 H     1 <1>   0.1500 
 38 H       -0.3220     2.1270    -1.4580 H     1 <1>   0.1500 
 39 H        7.2640     1.2730     0.4660 H     1 <1>   0.0800 
 40 H        7.1750     1.5100    -1.2670 H     1 <1>   0.0800 
 41 H       -0.7380     3.3870     3.2740 H     1 <1>   0.1500 
 42 H       -1.7230     4.0310    -0.8210 H     1 <1>   0.1500 
 43 H       -1.9360     4.6700     1.5460 H     1 <1>   0.1500 
 44 H        7.3720     3.7770    -2.1540 H     1 <1>   0.1500 
 45 H        6.5400     3.5730     3.1070 H     1 <1>   0.4000 
 46 H        5.4430     2.6880     2.2620 H     1 <1>   0.4000 
 47 H        7.6370     6.1790    -1.6020 H     1 <1>   0.1500 
 48 H        7.3410     6.9250     0.7010 H     1 <1>   0.1500 
@<TRIPOS>BOND
  1   1   2  ar  
  2   2   3  ar  
  3   2   4  1   
  4   4   5  1   
  5   4   6  1   
  6   4   7  1   
  7   5   8  1   
  8   5   9  1   
  9   5  26  1   
 10   6  10  1   
 11   6  27  1   
 12   6  28  1   
 13   7  11  1   
 14   7  29  1   
 15   7  30  1   
 16   8  31  1   
 17   9  12  1   
 18   9  32  1   
 19   9  33  1   
 20  10  12  1   
 21  10  34  1   
 22  10  35  1   
 23  11  13  ar  
 24  11  14  ar  
 25  12  15  1   
 26  12  36  1   
 27  13  16  ar  
 28  13  37  1   
 29  14  17  ar  
 30  14  38  1   
 31  15  18  1   
 32  15  39  1   
 33  15  40  1   
 34  16  19  ar  
 35  16  41  1   
 36  17  19  ar  
 37  17  42  1   
 38  18  20  ar  
 39  18  21  ar  
 40  19  43  1   
 41  20  22  ar  
 42  20  23  1   
 43  21  24  ar  
 44  21  44  1   
 45  22  25  ar  
 46  23  45  1   
 47  23  46  1   
 48  24  25  ar  
 49  24  47  1   
 50  25  48  1   
@<TRIPOS>SUBSTRUCTURE
  1 ****   6 GROUP 4 **** **** 0

# MOE 2024.06 (io_trps.svl 2023.06)
