@<TRIPOS>MOLECULE
NONAME
46 48 1 0 0 
SMALL
USER_CHARGES


@<TRIPOS>ATOM
  1 O        0.1300    -0.5090    -0.1510 O.3   1 <1>  -0.3630 
  2 C       -0.0330    -1.8430     0.0770 C.ar  1 <1>   0.0830 
  3 C        1.2600    -0.0200    -0.8430 C.3   1 <1>   0.0400 
  4 C       -1.1470    -2.2340     0.8130 C.ar  1 <1>   0.0830 
  5 C        0.8440    -2.8230    -0.3800 C.ar  1 <1>  -0.1500 
  6 O       -2.0060    -1.3050     1.2580 O.3   1 <1>  -0.5330 
  7 C       -1.3900    -3.5650     1.0930 C.ar  1 <1>  -0.1500 
  8 C        0.5990    -4.1600    -0.1060 C.ar  1 <1>  -0.1500 
  9 C       -0.5210    -4.5390     0.6240 C.ar  1 <1>  -0.1430 
 10 C       -0.8070    -5.9990     0.9100 C.3   1 <1>   0.4860 
 11 N       -1.3810    -6.6170    -0.3180 N.4   1 <1>  -0.9590 
 12 C       -2.7580    -6.0810    -0.5820 C.3   1 <1>   0.3430 
 13 C       -1.5220    -8.0980    -0.1510 C.3   1 <1>   0.3430 
 14 C       -3.7230    -7.1180    -0.0030 C.3   1 <1>   0.2000 
 15 C       -3.0080    -8.4300    -0.3260 C.3   1 <1>  -0.0800 
 16 O       -3.7800    -6.9410     1.3770 O.3   1 <1>  -0.6800 
 17 C       -3.4470    -9.6660     0.4810 C.3   1 <1>  -0.0170 
 18 C       -2.5510   -10.8480     0.1500 C.ar  1 <1>  -0.1430 
 19 C       -2.6290   -11.5050    -1.0620 C.ar  1 <1>  -0.1500 
 20 C       -1.6080   -11.3220     1.0410 C.ar  1 <1>  -0.1500 
 21 C       -1.7700   -12.5590    -1.3260 C.ar  1 <1>   0.1600 
 22 C       -0.7970   -12.3850     0.6790 C.ar  1 <1>   0.1600 
 23 N       -0.8490   -13.0040    -0.4880 N.ar  1 <1>  -0.6200 
 24 H        1.1870     1.0520    -0.8870 H     1 <1>   0.0800 
 25 H        1.2640    -0.4260    -1.8390 H     1 <1>   0.0800 
 26 H        2.1480    -0.3030    -0.3060 H     1 <1>   0.0800 
 27 H        1.7190    -2.5630    -0.9460 H     1 <1>   0.1500 
 28 H       -1.6880    -0.4150     0.9990 H     1 <1>   0.4500 
 29 H       -2.2600    -3.8140     1.6760 H     1 <1>   0.1500 
 30 H        1.2960    -4.8970    -0.4680 H     1 <1>   0.1500 
 31 H       -1.5010    -6.0860     1.7310 H     1 <1>   0.0800 
 32 H        0.1100    -6.4940     1.1830 H     1 <1>   0.0800 
 33 H       -0.7630    -6.3760    -1.1010 H     1 <1>   0.4500 
 34 H       -2.9190    -5.1100    -0.1430 H     1 <1>   0.0800 
 35 H       -2.9160    -6.0120    -1.6460 H     1 <1>   0.0800 
 36 H       -0.9260    -8.6360    -0.8710 H     1 <1>   0.0800 
 37 H       -1.2100    -8.3870     0.8400 H     1 <1>   0.0800 
 38 H       -4.7150    -7.0390    -0.4140 H     1 <1>   0.0800 
 39 H       -3.1630    -8.6420    -1.3690 H     1 <1>   0.0800 
 40 H       -4.5910    -7.3450     1.7540 H     1 <1>   0.4000 
 41 H       -4.4680    -9.9160     0.2470 H     1 <1>   0.0800 
 42 H       -3.3940    -9.4730     1.5390 H     1 <1>   0.0800 
 43 H       -3.3490   -11.2170    -1.8070 H     1 <1>   0.1500 
 44 H       -1.4920   -10.8860     2.0170 H     1 <1>   0.1500 
 45 H       -1.8430   -13.0630    -2.2760 H     1 <1>   0.1500 
 46 H       -0.0670   -12.7460     1.3840 H     1 <1>   0.1500 
@<TRIPOS>BOND
  1   1   2  1   
  2   1   3  1   
  3   2   4  ar  
  4   2   5  ar  
  5   3  24  1   
  6   3  25  1   
  7   3  26  1   
  8   4   6  1   
  9   4   7  ar  
 10   5   8  ar  
 11   5  27  1   
 12   6  28  1   
 13   7   9  ar  
 14   7  29  1   
 15   8   9  ar  
 16   8  30  1   
 17   9  10  1   
 18  10  11  1   
 19  10  31  1   
 20  10  32  1   
 21  11  12  1   
 22  11  13  1   
 23  11  33  1   
 24  12  14  1   
 25  12  34  1   
 26  12  35  1   
 27  13  15  1   
 28  13  36  1   
 29  13  37  1   
 30  14  15  1   
 31  14  16  1   
 32  14  38  1   
 33  15  17  1   
 34  15  39  1   
 35  16  40  1   
 36  17  18  1   
 37  17  41  1   
 38  17  42  1   
 39  18  19  ar  
 40  18  20  ar  
 41  19  21  ar  
 42  19  43  1   
 43  20  22  ar  
 44  20  44  1   
 45  21  23  ar  
 46  21  45  1   
 47  22  23  ar  
 48  22  46  1   
@<TRIPOS>SUBSTRUCTURE
  1 ****  11 GROUP 4 **** **** 0

# MOE 2024.06 (io_trps.svl 2023.06)
