@<TRIPOS>MOLECULE
NONAME
36 37 1 0 0 
SMALL
USER_CHARGES


@<TRIPOS>ATOM
  1 S       -0.2040    -0.0900    -0.1800 S.3   1 <1>  -0.0800 
  2 C       -1.6390    -0.7170     0.5610 C.2   1 <1>   0.4420 
  3 C       -0.3310     1.2670     0.8910 C.2   1 <1>   0.1980 
  4 N       -2.0840     0.0530     1.4850 N.2   1 <1>  -0.3380 
  5 N       -2.0990    -1.9260     0.0810 N.am  1 <1>  -0.4940 
  6 N       -1.3350     1.1830     1.6670 N.2   1 <1>  -0.3380 
  7 C        0.7100     2.3820     0.8020 C.3   1 <1>   0.3800 
  8 C       -3.2060    -2.6330     0.4480 C.2   1 <1>   0.5690 
  9 O        0.7860     2.8920    -0.4980 O.3   1 <1>  -0.5600 
 10 C        2.1110     1.8990     1.1730 C.3   1 <1>  -0.2400 
 11 O       -3.9980    -2.2640     1.2750 O.2   1 <1>  -0.5700 
 12 C       -3.4500    -3.9680    -0.2240 C.3   1 <1>  -0.0990 
 13 C       -0.3190     3.6440    -0.9000 C.3   1 <1>   0.0400 
 14 C       -3.2060    -5.1280     0.7480 C.3   1 <1>  -0.0170 
 15 C       -3.4230    -6.4570     0.0460 C.ar  1 <1>  -0.1430 
 16 C       -2.3750    -7.2040    -0.4550 C.ar  1 <1>  -0.1500 
 17 C       -4.6860    -6.9840    -0.1290 C.ar  1 <1>  -0.1500 
 18 C       -2.6350    -8.4060    -1.0920 C.ar  1 <1>   0.1600 
 19 C       -4.8380    -8.1960    -0.7820 C.ar  1 <1>   0.1600 
 20 N       -3.8420    -8.9180    -1.2700 N.ar  1 <1>  -0.6200 
 21 H       -1.5290    -2.3330    -0.6540 H     1 <1>   0.3700 
 22 H        0.4280     3.1840     1.4630 H     1 <1>   0.0800 
 23 H        2.4410     1.1400     0.4880 H     1 <1>   0.0800 
 24 H        2.1020     1.4900     2.1670 H     1 <1>   0.0800 
 25 H        2.7980     2.7250     1.1480 H     1 <1>   0.0800 
 26 H       -2.8150    -4.0750    -1.0840 H     1 <1>   0.0800 
 27 H       -4.4700    -3.9940    -0.5610 H     1 <1>   0.0800 
 28 H       -0.1340     4.0010    -1.8980 H     1 <1>   0.0800 
 29 H       -0.4430     4.4820    -0.2350 H     1 <1>   0.0800 
 30 H       -1.2010     3.0270    -0.8970 H     1 <1>   0.0800 
 31 H       -3.8820    -5.0480     1.5830 H     1 <1>   0.0800 
 32 H       -2.2030    -5.0780     1.1350 H     1 <1>   0.0800 
 33 H       -1.3600    -6.8660    -0.3560 H     1 <1>   0.1500 
 34 H       -5.5530    -6.4650     0.2370 H     1 <1>   0.1500 
 35 H       -1.8070    -8.9770    -1.4760 H     1 <1>   0.1500 
 36 H       -5.8310    -8.5930    -0.9090 H     1 <1>   0.1500 
@<TRIPOS>BOND
  1   1   2  1   
  2   1   3  1   
  3   2   4  2   
  4   2   5  1   
  5   3   6  2   
  6   3   7  1   
  7   4   6  1   
  8   5   8  am  
  9   5  21  1   
 10   7   9  1   
 11   7  10  1   
 12   7  22  1   
 13   8  11  2   
 14   8  12  1   
 15   9  13  1   
 16  10  23  1   
 17  10  24  1   
 18  10  25  1   
 19  12  14  1   
 20  12  26  1   
 21  12  27  1   
 22  13  28  1   
 23  13  29  1   
 24  13  30  1   
 25  14  15  1   
 26  14  31  1   
 27  14  32  1   
 28  15  16  ar  
 29  15  17  ar  
 30  16  18  ar  
 31  16  33  1   
 32  17  19  ar  
 33  17  34  1   
 34  18  20  ar  
 35  18  35  1   
 36  19  20  ar  
 37  19  36  1   
@<TRIPOS>SUBSTRUCTURE
  1 ****   5 GROUP 4 **** **** 0

# MOE 2024.06 (io_trps.svl 2023.06)
