@<TRIPOS>MOLECULE
NONAME
46 48 1 0 0 
SMALL
USER_CHARGES


@<TRIPOS>ATOM
  1 F        1.5080     0.2240     0.9100 F     1 <1>  -0.1900 
  2 C        2.0040    -0.9630     0.6860 C.ar  1 <1>   0.1900 
  3 C        1.3800    -2.0580     1.2520 C.ar  1 <1>  -0.1500 
  4 C        3.1290    -1.0790    -0.1060 C.ar  1 <1>  -0.1500 
  5 C        1.9000    -3.3230     1.0130 C.ar  1 <1>  -0.1440 
  6 C        3.6470    -2.3410    -0.3420 C.ar  1 <1>  -0.1500 
  7 C        3.0340    -3.4650     0.2140 C.ar  1 <1>   0.0830 
  8 C        1.2300    -4.5430     1.6220 C.3   1 <1>   0.4870 
  9 O        3.4880    -4.7280     0.0080 O.3   1 <1>  -0.3630 
 10 N        0.6930    -5.4140     0.5470 N.4   1 <1>  -0.9590 
 11 C        4.5340    -4.9970    -0.9040 C.3   1 <1>   0.0400 
 12 C       -0.1110    -4.7290    -0.5140 C.3   1 <1>   0.3430 
 13 C       -0.0810    -6.5910     0.9990 C.3   1 <1>   0.3430 
 14 C       -1.2840    -5.6720    -0.8330 C.3   1 <1>   0.2000 
 15 C       -0.8630    -7.0200    -0.2460 C.3   1 <1>  -0.0800 
 16 O       -2.4310    -5.2350    -0.1790 O.3   1 <1>  -0.6800 
 17 C       -0.0100    -7.8100    -1.2740 C.3   1 <1>   0.0210 
 18 C        1.2400    -8.4360    -0.6850 C.2   1 <1>   0.1080 
 19 N        2.2980    -7.7390    -0.3940 N.2   1 <1>  -0.7070 
 20 C        1.3970    -9.7850    -0.3920 C.2   1 <1>  -0.1500 
 21 N        3.1780    -8.6480     0.0840 N.pl3 1 <1>   0.3000 
 22 C        2.6480    -9.8880     0.1020 C.2   1 <1>  -0.3320 
 23 C        3.3870   -11.1230     0.5890 C.3   1 <1>  -0.0600 
 24 H        0.5100    -1.9020     1.8650 H     1 <1>   0.1500 
 25 H        3.5850    -0.1990    -0.5250 H     1 <1>   0.1500 
 26 H        4.5250    -2.4240    -0.9550 H     1 <1>   0.1500 
 27 H        0.4330    -4.2270     2.2730 H     1 <1>   0.0800 
 28 H        1.9530    -5.0900     2.2050 H     1 <1>   0.0800 
 29 H        1.5370    -5.8190     0.0770 H     1 <1>   0.4500 
 30 H        4.6640    -6.0630    -0.9630 H     1 <1>   0.0800 
 31 H        5.4390    -4.5380    -0.5450 H     1 <1>   0.0800 
 32 H        4.2660    -4.6130    -1.8720 H     1 <1>   0.0800 
 33 H       -0.4810    -3.7730    -0.1830 H     1 <1>   0.0800 
 34 H        0.5020    -4.5880    -1.3890 H     1 <1>   0.0800 
 35 H        0.5630    -7.3740     1.3690 H     1 <1>   0.0800 
 36 H       -0.7690    -6.3030     1.7760 H     1 <1>   0.0800 
 37 H       -1.5050    -5.7080    -1.8870 H     1 <1>   0.0800 
 38 H       -1.7120    -7.6200     0.0310 H     1 <1>   0.0800 
 39 H       -2.3400    -5.2150     0.7920 H     1 <1>   0.4000 
 40 H        0.3150    -7.1710    -2.0770 H     1 <1>   0.0800 
 41 H       -0.6140    -8.5810    -1.7200 H     1 <1>   0.0800 
 42 H        0.6680   -10.5630    -0.5390 H     1 <1>   0.1500 
 43 H        4.1300    -8.4020     0.3840 H     1 <1>   0.2700 
 44 H        2.7570   -11.9900     0.5010 H     1 <1>   0.0800 
 45 H        3.6680   -11.0090     1.6210 H     1 <1>   0.0800 
 46 H        4.2720   -11.2850     0.0000 H     1 <1>   0.0800 
@<TRIPOS>BOND
  1   1   2  1   
  2   2   3  ar  
  3   2   4  ar  
  4   3   5  ar  
  5   3  24  1   
  6   4   6  ar  
  7   4  25  1   
  8   5   7  ar  
  9   5   8  1   
 10   6   7  ar  
 11   6  26  1   
 12   7   9  1   
 13   8  10  1   
 14   8  27  1   
 15   8  28  1   
 16   9  11  1   
 17  10  12  1   
 18  10  13  1   
 19  10  29  1   
 20  11  30  1   
 21  11  31  1   
 22  11  32  1   
 23  12  14  1   
 24  12  33  1   
 25  12  34  1   
 26  13  15  1   
 27  13  35  1   
 28  13  36  1   
 29  14  15  1   
 30  14  16  1   
 31  14  37  1   
 32  15  17  1   
 33  15  38  1   
 34  16  39  1   
 35  17  18  1   
 36  17  40  1   
 37  17  41  1   
 38  18  19  2   
 39  18  20  1   
 40  19  21  1   
 41  20  22  2   
 42  20  42  1   
 43  21  22  1   
 44  21  43  1   
 45  22  23  1   
 46  23  44  1   
 47  23  45  1   
 48  23  46  1   
@<TRIPOS>SUBSTRUCTURE
  1 ****  10 GROUP 4 **** **** 0

# MOE 2024.06 (io_trps.svl 2023.06)
