@<TRIPOS>MOLECULE
NONAME
41 43 1 0 0 
SMALL
USER_CHARGES


@<TRIPOS>ATOM
  1 O       -0.3270    -0.2760     0.0700 O.2   1 <1>  -0.5700 
  2 C        0.7810    -0.3000    -0.4310 C.2   1 <1>   0.7150 
  3 N        1.3760     0.8800    -0.7410 N.am  1 <1>  -0.7300 
  4 C        1.4870    -1.5270    -0.7050 C.2   1 <1>  -0.2370 
  5 C        0.8130     2.2300    -0.5470 C.3   1 <1>   0.2200 
  6 N        1.0160    -2.7890    -0.4210 N.pl3 1 <1>   0.0480 
  7 C        2.7250    -1.6780    -1.2820 C.2   1 <1>  -0.1500 
  8 C        1.1030     3.0790    -1.7730 C.3   1 <1>   0.1200 
  9 C        1.6280     2.9560     0.5000 C.3   1 <1>  -0.1600 
 10 C        1.9500    -3.6880    -0.8170 C.2   1 <1>  -0.3020 
 11 C       -0.2700    -3.1560     0.2050 C.3   1 <1>   0.0160 
 12 C        3.0140    -3.0360    -1.3510 C.2   1 <1>  -0.1500 
 13 O        2.4370     3.4600    -1.6420 O.3   1 <1>  -0.5600 
 14 C        2.7950     3.5740    -0.2920 C.3   1 <1>   0.2800 
 15 C        2.9910     5.0690     0.0170 C.3   1 <1>  -0.1600 
 16 C        4.1180     2.7940    -0.0960 C.3   1 <1>  -0.1600 
 17 C        4.0770     5.7340    -0.8550 C.3   1 <1>  -0.1600 
 18 C        5.3970     3.6380    -0.2810 C.3   1 <1>  -0.1600 
 19 C        5.1920     4.7680    -1.2940 C.3   1 <1>  -0.1600 
 20 H        2.2960     0.8660    -1.1780 H     1 <1>   0.3700 
 21 H       -0.2380     2.1840    -0.3120 H     1 <1>   0.0800 
 22 H        3.3850    -0.9040    -1.6330 H     1 <1>   0.1500 
 23 H        0.5030     3.9720    -1.7710 H     1 <1>   0.0800 
 24 H        0.9660     2.5420    -2.6950 H     1 <1>   0.0800 
 25 H        1.9380     2.3070     1.2990 H     1 <1>   0.0800 
 26 H        1.0260     3.7360     0.9280 H     1 <1>   0.0800 
 27 H        1.8180    -4.7490    -0.7020 H     1 <1>   0.1500 
 28 H       -0.3310    -2.7060     1.1790 H     1 <1>   0.0800 
 29 H       -0.3410    -4.2230     0.2960 H     1 <1>   0.0800 
 30 H       -1.0770    -2.7930    -0.4050 H     1 <1>   0.0800 
 31 H        3.9140    -3.4660    -1.7550 H     1 <1>   0.1500 
 32 H        3.2790     5.1570     1.0500 H     1 <1>   0.0800 
 33 H        2.0630     5.5980    -0.1030 H     1 <1>   0.0800 
 34 H        4.1350     1.9650    -0.7800 H     1 <1>   0.0800 
 35 H        4.1530     2.3850     0.8980 H     1 <1>   0.0800 
 36 H        4.5060     6.5550    -0.3050 H     1 <1>   0.0800 
 37 H        3.6190     6.1420    -1.7390 H     1 <1>   0.0800 
 38 H        6.2050     3.0020    -0.5990 H     1 <1>   0.0800 
 39 H        5.6760     4.0720     0.6630 H     1 <1>   0.0800 
 40 H        6.1100     5.3120    -1.4360 H     1 <1>   0.0800 
 41 H        4.9240     4.3310    -2.2420 H     1 <1>   0.0800 
@<TRIPOS>BOND
  1   1   2  2   
  2   2   3  am  
  3   2   4  1   
  4   3   5  1   
  5   3  20  1   
  6   4   6  1   
  7   4   7  2   
  8   5   8  1   
  9   5   9  1   
 10   5  21  1   
 11   6  10  1   
 12   6  11  1   
 13   7  12  1   
 14   7  22  1   
 15   8  13  1   
 16   8  23  1   
 17   8  24  1   
 18   9  14  1   
 19   9  25  1   
 20   9  26  1   
 21  10  12  2   
 22  10  27  1   
 23  11  28  1   
 24  11  29  1   
 25  11  30  1   
 26  12  31  1   
 27  13  14  1   
 28  14  15  1   
 29  14  16  1   
 30  15  17  1   
 31  15  32  1   
 32  15  33  1   
 33  16  18  1   
 34  16  34  1   
 35  16  35  1   
 36  17  19  1   
 37  17  36  1   
 38  17  37  1   
 39  18  19  1   
 40  18  38  1   
 41  18  39  1   
 42  19  40  1   
 43  19  41  1   
@<TRIPOS>SUBSTRUCTURE
  1 ****   3 GROUP 4 **** **** 0

# MOE 2024.06 (io_trps.svl 2023.06)
