@<TRIPOS>MOLECULE
NONAME
47 49 1 0 0 
SMALL
USER_CHARGES


@<TRIPOS>ATOM
  1 S        2.3720     0.1630     1.8130 S.3   1 <1>  -0.0800 
  2 C        3.7110     1.2610     1.6110 C.2   1 <1>   0.2280 
  3 C        1.3250     1.3690     1.1420 C.2   1 <1>  -0.1100 
  4 N        3.4010     2.3900     1.1070 N.2   1 <1>  -0.5650 
  5 C        2.0200     2.4860     0.8250 C.2   1 <1>   0.1410 
  6 C        1.4070     3.6710     0.2200 C.2   1 <1>   0.7160 
  7 O        0.3660     3.5250    -0.3930 O.2   1 <1>  -0.5700 
  8 N        1.9330     4.9580     0.2950 N.am  1 <1>  -0.6600 
  9 C        2.9880     5.3520     1.2770 C.3   1 <1>   0.1400 
 10 C        1.3120     6.0800    -0.4680 C.3   1 <1>   0.1400 
 11 C        4.3920     5.2790     0.6470 C.3   1 <1>   0.3430 
 12 C        2.3560     7.0170    -1.0860 C.3   1 <1>  -0.1600 
 13 N        4.6290     6.2670    -0.4590 N.4   1 <1>  -0.9590 
 14 C        3.6220     6.2980    -1.5540 C.3   1 <1>   0.3430 
 15 C        6.0160     6.1330    -0.9700 C.3   1 <1>   0.5240 
 16 C        6.9240     6.7990     0.0540 C.2   1 <1>   0.0460 
 17 N        6.5000     7.9190     0.6820 N.2   1 <1>  -0.5650 
 18 C        8.1550     6.4390     0.4840 C.2   1 <1>  -0.3320 
 19 C        7.4800     8.2270     1.4670 C.2   1 <1>   0.0060 
 20 N        8.5170     7.3640     1.3940 N.pl3 1 <1>   0.0330 
 21 C        9.0580     5.2770     0.1040 C.3   1 <1>  -0.0600 
 22 C        7.4900     9.4360     2.3870 C.3   1 <1>   0.0200 
 23 C        8.5100    10.4810     1.9240 C.3   1 <1>  -0.2400 
 24 H        4.6780     0.9050     1.9220 H     1 <1>   0.1500 
 25 H        0.2800     1.1350     1.0370 H     1 <1>   0.1500 
 26 H        2.9500     4.6950     2.1280 H     1 <1>   0.0800 
 27 H        2.8030     6.3460     1.6450 H     1 <1>   0.0800 
 28 H        0.6560     6.6350     0.1820 H     1 <1>   0.0800 
 29 H        0.7070     5.6820    -1.2670 H     1 <1>   0.0800 
 30 H        4.5460     4.2810     0.2740 H     1 <1>   0.0800 
 31 H        5.1190     5.4490     1.4250 H     1 <1>   0.0800 
 32 H        2.6000     7.8100    -0.4020 H     1 <1>   0.0800 
 33 H        1.8960     7.4820    -1.9400 H     1 <1>   0.0800 
 34 H        4.6820     7.2020    -0.0110 H     1 <1>   0.4500 
 35 H        4.0290     6.8440    -2.3900 H     1 <1>   0.0800 
 36 H        3.3860     5.2980    -1.8830 H     1 <1>   0.0800 
 37 H        6.1170     6.6590    -1.9040 H     1 <1>   0.0800 
 38 H        6.2840     5.1000    -1.1120 H     1 <1>   0.0800 
 39 H        9.3960     7.4220     1.9190 H     1 <1>   0.2700 
 40 H        8.5940     4.6550    -0.6410 H     1 <1>   0.0800 
 41 H        9.2700     4.6720     0.9690 H     1 <1>   0.0800 
 42 H        9.9870     5.6460    -0.2940 H     1 <1>   0.0800 
 43 H        7.7150     9.1230     3.3910 H     1 <1>   0.0800 
 44 H        6.5090     9.8790     2.3920 H     1 <1>   0.0800 
 45 H        9.5060    10.0790     1.9490 H     1 <1>   0.0800 
 46 H        8.4710    11.3430     2.5660 H     1 <1>   0.0800 
 47 H        8.2860    10.7920     0.9190 H     1 <1>   0.0800 
@<TRIPOS>BOND
  1   1   2  1   
  2   1   3  1   
  3   2   4  2   
  4   2  24  1   
  5   3   5  2   
  6   3  25  1   
  7   4   5  1   
  8   5   6  1   
  9   6   7  2   
 10   6   8  am  
 11   8   9  1   
 12   8  10  1   
 13   9  11  1   
 14   9  26  1   
 15   9  27  1   
 16  10  12  1   
 17  10  28  1   
 18  10  29  1   
 19  11  13  1   
 20  11  30  1   
 21  11  31  1   
 22  12  14  1   
 23  12  32  1   
 24  12  33  1   
 25  13  14  1   
 26  13  15  1   
 27  13  34  1   
 28  14  35  1   
 29  14  36  1   
 30  15  16  1   
 31  15  37  1   
 32  15  38  1   
 33  16  17  1   
 34  16  18  2   
 35  17  19  2   
 36  18  20  1   
 37  18  21  1   
 38  19  20  1   
 39  19  22  1   
 40  20  39  1   
 41  21  40  1   
 42  21  41  1   
 43  21  42  1   
 44  22  23  1   
 45  22  43  1   
 46  22  44  1   
 47  23  45  1   
 48  23  46  1   
 49  23  47  1   
@<TRIPOS>SUBSTRUCTURE
  1 ****  11 GROUP 4 **** **** 0

# MOE 2024.06 (io_trps.svl 2023.06)
