@<TRIPOS>MOLECULE
NONAME
52 54 1 0 0 
SMALL
USER_CHARGES


@<TRIPOS>ATOM
  1 O        0.6810    -1.3340     1.3930 O.2   1 <1>  -0.5700 
  2 C        1.1120    -1.2370     0.2620 C.2   1 <1>   0.5440 
  3 N        1.5920    -0.0290    -0.1480 N.am  1 <1>  -0.7300 
  4 C        1.1240    -2.3810    -0.6330 C.ar  1 <1>   0.0860 
  5 C        1.7730     1.1500     0.7180 C.3   1 <1>   0.3210 
  6 C        0.1220    -3.3470    -0.5700 C.ar  1 <1>  -0.1500 
  7 C        2.1330    -2.5620    -1.5820 C.ar  1 <1>  -0.1500 
  8 C        3.2260     1.5630     0.6410 C.2   1 <1>  -0.1810 
  9 C        0.1090    -4.4410    -1.4160 C.ar  1 <1>   0.0830 
 10 C        2.1310    -3.6510    -2.4350 C.ar  1 <1>  -0.1500 
 11 C        3.8030     2.6320     0.0680 C.2   1 <1>  -0.0400 
 12 C        4.3070     0.8660     1.1820 C.2   1 <1>   0.1080 
 13 O       -0.9140    -5.3160    -1.2640 O.3   1 <1>  -0.3620 
 14 C        1.1210    -4.5920    -2.3590 C.ar  1 <1>  -0.1500 
 15 O        5.0910     2.5440     0.2630 O.3   1 <1>  -0.0190 
 16 C        3.2520     3.8140    -0.7020 C.3   1 <1>  -0.0600 
 17 N        5.4100     1.4770     0.9360 N.2   1 <1>  -0.4100 
 18 C        4.2230    -0.4340     1.9540 C.3   1 <1>  -0.0590 
 19 C       -0.9550    -6.5400    -1.9840 C.3   1 <1>   0.1810 
 20 C       -2.1630    -7.3880    -1.5910 C.2   1 <1>   0.5690 
 21 O       -2.9550    -7.6410    -2.4710 O.2   1 <1>  -0.5700 
 22 N       -2.3250    -7.8740    -0.3130 N.am  1 <1>  -0.6600 
 23 C       -3.5110    -8.6990     0.0550 C.3   1 <1>   0.1400 
 24 C       -1.4120    -7.5870     0.8310 C.3   1 <1>   0.1400 
 25 C       -3.0510   -10.0240     0.6710 C.3   1 <1>  -0.1600 
 26 C       -0.9330    -8.9020     1.4540 C.3   1 <1>  -0.1600 
 27 C       -2.1100    -9.7980     1.8630 C.3   1 <1>  -0.1600 
 28 H        1.9820     0.0740    -1.0850 H     1 <1>   0.3700 
 29 H        1.5080     0.9240     1.7370 H     1 <1>   0.0800 
 30 H        1.1370     1.9450     0.3720 H     1 <1>   0.0800 
 31 H       -0.6650    -3.2400     0.1550 H     1 <1>   0.1500 
 32 H        2.9350    -1.8480    -1.6490 H     1 <1>   0.1500 
 33 H        2.9190    -3.7670    -3.1610 H     1 <1>   0.1500 
 34 H        1.1400    -5.4250    -3.0370 H     1 <1>   0.1500 
 35 H        2.1840     3.7470    -0.7930 H     1 <1>   0.0800 
 36 H        3.6860     3.8390    -1.6860 H     1 <1>   0.0800 
 37 H        3.5020     4.7260    -0.1910 H     1 <1>   0.0800 
 38 H        3.4300    -0.3860     2.6780 H     1 <1>   0.0800 
 39 H        5.1500    -0.6180     2.4660 H     1 <1>   0.0800 
 40 H        4.0310    -1.2460     1.2780 H     1 <1>   0.0800 
 41 H       -0.0540    -7.0880    -1.7820 H     1 <1>   0.0800 
 42 H       -1.0140    -6.3080    -3.0320 H     1 <1>   0.0800 
 43 H       -4.1210    -8.8990    -0.8100 H     1 <1>   0.0800 
 44 H       -4.1090    -8.1530     0.7630 H     1 <1>   0.0800 
 45 H       -1.9480    -7.0100     1.5650 H     1 <1>   0.0800 
 46 H       -0.5580    -7.0140     0.5200 H     1 <1>   0.0800 
 47 H       -2.5480   -10.6000    -0.0870 H     1 <1>   0.0800 
 48 H       -3.9110   -10.5840     0.9900 H     1 <1>   0.0800 
 49 H       -0.3280    -8.6860     2.3170 H     1 <1>   0.0800 
 50 H       -0.3140    -9.4200     0.7420 H     1 <1>   0.0800 
 51 H       -1.7430   -10.7440     2.2220 H     1 <1>   0.0800 
 52 H       -2.6560    -9.3270     2.6630 H     1 <1>   0.0800 
@<TRIPOS>BOND
  1   1   2  2   
  2   2   3  am  
  3   2   4  1   
  4   3   5  1   
  5   3  28  1   
  6   4   6  ar  
  7   4   7  ar  
  8   5   8  1   
  9   5  29  1   
 10   5  30  1   
 11   6   9  ar  
 12   6  31  1   
 13   7  10  ar  
 14   7  32  1   
 15   8  11  2   
 16   8  12  1   
 17   9  13  1   
 18   9  14  ar  
 19  10  14  ar  
 20  10  33  1   
 21  11  15  1   
 22  11  16  1   
 23  12  17  2   
 24  12  18  1   
 25  13  19  1   
 26  14  34  1   
 27  15  17  1   
 28  16  35  1   
 29  16  36  1   
 30  16  37  1   
 31  18  38  1   
 32  18  39  1   
 33  18  40  1   
 34  19  20  1   
 35  19  41  1   
 36  19  42  1   
 37  20  21  2   
 38  20  22  am  
 39  22  23  1   
 40  22  24  1   
 41  23  25  1   
 42  23  43  1   
 43  23  44  1   
 44  24  26  1   
 45  24  45  1   
 46  24  46  1   
 47  25  27  1   
 48  25  47  1   
 49  25  48  1   
 50  26  27  1   
 51  26  49  1   
 52  26  50  1   
 53  27  51  1   
 54  27  52  1   
@<TRIPOS>SUBSTRUCTURE
  1 ****   6 GROUP 4 **** **** 0

# MOE 2024.06 (io_trps.svl 2023.06)
