@<TRIPOS>MOLECULE
NONAME
46 47 1 0 0 
SMALL
USER_CHARGES


@<TRIPOS>ATOM
  1 O        1.5840    -0.0150    -3.0740 O.2   1 <1>  -0.5700 
  2 C        2.2540    -0.1190    -2.0710 C.2   1 <1>   0.7150 
  3 N        2.4120    -1.3900    -1.6200 N.am  1 <1>  -0.7300 
  4 C        2.8120     1.0520    -1.4600 C.2   1 <1>  -0.2370 
  5 C        2.8310    -1.9760    -0.3170 C.3   1 <1>   0.1400 
  6 N        3.7990     1.0880    -0.5340 N.pl3 1 <1>   0.3140 
  7 C        2.4980     2.3540    -1.6870 C.2   1 <1>  -0.1500 
  8 C        3.4530    -0.9960     0.6910 C.3   1 <1>   0.2000 
  9 N        4.1140     2.3330    -0.1640 N.2   1 <1>  -0.7070 
 10 C        4.4870    -0.0580     0.0750 C.3   1 <1>   0.0960 
 11 C        3.3180     3.1230    -0.8670 C.2   1 <1>   0.2030 
 12 O        4.0710    -1.7410     1.6890 O.3   1 <1>  -0.6800 
 13 C        3.3000     4.5760    -0.7930 C.2   1 <1>   0.7160 
 14 O        2.5260     5.2380    -1.4630 O.2   1 <1>  -0.5700 
 15 N        4.1780     5.1900     0.0590 N.am  1 <1>  -0.7300 
 16 C        4.3460     6.6160     0.4420 C.3   1 <1>   0.2200 
 17 C        3.2900     6.9570     1.5370 C.3   1 <1>  -0.0800 
 18 C        4.4570     7.5450    -0.8060 C.3   1 <1>  -0.0800 
 19 C        1.9310     7.4440     1.0050 C.3   1 <1>  -0.2400 
 20 C        3.8210     7.9370     2.5970 C.3   1 <1>  -0.2400 
 21 C        5.5240     7.0410    -1.7980 C.3   1 <1>  -0.2400 
 22 C        4.8120     8.9990    -0.4500 C.3   1 <1>  -0.2400 
 23 H        1.9480    -2.0580    -2.2420 H     1 <1>   0.3700 
 24 H        3.5460    -2.7520    -0.5290 H     1 <1>   0.0800 
 25 H        1.9720    -2.4340     0.1430 H     1 <1>   0.0800 
 26 H        1.7600     2.7450    -2.3670 H     1 <1>   0.1500 
 27 H        2.6790    -0.4220     1.1750 H     1 <1>   0.0800 
 28 H        5.1390     0.3220     0.8420 H     1 <1>   0.0800 
 29 H        5.0680    -0.5550    -0.6780 H     1 <1>   0.0800 
 30 H        4.8180    -2.2680     1.3430 H     1 <1>   0.4000 
 31 H        4.7590     4.5290     0.5810 H     1 <1>   0.3700 
 32 H        5.3060     6.6660     0.9250 H     1 <1>   0.0800 
 33 H        3.0980     6.0430     2.0740 H     1 <1>   0.0800 
 34 H        3.5090     7.5610    -1.3160 H     1 <1>   0.0800 
 35 H        2.0230     8.3810     0.4890 H     1 <1>   0.0800 
 36 H        1.2400     7.5740     1.8190 H     1 <1>   0.0800 
 37 H        1.5110     6.7220     0.3290 H     1 <1>   0.0800 
 38 H        3.9680     8.9210     2.1970 H     1 <1>   0.0800 
 39 H        4.7550     7.5850     2.9990 H     1 <1>   0.0800 
 40 H        3.1190     8.0120     3.4090 H     1 <1>   0.0800 
 41 H        6.4860     6.9780    -1.3210 H     1 <1>   0.0800 
 42 H        5.5990     7.7060    -2.6400 H     1 <1>   0.0800 
 43 H        5.2650     6.0700    -2.1800 H     1 <1>   0.0800 
 44 H        5.6940     9.0360     0.1650 H     1 <1>   0.0800 
 45 H        4.0020     9.4760     0.0660 H     1 <1>   0.0800 
 46 H        4.9950     9.5700    -1.3430 H     1 <1>   0.0800 
@<TRIPOS>BOND
  1   1   2  2   
  2   2   3  am  
  3   2   4  1   
  4   3   5  1   
  5   3  23  1   
  6   4   6  1   
  7   4   7  2   
  8   5   8  1   
  9   5  24  1   
 10   5  25  1   
 11   6   9  1   
 12   6  10  1   
 13   7  11  1   
 14   7  26  1   
 15   8  10  1   
 16   8  12  1   
 17   8  27  1   
 18   9  11  2   
 19  10  28  1   
 20  10  29  1   
 21  11  13  1   
 22  12  30  1   
 23  13  14  2   
 24  13  15  am  
 25  15  16  1   
 26  15  31  1   
 27  16  17  1   
 28  16  18  1   
 29  16  32  1   
 30  17  19  1   
 31  17  20  1   
 32  17  33  1   
 33  18  21  1   
 34  18  22  1   
 35  18  34  1   
 36  19  35  1   
 37  19  36  1   
 38  19  37  1   
 39  20  38  1   
 40  20  39  1   
 41  20  40  1   
 42  21  41  1   
 43  21  42  1   
 44  21  43  1   
 45  22  44  1   
 46  22  45  1   
 47  22  46  1   
@<TRIPOS>SUBSTRUCTURE
  1 ****  11 GROUP 4 **** **** 0

# MOE 2024.06 (io_trps.svl 2023.06)
