@<TRIPOS>MOLECULE
NONAME
51 54 1 0 0 
SMALL
USER_CHARGES


@<TRIPOS>ATOM
  1 O       -3.2080    -0.0400    -0.9610 O.2   1 <1>  -0.5700 
  2 C       -2.7030     0.5070     0.0200 C.2   1 <1>   0.6160 
  3 N       -2.4280     1.8710    -0.0060 N.am  1 <1>  -0.0580 
  4 C       -2.3850    -0.1700     1.2160 C.2   1 <1>   0.0290 
  5 N       -2.6380     2.8290    -0.9820 N.2   1 <1>  -0.5120 
  6 C       -1.8590     2.4510     1.0670 C.2   1 <1>   0.5600 
  7 C       -2.6330    -1.5650     1.3540 C.2   1 <1>   0.6160 
  8 C       -1.7900     0.5600     2.2370 C.2   1 <1>   0.0210 
  9 C       -2.1900     3.9110    -0.4700 C.2   1 <1>   0.4390 
 10 N       -1.7020     3.7340     0.7830 N.pl3 1 <1>  -0.5000 
 11 N       -1.5210     1.8590     2.2050 N.2   1 <1>  -0.6210 
 12 O       -1.6990    -2.2880     1.6610 O.2   1 <1>  -0.5700 
 13 N       -3.8820    -2.1470     1.2170 N.am  1 <1>  -0.6600 
 14 C       -2.1810     5.2610    -1.1410 C.3   1 <1>  -0.1790 
 15 C       -4.0440    -3.6280     1.0540 C.3   1 <1>   0.1400 
 16 C       -5.1680    -1.4070     1.0220 C.3   1 <1>   0.1400 
 17 C       -4.8140    -3.9580    -0.2380 C.3   1 <1>   0.3430 
 18 C       -5.8640    -1.8490    -0.2860 C.3   1 <1>   0.2000 
 19 O       -6.0210    -3.2430    -0.2730 O.3   1 <1>  -0.5600 
 20 C       -5.1040    -5.4540    -0.3240 C.ar  1 <1>  -0.1430 
 21 C       -7.2550    -1.2030    -0.4870 C.3   1 <1>  -0.0800 
 22 C       -6.2340    -6.0080     0.2610 C.ar  1 <1>  -0.1500 
 23 C       -4.2140    -6.2870    -0.9880 C.ar  1 <1>  -0.1500 
 24 C       -7.9330    -1.7160    -1.7690 C.3   1 <1>  -0.2400 
 25 C       -7.1710     0.3320    -0.5570 C.3   1 <1>  -0.2400 
 26 C       -6.4710    -7.3690     0.1860 C.ar  1 <1>  -0.1500 
 27 C       -4.4490    -7.6490    -1.0640 C.ar  1 <1>  -0.1500 
 28 C       -5.5770    -8.1920    -0.4760 C.ar  1 <1>  -0.1500 
 29 H       -1.5190     0.0330     3.1390 H     1 <1>   0.1500 
 30 H       -1.2880     4.4160     1.4120 H     1 <1>   0.4000 
 31 H       -2.7580     5.9610    -0.5660 H     1 <1>   0.0800 
 32 H       -2.6130     5.1790    -2.1230 H     1 <1>   0.0800 
 33 H       -1.1720     5.6170    -1.2350 H     1 <1>   0.0800 
 34 H       -3.0880    -4.1180     1.0200 H     1 <1>   0.0800 
 35 H       -4.5840    -4.0210     1.8970 H     1 <1>   0.0800 
 36 H       -5.8210    -1.6160     1.8510 H     1 <1>   0.0800 
 37 H       -4.9960    -0.3490     1.0040 H     1 <1>   0.0800 
 38 H       -4.2300    -3.6600    -1.0920 H     1 <1>   0.0800 
 39 H       -5.2430    -1.5930    -1.1280 H     1 <1>   0.0800 
 40 H       -7.8750    -1.4680     0.3530 H     1 <1>   0.0800 
 41 H       -6.9370    -5.3740     0.7760 H     1 <1>   0.1500 
 42 H       -3.3310    -5.8790    -1.4500 H     1 <1>   0.1500 
 43 H       -7.3310    -1.4880    -2.6310 H     1 <1>   0.0800 
 44 H       -8.9000    -1.2640    -1.8930 H     1 <1>   0.0800 
 45 H       -8.0690    -2.7830    -1.7220 H     1 <1>   0.0800 
 46 H       -6.4850     0.6360    -1.3300 H     1 <1>   0.0800 
 47 H       -6.8440     0.7480     0.3780 H     1 <1>   0.0800 
 48 H       -8.1380     0.7480    -0.7780 H     1 <1>   0.0800 
 49 H       -7.3510    -7.7860     0.6430 H     1 <1>   0.1500 
 50 H       -3.7530    -8.2870    -1.5820 H     1 <1>   0.1500 
 51 H       -5.7610    -9.2500    -0.5350 H     1 <1>   0.1500 
@<TRIPOS>BOND
  1   1   2  2   
  2   2   3  am  
  3   2   4  1   
  4   3   5  1   
  5   3   6  1   
  6   4   7  1   
  7   4   8  2   
  8   5   9  2   
  9   6  10  1   
 10   6  11  2   
 11   7  12  2   
 12   7  13  am  
 13   8  11  1   
 14   8  29  1   
 15   9  10  1   
 16   9  14  1   
 17  10  30  1   
 18  13  15  1   
 19  13  16  1   
 20  14  31  1   
 21  14  32  1   
 22  14  33  1   
 23  15  17  1   
 24  15  34  1   
 25  15  35  1   
 26  16  18  1   
 27  16  36  1   
 28  16  37  1   
 29  17  19  1   
 30  17  20  1   
 31  17  38  1   
 32  18  19  1   
 33  18  21  1   
 34  18  39  1   
 35  20  22  ar  
 36  20  23  ar  
 37  21  24  1   
 38  21  25  1   
 39  21  40  1   
 40  22  26  ar  
 41  22  41  1   
 42  23  27  ar  
 43  23  42  1   
 44  24  43  1   
 45  24  44  1   
 46  24  45  1   
 47  25  46  1   
 48  25  47  1   
 49  25  48  1   
 50  26  28  ar  
 51  26  49  1   
 52  27  28  ar  
 53  27  50  1   
 54  28  51  1   
@<TRIPOS>SUBSTRUCTURE
  1 ****  13 GROUP 4 **** **** 0

# MOE 2024.06 (io_trps.svl 2023.06)
