@<TRIPOS>MOLECULE
NONAME
58 61 1 0 0 
SMALL
USER_CHARGES


@<TRIPOS>ATOM
  1 O       -1.3270    -0.0550     0.0400 O.2   1 <1>  -0.5700 
  2 C       -2.0470     0.8240    -0.4040 C.2   1 <1>   0.5440 
  3 N       -3.2140     0.4230    -1.0220 N.am  1 <1>  -0.6600 
  4 C       -1.7050     2.2220    -0.2340 C.ar  1 <1>   0.0860 
  5 C       -3.3450    -0.9890    -1.4620 C.3   1 <1>   0.1400 
  6 C       -4.5120     1.0520    -0.6550 C.3   1 <1>   0.1400 
  7 C       -2.0450     3.1870    -1.1840 C.ar  1 <1>  -0.1500 
  8 C       -1.0250     2.6670     0.9000 C.ar  1 <1>  -0.1500 
  9 C       -3.9070    -1.8140    -0.2840 C.3   1 <1>   0.4230 
 10 C       -5.1160     0.2550     0.5100 C.3   1 <1>  -0.1600 
 11 C       -1.7400     4.5210    -1.0020 C.ar  1 <1>  -0.1500 
 12 C       -0.7200     4.0010     1.0820 C.ar  1 <1>  -0.1500 
 13 N       -3.8810    -3.3190    -0.5140 N.4   1 <1>  -0.9590 
 14 C       -5.2810    -1.2660     0.2100 C.3   1 <1>   0.0000 
 15 C       -1.0670     4.9620     0.1350 C.ar  1 <1>   0.1000 
 16 C       -4.7750    -4.0930     0.4070 C.3   1 <1>   0.3430 
 17 C       -4.0930    -3.7610    -1.9310 C.3   1 <1>   0.2630 
 18 C       -5.6790    -1.9940     1.5290 C.3   1 <1>  -0.1600 
 19 C       -6.3690    -1.4860    -0.8800 C.3   1 <1>   0.1200 
 20 N       -0.7580     6.3070     0.3410 N.pl3 1 <1>  -0.8380 
 21 C       -4.9780    -3.3520     1.7270 C.3   1 <1>  -0.1600 
 22 O       -7.5490    -0.8340    -0.5660 O.3   1 <1>  -0.6800 
 23 C        0.4420     6.7260     1.1080 C.3   1 <1>   0.2090 
 24 C       -1.1900     7.3980    -0.5650 C.3   1 <1>   0.2090 
 25 C        0.8400     8.0780     0.5270 C.3   1 <1>  -0.1600 
 26 C       -0.4470     8.6320    -0.0710 C.3   1 <1>  -0.1600 
 27 H       -3.9860    -1.0270    -2.3240 H     1 <1>   0.0800 
 28 H       -2.3750    -1.3620    -1.7420 H     1 <1>   0.0800 
 29 H       -4.3670     2.0750    -0.3510 H     1 <1>   0.0800 
 30 H       -5.1740     1.0510    -1.5040 H     1 <1>   0.0800 
 31 H       -2.5550     2.8810    -2.0800 H     1 <1>   0.1500 
 32 H       -0.7360     1.9500     1.6480 H     1 <1>   0.1500 
 33 H       -3.2230    -1.6270     0.5280 H     1 <1>   0.0800 
 34 H       -4.4650     0.3910     1.3570 H     1 <1>   0.0800 
 35 H       -6.0600     0.6960     0.7780 H     1 <1>   0.0800 
 36 H       -2.0280     5.2240    -1.7590 H     1 <1>   0.1500 
 37 H       -0.2120     4.3030     1.9770 H     1 <1>   0.1500 
 38 H       -2.9170    -3.5860    -0.2620 H     1 <1>   0.4500 
 39 H       -5.7380    -4.2360    -0.0550 H     1 <1>   0.0800 
 40 H       -4.3500    -5.0670     0.5960 H     1 <1>   0.0800 
 41 H       -5.0700    -3.4670    -2.2770 H     1 <1>   0.0800 
 42 H       -4.0130    -4.8340    -2.0020 H     1 <1>   0.0800 
 43 H       -3.3500    -3.3250    -2.5790 H     1 <1>   0.0800 
 44 H       -5.4410    -1.3840     2.3860 H     1 <1>   0.0800 
 45 H       -6.7440    -2.1440     1.5620 H     1 <1>   0.0800 
 46 H       -6.6010    -2.5280    -1.0010 H     1 <1>   0.0800 
 47 H       -6.0560    -1.0950    -1.8310 H     1 <1>   0.0800 
 48 H       -5.5700    -3.9600     2.3890 H     1 <1>   0.0800 
 49 H       -4.0210    -3.2100     2.2020 H     1 <1>   0.0800 
 50 H       -7.9470    -1.1640     0.2640 H     1 <1>   0.4000 
 51 H        0.1730     6.8280     2.1460 H     1 <1>   0.0800 
 52 H        1.2380     6.0080     1.0060 H     1 <1>   0.0800 
 53 H       -0.8880     7.1680    -1.5720 H     1 <1>   0.0800 
 54 H       -2.2580     7.5320    -0.5200 H     1 <1>   0.0800 
 55 H        1.2590     8.7260     1.2760 H     1 <1>   0.0800 
 56 H        1.5670     7.9190    -0.2500 H     1 <1>   0.0800 
 57 H       -0.2660     9.3340    -0.8650 H     1 <1>   0.0800 
 58 H       -1.0340     9.1070     0.6950 H     1 <1>   0.0800 
@<TRIPOS>BOND
  1   1   2  2   
  2   2   3  am  
  3   2   4  1   
  4   3   5  1   
  5   3   6  1   
  6   4   7  ar  
  7   4   8  ar  
  8   5   9  1   
  9   5  27  1   
 10   5  28  1   
 11   6  10  1   
 12   6  29  1   
 13   6  30  1   
 14   7  11  ar  
 15   7  31  1   
 16   8  12  ar  
 17   8  32  1   
 18   9  13  1   
 19   9  14  1   
 20   9  33  1   
 21  10  14  1   
 22  10  34  1   
 23  10  35  1   
 24  11  15  ar  
 25  11  36  1   
 26  12  15  ar  
 27  12  37  1   
 28  13  16  1   
 29  13  17  1   
 30  13  38  1   
 31  14  18  1   
 32  14  19  1   
 33  15  20  1   
 34  16  21  1   
 35  16  39  1   
 36  16  40  1   
 37  17  41  1   
 38  17  42  1   
 39  17  43  1   
 40  18  21  1   
 41  18  44  1   
 42  18  45  1   
 43  19  22  1   
 44  19  46  1   
 45  19  47  1   
 46  20  23  1   
 47  20  24  1   
 48  21  48  1   
 49  21  49  1   
 50  22  50  1   
 51  23  25  1   
 52  23  51  1   
 53  23  52  1   
 54  24  26  1   
 55  24  53  1   
 56  24  54  1   
 57  25  26  1   
 58  25  55  1   
 59  25  56  1   
 60  26  57  1   
 61  26  58  1   
@<TRIPOS>SUBSTRUCTURE
  1 ****   2 GROUP 4 **** **** 0

# MOE 2024.06 (io_trps.svl 2023.06)
