@<TRIPOS>MOLECULE
NONAME
39 41 1 0 0 
SMALL
USER_CHARGES


@<TRIPOS>ATOM
  1 O       -0.5700     0.4490     1.2900 O.2   1 <1>  -0.5700 
  2 C       -1.5300     1.0300     0.8250 C.2   1 <1>   0.5440 
  3 N       -2.6680     0.3090     0.5460 N.am  1 <1>  -0.6600 
  4 C       -1.4510     2.4490     0.5650 C.ar  1 <1>   0.0860 
  5 C       -3.7580     0.7580    -0.3630 C.3   1 <1>   0.1400 
  6 C       -2.7370    -1.1640     0.7350 C.3   1 <1>   0.1400 
  7 C       -2.3730     3.3300     1.1280 C.ar  1 <1>   0.1600 
  8 C       -0.4650     2.9910    -0.2460 C.ar  1 <1>  -0.1500 
  9 C       -4.7230    -0.4260    -0.4230 C.3   1 <1>   0.2000 
 10 C       -3.8150    -1.6460    -0.2430 C.3   1 <1>  -0.0800 
 11 N       -2.4150     4.6410     0.9380 N.ar  1 <1>  -0.6200 
 12 C       -0.4800     4.3520    -0.4550 C.ar  1 <1>   0.0830 
 13 O       -5.5910    -0.3300     0.6550 O.3   1 <1>  -0.6800 
 14 C       -4.5330    -2.9340     0.2020 C.3   1 <1>   0.0200 
 15 C       -1.4650     5.1240     0.1510 C.ar  1 <1>   0.1600 
 16 O        0.4650     4.8970    -1.2440 O.3   1 <1>  -0.5320 
 17 C       -3.6180    -4.1470     0.2320 C.2   1 <1>  -0.0400 
 18 O       -4.0820    -5.2680     0.7180 O.3   1 <1>  -0.0190 
 19 C       -2.3500    -4.3640    -0.1520 C.2   1 <1>  -0.1500 
 20 N       -3.1940    -6.2190     0.6830 N.2   1 <1>  -0.4100 
 21 C       -2.1390    -5.7030     0.1640 C.2   1 <1>   0.1080 
 22 C       -0.8490    -6.4560    -0.0670 C.3   1 <1>  -0.0590 
 23 H       -4.2490     1.6460    -0.0050 H     1 <1>   0.0800 
 24 H       -3.3460     0.9430    -1.3400 H     1 <1>   0.0800 
 25 H       -1.7840    -1.6240     0.5330 H     1 <1>   0.0800 
 26 H       -3.0180    -1.3720     1.7540 H     1 <1>   0.0800 
 27 H       -3.1250     2.9150     1.7780 H     1 <1>   0.1500 
 28 H        0.2880     2.3690    -0.6950 H     1 <1>   0.1500 
 29 H       -5.3050    -0.4530    -1.3290 H     1 <1>   0.0800 
 30 H       -3.3370    -1.8330    -1.1890 H     1 <1>   0.0800 
 31 H       -5.0720    -0.1760     1.4700 H     1 <1>   0.4000 
 32 H       -5.3470    -3.1390    -0.4710 H     1 <1>   0.0800 
 33 H       -4.9520    -2.8020     1.1850 H     1 <1>   0.0800 
 34 H       -1.4720     6.1860    -0.0180 H     1 <1>   0.1500 
 35 H        0.4190     5.8680    -1.3220 H     1 <1>   0.4500 
 36 H       -1.6310    -3.7030    -0.5990 H     1 <1>   0.1500 
 37 H       -0.6090    -6.4570    -1.1150 H     1 <1>   0.0800 
 38 H       -0.9530    -7.4730     0.2670 H     1 <1>   0.0800 
 39 H       -0.0510    -5.9900     0.4800 H     1 <1>   0.0800 
@<TRIPOS>BOND
  1   1   2  2   
  2   2   3  am  
  3   2   4  1   
  4   3   5  1   
  5   3   6  1   
  6   4   7  ar  
  7   4   8  ar  
  8   5   9  1   
  9   5  23  1   
 10   5  24  1   
 11   6  10  1   
 12   6  25  1   
 13   6  26  1   
 14   7  11  ar  
 15   7  27  1   
 16   8  12  ar  
 17   8  28  1   
 18   9  10  1   
 19   9  13  1   
 20   9  29  1   
 21  10  14  1   
 22  10  30  1   
 23  11  15  ar  
 24  12  15  ar  
 25  12  16  1   
 26  13  31  1   
 27  14  17  1   
 28  14  32  1   
 29  14  33  1   
 30  15  34  1   
 31  16  35  1   
 32  17  18  1   
 33  17  19  2   
 34  18  20  1   
 35  19  21  1   
 36  19  36  1   
 37  20  21  2   
 38  21  22  1   
 39  22  37  1   
 40  22  38  1   
 41  22  39  1   
@<TRIPOS>SUBSTRUCTURE
  1 ****   3 GROUP 4 **** **** 0

# MOE 2024.06 (io_trps.svl 2023.06)
