@<TRIPOS>MOLECULE
NONAME
54 56 1 0 0 
SMALL
USER_CHARGES


@<TRIPOS>ATOM
  1 O        0.8000     1.5010    -1.0340 O.3   1 <1>  -0.0190 
  2 N        1.6440     0.5450    -1.2760 N.2   1 <1>  -0.4100 
  3 C        0.9220     1.9620     0.1820 C.2   1 <1>  -0.0400 
  4 C        2.3090     0.3700    -0.1900 C.2   1 <1>   0.1080 
  5 C        1.8900     1.2620     0.7930 C.2   1 <1>  -0.1500 
  6 C        0.0510     3.1130     0.6440 C.3   1 <1>   0.0200 
  7 C        3.3960    -0.6680    -0.0160 C.3   1 <1>  -0.0590 
  8 C        0.0680     4.2450    -0.4010 C.3   1 <1>  -0.0800 
  9 C       -0.5910     5.5540     0.0180 C.3   1 <1>   0.2000 
 10 C        1.4830     4.6620    -0.8040 C.3   1 <1>   0.3430 
 11 O       -0.1210     5.9150     1.2850 O.3   1 <1>  -0.5600 
 12 C       -0.0040     6.5390    -0.9940 C.3   1 <1>   0.3430 
 13 N        1.4150     6.1000    -1.2290 N.4   1 <1>  -0.9590 
 14 C       -1.0980     6.0160     2.2770 C.3   1 <1>   0.0400 
 15 C        2.3840     6.9030    -0.4100 C.3   1 <1>   0.3430 
 16 C        2.5240     8.3450    -0.9060 C.3   1 <1>   0.1200 
 17 O        3.5160     8.9610    -0.1240 O.3   1 <1>  -0.3630 
 18 C        3.9110    10.2460    -0.3380 C.ar  1 <1>   0.0820 
 19 C        4.9360    10.7600     0.4590 C.ar  1 <1>  -0.1430 
 20 C        3.3300    11.0430    -1.3220 C.ar  1 <1>  -0.1500 
 21 C        5.3810    12.0630     0.2470 C.ar  1 <1>  -0.1430 
 22 C        5.5760     9.9020     1.5520 C.3   1 <1>  -0.0970 
 23 C        3.7710    12.3360    -1.5170 C.ar  1 <1>  -0.1500 
 24 C        4.7920    12.8410    -0.7370 C.ar  1 <1>  -0.1500 
 25 C        6.5090    12.6760     1.0680 C.3   1 <1>  -0.0970 
 26 H        2.2790     1.3380     1.7920 H     1 <1>   0.1500 
 27 H       -0.9570     2.7610     0.7810 H     1 <1>   0.0800 
 28 H        0.4170     3.4580     1.5950 H     1 <1>   0.0800 
 29 H        4.3120    -0.1950     0.2870 H     1 <1>   0.0800 
 30 H        3.5620    -1.1850    -0.9440 H     1 <1>   0.0800 
 31 H        3.1020    -1.3820     0.7300 H     1 <1>   0.0800 
 32 H       -0.4270     3.8870    -1.2880 H     1 <1>   0.0800 
 33 H       -1.6690     5.5260    -0.0030 H     1 <1>   0.0800 
 34 H        1.8560     4.0300    -1.5950 H     1 <1>   0.0800 
 35 H        2.1320     4.5640     0.0520 H     1 <1>   0.0800 
 36 H       -0.0680     7.5480    -0.6240 H     1 <1>   0.0800 
 37 H       -0.5590     6.4630    -1.9140 H     1 <1>   0.0800 
 38 H        1.6570     6.1720    -2.2260 H     1 <1>   0.4500 
 39 H       -0.6140     6.2770     3.2020 H     1 <1>   0.0800 
 40 H       -1.5990     5.0690     2.3880 H     1 <1>   0.0800 
 41 H       -1.8030     6.7860     2.0110 H     1 <1>   0.0800 
 42 H        2.0620     6.9150     0.6190 H     1 <1>   0.0800 
 43 H        3.3560     6.4400    -0.4550 H     1 <1>   0.0800 
 44 H        1.6090     8.8940    -0.7730 H     1 <1>   0.0800 
 45 H        2.8480     8.3680    -1.9310 H     1 <1>   0.0800 
 46 H        2.5380    10.6870    -1.9490 H     1 <1>   0.1500 
 47 H        5.7460    10.4830     2.4390 H     1 <1>   0.0800 
 48 H        6.5160     9.5160     1.2030 H     1 <1>   0.0800 
 49 H        4.9510     9.0760     1.8340 H     1 <1>   0.0800 
 50 H        3.3230    12.9540    -2.2760 H     1 <1>   0.1500 
 51 H        5.1260    13.8500    -0.9030 H     1 <1>   0.1500 
 52 H        6.8210    13.6180     0.6540 H     1 <1>   0.0800 
 53 H        7.3610    12.0200     1.0770 H     1 <1>   0.0800 
 54 H        6.1800    12.8420     2.0770 H     1 <1>   0.0800 
@<TRIPOS>BOND
  1   1   2  1   
  2   1   3  1   
  3   2   4  2   
  4   3   5  2   
  5   3   6  1   
  6   4   5  1   
  7   4   7  1   
  8   5  26  1   
  9   6   8  1   
 10   6  27  1   
 11   6  28  1   
 12   7  29  1   
 13   7  30  1   
 14   7  31  1   
 15   8   9  1   
 16   8  10  1   
 17   8  32  1   
 18   9  11  1   
 19   9  12  1   
 20   9  33  1   
 21  10  13  1   
 22  10  34  1   
 23  10  35  1   
 24  11  14  1   
 25  12  13  1   
 26  12  36  1   
 27  12  37  1   
 28  13  15  1   
 29  13  38  1   
 30  14  39  1   
 31  14  40  1   
 32  14  41  1   
 33  15  16  1   
 34  15  42  1   
 35  15  43  1   
 36  16  17  1   
 37  16  44  1   
 38  16  45  1   
 39  17  18  1   
 40  18  19  ar  
 41  18  20  ar  
 42  19  21  ar  
 43  19  22  1   
 44  20  23  ar  
 45  20  46  1   
 46  21  24  ar  
 47  21  25  1   
 48  22  47  1   
 49  22  48  1   
 50  22  49  1   
 51  23  24  ar  
 52  23  50  1   
 53  24  51  1   
 54  25  52  1   
 55  25  53  1   
 56  25  54  1   
@<TRIPOS>SUBSTRUCTURE
  1 ****  15 GROUP 4 **** **** 0

# MOE 2024.06 (io_trps.svl 2023.06)
