@<TRIPOS>MOLECULE
NONAME
54 55 1 0 0 
SMALL
USER_CHARGES


@<TRIPOS>ATOM
  1 O       -1.0400     0.5490    -1.6160 O.2   1 <1>  -0.5700 
  2 C       -2.0840     0.9030    -1.1170 C.2   1 <1>   0.5690 
  3 N       -3.1890     0.0830    -1.1290 N.am  1 <1>  -0.6600 
  4 C       -2.1290     2.3100    -0.4980 C.3   1 <1>  -0.0190 
  5 C       -3.0910    -1.2780    -1.7350 C.3   1 <1>   0.3200 
  6 C       -4.5620     0.5120    -0.7200 C.3   1 <1>   0.1400 
  7 C       -2.3310     3.3800    -1.5830 C.3   1 <1>  -0.1600 
  8 C       -0.8610     2.6330     0.3140 C.3   1 <1>  -0.1600 
  9 C       -3.5230    -2.3360    -0.7390 C.2   1 <1>  -0.3320 
 10 C       -4.8090     0.2860     0.7790 C.3   1 <1>   0.1200 
 11 C       -2.3970     4.7920    -0.9820 C.3   1 <1>  -0.1600 
 12 C       -0.9260     4.0390     0.9260 C.3   1 <1>  -0.1600 
 13 N       -4.7770    -2.8130    -0.6110 N.pl3 1 <1>   0.0330 
 14 C       -2.7770    -2.9900     0.1760 C.2   1 <1>   0.0770 
 15 O       -6.1220     0.6300     1.0710 O.3   1 <1>  -0.6800 
 16 C       -1.1370     5.1330    -0.1490 C.3   1 <1>  -0.0800 
 17 C       -4.7110    -3.7210     0.3860 C.2   1 <1>   0.0060 
 18 N       -3.5260    -3.8580     0.8820 N.2   1 <1>  -0.5650 
 19 C       -1.1300     6.5930     0.4210 C.3   1 <1>   0.0000 
 20 C       -5.9180    -4.4930     0.8720 C.3   1 <1>  -0.0600 
 21 C       -2.2830     6.8570     1.4060 C.3   1 <1>  -0.2400 
 22 C        0.1940     6.8830     1.1530 C.3   1 <1>  -0.2400 
 23 C       -1.2380     7.6220    -0.7210 C.3   1 <1>  -0.2400 
 24 H       -2.9490     2.3700     0.1870 H     1 <1>   0.0800 
 25 H       -2.0780    -1.4910    -2.0320 H     1 <1>   0.0800 
 26 H       -3.7010    -1.3240    -2.6200 H     1 <1>   0.0800 
 27 H       -5.2880    -0.0480    -1.2830 H     1 <1>   0.0800 
 28 H       -4.7000     1.5520    -0.9560 H     1 <1>   0.0800 
 29 H       -3.2380     3.1800    -2.1260 H     1 <1>   0.0800 
 30 H       -1.5150     3.3300    -2.2840 H     1 <1>   0.0800 
 31 H        0.0030     2.5660    -0.3250 H     1 <1>   0.0800 
 32 H       -0.7430     1.9040     1.0970 H     1 <1>   0.0800 
 33 H       -4.1560     0.8870     1.3870 H     1 <1>   0.0800 
 34 H       -4.6780    -0.7480     1.0430 H     1 <1>   0.0800 
 35 H       -3.2750     4.8630    -0.3650 H     1 <1>   0.0800 
 36 H       -2.5070     5.4850    -1.7950 H     1 <1>   0.0800 
 37 H       -0.0040     4.2040     1.4530 H     1 <1>   0.0800 
 38 H       -1.7260     4.0680     1.6440 H     1 <1>   0.0800 
 39 H       -5.6150    -2.5440    -1.1330 H     1 <1>   0.2700 
 40 H       -1.7230    -2.8760     0.3710 H     1 <1>   0.1500 
 41 H       -6.2240     1.5990     1.1470 H     1 <1>   0.4000 
 42 H       -0.2990     5.0650    -0.8220 H     1 <1>   0.0800 
 43 H       -6.3280    -5.0800     0.0710 H     1 <1>   0.0800 
 44 H       -6.6660    -3.8140     1.2390 H     1 <1>   0.0800 
 45 H       -5.6290    -5.1520     1.6710 H     1 <1>   0.0800 
 46 H       -2.2270     6.2000     2.2540 H     1 <1>   0.0800 
 47 H       -3.2370     6.7270     0.9320 H     1 <1>   0.0800 
 48 H       -2.2350     7.8680     1.7720 H     1 <1>   0.0800 
 49 H        0.2750     6.3100     2.0580 H     1 <1>   0.0800 
 50 H        0.2580     7.9220     1.4280 H     1 <1>   0.0800 
 51 H        1.0330     6.6510     0.5220 H     1 <1>   0.0800 
 52 H       -2.2040     7.5880    -1.1890 H     1 <1>   0.0800 
 53 H       -0.4860     7.4370    -1.4680 H     1 <1>   0.0800 
 54 H       -1.1000     8.6210    -0.3470 H     1 <1>   0.0800 
@<TRIPOS>BOND
  1   1   2  2   
  2   2   3  am  
  3   2   4  1   
  4   3   5  1   
  5   3   6  1   
  6   4   7  1   
  7   4   8  1   
  8   4  24  1   
  9   5   9  1   
 10   5  25  1   
 11   5  26  1   
 12   6  10  1   
 13   6  27  1   
 14   6  28  1   
 15   7  11  1   
 16   7  29  1   
 17   7  30  1   
 18   8  12  1   
 19   8  31  1   
 20   8  32  1   
 21   9  13  1   
 22   9  14  2   
 23  10  15  1   
 24  10  33  1   
 25  10  34  1   
 26  11  16  1   
 27  11  35  1   
 28  11  36  1   
 29  12  16  1   
 30  12  37  1   
 31  12  38  1   
 32  13  17  1   
 33  13  39  1   
 34  14  18  1   
 35  14  40  1   
 36  15  41  1   
 37  16  19  1   
 38  16  42  1   
 39  17  18  2   
 40  17  20  1   
 41  19  21  1   
 42  19  22  1   
 43  19  23  1   
 44  20  43  1   
 45  20  44  1   
 46  20  45  1   
 47  21  46  1   
 48  21  47  1   
 49  21  48  1   
 50  22  49  1   
 51  22  50  1   
 52  22  51  1   
 53  23  52  1   
 54  23  53  1   
 55  23  54  1   
@<TRIPOS>SUBSTRUCTURE
  1 ****   4 GROUP 4 **** **** 0

# MOE 2024.06 (io_trps.svl 2023.06)
