@<TRIPOS>MOLECULE
NONAME
45 47 1 0 0 
SMALL
USER_CHARGES


@<TRIPOS>ATOM
  1 O       -0.5040    -0.2800    -0.1020 O.2   1 <1>  -0.5700 
  2 C       -1.4980    -0.9400    -0.3500 C.2   1 <1>   0.5410 
  3 C       -1.5670    -2.3320    -0.0970 C.2   1 <1>  -0.1360 
  4 C       -2.6660    -0.3560    -0.9070 C.2   1 <1>  -0.1360 
  5 C       -2.6870    -3.0610    -0.3700 C.2   1 <1>   0.0910 
  6 C       -3.7530    -1.1160    -1.1680 C.2   1 <1>  -0.0620 
  7 O       -3.7490    -2.4270    -0.9080 O.3   1 <1>  -0.1530 
  8 C       -2.8070    -4.4910    -0.1380 C.2   1 <1>   0.6160 
  9 C       -5.0540    -0.6110    -1.7600 C.3   1 <1>  -0.1020 
 10 O       -1.7870    -5.1490    -0.0330 O.2   1 <1>  -0.5700 
 11 N       -4.0100    -5.1560    -0.0150 N.am  1 <1>  -0.6600 
 12 C       -5.3460    -4.5470     0.1750 C.3   1 <1>   0.1400 
 13 C       -4.0880    -6.6280     0.1180 C.3   1 <1>   0.1400 
 14 C       -6.2090    -5.6460     0.8110 C.3   1 <1>  -0.0800 
 15 C       -5.5690    -6.9590     0.3230 C.3   1 <1>  -0.0800 
 16 C       -7.7480    -5.5350     0.5810 C.3   1 <1>   0.2800 
 17 C       -6.2470    -7.4530    -0.9640 C.3   1 <1>  -0.1600 
 18 O       -8.0140    -4.8540    -0.5920 O.3   1 <1>  -0.6800 
 19 C       -8.3620    -6.9380     0.4170 C.3   1 <1>  -0.1600 
 20 C       -8.4690    -4.7740     1.7150 C.3   1 <1>  -0.1600 
 21 C       -7.7410    -7.7520    -0.7400 C.3   1 <1>  -0.1600 
 22 C       -8.0140    -3.3200     1.9350 C.3   1 <1>  -0.2400 
 23 H       -0.6870    -2.7860     0.3190 H     1 <1>   0.1500 
 24 H       -2.6240     0.6990    -1.1010 H     1 <1>   0.1500 
 25 H       -5.2540    -1.1180    -2.6880 H     1 <1>   0.0800 
 26 H       -5.0030     0.4460    -1.9480 H     1 <1>   0.0800 
 27 H       -5.8650    -0.8040    -1.0810 H     1 <1>   0.0800 
 28 H       -5.2900    -3.6790     0.8070 H     1 <1>   0.0800 
 29 H       -5.7180    -4.2620    -0.7930 H     1 <1>   0.0800 
 30 H       -3.6850    -7.1050    -0.7590 H     1 <1>   0.0800 
 31 H       -3.5150    -6.9310     0.9780 H     1 <1>   0.0800 
 32 H       -6.0300    -5.6080     1.8710 H     1 <1>   0.0800 
 33 H       -5.6590    -7.7270     1.0720 H     1 <1>   0.0800 
 34 H       -6.1530    -6.6890    -1.7180 H     1 <1>   0.0800 
 35 H       -5.7540    -8.3360    -1.3330 H     1 <1>   0.0800 
 36 H       -8.9680    -4.9020    -0.7810 H     1 <1>   0.4000 
 37 H       -8.1980    -7.4790     1.3330 H     1 <1>   0.0800 
 38 H       -9.4270    -6.8730     0.2820 H     1 <1>   0.0800 
 39 H       -9.5260    -4.7730     1.5170 H     1 <1>   0.0800 
 40 H       -8.3280    -5.3130     2.6360 H     1 <1>   0.0800 
 41 H       -7.8710    -8.8000    -0.5310 H     1 <1>   0.0800 
 42 H       -8.2690    -7.5380    -1.6530 H     1 <1>   0.0800 
 43 H       -8.0890    -2.7540     1.0230 H     1 <1>   0.0800 
 44 H       -6.9990    -3.2840     2.2850 H     1 <1>   0.0800 
 45 H       -8.6380    -2.8510     2.6760 H     1 <1>   0.0800 
@<TRIPOS>BOND
  1   1   2  2   
  2   2   3  1   
  3   2   4  1   
  4   3   5  2   
  5   3  23  1   
  6   4   6  2   
  7   4  24  1   
  8   5   7  1   
  9   5   8  1   
 10   6   7  1   
 11   6   9  1   
 12   8  10  2   
 13   8  11  am  
 14   9  25  1   
 15   9  26  1   
 16   9  27  1   
 17  11  12  1   
 18  11  13  1   
 19  12  14  1   
 20  12  28  1   
 21  12  29  1   
 22  13  15  1   
 23  13  30  1   
 24  13  31  1   
 25  14  15  1   
 26  14  16  1   
 27  14  32  1   
 28  15  17  1   
 29  15  33  1   
 30  16  18  1   
 31  16  19  1   
 32  16  20  1   
 33  17  21  1   
 34  17  34  1   
 35  17  35  1   
 36  18  36  1   
 37  19  21  1   
 38  19  37  1   
 39  19  38  1   
 40  20  22  1   
 41  20  39  1   
 42  20  40  1   
 43  21  41  1   
 44  21  42  1   
 45  22  43  1   
 46  22  44  1   
 47  22  45  1   
@<TRIPOS>SUBSTRUCTURE
  1 ****  12 GROUP 4 **** **** 0

# MOE 2024.06 (io_trps.svl 2023.06)
