@<TRIPOS>MOLECULE
NONAME
48 50 1 0 0 
SMALL
USER_CHARGES


@<TRIPOS>ATOM
  1 S       -0.1540     0.5150     0.3530 S.3   1 <1>  -0.3320 
  2 C       -0.8210    -1.1300     0.0440 C.ar  1 <1>   0.1020 
  3 C        1.6860     0.3390     0.3930 C.3   1 <1>   0.2500 
  4 C       -0.0090    -2.2360    -0.1540 C.ar  1 <1>  -0.1500 
  5 C       -2.1980    -1.2500     0.0130 C.ar  1 <1>  -0.1500 
  6 C        2.3050     1.6970     0.6630 C.2   1 <1>  -0.0400 
  7 C       -0.5920    -3.4720    -0.3830 C.ar  1 <1>  -0.1500 
  8 C       -2.7720    -2.4890    -0.2160 C.ar  1 <1>  -0.1500 
  9 O        2.4210     2.5580    -0.3240 O.3   1 <1>  -0.2800 
 10 C        2.8020     2.2260     1.8010 C.2   1 <1>  -0.1500 
 11 C       -1.9720    -3.6030    -0.4160 C.ar  1 <1>  -0.1430 
 12 C        2.9880     3.6720     0.1300 C.2   1 <1>   0.0550 
 13 C        3.2410     3.5050     1.4600 C.2   1 <1>  -0.1500 
 14 C       -2.6050    -4.9610    -0.6660 C.3   1 <1>  -0.0970 
 15 C        3.2380     4.8010    -0.7440 C.2   1 <1>   0.7150 
 16 O        2.5570     4.9870    -1.7380 O.2   1 <1>  -0.5700 
 17 N        4.2470     5.7070    -0.4720 N.am  1 <1>  -0.6600 
 18 C        4.1310     7.1150    -1.0220 C.3   1 <1>   0.2200 
 19 C        5.6050     5.1710    -0.1580 C.3   1 <1>   0.1400 
 20 C        5.1140     8.1150    -0.4080 C.3   1 <1>   0.2000 
 21 C        2.7850     7.7650    -0.6280 C.3   1 <1>   0.1200 
 22 C        6.4530     5.0990    -1.4280 C.3   1 <1>  -0.2400 
 23 O        5.2490     9.2120    -1.2520 O.3   1 <1>  -0.6800 
 24 C        4.3590     8.5660     0.8330 C.3   1 <1>   0.1200 
 25 O        3.0280     8.6570     0.4310 O.3   1 <1>  -0.5600 
 26 H        1.9170    -0.3540     1.1810 H     1 <1>   0.0800 
 27 H        2.0000    -0.0460    -0.5600 H     1 <1>   0.0800 
 28 H        1.0590    -2.1610    -0.1370 H     1 <1>   0.1500 
 29 H       -2.8110    -0.3810     0.1680 H     1 <1>   0.1500 
 30 H        0.0340    -4.3330    -0.5360 H     1 <1>   0.1500 
 31 H       -3.8440    -2.5790    -0.2380 H     1 <1>   0.1500 
 32 H        2.8550     1.7840     2.7810 H     1 <1>   0.1500 
 33 H        3.6830     4.2140     2.1370 H     1 <1>   0.1500 
 34 H       -1.9660    -5.5660    -1.2840 H     1 <1>   0.0800 
 35 H       -3.5500    -4.8490    -1.1650 H     1 <1>   0.0800 
 36 H       -2.7630    -5.4650     0.2700 H     1 <1>   0.0800 
 37 H        4.2400     7.0720    -2.0930 H     1 <1>   0.0800 
 38 H        6.0840     5.7790     0.5900 H     1 <1>   0.0800 
 39 H        5.5270     4.1770     0.2470 H     1 <1>   0.0800 
 40 H        6.0970     7.7350    -0.2080 H     1 <1>   0.0800 
 41 H        2.0420     7.0540    -0.3130 H     1 <1>   0.0800 
 42 H        2.3950     8.3400    -1.4490 H     1 <1>   0.0800 
 43 H        6.6300     6.0760    -1.8390 H     1 <1>   0.0800 
 44 H        5.9640     4.4870    -2.1660 H     1 <1>   0.0800 
 45 H        7.4050     4.6550    -1.2000 H     1 <1>   0.0800 
 46 H        4.4140     9.7260    -1.2280 H     1 <1>   0.4000 
 47 H        4.6950     9.5170     1.2070 H     1 <1>   0.0800 
 48 H        4.4190     7.8210     1.6070 H     1 <1>   0.0800 
@<TRIPOS>BOND
  1   1   2  1   
  2   1   3  1   
  3   2   4  ar  
  4   2   5  ar  
  5   3   6  1   
  6   3  26  1   
  7   3  27  1   
  8   4   7  ar  
  9   4  28  1   
 10   5   8  ar  
 11   5  29  1   
 12   6   9  1   
 13   6  10  2   
 14   7  11  ar  
 15   7  30  1   
 16   8  11  ar  
 17   8  31  1   
 18   9  12  1   
 19  10  13  1   
 20  10  32  1   
 21  11  14  1   
 22  12  13  2   
 23  12  15  1   
 24  13  33  1   
 25  14  34  1   
 26  14  35  1   
 27  14  36  1   
 28  15  16  2   
 29  15  17  am  
 30  17  18  1   
 31  17  19  1   
 32  18  20  1   
 33  18  21  1   
 34  18  37  1   
 35  19  22  1   
 36  19  38  1   
 37  19  39  1   
 38  20  23  1   
 39  20  24  1   
 40  20  40  1   
 41  21  25  1   
 42  21  41  1   
 43  21  42  1   
 44  22  43  1   
 45  22  44  1   
 46  22  45  1   
 47  23  46  1   
 48  24  25  1   
 49  24  47  1   
 50  24  48  1   
@<TRIPOS>SUBSTRUCTURE
  1 ****   9 GROUP 4 **** **** 0

# MOE 2024.06 (io_trps.svl 2023.06)
