@<TRIPOS>MOLECULE
NONAME
48 51 1 0 0 
SMALL
USER_CHARGES


@<TRIPOS>ATOM
  1 O       -2.8480     0.5750    -2.0420 O.2   1 <1>  -0.5700 
  2 C       -2.5050     0.9810    -0.9480 C.2   1 <1>   0.5440 
  3 N       -2.6790     0.1200     0.1110 N.am  1 <1>  -0.6600 
  4 C       -2.0080     2.3340    -0.7700 C.ar  1 <1>   0.0860 
  5 C       -3.5850     0.4950     1.2380 C.3   1 <1>   0.1400 
  6 C       -2.6170    -1.3500    -0.1350 C.3   1 <1>   0.1400 
  7 C       -1.2300     2.6910     0.3230 C.ar  1 <1>  -0.1500 
  8 C       -2.3090     3.3380    -1.7200 C.ar  1 <1>  -0.1500 
  9 C       -5.0070    -0.0890     1.0390 C.3   1 <1>   0.4230 
 10 C       -4.0300    -1.8980    -0.3970 C.3   1 <1>   0.3430 
 11 C       -0.7900     4.0030     0.4780 C.ar  1 <1>   0.2270 
 12 C       -1.8740     4.6350    -1.5790 C.ar  1 <1>  -0.1500 
 13 N       -4.9830    -1.5810     0.7370 N.4   1 <1>  -0.9590 
 14 C       -5.7750     0.6840    -0.0590 C.3   1 <1>   0.1200 
 15 N       -0.0480     4.5730     1.4580 N.2   1 <1>  -0.2270 
 16 C       -1.1070     4.9540    -0.4550 C.ar  1 <1>  -0.1520 
 17 C       -6.3890    -2.0600     0.4840 C.3   1 <1>   0.4230 
 18 O       -7.0630     0.1600    -0.2040 O.3   1 <1>  -0.5600 
 19 N        0.1090     5.8110     1.1780 N.2   1 <1>  -0.4180 
 20 N       -0.5200     6.0700     0.0200 N.pl3 1 <1>   0.3000 
 21 C       -7.1060    -1.1890    -0.5770 C.3   1 <1>   0.1200 
 22 C       -6.3990    -3.5570     0.1340 C.3   1 <1>  -0.1600 
 23 C       -7.8010    -4.1770     0.2470 C.3   1 <1>  -0.1600 
 24 C       -7.7550    -5.6820    -0.0290 C.3   1 <1>  -0.2400 
 25 H       -3.1700     0.1270     2.1600 H     1 <1>   0.0800 
 26 H       -3.6480     1.5670     1.3210 H     1 <1>   0.0800 
 27 H       -1.9930    -1.5480    -0.9910 H     1 <1>   0.0800 
 28 H       -2.1740    -1.8430     0.7130 H     1 <1>   0.0800 
 29 H       -0.9440     1.9730     1.0680 H     1 <1>   0.1500 
 30 H       -2.8980     3.0670    -2.5810 H     1 <1>   0.1500 
 31 H       -5.5490     0.0690     1.9570 H     1 <1>   0.0800 
 32 H       -3.9660    -2.9630    -0.5420 H     1 <1>   0.0800 
 33 H       -4.3920    -1.4610    -1.3140 H     1 <1>   0.0800 
 34 H       -2.1110     5.3880    -2.3110 H     1 <1>   0.1500 
 35 H       -4.6400    -2.0620     1.5750 H     1 <1>   0.4500 
 36 H       -5.2740     0.6340    -1.0100 H     1 <1>   0.0800 
 37 H       -5.8780     1.7190     0.2160 H     1 <1>   0.0800 
 38 H       -6.9480    -1.9470     1.3990 H     1 <1>   0.0800 
 39 H       -0.5250     6.9980    -0.4140 H     1 <1>   0.2700 
 40 H       -8.1430    -1.4640    -0.6510 H     1 <1>   0.0800 
 41 H       -6.6550    -1.2960    -1.5480 H     1 <1>   0.0800 
 42 H       -6.0400    -3.7080    -0.8700 H     1 <1>   0.0800 
 43 H       -5.7510    -4.0820     0.8140 H     1 <1>   0.0800 
 44 H       -8.1980    -4.0170     1.2360 H     1 <1>   0.0800 
 45 H       -8.4750    -3.7220    -0.4600 H     1 <1>   0.0800 
 46 H       -7.1190    -6.1830     0.6810 H     1 <1>   0.0800 
 47 H       -7.3890    -5.8780    -1.0220 H     1 <1>   0.0800 
 48 H       -8.7430    -6.1000     0.0530 H     1 <1>   0.0800 
@<TRIPOS>BOND
  1   1   2  2   
  2   2   3  am  
  3   2   4  1   
  4   3   5  1   
  5   3   6  1   
  6   4   7  ar  
  7   4   8  ar  
  8   5   9  1   
  9   5  25  1   
 10   5  26  1   
 11   6  10  1   
 12   6  27  1   
 13   6  28  1   
 14   7  11  ar  
 15   7  29  1   
 16   8  12  ar  
 17   8  30  1   
 18   9  13  1   
 19   9  14  1   
 20   9  31  1   
 21  10  13  1   
 22  10  32  1   
 23  10  33  1   
 24  11  15  1   
 25  11  16  ar  
 26  12  16  ar  
 27  12  34  1   
 28  13  17  1   
 29  13  35  1   
 30  14  18  1   
 31  14  36  1   
 32  14  37  1   
 33  15  19  2   
 34  16  20  1   
 35  17  21  1   
 36  17  22  1   
 37  17  38  1   
 38  18  21  1   
 39  19  20  1   
 40  20  39  1   
 41  21  40  1   
 42  21  41  1   
 43  22  23  1   
 44  22  42  1   
 45  22  43  1   
 46  23  24  1   
 47  23  44  1   
 48  23  45  1   
 49  24  46  1   
 50  24  47  1   
 51  24  48  1   
@<TRIPOS>SUBSTRUCTURE
  1 ****   3 GROUP 4 **** **** 0

# MOE 2024.06 (io_trps.svl 2023.06)
