@<TRIPOS>MOLECULE
NONAME
47 49 1 0 0 
SMALL
USER_CHARGES


@<TRIPOS>ATOM
  1 O       -0.3800    -0.5210     2.0380 O.2   1 <1>  -0.5700 
  2 C       -1.0380     0.3660     1.5470 C.2   1 <1>   0.5690 
  3 N       -2.1030     0.0670     0.7260 N.am  1 <1>  -0.6600 
  4 C       -0.6440     1.7940     1.8970 C.3   1 <1>   0.1570 
  5 C       -2.2940    -1.3190     0.2090 C.3   1 <1>   0.1400 
  6 C       -3.1020     1.0540     0.2230 C.3   1 <1>   0.1400 
  7 N       -0.3330     2.5810     0.6850 N.pl3 1 <1>   0.0480 
  8 C       -3.7130    -1.8290     0.5450 C.3   1 <1>   0.4230 
  9 C       -4.5090     0.5570     0.5760 C.3   1 <1>  -0.1600 
 10 C        0.4880     2.2140    -0.3360 C.2   1 <1>  -0.3020 
 11 C       -0.8480     3.7990     0.3640 C.2   1 <1>  -0.3020 
 12 N       -3.9420    -3.2900     0.1770 N.4   1 <1>  -0.9590 
 13 C       -4.8240    -0.8660     0.0320 C.3   1 <1>   0.0000 
 14 C        0.4880     3.1810    -1.2900 C.2   1 <1>  -0.1500 
 15 C       -0.3660     4.1930    -0.8430 C.2   1 <1>  -0.1500 
 16 C       -5.3870    -3.6840     0.1000 C.3   1 <1>   0.3430 
 17 C       -3.2190    -3.7710    -1.0470 C.3   1 <1>   0.2630 
 18 C       -6.2000    -1.3230     0.6020 C.3   1 <1>  -0.1600 
 19 C       -4.8540    -0.8540    -1.5230 C.3   1 <1>   0.1200 
 20 C       -6.2430    -2.8080     1.0130 C.3   1 <1>  -0.1600 
 21 O       -5.6920     0.1350    -2.0110 O.3   1 <1>  -0.6800 
 22 H        0.2300     1.7770     2.5210 H     1 <1>   0.0800 
 23 H       -1.4410     2.2670     2.4360 H     1 <1>   0.0800 
 24 H       -2.1290    -1.3020    -0.8530 H     1 <1>   0.0800 
 25 H       -1.5710    -1.9830     0.6480 H     1 <1>   0.0800 
 26 H       -2.9540     2.0200     0.6710 H     1 <1>   0.0800 
 27 H       -2.9920     1.1700    -0.8430 H     1 <1>   0.0800 
 28 H       -3.7750    -1.7780     1.6190 H     1 <1>   0.0800 
 29 H       -4.5930     0.5670     1.6490 H     1 <1>   0.0800 
 30 H       -5.2270     1.2700     0.2070 H     1 <1>   0.0800 
 31 H        1.0330     1.2860    -0.3330 H     1 <1>   0.1500 
 32 H       -1.5290     4.3300     1.0050 H     1 <1>   0.1500 
 33 H       -3.5500    -3.8170     0.9720 H     1 <1>   0.4500 
 34 H        1.0320     3.1940    -2.2190 H     1 <1>   0.1500 
 35 H       -0.5770     5.1040    -1.3770 H     1 <1>   0.1500 
 36 H       -5.7420    -3.5710    -0.9120 H     1 <1>   0.0800 
 37 H       -5.5000    -4.7210     0.3760 H     1 <1>   0.0800 
 38 H       -3.5470    -3.2280    -1.9190 H     1 <1>   0.0800 
 39 H       -3.4090    -4.8200    -1.2060 H     1 <1>   0.0800 
 40 H       -2.1550    -3.6360    -0.9370 H     1 <1>   0.0800 
 41 H       -6.4630    -0.7430     1.4710 H     1 <1>   0.0800 
 42 H       -6.9780    -1.1400    -0.1200 H     1 <1>   0.0800 
 43 H       -5.2000    -1.7910    -1.9210 H     1 <1>   0.0800 
 44 H       -3.8810    -0.6520    -1.9330 H     1 <1>   0.0800 
 45 H       -7.2620    -3.1530     0.9810 H     1 <1>   0.0800 
 46 H       -5.9050    -2.9220     2.0290 H     1 <1>   0.0800 
 47 H       -6.6270    -0.0130    -1.7660 H     1 <1>   0.4000 
@<TRIPOS>BOND
  1   1   2  2   
  2   2   3  am  
  3   2   4  1   
  4   3   5  1   
  5   3   6  1   
  6   4   7  1   
  7   4  22  1   
  8   4  23  1   
  9   5   8  1   
 10   5  24  1   
 11   5  25  1   
 12   6   9  1   
 13   6  26  1   
 14   6  27  1   
 15   7  10  1   
 16   7  11  1   
 17   8  12  1   
 18   8  13  1   
 19   8  28  1   
 20   9  13  1   
 21   9  29  1   
 22   9  30  1   
 23  10  14  2   
 24  10  31  1   
 25  11  15  2   
 26  11  32  1   
 27  12  16  1   
 28  12  17  1   
 29  12  33  1   
 30  13  18  1   
 31  13  19  1   
 32  14  15  1   
 33  14  34  1   
 34  15  35  1   
 35  16  20  1   
 36  16  36  1   
 37  16  37  1   
 38  17  38  1   
 39  17  39  1   
 40  17  40  1   
 41  18  20  1   
 42  18  41  1   
 43  18  42  1   
 44  19  21  1   
 45  19  43  1   
 46  19  44  1   
 47  20  45  1   
 48  20  46  1   
 49  21  47  1   
@<TRIPOS>SUBSTRUCTURE
  1 ****   3 GROUP 4 **** **** 0

# MOE 2024.06 (io_trps.svl 2023.06)
