@<TRIPOS>MOLECULE
NONAME
49 51 1 0 0 
SMALL
USER_CHARGES


@<TRIPOS>ATOM
  1 CL      -1.3240     0.0890    -0.9840 Cl    1 <1>  -0.1770 
  2 C       -1.9670    -0.9500     0.2680 C.ar  1 <1>   0.1770 
  3 C       -2.1580    -2.3070     0.0370 C.ar  1 <1>  -0.1440 
  4 C       -2.2760    -0.3620     1.4790 C.ar  1 <1>  -0.1500 
  5 C       -2.7110    -3.0980     1.0560 C.ar  1 <1>   0.0860 
  6 C       -1.7580    -2.9100    -1.3110 C.3   1 <1>  -0.0970 
  7 C       -2.7930    -1.1410     2.4950 C.ar  1 <1>  -0.1500 
  8 C       -3.0090    -4.5120     0.9020 C.2   1 <1>   0.5440 
  9 C       -3.0030    -2.4900     2.2780 C.ar  1 <1>  -0.1500 
 10 O       -2.5530    -5.3220     1.6880 O.2   1 <1>  -0.5700 
 11 N       -3.8630    -4.9840    -0.0730 N.am  1 <1>  -0.6600 
 12 C       -4.0020    -6.4470    -0.2890 C.3   1 <1>   0.1400 
 13 C       -5.0480    -4.2020    -0.5120 C.3   1 <1>   0.1400 
 14 C       -5.1830    -6.9510     0.5670 C.3   1 <1>   0.4230 
 15 C       -6.2560    -4.6770     0.3090 C.3   1 <1>  -0.1600 
 16 N       -5.3070    -8.4680     0.6220 N.4   1 <1>  -0.9590 
 17 C       -6.5130    -6.2120     0.2190 C.3   1 <1>   0.0000 
 18 C       -6.6460    -8.9550     1.0870 C.3   1 <1>   0.3430 
 19 C       -4.8980    -9.1970    -0.6230 C.3   1 <1>   0.2630 
 20 C       -7.6010    -6.5990     1.2640 C.3   1 <1>  -0.1600 
 21 C       -6.9780    -6.5960    -1.2150 C.3   1 <1>   0.1200 
 22 C       -7.3190    -7.9270     1.9950 C.3   1 <1>  -0.1600 
 23 O       -8.0440    -5.8180    -1.6350 O.3   1 <1>  -0.6800 
 24 H       -2.1090     0.6910     1.6200 H     1 <1>   0.1500 
 25 H       -1.5480    -3.9610    -1.2270 H     1 <1>   0.0800 
 26 H       -0.8670    -2.4440    -1.6900 H     1 <1>   0.0800 
 27 H       -2.5490    -2.7700    -2.0250 H     1 <1>   0.0800 
 28 H       -3.0300    -0.7000     3.4490 H     1 <1>   0.1500 
 29 H       -3.4020    -3.0940     3.0750 H     1 <1>   0.1500 
 30 H       -4.1580    -6.6300    -1.3360 H     1 <1>   0.0800 
 31 H       -3.0940    -6.9430     0.0090 H     1 <1>   0.0800 
 32 H       -4.8920    -3.1480    -0.3520 H     1 <1>   0.0800 
 33 H       -5.2180    -4.3530    -1.5650 H     1 <1>   0.0800 
 34 H       -4.9430    -6.6370     1.5700 H     1 <1>   0.0800 
 35 H       -6.0720    -4.3980     1.3330 H     1 <1>   0.0800 
 36 H       -7.1250    -4.1250    -0.0040 H     1 <1>   0.0800 
 37 H       -4.6370    -8.7420     1.3570 H     1 <1>   0.4500 
 38 H       -7.2860    -9.1280     0.2370 H     1 <1>   0.0800 
 39 H       -6.5330    -9.8890     1.6130 H     1 <1>   0.0800 
 40 H       -5.5320    -8.9200    -1.4500 H     1 <1>   0.0800 
 41 H       -4.9750   -10.2620    -0.4740 H     1 <1>   0.0800 
 42 H       -3.8760    -8.9670    -0.8790 H     1 <1>   0.0800 
 43 H       -7.6930    -5.8340     2.0170 H     1 <1>   0.0800 
 44 H       -8.5640    -6.6620     0.7890 H     1 <1>   0.0800 
 45 H       -7.2910    -7.6230    -1.2680 H     1 <1>   0.0800 
 46 H       -6.1940    -6.4430    -1.9360 H     1 <1>   0.0800 
 47 H       -8.2470    -8.3310     2.3620 H     1 <1>   0.0800 
 48 H       -6.6920    -7.7520     2.8540 H     1 <1>   0.0800 
 49 H       -8.8380    -5.9440    -1.0790 H     1 <1>   0.4000 
@<TRIPOS>BOND
  1   1   2  1   
  2   2   3  ar  
  3   2   4  ar  
  4   3   5  ar  
  5   3   6  1   
  6   4   7  ar  
  7   4  24  1   
  8   5   8  1   
  9   5   9  ar  
 10   6  25  1   
 11   6  26  1   
 12   6  27  1   
 13   7   9  ar  
 14   7  28  1   
 15   8  10  2   
 16   8  11  am  
 17   9  29  1   
 18  11  12  1   
 19  11  13  1   
 20  12  14  1   
 21  12  30  1   
 22  12  31  1   
 23  13  15  1   
 24  13  32  1   
 25  13  33  1   
 26  14  16  1   
 27  14  17  1   
 28  14  34  1   
 29  15  17  1   
 30  15  35  1   
 31  15  36  1   
 32  16  18  1   
 33  16  19  1   
 34  16  37  1   
 35  17  20  1   
 36  17  21  1   
 37  18  22  1   
 38  18  38  1   
 39  18  39  1   
 40  19  40  1   
 41  19  41  1   
 42  19  42  1   
 43  20  22  1   
 44  20  43  1   
 45  20  44  1   
 46  21  23  1   
 47  21  45  1   
 48  21  46  1   
 49  22  47  1   
 50  22  48  1   
 51  23  49  1   
@<TRIPOS>SUBSTRUCTURE
  1 ****  11 GROUP 4 **** **** 0

# MOE 2024.06 (io_trps.svl 2023.06)
