@<TRIPOS>MOLECULE
NONAME
49 52 1 0 0 
SMALL
USER_CHARGES


@<TRIPOS>ATOM
  1 F        5.7530     3.9110    -3.4490 F     1 <1>  -0.1900 
  2 C        6.6050     3.6160    -2.5020 C.ar  1 <1>   0.1900 
  3 C        6.3040     3.9580    -1.2050 C.ar  1 <1>  -0.1500 
  4 C        7.7880     2.9660    -2.8660 C.ar  1 <1>  -0.1500 
  5 C        7.2380     3.6340    -0.2250 C.ar  1 <1>   0.2270 
  6 C        8.7090     2.6470    -1.8930 C.ar  1 <1>  -0.1500 
  7 N        7.2040     3.8730     1.1140 N.2   1 <1>  -0.5650 
  8 C        8.4160     2.9900    -0.5680 C.ar  1 <1>  -0.1520 
  9 C        8.3010     3.3630     1.5640 C.2   1 <1>   0.0060 
 10 N        9.0900     2.8270     0.5980 N.pl3 1 <1>   0.0330 
 11 C        8.7040     3.3300     3.0320 C.3   1 <1>   0.3000 
 12 O        9.1450     4.5940     3.4200 O.3   1 <1>  -0.5600 
 13 C        8.1240     5.5070     3.7650 C.3   1 <1>   0.1810 
 14 C        8.2760     6.8290     3.0220 C.2   1 <1>   0.5690 
 15 O        8.3190     7.8510     3.6680 O.2   1 <1>  -0.5700 
 16 N        8.3400     6.7880     1.6540 N.am  1 <1>  -0.4940 
 17 C        8.5720     7.8550     0.7450 C.2   1 <1>  -0.0880 
 18 N        8.9480     7.7240    -0.5590 N.pl3 1 <1>   0.3140 
 19 C        8.4870     9.1850     0.9790 C.2   1 <1>  -0.1500 
 20 N        9.0980     8.9410    -1.1500 N.2   1 <1>  -0.7070 
 21 C        9.2010     6.4350    -1.2690 C.3   1 <1>   0.2710 
 22 C        8.8210     9.7960    -0.2210 C.2   1 <1>   0.1080 
 23 C       10.5700     5.8570    -0.8320 C.3   1 <1>  -0.1950 
 24 C        9.0240     6.5730    -2.7930 C.3   1 <1>  -0.2400 
 25 C        8.8710    11.2870    -0.4530 C.3   1 <1>  -0.0590 
 26 C       11.8720     6.3350    -1.3940 C.3   1 <1>  -0.2000 
 27 C       11.4070     4.9310    -1.6630 C.3   1 <1>  -0.2000 
 28 H        5.3910     4.4560    -0.9410 H     1 <1>   0.1500 
 29 H        7.9570     2.7270    -3.9010 H     1 <1>   0.1500 
 30 H        9.6300     2.1460    -2.1380 H     1 <1>   0.1500 
 31 H       10.0100     2.3930     0.7130 H     1 <1>   0.2700 
 32 H        9.5170     2.6430     3.1820 H     1 <1>   0.0800 
 33 H        7.8790     3.0280     3.6550 H     1 <1>   0.0800 
 34 H        8.1900     5.6860     4.8230 H     1 <1>   0.0800 
 35 H        7.1550     5.0960     3.5430 H     1 <1>   0.0800 
 36 H        8.2240     5.8420     1.2700 H     1 <1>   0.3700 
 37 H        8.2230     9.6800     1.8950 H     1 <1>   0.1500 
 38 H        8.4420     5.7600    -0.9350 H     1 <1>   0.0800 
 39 H       10.5680     5.6570     0.2260 H     1 <1>   0.1000 
 40 H        9.7680     7.2300    -3.2060 H     1 <1>   0.0800 
 41 H        8.0510     6.9760    -3.0090 H     1 <1>   0.0800 
 42 H        9.1010     5.6150    -3.2700 H     1 <1>   0.0800 
 43 H        8.6140    11.8160     0.4460 H     1 <1>   0.0800 
 44 H        8.1780    11.5500    -1.2300 H     1 <1>   0.0800 
 45 H        9.8620    11.5680    -0.7580 H     1 <1>   0.0800 
 46 H       12.6870     6.5000    -0.7110 H     1 <1>   0.1000 
 47 H       11.8630     7.0560    -2.1940 H     1 <1>   0.1000 
 48 H       11.1290     4.6860    -2.6730 H     1 <1>   0.1000 
 49 H       11.9300     4.1250    -1.1790 H     1 <1>   0.1000 
@<TRIPOS>BOND
  1   1   2  1   
  2   2   3  ar  
  3   2   4  ar  
  4   3   5  ar  
  5   3  28  1   
  6   4   6  ar  
  7   4  29  1   
  8   5   7  1   
  9   5   8  ar  
 10   6   8  ar  
 11   6  30  1   
 12   7   9  2   
 13   8  10  1   
 14   9  10  1   
 15   9  11  1   
 16  10  31  1   
 17  11  12  1   
 18  11  32  1   
 19  11  33  1   
 20  12  13  1   
 21  13  14  1   
 22  13  34  1   
 23  13  35  1   
 24  14  15  2   
 25  14  16  am  
 26  16  17  1   
 27  16  36  1   
 28  17  18  1   
 29  17  19  2   
 30  18  20  1   
 31  18  21  1   
 32  19  22  1   
 33  19  37  1   
 34  20  22  2   
 35  21  23  1   
 36  21  24  1   
 37  21  38  1   
 38  22  25  1   
 39  23  26  1   
 40  23  27  1   
 41  23  39  1   
 42  24  40  1   
 43  24  41  1   
 44  24  42  1   
 45  25  43  1   
 46  25  44  1   
 47  25  45  1   
 48  26  27  1   
 49  26  46  1   
 50  26  47  1   
 51  27  48  1   
 52  27  49  1   
@<TRIPOS>SUBSTRUCTURE
  1 ****  21 GROUP 4 **** **** 0

# MOE 2024.06 (io_trps.svl 2023.06)
