@<TRIPOS>MOLECULE
NONAME
47 49 1 0 0 
SMALL
USER_CHARGES


@<TRIPOS>ATOM
  1 F       -1.0060     0.3340    -1.0130 F     1 <1>  -0.1900 
  2 C       -2.0090    -0.3990    -0.6010 C.ar  1 <1>   0.1900 
  3 C       -1.7830    -1.6560    -0.0670 C.ar  1 <1>   0.1900 
  4 C       -3.2890     0.1070    -0.7100 C.ar  1 <1>  -0.1500 
  5 F       -0.5640    -2.1280     0.0320 F     1 <1>  -0.1900 
  6 C       -2.8380    -2.4330     0.3710 C.ar  1 <1>  -0.1500 
  7 C       -4.3670    -0.6600    -0.2770 C.ar  1 <1>   0.1170 
  8 C       -4.1240    -1.9260     0.2640 C.ar  1 <1>  -0.1500 
  9 N       -5.6590    -0.1270    -0.3830 N.am  1 <1>  -0.5470 
 10 C       -6.8710    -0.7410    -0.5220 C.2   1 <1>   0.6900 
 11 O       -6.9500    -1.9410    -0.7050 O.2   1 <1>  -0.5700 
 12 N       -8.0040     0.0280    -0.4830 N.am  1 <1>  -0.6600 
 13 C       -9.2920    -0.5420    -0.9750 C.3   1 <1>   0.1400 
 14 C       -8.0650     1.3600     0.1870 C.3   1 <1>   0.1400 
 15 C      -10.2640     0.5770    -1.3590 C.3   1 <1>  -0.1600 
 16 C       -9.4310     1.5380     0.8490 C.3   1 <1>  -0.1600 
 17 C      -10.5650     1.5550    -0.1980 C.3   1 <1>   0.2800 
 18 O      -10.5630     2.8250    -0.7930 O.3   1 <1>  -0.5600 
 19 C      -11.9280     1.2380     0.4700 C.3   1 <1>  -0.1600 
 20 C      -11.2750     3.8730    -0.1950 C.3   1 <1>   0.1200 
 21 C      -13.1040     2.0420    -0.1000 C.3   1 <1>   0.2800 
 22 C      -12.7770     3.5610    -0.0230 C.3   1 <1>   0.2000 
 23 O      -13.2770     1.6930    -1.4260 O.3   1 <1>  -0.6800 
 24 C      -14.4250     1.6540     0.5790 C.3   1 <1>  -0.2400 
 25 O      -13.1640     4.0990     1.2100 O.3   1 <1>  -0.6800 
 26 H       -3.4400     1.0830    -1.1300 H     1 <1>   0.1500 
 27 H       -2.6580    -3.4100     0.7850 H     1 <1>   0.1500 
 28 H       -4.9510    -2.5240     0.6060 H     1 <1>   0.1500 
 29 H       -5.7210     0.8750    -0.5250 H     1 <1>   0.3700 
 30 H       -9.1030    -1.1650    -1.8330 H     1 <1>   0.0800 
 31 H       -9.7200    -1.1580    -0.2030 H     1 <1>   0.0800 
 32 H       -7.2970     1.4310     0.9380 H     1 <1>   0.0800 
 33 H       -7.9130     2.1360    -0.5450 H     1 <1>   0.0800 
 34 H      -11.1700     0.1340    -1.7260 H     1 <1>   0.0800 
 35 H       -9.8250     1.1130    -2.1830 H     1 <1>   0.0800 
 36 H       -9.4400     2.4430     1.4270 H     1 <1>   0.0800 
 37 H       -9.5720     0.7210     1.5330 H     1 <1>   0.0800 
 38 H      -12.1310     0.1840     0.4220 H     1 <1>   0.0800 
 39 H      -11.8580     1.4740     1.5160 H     1 <1>   0.0800 
 40 H      -10.8150     4.0860     0.7520 H     1 <1>   0.0800 
 41 H      -11.1640     4.7330    -0.8310 H     1 <1>   0.0800 
 42 H      -13.3450     4.0830    -0.7740 H     1 <1>   0.0800 
 43 H      -13.5760     0.7690    -1.4890 H     1 <1>   0.4000 
 44 H      -14.3730     1.8320     1.6370 H     1 <1>   0.0800 
 45 H      -14.6450     0.6130     0.4290 H     1 <1>   0.0800 
 46 H      -15.2290     2.2490     0.1830 H     1 <1>   0.0800 
 47 H      -12.7250     3.6250     1.9400 H     1 <1>   0.4000 
@<TRIPOS>BOND
  1   1   2  1   
  2   2   3  ar  
  3   2   4  ar  
  4   3   5  1   
  5   3   6  ar  
  6   4   7  ar  
  7   4  26  1   
  8   6   8  ar  
  9   6  27  1   
 10   7   8  ar  
 11   7   9  1   
 12   8  28  1   
 13   9  10  am  
 14   9  29  1   
 15  10  11  2   
 16  10  12  am  
 17  12  13  1   
 18  12  14  1   
 19  13  15  1   
 20  13  30  1   
 21  13  31  1   
 22  14  16  1   
 23  14  32  1   
 24  14  33  1   
 25  15  17  1   
 26  15  34  1   
 27  15  35  1   
 28  16  17  1   
 29  16  36  1   
 30  16  37  1   
 31  17  18  1   
 32  17  19  1   
 33  18  20  1   
 34  19  21  1   
 35  19  38  1   
 36  19  39  1   
 37  20  22  1   
 38  20  40  1   
 39  20  41  1   
 40  21  22  1   
 41  21  23  1   
 42  21  24  1   
 43  22  25  1   
 44  22  42  1   
 45  23  43  1   
 46  24  44  1   
 47  24  45  1   
 48  24  46  1   
 49  25  47  1   
@<TRIPOS>SUBSTRUCTURE
  1 ****  12 GROUP 4 **** **** 0

# MOE 2024.06 (io_trps.svl 2023.06)
