@<TRIPOS>MOLECULE
NONAME
50 53 1 0 0 
SMALL
USER_CHARGES


@<TRIPOS>ATOM
  1 O       -0.6260     0.6250    -1.2380 O.2   1 <1>  -0.5700 
  2 C       -0.4080     1.6340    -0.6070 C.2   1 <1>   0.5690 
  3 N       -1.3980     2.5070    -0.2340 N.am  1 <1>  -0.5090 
  4 C        1.0510     1.9440    -0.2580 C.3   1 <1>   0.1810 
  5 C       -1.0740     3.8200     0.4080 C.3   1 <1>   0.3640 
  6 C       -2.8400     2.1940    -0.3920 C.3   1 <1>   0.0490 
  7 O        1.1990     2.9680     0.6960 O.3   1 <1>  -0.5600 
  8 C       -1.7890     4.9700    -0.3010 C.ar  1 <1>  -0.1440 
  9 C        0.4400     4.1250     0.4140 C.3   1 <1>   0.2610 
 10 C       -3.7180     2.1990     0.8220 C.3   1 <1>  -0.2000 
 11 C       -3.3790     0.9070     0.1510 C.3   1 <1>  -0.2000 
 12 C       -2.3580     5.9890     0.4510 C.ar  1 <1>   0.1600 
 13 C       -1.8650     5.0460    -1.6810 C.ar  1 <1>  -0.1500 
 14 C        0.7390     5.2630     1.4050 C.2   1 <1>   0.5690 
 15 N       -2.9770     7.0460    -0.0490 N.ar  1 <1>  -0.6200 
 16 C       -2.5090     6.1400    -2.2170 C.ar  1 <1>  -0.1500 
 17 O        0.1620     5.2430     2.4720 O.2   1 <1>  -0.5700 
 18 N        1.5830     6.3010     1.0730 N.am  1 <1>  -0.6600 
 19 C       -3.0390     7.0970    -1.3690 C.ar  1 <1>   0.1600 
 20 C        2.4260     6.3330    -0.1510 C.3   1 <1>   0.1400 
 21 C        1.6700     7.5130     1.9310 C.3   1 <1>   0.1400 
 22 C        1.6570     7.0310    -1.2790 C.3   1 <1>  -0.1600 
 23 C        1.0660     8.7340     1.2250 C.3   1 <1>  -0.1600 
 24 C        1.7310     8.5700    -1.2780 C.3   1 <1>  -0.1600 
 25 C        1.9410     9.2650     0.0780 C.3   1 <1>  -0.1600 
 26 H        1.5770     2.2320    -1.1490 H     1 <1>   0.0800 
 27 H        1.5130     1.0600     0.1420 H     1 <1>   0.0800 
 28 H       -1.4180     3.7660     1.4260 H     1 <1>   0.0800 
 29 H       -3.2450     2.5560    -1.3230 H     1 <1>   0.1000 
 30 H        0.7090     4.4450    -0.5740 H     1 <1>   0.0800 
 31 H       -3.2970     2.3790     1.7950 H     1 <1>   0.1000 
 32 H       -4.7230     2.5710     0.7300 H     1 <1>   0.1000 
 33 H       -4.1450     0.3990    -0.4060 H     1 <1>   0.1000 
 34 H       -2.6960     0.2270     0.6290 H     1 <1>   0.1000 
 35 H       -2.2950     5.9410     1.5270 H     1 <1>   0.1500 
 36 H       -1.4460     4.2860    -2.3180 H     1 <1>   0.1500 
 37 H       -2.6020     6.2540    -3.2810 H     1 <1>   0.1500 
 38 H       -3.5410     7.9480    -1.7980 H     1 <1>   0.1500 
 39 H        3.3530     6.8420     0.0480 H     1 <1>   0.0800 
 40 H        2.6750     5.3280    -0.4430 H     1 <1>   0.0800 
 41 H        1.1380     7.3540     2.8540 H     1 <1>   0.0800 
 42 H        2.6990     7.6990     2.1860 H     1 <1>   0.0800 
 43 H        2.0440     6.6850    -2.2210 H     1 <1>   0.0800 
 44 H        0.6240     6.7340    -1.2380 H     1 <1>   0.0800 
 45 H        0.0700     8.5110     0.8820 H     1 <1>   0.0800 
 46 H        0.9810     9.5130     1.9610 H     1 <1>   0.0800 
 47 H        2.5350     8.8750    -1.9260 H     1 <1>   0.0800 
 48 H        0.8220     8.9440    -1.7170 H     1 <1>   0.0800 
 49 H        1.7210    10.3110    -0.0570 H     1 <1>   0.0800 
 50 H        2.9780     9.2030     0.3610 H     1 <1>   0.0800 
@<TRIPOS>BOND
  1   1   2  2   
  2   2   3  am  
  3   2   4  1   
  4   3   5  1   
  5   3   6  1   
  6   4   7  1   
  7   4  26  1   
  8   4  27  1   
  9   5   8  1   
 10   5   9  1   
 11   5  28  1   
 12   6  10  1   
 13   6  11  1   
 14   6  29  1   
 15   7   9  1   
 16   8  12  ar  
 17   8  13  ar  
 18   9  14  1   
 19   9  30  1   
 20  10  11  1   
 21  10  31  1   
 22  10  32  1   
 23  11  33  1   
 24  11  34  1   
 25  12  15  ar  
 26  12  35  1   
 27  13  16  ar  
 28  13  36  1   
 29  14  17  2   
 30  14  18  am  
 31  15  19  ar  
 32  16  19  ar  
 33  16  37  1   
 34  18  20  1   
 35  18  21  1   
 36  19  38  1   
 37  20  22  1   
 38  20  39  1   
 39  20  40  1   
 40  21  23  1   
 41  21  41  1   
 42  21  42  1   
 43  22  24  1   
 44  22  43  1   
 45  22  44  1   
 46  23  25  1   
 47  23  45  1   
 48  23  46  1   
 49  24  25  1   
 50  24  47  1   
 51  24  48  1   
 52  25  49  1   
 53  25  50  1   
@<TRIPOS>SUBSTRUCTURE
  1 ****   9 GROUP 4 **** **** 0

# MOE 2024.06 (io_trps.svl 2023.06)
