@<TRIPOS>MOLECULE
NONAME
50 52 1 0 0 
SMALL
USER_CHARGES


@<TRIPOS>ATOM
  1 S       -0.8960     0.2810     0.8900 S.o2  1 <1>   1.3330 
  2 O       -1.5710    -0.0180     2.1300 O.2   1 <1>  -0.6500 
  3 O       -0.9770     1.5950     0.3000 O.2   1 <1>  -0.6500 
  4 N       -1.4270    -0.8500    -0.3160 N.am  1 <1>  -0.6930 
  5 C        0.8240    -0.1460     1.0460 C.3   1 <1>  -0.1350 
  6 C       -1.4530    -2.2210    -0.1020 C.ar  1 <1>   0.1990 
  7 C       -1.7480    -0.3010    -1.6570 C.3   1 <1>   0.1160 
  8 C       -2.1850    -2.7840     0.9390 C.ar  1 <1>  -0.1500 
  9 C       -0.7340    -3.0790    -0.9280 C.ar  1 <1>  -0.1500 
 10 C       -2.1930    -4.1490     1.1490 C.ar  1 <1>  -0.1500 
 11 C       -0.7450    -4.4440    -0.7180 C.ar  1 <1>  -0.1500 
 12 C       -1.4800    -5.0180     0.3210 C.ar  1 <1>   0.0860 
 13 C       -1.4780    -6.4520     0.5220 C.2   1 <1>   0.5440 
 14 O       -0.4200    -7.0530     0.5370 O.2   1 <1>  -0.5700 
 15 N       -2.6430    -7.1740     0.6730 N.am  1 <1>  -0.6600 
 16 C       -3.9840    -6.7090     0.2260 C.3   1 <1>   0.1400 
 17 C       -2.6380    -8.6550     0.8080 C.3   1 <1>   0.1400 
 18 C       -4.9020    -7.9160     0.4240 C.3   1 <1>   0.2000 
 19 C       -3.9750    -9.1180     0.2190 C.3   1 <1>  -0.0800 
 20 O       -5.3610    -7.9040     1.7330 O.3   1 <1>  -0.6800 
 21 C       -4.4910   -10.4460     0.8040 C.3   1 <1>   0.0200 
 22 C       -3.6100   -11.6350     0.4570 C.2   1 <1>  -0.0400 
 23 O       -3.8750   -12.7910     1.0040 O.3   1 <1>  -0.0190 
 24 C       -2.5430   -11.7990    -0.3420 C.2   1 <1>  -0.1500 
 25 N       -3.0440   -13.7160     0.6200 N.2   1 <1>  -0.4100 
 26 C       -2.2290   -13.1460    -0.1920 C.2   1 <1>   0.1080 
 27 C       -1.0850   -13.8530    -0.8850 C.3   1 <1>  -0.0590 
 28 H        0.9250    -1.1600     1.3790 H     1 <1>   0.0800 
 29 H        1.2980     0.4990     1.7590 H     1 <1>   0.0800 
 30 H        1.3190    -0.0400     0.1010 H     1 <1>   0.0800 
 31 H       -2.1350    -1.0740    -2.2980 H     1 <1>   0.0800 
 32 H       -0.8640     0.1220    -2.1010 H     1 <1>   0.0800 
 33 H       -2.4930     0.4710    -1.5610 H     1 <1>   0.0800 
 34 H       -2.7530    -2.1410     1.5880 H     1 <1>   0.1500 
 35 H       -0.1550    -2.6690    -1.7350 H     1 <1>   0.1500 
 36 H       -2.7540    -4.5540     1.9730 H     1 <1>   0.1500 
 37 H       -0.1730    -5.0920    -1.3610 H     1 <1>   0.1500 
 38 H       -4.3280    -5.8600     0.7900 H     1 <1>   0.0800 
 39 H       -3.9350    -6.4530    -0.8180 H     1 <1>   0.0800 
 40 H       -1.8050    -9.0900     0.2820 H     1 <1>   0.0800 
 41 H       -2.5660    -8.9090     1.8510 H     1 <1>   0.0800 
 42 H       -5.7530    -7.9120    -0.2370 H     1 <1>   0.0800 
 43 H       -3.8390    -9.2430    -0.8410 H     1 <1>   0.0800 
 44 H       -4.6020    -7.7600     2.3340 H     1 <1>   0.4000 
 45 H       -5.4820   -10.6390     0.4320 H     1 <1>   0.0800 
 46 H       -4.5560   -10.3760     1.8760 H     1 <1>   0.0800 
 47 H       -2.0210   -11.0980    -0.9660 H     1 <1>   0.1500 
 48 H       -0.1550   -13.3820    -0.6250 H     1 <1>   0.0800 
 49 H       -1.2210   -13.8100    -1.9490 H     1 <1>   0.0800 
 50 H       -1.0520   -14.8830    -0.5790 H     1 <1>   0.0800 
@<TRIPOS>BOND
  1   1   2  2   
  2   1   3  2   
  3   1   4  am  
  4   1   5  1   
  5   4   6  1   
  6   4   7  1   
  7   5  28  1   
  8   5  29  1   
  9   5  30  1   
 10   6   8  ar  
 11   6   9  ar  
 12   7  31  1   
 13   7  32  1   
 14   7  33  1   
 15   8  10  ar  
 16   8  34  1   
 17   9  11  ar  
 18   9  35  1   
 19  10  12  ar  
 20  10  36  1   
 21  11  12  ar  
 22  11  37  1   
 23  12  13  1   
 24  13  14  2   
 25  13  15  am  
 26  15  16  1   
 27  15  17  1   
 28  16  18  1   
 29  16  38  1   
 30  16  39  1   
 31  17  19  1   
 32  17  40  1   
 33  17  41  1   
 34  18  19  1   
 35  18  20  1   
 36  18  42  1   
 37  19  21  1   
 38  19  43  1   
 39  20  44  1   
 40  21  22  1   
 41  21  45  1   
 42  21  46  1   
 43  22  23  1   
 44  22  24  2   
 45  23  25  1   
 46  24  26  1   
 47  24  47  1   
 48  25  26  2   
 49  26  27  1   
 50  27  48  1   
 51  27  49  1   
 52  27  50  1   
@<TRIPOS>SUBSTRUCTURE
  1 ****  13 GROUP 4 **** **** 0

# MOE 2024.06 (io_trps.svl 2023.06)
