@<TRIPOS>MOLECULE
NONAME
49 52 1 0 0 
SMALL
USER_CHARGES


@<TRIPOS>ATOM
  1 S        0.5160    -0.3760     1.6590 S.3   1 <1>  -0.0800 
  2 C       -0.5740    -1.5110     0.8540 C.2   1 <1>  -0.0450 
  3 C        1.7620    -0.6090     0.4540 C.2   1 <1>  -0.1100 
  4 C        0.0450    -2.0060    -0.2510 C.2   1 <1>  -0.1810 
  5 C       -1.8670    -1.7560     1.4440 C.2   1 <1>   0.7150 
  6 C        1.3570    -1.4930    -0.4760 C.2   1 <1>  -0.1500 
  7 C       -0.5500    -3.0260    -1.2050 C.3   1 <1>  -0.0590 
  8 O       -2.1270    -2.8830     1.8330 O.2   1 <1>  -0.5700 
  9 N       -2.8240    -0.7640     1.5480 N.am  1 <1>  -0.6600 
 10 C       -4.1720    -1.0480     2.1360 C.3   1 <1>   0.1400 
 11 C       -2.7250     0.5420     0.8370 C.3   1 <1>   0.1400 
 12 C       -5.3080    -1.2040     1.0930 C.3   1 <1>   0.1900 
 13 C       -3.6490     0.6380    -0.3960 C.3   1 <1>  -0.0800 
 14 N       -4.8160    -1.6540    -0.2460 N.3   1 <1>  -0.8100 
 15 C       -6.2320     0.0300     1.0310 C.3   1 <1>   0.1200 
 16 C       -4.8750     1.5380    -0.1660 C.3   1 <1>   0.1200 
 17 C       -4.0250    -0.7030    -1.0560 C.3   1 <1>   0.1100 
 18 C       -5.8210    -2.3760    -1.0580 C.3   1 <1>   0.2900 
 19 O       -5.5290     1.2360     1.0200 O.3   1 <1>  -0.5600 
 20 C       -6.4820    -3.5370    -0.3230 C.2   1 <1>   0.0070 
 21 N       -7.7700    -3.6620    -0.2310 N.2   1 <1>  -0.5650 
 22 N       -5.7950    -4.5300     0.3000 N.pl3 1 <1>   0.0480 
 23 C       -7.9350    -4.7890     0.4830 C.2   1 <1>   0.0770 
 24 C       -6.7440    -5.3290     0.8160 C.2   1 <1>  -0.3020 
 25 C       -4.3400    -4.7210     0.4600 C.3   1 <1>   0.0160 
 26 H        2.6770    -0.0570     0.5700 H     1 <1>   0.1500 
 27 H        1.9430    -1.8100    -1.3210 H     1 <1>   0.1500 
 28 H        0.0580    -3.9130    -1.2150 H     1 <1>   0.0800 
 29 H       -0.5920    -2.6200    -2.1990 H     1 <1>   0.0800 
 30 H       -1.5450    -3.2970    -0.9000 H     1 <1>   0.0800 
 31 H       -4.1280    -1.9540     2.7130 H     1 <1>   0.0800 
 32 H       -4.4230    -0.2640     2.8290 H     1 <1>   0.0800 
 33 H       -2.9540     1.3330     1.5310 H     1 <1>   0.0800 
 34 H       -1.7160     0.7030     0.5060 H     1 <1>   0.0800 
 35 H       -5.9300    -1.9840     1.4920 H     1 <1>   0.0800 
 36 H       -3.0760     1.1600    -1.1400 H     1 <1>   0.0800 
 37 H       -6.8390     0.0450     1.9190 H     1 <1>   0.0800 
 38 H       -6.8900    -0.0130     0.1830 H     1 <1>   0.0800 
 39 H       -5.5760     1.4690    -0.9800 H     1 <1>   0.0800 
 40 H       -4.5550     2.5620    -0.0850 H     1 <1>   0.0800 
 41 H       -3.1170    -1.2030    -1.3450 H     1 <1>   0.0800 
 42 H       -4.5610    -0.4800    -1.9630 H     1 <1>   0.0800 
 43 H       -6.5860    -1.6890    -1.3760 H     1 <1>   0.0800 
 44 H       -5.3460    -2.7700    -1.9390 H     1 <1>   0.0800 
 45 H       -8.9180    -5.1570     0.7250 H     1 <1>   0.1500 
 46 H       -6.5270    -6.2170     1.3800 H     1 <1>   0.1500 
 47 H       -4.0850    -5.7380     0.2310 H     1 <1>   0.0800 
 48 H       -4.0680    -4.5030     1.4760 H     1 <1>   0.0800 
 49 H       -3.8040    -4.0620    -0.1960 H     1 <1>   0.0800 
@<TRIPOS>BOND
  1   1   2  1   
  2   1   3  1   
  3   2   4  2   
  4   2   5  1   
  5   3   6  2   
  6   3  26  1   
  7   4   6  1   
  8   4   7  1   
  9   5   8  2   
 10   5   9  am  
 11   6  27  1   
 12   7  28  1   
 13   7  29  1   
 14   7  30  1   
 15   9  10  1   
 16   9  11  1   
 17  10  12  1   
 18  10  31  1   
 19  10  32  1   
 20  11  13  1   
 21  11  33  1   
 22  11  34  1   
 23  12  14  1   
 24  12  15  1   
 25  12  35  1   
 26  13  16  1   
 27  13  17  1   
 28  13  36  1   
 29  14  17  1   
 30  14  18  1   
 31  15  19  1   
 32  15  37  1   
 33  15  38  1   
 34  16  19  1   
 35  16  39  1   
 36  16  40  1   
 37  17  41  1   
 38  17  42  1   
 39  18  20  1   
 40  18  43  1   
 41  18  44  1   
 42  20  21  2   
 43  20  22  1   
 44  21  23  1   
 45  22  24  1   
 46  22  25  1   
 47  23  24  2   
 48  23  45  1   
 49  24  46  1   
 50  25  47  1   
 51  25  48  1   
 52  25  49  1   
@<TRIPOS>SUBSTRUCTURE
  1 ****  14 GROUP 4 **** **** 0

# MOE 2024.06 (io_trps.svl 2023.06)
