@<TRIPOS>MOLECULE
NONAME
53 56 1 0 0 
SMALL
USER_CHARGES


@<TRIPOS>ATOM
  1 O        1.2170    -0.4550    -2.2930 O.2   1 <1>  -0.5700 
  2 C        1.2190    -1.5040    -1.6950 C.2   1 <1>   0.5690 
  3 N        2.3250    -2.1680    -1.3080 N.am  1 <1>  -0.6600 
  4 C       -0.0190    -2.2100    -1.2280 C.3   1 <1>  -0.0990 
  5 C        2.0060    -3.3210    -0.4480 C.3   1 <1>   0.1400 
  6 C        3.7340    -1.7240    -1.5450 C.3   1 <1>   0.2010 
  7 C        0.5110    -3.1390    -0.1170 C.3   1 <1>   0.0640 
  8 C        4.1360    -0.5320    -0.6790 C.2   1 <1>   0.5690 
  9 C       -0.2620    -4.4510     0.0610 C.ar  1 <1>  -0.1440 
 10 O        5.0380    -0.6730     0.1120 O.2   1 <1>  -0.5700 
 11 N        3.4450     0.6370    -0.8420 N.am  1 <1>  -0.4940 
 12 C        0.3600    -5.5640     0.6160 C.ar  1 <1>  -0.1500 
 13 C       -1.6010    -4.5540    -0.2980 C.ar  1 <1>  -0.1500 
 14 C        3.5030     1.8520    -0.1170 C.2   1 <1>  -0.0880 
 15 C       -0.3290    -6.7520     0.7860 C.ar  1 <1>  -0.1500 
 16 C       -2.2920    -5.7420    -0.1300 C.ar  1 <1>  -0.1500 
 17 N        4.6130     2.5360     0.2920 N.pl3 1 <1>   0.3140 
 18 C        2.4330     2.5750     0.2920 C.2   1 <1>  -0.1810 
 19 C       -1.6560    -6.8440     0.4100 C.ar  1 <1>  -0.1500 
 20 N        4.2610     3.6660     0.9640 N.2   1 <1>  -0.7070 
 21 C        6.0420     2.2170    -0.0080 C.3   1 <1>   0.1760 
 22 C        2.9670     3.6730     0.9530 C.2   1 <1>   0.1390 
 23 C        0.9550     2.2920     0.1010 C.3   1 <1>  -0.0590 
 24 C        6.8540     1.8730     1.2530 C.3   1 <1>  -0.1600 
 25 C        6.7950     3.3710    -0.6820 C.3   1 <1>  -0.1600 
 26 C        8.1710     2.6520     1.1570 C.3   1 <1>  -0.1600 
 27 C        8.2510     3.1590    -0.2810 C.3   1 <1>  -0.1600 
 28 H       -0.4130    -2.7700    -2.0560 H     1 <1>   0.0800 
 29 H       -0.7500    -1.5160    -0.8600 H     1 <1>   0.0800 
 30 H        2.6070    -3.3160     0.4450 H     1 <1>   0.0800 
 31 H        2.1710    -4.2290    -1.0030 H     1 <1>   0.0800 
 32 H        3.8410    -1.4450    -2.5780 H     1 <1>   0.0800 
 33 H        4.4040    -2.5410    -1.3490 H     1 <1>   0.0800 
 34 H        0.4580    -2.6020     0.8150 H     1 <1>   0.0800 
 35 H        2.6150     0.5390    -1.4480 H     1 <1>   0.3700 
 36 H        1.3870    -5.5250     0.9320 H     1 <1>   0.1500 
 37 H       -2.1320    -3.7150    -0.7090 H     1 <1>   0.1500 
 38 H        0.1670    -7.6070     1.2120 H     1 <1>   0.1500 
 39 H       -3.3270    -5.8080    -0.4170 H     1 <1>   0.1500 
 40 H       -2.1920    -7.7670     0.5400 H     1 <1>   0.1500 
 41 H        6.0770     1.3800    -0.6770 H     1 <1>   0.0800 
 42 H        2.3800     4.4520     1.4100 H     1 <1>   0.1500 
 43 H        0.8010     1.2800    -0.2260 H     1 <1>   0.0800 
 44 H        0.5480     2.9590    -0.6370 H     1 <1>   0.0800 
 45 H        0.4320     2.4340     1.0290 H     1 <1>   0.0800 
 46 H        7.0460     0.8140     1.2730 H     1 <1>   0.0800 
 47 H        6.3230     2.1500     2.1480 H     1 <1>   0.0800 
 48 H        6.4620     4.3170    -0.2880 H     1 <1>   0.0800 
 49 H        6.6660     3.3610    -1.7500 H     1 <1>   0.0800 
 50 H        9.0190     2.0430     1.4160 H     1 <1>   0.0800 
 51 H        8.1270     3.4960     1.8260 H     1 <1>   0.0800 
 52 H        8.8290     4.0640    -0.3590 H     1 <1>   0.0800 
 53 H        8.6910     2.4000    -0.9060 H     1 <1>   0.0800 
@<TRIPOS>BOND
  1   1   2  2   
  2   2   3  am  
  3   2   4  1   
  4   3   5  1   
  5   3   6  1   
  6   4   7  1   
  7   4  28  1   
  8   4  29  1   
  9   5   7  1   
 10   5  30  1   
 11   5  31  1   
 12   6   8  1   
 13   6  32  1   
 14   6  33  1   
 15   7   9  1   
 16   7  34  1   
 17   8  10  2   
 18   8  11  am  
 19   9  12  ar  
 20   9  13  ar  
 21  11  14  1   
 22  11  35  1   
 23  12  15  ar  
 24  12  36  1   
 25  13  16  ar  
 26  13  37  1   
 27  14  17  1   
 28  14  18  2   
 29  15  19  ar  
 30  15  38  1   
 31  16  19  ar  
 32  16  39  1   
 33  17  20  1   
 34  17  21  1   
 35  18  22  1   
 36  18  23  1   
 37  19  40  1   
 38  20  22  2   
 39  21  24  1   
 40  21  25  1   
 41  21  41  1   
 42  22  42  1   
 43  23  43  1   
 44  23  44  1   
 45  23  45  1   
 46  24  26  1   
 47  24  46  1   
 48  24  47  1   
 49  25  27  1   
 50  25  48  1   
 51  25  49  1   
 52  26  27  1   
 53  26  50  1   
 54  26  51  1   
 55  27  52  1   
 56  27  53  1   
@<TRIPOS>SUBSTRUCTURE
  1 ****   8 GROUP 4 **** **** 0

# MOE 2024.06 (io_trps.svl 2023.06)
