@<TRIPOS>MOLECULE
NONAME
54 56 1 0 0 
SMALL
USER_CHARGES


@<TRIPOS>ATOM
  1 O        4.0700     2.0660     1.9080 O.co2 1 <1>  -0.9000 
  2 C        3.3700     1.1000     1.5650 C.2   1 <1>   0.9060 
  3 O        3.5600    -0.0170     2.0430 O.co2 1 <1>  -0.9000 
  4 C        2.4950     1.2120     0.2970 C.3   1 <1>  -0.1060 
  5 C        3.1820     0.2400    -0.6950 C.3   1 <1>   0.2000 
  6 C        2.5690     2.6530    -0.3160 C.3   1 <1>  -0.1600 
  7 C        1.0350     0.8310     0.6890 C.3   1 <1>  -0.1600 
  8 O        2.6040     0.3450    -1.9600 O.3   1 <1>  -0.6800 
  9 C        4.6880     0.5950    -0.8280 C.3   1 <1>   0.3430 
 10 C        3.8520     2.9260    -1.1290 C.3   1 <1>   0.3430 
 11 C        0.0020     0.6460    -0.4390 C.3   1 <1>  -0.1600 
 12 N        4.9570     2.0690    -0.6200 N.4   1 <1>  -0.9590 
 13 C       -1.4020     0.4640     0.1430 C.3   1 <1>  -0.2400 
 14 C        6.3340     2.4820    -0.9480 C.3   1 <1>   0.4860 
 15 C        6.5480     3.9360    -0.5920 C.ar  1 <1>  -0.1430 
 16 C        6.9730     4.8360    -1.5400 C.ar  1 <1>   0.1600 
 17 C        6.3310     4.4260     0.6770 C.ar  1 <1>   0.1600 
 18 N        7.1600     6.1010    -1.2690 N.ar  1 <1>  -0.6200 
 19 N        6.5170     5.6890     0.9690 N.ar  1 <1>  -0.6200 
 20 C        6.9260     6.4860    -0.0150 C.ar  1 <1>   0.7200 
 21 N        7.1200     7.8170     0.2860 N.pl3 1 <1>  -0.8380 
 22 C        6.9770     8.3690     1.6710 C.3   1 <1>   0.2090 
 23 C        7.6810     8.8080    -0.6840 C.3   1 <1>   0.2090 
 24 C        6.3010     9.7510     1.6450 C.3   1 <1>   0.1200 
 25 C        6.9600    10.1620    -0.5650 C.3   1 <1>   0.1200 
 26 O        6.9540    10.6190     0.7600 O.3   1 <1>  -0.5600 
 27 H        3.0770    -0.7820    -0.3680 H     1 <1>   0.0800 
 28 H        2.4880     3.3840     0.4700 H     1 <1>   0.0800 
 29 H        1.7410     2.8300    -0.9740 H     1 <1>   0.0800 
 30 H        1.0670    -0.0870     1.2540 H     1 <1>   0.0800 
 31 H        0.6760     1.5880     1.3650 H     1 <1>   0.0800 
 32 H        1.6450     0.1650    -1.8800 H     1 <1>   0.4000 
 33 H        5.0340     0.2740    -1.7950 H     1 <1>   0.0800 
 34 H        5.2240     0.0430    -0.0720 H     1 <1>   0.0800 
 35 H        4.1060     3.9710    -1.0480 H     1 <1>   0.0800 
 36 H        3.6730     2.6930    -2.1660 H     1 <1>   0.0800 
 37 H       -0.0100     1.4960    -1.0960 H     1 <1>   0.0800 
 38 H        0.2370    -0.2330    -1.0120 H     1 <1>   0.0800 
 39 H        4.8610     2.1880     0.4220 H     1 <1>   0.4500 
 40 H       -1.6930     1.3340     0.7060 H     1 <1>   0.0800 
 41 H       -1.4310    -0.3930     0.7950 H     1 <1>   0.0800 
 42 H       -2.1150     0.3150    -0.6480 H     1 <1>   0.0800 
 43 H        7.0320     1.8750    -0.3930 H     1 <1>   0.0800 
 44 H        6.5140     2.3330    -1.9990 H     1 <1>   0.0800 
 45 H        7.1650     4.5180    -2.5510 H     1 <1>   0.1500 
 46 H        5.9920     3.7760     1.4720 H     1 <1>   0.1500 
 47 H        6.3920     7.7170     2.2930 H     1 <1>   0.0800 
 48 H        7.9530     8.4610     2.1150 H     1 <1>   0.0800 
 49 H        8.7280     8.9450    -0.4800 H     1 <1>   0.0800 
 50 H        7.5850     8.4600    -1.6970 H     1 <1>   0.0800 
 51 H        6.3320    10.1950     2.6230 H     1 <1>   0.0800 
 52 H        5.2740     9.6570     1.3390 H     1 <1>   0.0800 
 53 H        5.9420    10.0720    -0.9020 H     1 <1>   0.0800 
 54 H        7.4600    10.9010    -1.1650 H     1 <1>   0.0800 
@<TRIPOS>BOND
  1   1   2  ar  
  2   2   3  ar  
  3   2   4  1   
  4   4   5  1   
  5   4   6  1   
  6   4   7  1   
  7   5   8  1   
  8   5   9  1   
  9   5  27  1   
 10   6  10  1   
 11   6  28  1   
 12   6  29  1   
 13   7  11  1   
 14   7  30  1   
 15   7  31  1   
 16   8  32  1   
 17   9  12  1   
 18   9  33  1   
 19   9  34  1   
 20  10  12  1   
 21  10  35  1   
 22  10  36  1   
 23  11  13  1   
 24  11  37  1   
 25  11  38  1   
 26  12  14  1   
 27  12  39  1   
 28  13  40  1   
 29  13  41  1   
 30  13  42  1   
 31  14  15  1   
 32  14  43  1   
 33  14  44  1   
 34  15  16  ar  
 35  15  17  ar  
 36  16  18  ar  
 37  16  45  1   
 38  17  19  ar  
 39  17  46  1   
 40  18  20  ar  
 41  19  20  ar  
 42  20  21  1   
 43  21  22  1   
 44  21  23  1   
 45  22  24  1   
 46  22  47  1   
 47  22  48  1   
 48  23  25  1   
 49  23  49  1   
 50  23  50  1   
 51  24  26  1   
 52  24  51  1   
 53  24  52  1   
 54  25  26  1   
 55  25  53  1   
 56  25  54  1   
@<TRIPOS>SUBSTRUCTURE
  1 ****  17 GROUP 4 **** **** 0

# MOE 2024.06 (io_trps.svl 2023.06)
