@<TRIPOS>MOLECULE
NONAME
49 52 1 0 0 
SMALL
USER_CHARGES


@<TRIPOS>ATOM
  1 O        0.5720     0.5800     0.4640 O.3   1 <1>  -0.0190 
  2 N        1.5420     1.3560     0.0870 N.2   1 <1>  -0.4100 
  3 C        1.0690    -0.6280     0.3570 C.2   1 <1>   0.3170 
  4 C        2.5300     0.6070    -0.2120 C.2   1 <1>   0.3350 
  5 N        2.2750    -0.6860    -0.0550 N.2   1 <1>  -0.5650 
  6 C        0.1750    -1.8000     0.7330 C.3   1 <1>   0.1610 
  7 C        3.8960     1.0840    -0.7080 C.3   1 <1>   0.3900 
  8 C        0.6200    -3.1970     0.2190 C.3   1 <1>   0.0000 
  9 C       -1.0790    -1.9580    -0.1670 C.3   1 <1>   0.0000 
 10 N        4.0840     2.5540    -0.5290 N.pl3 1 <1>  -0.8690 
 11 C       -0.8810    -3.4910    -0.0360 C.3   1 <1>   0.0000 
 12 C        5.1950     3.2750    -0.3390 C.ar  1 <1>   0.4100 
 13 N        4.9900     4.5300    -0.0190 N.ar  1 <1>  -0.6200 
 14 C        6.4870     2.7370    -0.4740 C.ar  1 <1>  -0.1500 
 15 C        6.0450     5.3060     0.1950 C.ar  1 <1>   0.7710 
 16 C        7.5540     3.5430    -0.2590 C.ar  1 <1>   0.2180 
 17 N        7.2980     4.8300     0.0770 N.ar  1 <1>  -0.1790 
 18 N        5.8650     6.6120     0.5350 N.pl3 1 <1>  -0.8380 
 19 C        8.9970     3.0840    -0.3760 C.3   1 <1>  -0.0970 
 20 C        4.5050     7.2500     0.5150 C.3   1 <1>   0.2090 
 21 C        6.9150     7.5990     0.9390 C.3   1 <1>   0.2090 
 22 C        4.5000     8.3830    -0.5170 C.3   1 <1>  -0.1600 
 23 C        6.9700     8.7260    -0.0970 C.3   1 <1>  -0.1600 
 24 C        5.6050     9.4140    -0.2430 C.3   1 <1>  -0.1600 
 25 H       -0.0780    -1.8150     1.7800 H     1 <1>   0.0000 
 26 H        3.9830     0.8400    -1.7520 H     1 <1>   0.0800 
 27 H        4.6570     0.5520    -0.1670 H     1 <1>   0.0800 
 28 H        1.0620    -3.8200     0.9770 H     1 <1>   0.0000 
 29 H        1.1870    -3.1610    -0.6960 H     1 <1>   0.0000 
 30 H       -0.9250    -1.6060    -1.1730 H     1 <1>   0.0000 
 31 H       -1.9870    -1.5960     0.2820 H     1 <1>   0.0000 
 32 H        3.1870     3.0370    -0.3810 H     1 <1>   0.4000 
 33 H       -1.3770    -3.9020     0.8270 H     1 <1>   0.0000 
 34 H       -1.0710    -4.0340    -0.9450 H     1 <1>   0.0000 
 35 H        6.5990     1.7060    -0.7490 H     1 <1>   0.1500 
 36 H        8.0320     5.5060     0.2320 H     1 <1>   0.4570 
 37 H        9.0400     2.0440    -0.6480 H     1 <1>   0.0800 
 38 H        9.5090     3.2060     0.5620 H     1 <1>   0.0800 
 39 H        9.5110     3.6490    -1.1340 H     1 <1>   0.0800 
 40 H        4.2830     7.6460     1.4920 H     1 <1>   0.0800 
 41 H        3.7260     6.5490     0.2680 H     1 <1>   0.0800 
 42 H        7.8840     7.1470     1.0360 H     1 <1>   0.0800 
 43 H        6.6550     8.0140     1.9000 H     1 <1>   0.0800 
 44 H        3.5420     8.8720    -0.5000 H     1 <1>   0.0800 
 45 H        4.6300     7.9590    -1.4980 H     1 <1>   0.0800 
 46 H        7.2750     8.3250    -1.0480 H     1 <1>   0.0800 
 47 H        7.7030     9.4540     0.2030 H     1 <1>   0.0800 
 48 H        5.3750     9.9460     0.6650 H     1 <1>   0.0800 
 49 H        5.6400    10.1320    -1.0450 H     1 <1>   0.0800 
@<TRIPOS>BOND
  1   1   2  1   
  2   1   3  1   
  3   2   4  2   
  4   3   5  2   
  5   3   6  1   
  6   4   5  1   
  7   4   7  1   
  8   6   8  1   
  9   6   9  1   
 10   6  25  1   
 11   7  10  1   
 12   7  26  1   
 13   7  27  1   
 14   8  11  1   
 15   8  28  1   
 16   8  29  1   
 17   9  11  1   
 18   9  30  1   
 19   9  31  1   
 20  10  12  1   
 21  10  32  1   
 22  11  33  1   
 23  11  34  1   
 24  12  13  ar  
 25  12  14  ar  
 26  13  15  ar  
 27  14  16  ar  
 28  14  35  1   
 29  15  17  ar  
 30  15  18  1   
 31  16  17  ar  
 32  16  19  1   
 33  17  36  1   
 34  18  20  1   
 35  18  21  1   
 36  19  37  1   
 37  19  38  1   
 38  19  39  1   
 39  20  22  1   
 40  20  40  1   
 41  20  41  1   
 42  21  23  1   
 43  21  42  1   
 44  21  43  1   
 45  22  24  1   
 46  22  44  1   
 47  22  45  1   
 48  23  24  1   
 49  23  46  1   
 50  23  47  1   
 51  24  48  1   
 52  24  49  1   
@<TRIPOS>SUBSTRUCTURE
  1 ****  10 GROUP 4 **** **** 0

# MOE 2024.06 (io_trps.svl 2023.06)
