@<TRIPOS>MOLECULE
NONAME
53 55 1 0 0 
SMALL
USER_CHARGES


@<TRIPOS>ATOM
  1 O       -1.8290     0.0520    -1.7090 O.2   1 <1>  -0.5700 
  2 C       -1.9470     0.7550    -0.7320 C.2   1 <1>   0.5690 
  3 N       -2.7430     0.3630     0.3190 N.am  1 <1>  -0.6600 
  4 C       -1.2020     2.0920    -0.7330 C.3   1 <1>  -0.0190 
  5 C       -3.5040    -0.9260     0.2480 C.3   1 <1>   0.1400 
  6 C       -3.0710     1.1740     1.5260 C.3   1 <1>   0.1400 
  7 C       -1.7370     3.0840    -1.7880 C.3   1 <1>  -0.0220 
  8 C        0.3150     1.9650    -0.9900 C.3   1 <1>  -0.0220 
  9 C       -4.9580    -0.7170    -0.2030 C.3   1 <1>   0.1400 
 10 C       -4.1710     2.2040     1.2300 C.3   1 <1>  -0.1600 
 11 C       -0.4860     3.8070    -2.2250 C.2   1 <1>  -0.2880 
 12 C        0.6160     3.2060    -1.7960 C.2   1 <1>  -0.2880 
 13 N       -5.6740     0.3080     0.6270 N.am  1 <1>  -0.6600 
 14 C       -5.2930     1.7100     0.3060 C.3   1 <1>   0.1400 
 15 C       -6.6310     0.0430     1.5780 C.2   1 <1>   0.5690 
 16 O       -7.1590     0.9370     2.1990 O.2   1 <1>  -0.5700 
 17 C       -7.0470    -1.3830     1.9260 C.3   1 <1>   0.0440 
 18 C       -7.7530    -2.1290     0.7880 C.ar  1 <1>  -0.1430 
 19 C       -7.5110    -3.4750     0.5140 C.ar  1 <1>  -0.1430 
 20 C       -8.6650    -1.4320     0.0060 C.ar  1 <1>  -0.1500 
 21 C       -8.1690    -4.0810    -0.5450 C.ar  1 <1>  -0.1500 
 22 C       -6.5500    -4.3170     1.3420 C.3   1 <1>  -0.0970 
 23 C       -9.3180    -2.0410    -1.0510 C.ar  1 <1>  -0.1430 
 24 C       -9.0630    -3.3720    -1.3240 C.ar  1 <1>  -0.1500 
 25 C      -10.3050    -1.2580    -1.8960 C.3   1 <1>  -0.0970 
 26 H       -1.2990     2.5780     0.2150 H     1 <1>   0.0800 
 27 H       -3.4950    -1.4030     1.2120 H     1 <1>   0.0800 
 28 H       -3.0230    -1.6000    -0.4390 H     1 <1>   0.0800 
 29 H       -2.1920     1.6590     1.9100 H     1 <1>   0.0800 
 30 H       -3.4240     0.5160     2.3020 H     1 <1>   0.0800 
 31 H       -2.4560     3.7580    -1.3580 H     1 <1>   0.0800 
 32 H       -2.1700     2.5720    -2.6300 H     1 <1>   0.0800 
 33 H        0.5530     1.0920    -1.5730 H     1 <1>   0.0800 
 34 H        0.8650     1.9470    -0.0660 H     1 <1>   0.0800 
 35 H       -5.4660    -1.6610    -0.1710 H     1 <1>   0.0800 
 36 H       -4.9590    -0.4030    -1.2330 H     1 <1>   0.0800 
 37 H       -3.7320     3.0830     0.7950 H     1 <1>   0.0800 
 38 H       -4.6090     2.5070     2.1640 H     1 <1>   0.0800 
 39 H       -0.5800     4.6930    -2.8300 H     1 <1>   0.1500 
 40 H        1.6450     3.4800    -1.9640 H     1 <1>   0.1500 
 41 H       -4.9640     1.7630    -0.7170 H     1 <1>   0.0800 
 42 H       -6.1510     2.3540     0.4040 H     1 <1>   0.0800 
 43 H       -7.7160    -1.3460     2.7660 H     1 <1>   0.0800 
 44 H       -6.1640    -1.8970     2.2460 H     1 <1>   0.0800 
 45 H       -8.8740    -0.3970     0.2190 H     1 <1>   0.1500 
 46 H       -7.9910    -5.1170    -0.7730 H     1 <1>   0.1500 
 47 H       -6.7980    -4.2440     2.3850 H     1 <1>   0.0800 
 48 H       -5.5400    -3.9820     1.1920 H     1 <1>   0.0800 
 49 H       -6.6060    -5.3530     1.0610 H     1 <1>   0.0800 
 50 H       -9.5620    -3.8620    -2.1410 H     1 <1>   0.1500 
 51 H      -10.0440    -0.2140    -1.9080 H     1 <1>   0.0800 
 52 H      -11.2940    -1.3640    -1.4890 H     1 <1>   0.0800 
 53 H      -10.3020    -1.6200    -2.9080 H     1 <1>   0.0800 
@<TRIPOS>BOND
  1   1   2  2   
  2   2   3  am  
  3   2   4  1   
  4   3   5  1   
  5   3   6  1   
  6   4   7  1   
  7   4   8  1   
  8   4  26  1   
  9   5   9  1   
 10   5  27  1   
 11   5  28  1   
 12   6  10  1   
 13   6  29  1   
 14   6  30  1   
 15   7  11  1   
 16   7  31  1   
 17   7  32  1   
 18   8  12  1   
 19   8  33  1   
 20   8  34  1   
 21   9  13  1   
 22   9  35  1   
 23   9  36  1   
 24  10  14  1   
 25  10  37  1   
 26  10  38  1   
 27  11  12  2   
 28  11  39  1   
 29  12  40  1   
 30  13  14  1   
 31  13  15  am  
 32  14  41  1   
 33  14  42  1   
 34  15  16  2   
 35  15  17  1   
 36  17  18  1   
 37  17  43  1   
 38  17  44  1   
 39  18  19  ar  
 40  18  20  ar  
 41  19  21  ar  
 42  19  22  1   
 43  20  23  ar  
 44  20  45  1   
 45  21  24  ar  
 46  21  46  1   
 47  22  47  1   
 48  22  48  1   
 49  22  49  1   
 50  23  24  ar  
 51  23  25  1   
 52  24  50  1   
 53  25  51  1   
 54  25  52  1   
 55  25  53  1   
@<TRIPOS>SUBSTRUCTURE
  1 ****   9 GROUP 4 **** **** 0

# MOE 2024.06 (io_trps.svl 2023.06)
