@<TRIPOS>MOLECULE
NONAME
47 48 1 0 0 
SMALL
USER_CHARGES


@<TRIPOS>ATOM
  1 S        1.5820     0.4100    -0.8300 S.o2  1 <1>   1.3330 
  2 O        2.7900    -0.3110    -0.5030 O.2   1 <1>  -0.6500 
  3 O        1.4150     0.8950    -2.1840 O.2   1 <1>  -0.6500 
  4 N        0.2620    -0.5950    -0.4650 N.am  1 <1>  -0.8490 
  5 C        1.3310     1.7970     0.2890 C.3   1 <1>  -0.0550 
  6 C        0.5640    -2.0180    -0.6580 C.3   1 <1>   0.1160 
  7 C       -0.9610    -0.2440    -1.1960 C.3   1 <1>   0.1160 
  8 C        1.8640     1.6820     1.7330 C.3   1 <1>  -0.0800 
  9 C        3.3720     1.5890     1.8850 C.3   1 <1>   0.2890 
 10 C        1.4110     0.4820     2.5480 C.3   1 <1>   0.1200 
 11 N        4.0120     2.9210     1.6760 N.pl3 1 <1>  -0.8690 
 12 C        3.5220     1.0160     3.2950 C.3   1 <1>   0.1200 
 13 O        2.2800     0.4630     3.6380 O.3   1 <1>  -0.5600 
 14 C        4.5210     3.3620     0.5120 C.ar  1 <1>   0.4100 
 15 N        4.3680     2.5550    -0.5400 N.ar  1 <1>  -0.6200 
 16 C        5.1690     4.6050     0.3820 C.ar  1 <1>  -0.1430 
 17 C        4.8320     2.9230    -1.6880 C.ar  1 <1>   0.5270 
 18 C        5.6620     4.9530    -0.8530 C.ar  1 <1>   0.2180 
 19 C        5.2880     5.5030     1.6180 C.3   1 <1>  -0.0970 
 20 N        5.4710     4.0920    -1.8760 N.ar  1 <1>  -0.1790 
 21 C        4.6360     1.9910    -2.8670 C.3   1 <1>  -0.0970 
 22 C        6.4090     6.2450    -1.1600 C.3   1 <1>  -0.0970 
 23 H        1.7850     2.6630    -0.1480 H     1 <1>   0.0800 
 24 H        0.2810     2.0040     0.3380 H     1 <1>   0.0800 
 25 H       -0.2930    -2.6190    -0.4060 H     1 <1>   0.0800 
 26 H        1.3790    -2.3140    -0.0190 H     1 <1>   0.0800 
 27 H        0.8410    -2.2060    -1.6820 H     1 <1>   0.0800 
 28 H       -1.7840    -0.8480    -0.8520 H     1 <1>   0.0800 
 29 H       -0.8270    -0.4050    -2.2530 H     1 <1>   0.0800 
 30 H       -1.2090     0.7910    -1.0340 H     1 <1>   0.0800 
 31 H        1.5300     2.5550     2.2670 H     1 <1>   0.0800 
 32 H        3.8030     0.8700     1.2140 H     1 <1>   0.0800 
 33 H        1.5350    -0.4430     2.0110 H     1 <1>   0.0800 
 34 H        0.3980     0.5730     2.9020 H     1 <1>   0.0800 
 35 H        4.0570     3.4970     2.5190 H     1 <1>   0.4000 
 36 H        3.7530     1.7790     4.0160 H     1 <1>   0.0800 
 37 H        4.2620     0.2360     3.3210 H     1 <1>   0.0800 
 38 H        5.6310     6.4940     1.3850 H     1 <1>   0.0800 
 39 H        5.9720     5.0650     2.3240 H     1 <1>   0.0800 
 40 H        4.3270     5.6060     2.0930 H     1 <1>   0.0800 
 41 H        5.8100     4.3130    -2.8120 H     1 <1>   0.4570 
 42 H        4.3440     1.0150    -2.5180 H     1 <1>   0.0800 
 43 H        5.5450     1.8850    -3.4300 H     1 <1>   0.0800 
 44 H        3.8550     2.3610    -3.5050 H     1 <1>   0.0800 
 45 H        7.0600     6.5110    -0.3470 H     1 <1>   0.0800 
 46 H        5.7090     7.0460    -1.3190 H     1 <1>   0.0800 
 47 H        7.0220     6.1440    -2.0380 H     1 <1>   0.0800 
@<TRIPOS>BOND
  1   1   2  2   
  2   1   3  2   
  3   1   4  am  
  4   1   5  1   
  5   4   6  1   
  6   4   7  1   
  7   5   8  1   
  8   5  23  1   
  9   5  24  1   
 10   6  25  1   
 11   6  26  1   
 12   6  27  1   
 13   7  28  1   
 14   7  29  1   
 15   7  30  1   
 16   8   9  1   
 17   8  10  1   
 18   8  31  1   
 19   9  11  1   
 20   9  12  1   
 21   9  32  1   
 22  10  13  1   
 23  10  33  1   
 24  10  34  1   
 25  11  14  1   
 26  11  35  1   
 27  12  13  1   
 28  12  36  1   
 29  12  37  1   
 30  14  15  ar  
 31  14  16  ar  
 32  15  17  ar  
 33  16  18  ar  
 34  16  19  1   
 35  17  20  ar  
 36  17  21  1   
 37  18  20  ar  
 38  18  22  1   
 39  19  38  1   
 40  19  39  1   
 41  19  40  1   
 42  20  41  1   
 43  21  42  1   
 44  21  43  1   
 45  21  44  1   
 46  22  45  1   
 47  22  46  1   
 48  22  47  1   
@<TRIPOS>SUBSTRUCTURE
  1 ****  15 GROUP 4 **** **** 0

# MOE 2024.06 (io_trps.svl 2023.06)
