@<TRIPOS>MOLECULE
NONAME
54 57 1 0 0 
SMALL
USER_CHARGES


@<TRIPOS>ATOM
  1 O       -0.7590     0.6840    -1.4350 O.2   1 <1>  -0.5700 
  2 C       -1.6460     1.1510    -0.7450 C.2   1 <1>   0.6900 
  3 N       -2.9430     0.7300    -0.9030 N.am  1 <1>  -0.6600 
  4 N       -1.3810     2.1170     0.1830 N.am  1 <1>  -0.5470 
  5 C       -3.3470    -0.0870    -2.0810 C.3   1 <1>   0.1400 
  6 C       -3.9810     0.7880     0.1630 C.3   1 <1>   0.1400 
  7 C       -0.1750     2.6280     0.6810 C.ar  1 <1>   0.1170 
  8 C       -3.6490    -1.5160    -1.6270 C.3   1 <1>  -0.1600 
  9 C       -4.2830    -0.6330     0.6440 C.3   1 <1>  -0.1600 
 10 C        1.0210     1.9180     0.6390 C.ar  1 <1>  -0.1500 
 11 C       -0.1720     3.8910     1.2630 C.ar  1 <1>  -0.1500 
 12 C       -4.7070    -1.5530    -0.5140 C.3   1 <1>   0.4240 
 13 C        2.1850     2.4550     1.1590 C.ar  1 <1>  -0.1500 
 14 C        0.9900     4.4320     1.7850 C.ar  1 <1>  -0.1500 
 15 O       -5.8740    -1.0130    -1.0920 O.3   1 <1>  -0.5600 
 16 C       -4.9250    -3.0010    -0.0260 C.ar  1 <1>  -0.1430 
 17 C        2.1710     3.7130     1.7340 C.ar  1 <1>  -0.1500 
 18 C       -7.0950    -1.3350    -0.5020 C.3   1 <1>   0.1200 
 19 C       -6.1720    -3.6080    -0.0980 C.ar  1 <1>  -0.1440 
 20 C       -3.8700    -3.7310     0.5060 C.ar  1 <1>  -0.1500 
 21 C       -7.3430    -2.8310    -0.6660 C.3   1 <1>  -0.0170 
 22 C       -6.3520    -4.9080     0.3460 C.ar  1 <1>  -0.1500 
 23 C       -4.0290    -5.0320     0.9490 C.ar  1 <1>   0.0830 
 24 C       -5.2940    -5.6370     0.8820 C.ar  1 <1>   0.0830 
 25 O       -2.8960    -5.6160     1.4320 O.3   1 <1>  -0.3620 
 26 O       -5.4690    -6.9060     1.3550 O.3   1 <1>  -0.3620 
 27 C       -2.6560    -6.9940     1.2460 C.3   1 <1>   0.0400 
 28 C       -6.7460    -7.4940     1.4730 C.3   1 <1>   0.0400 
 29 H       -2.2170     2.6110     0.4700 H     1 <1>   0.3700 
 30 H       -2.5670    -0.0970    -2.8240 H     1 <1>   0.0800 
 31 H       -4.2240     0.3510    -2.5290 H     1 <1>   0.0800 
 32 H       -4.8730     1.2380    -0.2380 H     1 <1>   0.0800 
 33 H       -3.6500     1.3790     0.9980 H     1 <1>   0.0800 
 34 H       -2.7310    -1.9540    -1.2850 H     1 <1>   0.0800 
 35 H       -3.9940    -2.0990    -2.4610 H     1 <1>   0.0800 
 36 H       -5.0450    -0.6150     1.3980 H     1 <1>   0.0800 
 37 H       -3.3950    -1.0250     1.1040 H     1 <1>   0.0800 
 38 H        1.0450     0.9370     0.1990 H     1 <1>   0.1500 
 39 H       -1.0820     4.4600     1.3050 H     1 <1>   0.1500 
 40 H        3.1020     1.8920     1.1150 H     1 <1>   0.1500 
 41 H        0.9770     5.4110     2.2310 H     1 <1>   0.1500 
 42 H        3.0770     4.1320     2.1380 H     1 <1>   0.1500 
 43 H       -7.8620    -0.7700    -1.0020 H     1 <1>   0.0800 
 44 H       -7.0720    -1.0570     0.5370 H     1 <1>   0.0800 
 45 H       -2.8900    -3.2960     0.5830 H     1 <1>   0.1500 
 46 H       -7.4610    -3.0620    -1.7090 H     1 <1>   0.0800 
 47 H       -8.2510    -3.0970    -0.1550 H     1 <1>   0.0800 
 48 H       -7.3310    -5.3380     0.2670 H     1 <1>   0.1500 
 49 H       -1.6000    -7.1650     1.3390 H     1 <1>   0.0800 
 50 H       -2.9920    -7.2800     0.2650 H     1 <1>   0.0800 
 51 H       -3.1820    -7.5430     2.0060 H     1 <1>   0.0800 
 52 H       -6.6280    -8.4570     1.9340 H     1 <1>   0.0800 
 53 H       -7.1700    -7.6100     0.4910 H     1 <1>   0.0800 
 54 H       -7.3640    -6.8660     2.0910 H     1 <1>   0.0800 
@<TRIPOS>BOND
  1   1   2  2   
  2   2   3  am  
  3   2   4  am  
  4   3   5  1   
  5   3   6  1   
  6   4   7  1   
  7   4  29  1   
  8   5   8  1   
  9   5  30  1   
 10   5  31  1   
 11   6   9  1   
 12   6  32  1   
 13   6  33  1   
 14   7  10  ar  
 15   7  11  ar  
 16   8  12  1   
 17   8  34  1   
 18   8  35  1   
 19   9  12  1   
 20   9  36  1   
 21   9  37  1   
 22  10  13  ar  
 23  10  38  1   
 24  11  14  ar  
 25  11  39  1   
 26  12  15  1   
 27  12  16  1   
 28  13  17  ar  
 29  13  40  1   
 30  14  17  ar  
 31  14  41  1   
 32  15  18  1   
 33  16  19  ar  
 34  16  20  ar  
 35  17  42  1   
 36  18  21  1   
 37  18  43  1   
 38  18  44  1   
 39  19  21  1   
 40  19  22  ar  
 41  20  23  ar  
 42  20  45  1   
 43  21  46  1   
 44  21  47  1   
 45  22  24  ar  
 46  22  48  1   
 47  23  24  ar  
 48  23  25  1   
 49  24  26  1   
 50  25  27  1   
 51  26  28  1   
 52  27  49  1   
 53  27  50  1   
 54  27  51  1   
 55  28  52  1   
 56  28  53  1   
 57  28  54  1   
@<TRIPOS>SUBSTRUCTURE
  1 ****   9 GROUP 4 **** **** 0

# MOE 2024.06 (io_trps.svl 2023.06)
