@<TRIPOS>MOLECULE
NONAME
47 48 1 0 0 
SMALL
USER_CHARGES


@<TRIPOS>ATOM
  1 O       -0.5420     0.9770    -1.4060 O.2   1 <1>  -0.5700 
  2 C       -0.5160     2.1590    -1.1590 C.2   1 <1>   0.5690 
  3 N       -1.3300     2.7580    -0.2260 N.am  1 <1>  -0.6600 
  4 C        0.4840     3.0090    -1.9460 C.3   1 <1>   0.1810 
  5 C       -1.2160     4.2300     0.0510 C.3   1 <1>   0.3640 
  6 C       -2.2260     2.0110     0.7060 C.3   1 <1>   0.2200 
  7 O        0.8690     4.1690    -1.2530 O.3   1 <1>  -0.5600 
  8 C       -2.5870     4.9010    -0.0320 C.ar  1 <1>  -0.1440 
  9 C       -0.2280     4.9780    -0.8760 C.3   1 <1>   0.2610 
 10 C       -1.4040     1.0990     1.6160 C.3   1 <1>  -0.2400 
 11 C       -3.3030     1.2390    -0.0560 C.3   1 <1>  -0.2400 
 12 C       -3.4200     4.6940    -1.1230 C.ar  1 <1>  -0.1500 
 13 C       -3.0100     5.7400     0.9900 C.ar  1 <1>  -0.1500 
 14 C        0.2220     6.2840    -0.2060 C.2   1 <1>   0.5690 
 15 C       -4.6560     5.3130    -1.1910 C.ar  1 <1>  -0.1500 
 16 C       -4.2460     6.3590     0.9230 C.ar  1 <1>  -0.1500 
 17 O       -0.1630     7.3180    -0.7080 O.2   1 <1>  -0.5700 
 18 N        1.0120     6.3160     0.9250 N.am  1 <1>  -0.6600 
 19 C       -5.0690     6.1470    -0.1680 C.ar  1 <1>  -0.1500 
 20 C        1.3600     7.6380     1.5570 C.3   1 <1>   0.2010 
 21 C        1.8180     5.1710     1.4470 C.3   1 <1>   0.0600 
 22 C        2.4980     8.3700     0.8430 C.2   1 <1>   0.5690 
 23 O        3.5400     8.5680     1.4150 O.2   1 <1>  -0.5700 
 24 N        2.3210     8.7910    -0.4240 N.am  1 <1>  -0.8000 
 25 H        0.0550     3.2960    -2.8890 H     1 <1>   0.0800 
 26 H        1.3710     2.4310    -2.1310 H     1 <1>   0.0800 
 27 H       -0.8600     4.3300     1.0610 H     1 <1>   0.0800 
 28 H       -2.7340     2.7180     1.3410 H     1 <1>   0.0800 
 29 H       -0.7410     5.2470    -1.7820 H     1 <1>   0.0800 
 30 H       -0.9360     0.3130     1.0510 H     1 <1>   0.0800 
 31 H       -2.0450     0.6450     2.3490 H     1 <1>   0.0800 
 32 H       -0.6490     1.6660     2.1290 H     1 <1>   0.0800 
 33 H       -2.8760     0.4470    -0.6420 H     1 <1>   0.0800 
 34 H       -3.8520     1.9010    -0.7000 H     1 <1>   0.0800 
 35 H       -3.9940     0.8010     0.6410 H     1 <1>   0.0800 
 36 H       -3.1130     4.0450    -1.9250 H     1 <1>   0.1500 
 37 H       -2.3810     5.9230     1.8440 H     1 <1>   0.1500 
 38 H       -5.2960     5.1470    -2.0410 H     1 <1>   0.1500 
 39 H       -4.5670     7.0100     1.7180 H     1 <1>   0.1500 
 40 H       -6.0300     6.6300    -0.2210 H     1 <1>   0.1500 
 41 H        0.4940     8.2750     1.5460 H     1 <1>   0.0800 
 42 H        1.6380     7.4890     2.5840 H     1 <1>   0.0800 
 43 H        1.8110     5.1770     2.5230 H     1 <1>   0.0800 
 44 H        2.8350     5.2660     1.1060 H     1 <1>   0.0800 
 45 H        1.4330     4.2250     1.1140 H     1 <1>   0.0800 
 46 H        3.0720     9.2520    -0.9370 H     1 <1>   0.3700 
 47 H        1.4650     8.5500    -0.9410 H     1 <1>   0.3700 
@<TRIPOS>BOND
  1   1   2  2   
  2   2   3  am  
  3   2   4  1   
  4   3   5  1   
  5   3   6  1   
  6   4   7  1   
  7   4  25  1   
  8   4  26  1   
  9   5   8  1   
 10   5   9  1   
 11   5  27  1   
 12   6  10  1   
 13   6  11  1   
 14   6  28  1   
 15   7   9  1   
 16   8  12  ar  
 17   8  13  ar  
 18   9  14  1   
 19   9  29  1   
 20  10  30  1   
 21  10  31  1   
 22  10  32  1   
 23  11  33  1   
 24  11  34  1   
 25  11  35  1   
 26  12  15  ar  
 27  12  36  1   
 28  13  16  ar  
 29  13  37  1   
 30  14  17  2   
 31  14  18  am  
 32  15  19  ar  
 33  15  38  1   
 34  16  19  ar  
 35  16  39  1   
 36  18  20  1   
 37  18  21  1   
 38  19  40  1   
 39  20  22  1   
 40  20  41  1   
 41  20  42  1   
 42  21  43  1   
 43  21  44  1   
 44  21  45  1   
 45  22  23  2   
 46  22  24  am  
 47  24  46  1   
 48  24  47  1   
@<TRIPOS>SUBSTRUCTURE
  1 ****   5 GROUP 4 **** **** 0

# MOE 2024.06 (io_trps.svl 2023.06)
