@<TRIPOS>MOLECULE
NONAME
50 52 1 0 0 
SMALL
USER_CHARGES


@<TRIPOS>ATOM
  1 S        0.1480     0.2360    -0.0100 S.3   1 <1>  -0.0800 
  2 C       -0.4090     1.6670     0.8440 C.2   1 <1>   0.0600 
  3 C       -1.0260    -0.7870     0.7980 C.2   1 <1>  -0.1400 
  4 C        0.2340     2.9070     0.5600 C.1   1 <1>  -0.0200 
  5 C       -1.4160     1.3300     1.6770 C.2   1 <1>  -0.1500 
  6 C       -1.7670    -0.0550     1.6560 C.2   1 <1>  -0.1500 
  7 C       -0.9900    -2.2470     0.4000 C.3   1 <1>   0.5230 
  8 C        0.7660     3.9450     0.3200 C.1   1 <1>  -0.2000 
  9 N       -2.2740    -2.8980     0.7600 N.4   1 <1>  -0.9590 
 10 C        1.4270     5.2420     0.0160 C.3   1 <1>   0.4800 
 11 C       -3.4660    -2.3740     0.0380 C.3   1 <1>   0.3430 
 12 C       -2.3000    -4.3770     0.5840 C.3   1 <1>   0.3430 
 13 O        0.5650     6.2390     0.3850 O.3   1 <1>  -0.6800 
 14 C        2.7010     5.4160     0.8350 C.3   1 <1>  -0.2400 
 15 C        1.6820     5.3920    -1.4790 C.3   1 <1>  -0.2400 
 16 C       -4.5270    -3.4420     0.2960 C.3   1 <1>   0.2000 
 17 C       -3.7280    -4.7400     0.1390 C.3   1 <1>  -0.0800 
 18 O       -4.9430    -3.3060     1.6180 O.3   1 <1>  -0.6800 
 19 C       -4.2970    -5.9790     0.8590 C.3   1 <1>   0.0200 
 20 C       -3.4590    -7.2070     0.5560 C.2   1 <1>  -0.0400 
 21 O       -2.2200    -7.2670     0.9660 O.3   1 <1>  -0.0190 
 22 C       -3.7290    -8.3440    -0.1020 C.2   1 <1>  -0.1500 
 23 N       -1.6410    -8.3700     0.6030 N.2   1 <1>  -0.4100 
 24 C       -2.5280    -9.0460    -0.0360 C.2   1 <1>   0.1080 
 25 C       -2.2890   -10.4160    -0.6310 C.3   1 <1>  -0.0590 
 26 H       -1.9290     2.0280     2.3160 H     1 <1>   0.1500 
 27 H       -2.5570    -0.4120     2.2940 H     1 <1>   0.1500 
 28 H       -0.1690    -2.7310     0.9050 H     1 <1>   0.0800 
 29 H       -0.8280    -2.3240    -0.6630 H     1 <1>   0.0800 
 30 H       -2.4630    -2.7150     1.7570 H     1 <1>   0.4500 
 31 H       -3.7770    -1.4110     0.4090 H     1 <1>   0.0800 
 32 H       -3.2620    -2.3080    -1.0180 H     1 <1>   0.0800 
 33 H       -1.5930    -4.6960    -0.1650 H     1 <1>   0.0800 
 34 H       -2.0600    -4.8630     1.5170 H     1 <1>   0.0800 
 35 H        0.9740     7.0980     0.1880 H     1 <1>   0.4000 
 36 H        3.3980     4.6360     0.5900 H     1 <1>   0.0800 
 37 H        2.4760     5.3480     1.8850 H     1 <1>   0.0800 
 38 H        3.1630     6.3630     0.6280 H     1 <1>   0.0800 
 39 H        2.3400     4.6110    -1.8140 H     1 <1>   0.0800 
 40 H        2.1400     6.3390    -1.6970 H     1 <1>   0.0800 
 41 H        0.7570     5.3080    -2.0210 H     1 <1>   0.0800 
 42 H       -5.3790    -3.3590    -0.3590 H     1 <1>   0.0800 
 43 H       -3.6790    -4.9690    -0.9120 H     1 <1>   0.0800 
 44 H       -5.7980    -3.7610     1.7750 H     1 <1>   0.4000 
 45 H       -5.3060    -6.1580     0.5320 H     1 <1>   0.0800 
 46 H       -4.3130    -5.8310     1.9260 H     1 <1>   0.0800 
 47 H       -4.6330    -8.6760    -0.5800 H     1 <1>   0.1500 
 48 H       -2.9690   -11.1260    -0.1980 H     1 <1>   0.0800 
 49 H       -1.2820   -10.7340    -0.4300 H     1 <1>   0.0800 
 50 H       -2.4380   -10.3850    -1.6950 H     1 <1>   0.0800 
@<TRIPOS>BOND
  1   1   2  1   
  2   1   3  1   
  3   2   4  1   
  4   2   5  2   
  5   3   6  2   
  6   3   7  1   
  7   4   8  3   
  8   5   6  1   
  9   5  26  1   
 10   6  27  1   
 11   7   9  1   
 12   7  28  1   
 13   7  29  1   
 14   8  10  1   
 15   9  11  1   
 16   9  12  1   
 17   9  30  1   
 18  10  13  1   
 19  10  14  1   
 20  10  15  1   
 21  11  16  1   
 22  11  31  1   
 23  11  32  1   
 24  12  17  1   
 25  12  33  1   
 26  12  34  1   
 27  13  35  1   
 28  14  36  1   
 29  14  37  1   
 30  14  38  1   
 31  15  39  1   
 32  15  40  1   
 33  15  41  1   
 34  16  17  1   
 35  16  18  1   
 36  16  42  1   
 37  17  19  1   
 38  17  43  1   
 39  18  44  1   
 40  19  20  1   
 41  19  45  1   
 42  19  46  1   
 43  20  21  1   
 44  20  22  2   
 45  21  23  1   
 46  22  24  1   
 47  22  47  1   
 48  23  24  2   
 49  24  25  1   
 50  25  48  1   
 51  25  49  1   
 52  25  50  1   
@<TRIPOS>SUBSTRUCTURE
  1 ****   7 GROUP 4 **** **** 0

# MOE 2024.06 (io_trps.svl 2023.06)
