@<TRIPOS>MOLECULE
NONAME
54 56 1 0 0 
SMALL
USER_CHARGES


@<TRIPOS>ATOM
  1 F        1.0670     1.5280     0.5480 F     1 <1>  -0.3400 
  2 C       -0.1760     1.4880     0.0570 C.3   1 <1>   0.3400 
  3 C        0.0350    -0.0050    -0.4700 C.3   1 <1>   0.2200 
  4 C       -1.6700     1.4420    -0.4660 C.3   1 <1>  -0.0800 
  5 C       -0.3050     2.9770     0.5440 C.3   1 <1>   0.1400 
  6 N        1.2520    -0.7920    -0.0960 N.am  1 <1>  -0.7300 
  7 C       -1.1590    -0.8570    -0.0660 C.3   1 <1>  -0.1600 
  8 C       -2.5620     2.5660     0.0300 C.3   1 <1>   0.1400 
  9 C       -2.3250     0.0920    -0.1560 C.3   1 <1>  -0.1600 
 10 N       -1.6070     3.6020     0.2670 N.am  1 <1>  -0.6600 
 11 C        1.8600    -1.7010    -0.8820 C.2   1 <1>   0.7800 
 12 C       -1.8060     4.9420     0.0970 C.2   1 <1>   0.7800 
 13 O        1.3670    -2.1260    -1.9070 O.2   1 <1>  -0.5700 
 14 O        3.0520    -2.1130    -0.4780 O.3   1 <1>  -0.4300 
 15 O       -0.9060     5.7450     0.2410 O.2   1 <1>  -0.5700 
 16 O       -3.0400     5.3270    -0.2380 O.3   1 <1>  -0.4300 
 17 C        3.7590    -3.0630    -1.2420 C.3   1 <1>   0.2630 
 18 C       -3.4900     6.6440    -0.4660 C.3   1 <1>   0.2800 
 19 C        5.0860    -3.3510    -0.5580 C.ar  1 <1>  -0.1440 
 20 C       -2.7490     7.2590    -1.6590 C.3   1 <1>  -0.2400 
 21 C       -4.9730     6.5040    -0.8120 C.3   1 <1>  -0.2400 
 22 C       -3.3460     7.4830     0.8090 C.3   1 <1>  -0.2400 
 23 C        5.3270    -4.5870     0.0220 C.ar  1 <1>  -0.1500 
 24 C        6.0710    -2.3760    -0.5110 C.ar  1 <1>  -0.1500 
 25 C        6.5410    -4.8470     0.6370 C.ar  1 <1>  -0.1500 
 26 C        7.2850    -2.6340     0.1020 C.ar  1 <1>  -0.1500 
 27 C        7.5200    -3.8710     0.6760 C.ar  1 <1>  -0.1500 
 28 H        0.0300     0.0490    -1.5480 H     1 <1>   0.0800 
 29 H       -1.6300     1.5530    -1.5390 H     1 <1>   0.0800 
 30 H        0.4510     3.5830     0.0690 H     1 <1>   0.0800 
 31 H       -0.1580     3.0250     1.6110 H     1 <1>   0.0800 
 32 H        1.8110    -0.3780     0.6510 H     1 <1>   0.3700 
 33 H       -1.2770    -1.6970    -0.7280 H     1 <1>   0.0800 
 34 H       -1.0450    -1.2030     0.9480 H     1 <1>   0.0800 
 35 H       -3.0470     2.3230     0.9600 H     1 <1>   0.0800 
 36 H       -3.2940     2.8560    -0.7060 H     1 <1>   0.0800 
 37 H       -2.8480     0.1020     0.7860 H     1 <1>   0.0800 
 38 H       -3.0080    -0.1940    -0.9380 H     1 <1>   0.0800 
 39 H        3.1600    -3.9530    -1.3170 H     1 <1>   0.0800 
 40 H        3.9220    -2.6570    -2.2250 H     1 <1>   0.0800 
 41 H       -3.1890     8.2050    -1.9160 H     1 <1>   0.0800 
 42 H       -2.8110     6.6100    -2.5130 H     1 <1>   0.0800 
 43 H       -1.7150     7.4370    -1.4240 H     1 <1>   0.0800 
 44 H       -5.4040     7.4700    -1.0040 H     1 <1>   0.0800 
 45 H       -5.5050     6.0510     0.0040 H     1 <1>   0.0800 
 46 H       -5.0950     5.8970    -1.6920 H     1 <1>   0.0800 
 47 H       -3.8160     8.4400     0.6730 H     1 <1>   0.0800 
 48 H       -2.3130     7.6610     1.0430 H     1 <1>   0.0800 
 49 H       -3.8160     6.9870     1.6390 H     1 <1>   0.0800 
 50 H        4.5720    -5.3530     0.0000 H     1 <1>   0.1500 
 51 H        5.8920    -1.4100    -0.9520 H     1 <1>   0.1500 
 52 H        6.7220    -5.8090     1.0850 H     1 <1>   0.1500 
 53 H        8.0440    -1.8720     0.1340 H     1 <1>   0.1500 
 54 H        8.4630    -4.0720     1.1540 H     1 <1>   0.1500 
@<TRIPOS>BOND
  1   1   2  1   
  2   2   3  1   
  3   2   4  1   
  4   2   5  1   
  5   3   6  1   
  6   3   7  1   
  7   3  28  1   
  8   4   8  1   
  9   4   9  1   
 10   4  29  1   
 11   5  10  1   
 12   5  30  1   
 13   5  31  1   
 14   6  11  am  
 15   6  32  1   
 16   7   9  1   
 17   7  33  1   
 18   7  34  1   
 19   8  10  1   
 20   8  35  1   
 21   8  36  1   
 22   9  37  1   
 23   9  38  1   
 24  10  12  am  
 25  11  13  2   
 26  11  14  1   
 27  12  15  2   
 28  12  16  1   
 29  14  17  1   
 30  16  18  1   
 31  17  19  1   
 32  17  39  1   
 33  17  40  1   
 34  18  20  1   
 35  18  21  1   
 36  18  22  1   
 37  19  23  ar  
 38  19  24  ar  
 39  20  41  1   
 40  20  42  1   
 41  20  43  1   
 42  21  44  1   
 43  21  45  1   
 44  21  46  1   
 45  22  47  1   
 46  22  48  1   
 47  22  49  1   
 48  23  25  ar  
 49  23  50  1   
 50  24  26  ar  
 51  24  51  1   
 52  25  27  ar  
 53  25  52  1   
 54  26  27  ar  
 55  26  53  1   
 56  27  54  1   
@<TRIPOS>SUBSTRUCTURE
  1 ****   1 GROUP 4 **** **** 0

# MOE 2024.06 (io_trps.svl 2023.06)
