@<TRIPOS>MOLECULE
NONAME
43 45 1 0 0 
SMALL
USER_CHARGES


@<TRIPOS>ATOM
  1 S        0.6040    -0.1830     2.4750 S.o2  1 <1>   1.5010 
  2 O        0.0900     0.8570     3.3380 O.2   1 <1>  -0.6500 
  3 O        1.6720    -1.0250     2.9740 O.2   1 <1>  -0.6500 
  4 N       -0.7050    -1.2050     2.2380 N.am  1 <1>  -0.9140 
  5 C        0.9780     0.4930     0.8040 C.2   1 <1>   0.1640 
  6 C       -0.3440    -2.5000     1.6740 C.3   1 <1>   0.2760 
  7 N        1.0860    -0.2620    -0.3300 N.2   1 <1>  -0.5650 
  8 C        1.1990     1.7930     0.4800 C.2   1 <1>  -0.3020 
  9 C       -1.5330    -3.0940     0.9370 C.3   1 <1>  -0.0800 
 10 C       -0.1810    -3.5270     2.7910 C.3   1 <1>   0.1200 
 11 C        1.3580     0.5820    -1.2680 C.2   1 <1>   0.0060 
 12 N        1.4410     1.8600    -0.8380 N.pl3 1 <1>   0.0480 
 13 C       -2.3480    -3.7320     2.0660 C.3   1 <1>   0.1200 
 14 C       -2.3210    -2.1120     0.0500 C.3   1 <1>  -0.0170 
 15 O       -1.4820    -3.8780     3.1570 O.3   1 <1>  -0.5600 
 16 C        1.5650     0.1720    -2.7120 C.3   1 <1>  -0.0600 
 17 C        1.7320     3.0780    -1.6170 C.3   1 <1>   0.0160 
 18 C       -3.4360    -2.8290    -0.6930 C.ar  1 <1>  -0.1430 
 19 C       -4.7450    -2.7910    -0.2580 C.ar  1 <1>  -0.1500 
 20 C       -3.1930    -3.5580    -1.8390 C.ar  1 <1>  -0.1500 
 21 C       -5.7210    -3.4700    -0.9690 C.ar  1 <1>   0.1600 
 22 C       -4.2420    -4.2010    -2.4750 C.ar  1 <1>   0.1600 
 23 N       -5.4990    -4.1760    -2.0650 N.ar  1 <1>  -0.6200 
 24 H       -1.0670    -1.3910     3.1710 H     1 <1>   0.4200 
 25 H        0.5260    -2.4350     1.0400 H     1 <1>   0.0800 
 26 H        1.1910     2.6520     1.1260 H     1 <1>   0.1500 
 27 H       -1.1690    -3.8910     0.3120 H     1 <1>   0.0800 
 28 H        0.3500    -3.1480     3.6470 H     1 <1>   0.0800 
 29 H        0.3090    -4.4120     2.4240 H     1 <1>   0.0800 
 30 H       -2.7320    -4.6990     1.7880 H     1 <1>   0.0800 
 31 H       -3.1570    -3.0940     2.3780 H     1 <1>   0.0800 
 32 H       -1.6520    -1.6560    -0.6600 H     1 <1>   0.0800 
 33 H       -2.7430    -1.3200     0.6450 H     1 <1>   0.0800 
 34 H        1.4580    -0.8930    -2.8080 H     1 <1>   0.0800 
 35 H        2.5510     0.4480    -3.0370 H     1 <1>   0.0800 
 36 H        0.8350     0.6490    -3.3400 H     1 <1>   0.0800 
 37 H        1.7100     3.9350    -0.9680 H     1 <1>   0.0800 
 38 H        0.9910     3.1940    -2.3860 H     1 <1>   0.0800 
 39 H        2.7060     2.9910    -2.0620 H     1 <1>   0.0800 
 40 H       -5.0160    -2.2400     0.6240 H     1 <1>   0.1500 
 41 H       -2.2000    -3.6310    -2.2420 H     1 <1>   0.1500 
 42 H       -6.7370    -3.4300    -0.6160 H     1 <1>   0.1500 
 43 H       -4.0350    -4.7660    -3.3680 H     1 <1>   0.1500 
@<TRIPOS>BOND
  1   1   2  2   
  2   1   3  2   
  3   1   4  am  
  4   1   5  1   
  5   4   6  1   
  6   4  24  1   
  7   5   7  1   
  8   5   8  2   
  9   6   9  1   
 10   6  10  1   
 11   6  25  1   
 12   7  11  2   
 13   8  12  1   
 14   8  26  1   
 15   9  13  1   
 16   9  14  1   
 17   9  27  1   
 18  10  15  1   
 19  10  28  1   
 20  10  29  1   
 21  11  12  1   
 22  11  16  1   
 23  12  17  1   
 24  13  15  1   
 25  13  30  1   
 26  13  31  1   
 27  14  18  1   
 28  14  32  1   
 29  14  33  1   
 30  16  34  1   
 31  16  35  1   
 32  16  36  1   
 33  17  37  1   
 34  17  38  1   
 35  17  39  1   
 36  18  19  ar  
 37  18  20  ar  
 38  19  21  ar  
 39  19  40  1   
 40  20  22  ar  
 41  20  41  1   
 42  21  23  ar  
 43  21  42  1   
 44  22  23  ar  
 45  22  43  1   
@<TRIPOS>SUBSTRUCTURE
  1 ****  14 GROUP 4 **** **** 0

# MOE 2024.06 (io_trps.svl 2023.06)
