@<TRIPOS>MOLECULE
NONAME
33 32 1 0 0 
SMALL
USER_CHARGES


@<TRIPOS>ATOM
  1 P        0.2810    -0.2250    -0.4760 P.3   1 <1>   1.2420 
  2 O        0.7170     0.6690    -1.5460 O.2   1 <1>  -0.7000 
  3 O       -1.2970    -0.1410    -0.1970 O.3   1 <1>  -0.5510 
  4 O        0.5500    -1.7800    -0.7770 O.3   1 <1>  -0.5510 
  5 C        1.0220     0.1150     1.0790 C.3   1 <1>  -0.0990 
  6 C       -1.9700     1.0500    -0.3900 C.3   1 <1>   0.1200 
  7 C       -0.0420    -2.8110    -0.0660 C.3   1 <1>   0.1200 
  8 C        2.4700    -0.2470     1.0080 C.2   1 <1>   0.5690 
  9 C       -3.4290     0.8250    -0.0120 C.3   1 <1>  -0.2400 
 10 C       -1.2340    -3.3320    -0.8630 C.3   1 <1>  -0.2400 
 11 O        2.8800    -1.1210     1.7300 O.2   1 <1>  -0.5700 
 12 N        3.2880     0.4220     0.1690 N.am  1 <1>  -0.7300 
 13 C        4.7060     0.1610     0.0410 C.3   1 <1>   0.4200 
 14 O        5.2000     1.2710    -0.6150 O.3   1 <1>  -0.5600 
 15 C        6.5690     1.2160    -0.8460 C.3   1 <1>   0.0400 
 16 H        0.5660    -0.4560     1.8630 H     1 <1>   0.0800 
 17 H        0.9420     1.1510     1.3370 H     1 <1>   0.0800 
 18 H       -1.8810     1.3290    -1.4280 H     1 <1>   0.0800 
 19 H       -1.5240     1.8100     0.2290 H     1 <1>   0.0800 
 20 H       -0.3380    -2.4640     0.9090 H     1 <1>   0.0800 
 21 H        0.6940    -3.5890     0.0460 H     1 <1>   0.0800 
 22 H       -3.8570     0.0590    -0.6330 H     1 <1>   0.0800 
 23 H       -3.9860     1.7320    -0.1560 H     1 <1>   0.0800 
 24 H       -3.5050     0.5350     1.0210 H     1 <1>   0.0800 
 25 H       -1.9820    -2.5680    -0.9730 H     1 <1>   0.0800 
 26 H       -1.6760    -4.1660    -0.3490 H     1 <1>   0.0800 
 27 H       -0.9120    -3.6610    -1.8350 H     1 <1>   0.0800 
 28 H        2.9470     1.0920    -0.5280 H     1 <1>   0.3700 
 29 H        4.8800    -0.7180    -0.5570 H     1 <1>   0.0800 
 30 H        5.1710     0.0700     1.0090 H     1 <1>   0.0800 
 31 H        6.8580     2.1180    -1.3560 H     1 <1>   0.0800 
 32 H        6.7930     0.3630    -1.4640 H     1 <1>   0.0800 
 33 H        7.0870     1.1520     0.0960 H     1 <1>   0.0800 
@<TRIPOS>BOND
  1   1   2  2   
  2   1   3  1   
  3   1   4  1   
  4   1   5  1   
  5   3   6  1   
  6   4   7  1   
  7   5   8  1   
  8   5  16  1   
  9   5  17  1   
 10   6   9  1   
 11   6  18  1   
 12   6  19  1   
 13   7  10  1   
 14   7  20  1   
 15   7  21  1   
 16   8  11  2   
 17   8  12  am  
 18   9  22  1   
 19   9  23  1   
 20   9  24  1   
 21  10  25  1   
 22  10  26  1   
 23  10  27  1   
 24  12  13  1   
 25  12  28  1   
 26  13  14  1   
 27  13  29  1   
 28  13  30  1   
 29  14  15  1   
 30  15  31  1   
 31  15  32  1   
 32  15  33  1   
@<TRIPOS>SUBSTRUCTURE
  1 ****   1 GROUP 4 **** **** 0

# MOE 2024.06 (io_trps.svl 2023.06)
