@<TRIPOS>MOLECULE
NONAME
56 58 1 0 0 
SMALL
USER_CHARGES


@<TRIPOS>ATOM
  1 O        2.7110     1.8570     2.7230 O.co2 1 <1>  -0.9000 
  2 C        2.3330     1.0910     1.8290 C.2   1 <1>   0.9060 
  3 O        1.7500     0.0370     2.1190 O.co2 1 <1>  -0.9000 
  4 C        2.6490     1.3730     0.3450 C.3   1 <1>  -0.1060 
  5 C        3.6970     0.2790    -0.0180 C.3   1 <1>   0.2000 
  6 C        3.2620     2.8070     0.1330 C.3   1 <1>  -0.1600 
  7 C        1.3430     1.1980    -0.4930 C.3   1 <1>  -0.0160 
  8 O        3.6950    -0.0220    -1.3780 O.3   1 <1>  -0.6800 
  9 C        5.1150     0.7840     0.3060 C.3   1 <1>   0.1100 
 10 C        4.3760     2.8480    -0.9150 C.3   1 <1>   0.1100 
 11 C        0.2560     2.2510    -0.2670 C.ar  1 <1>  -0.1430 
 12 N        5.5050     1.9750    -0.5130 N.3   1 <1>  -0.8100 
 13 C       -0.4890     2.2630     0.9020 C.ar  1 <1>  -0.1500 
 14 C       -0.0060     3.2050    -1.2400 C.ar  1 <1>  -0.1500 
 15 C        6.4370     1.6750    -1.6370 C.3   1 <1>   0.1710 
 16 C       -1.4730     3.2160     1.1000 C.ar  1 <1>  -0.1500 
 17 C       -0.9920     4.1580    -1.0470 C.ar  1 <1>  -0.1500 
 18 C        7.1800     2.9140    -2.1450 C.2   1 <1>   0.5690 
 19 C       -1.7260     4.1650     0.1260 C.ar  1 <1>  -0.1500 
 20 O        7.3630     3.0720    -3.3290 O.2   1 <1>  -0.5700 
 21 N        7.5880     3.8190    -1.2270 N.am  1 <1>  -0.7300 
 22 C        8.1190     5.1560    -1.5090 C.3   1 <1>   0.2840 
 23 C        8.5770     5.7910    -0.2020 C.ar  1 <1>  -0.1430 
 24 C        7.6900     6.1300     0.8200 C.ar  1 <1>  -0.1430 
 25 C        9.9340     6.0340    -0.0340 C.ar  1 <1>  -0.1500 
 26 C        8.1800     6.7030     1.9850 C.ar  1 <1>  -0.1500 
 27 C        6.1880     5.8880     0.7200 C.3   1 <1>  -0.0970 
 28 C       10.4120     6.6080     1.1290 C.ar  1 <1>  -0.1500 
 29 C        9.5330     6.9430     2.1410 C.ar  1 <1>  -0.1500 
 30 H        3.4900    -0.6380     0.5080 H     1 <1>   0.0800 
 31 H        3.7020     3.1740     1.0430 H     1 <1>   0.0800 
 32 H        2.5010     3.5170    -0.1240 H     1 <1>   0.0800 
 33 H        1.5820     1.2080    -1.5390 H     1 <1>   0.0800 
 34 H        0.9230     0.2280    -0.2880 H     1 <1>   0.0800 
 35 H        4.1190     0.7420    -1.8110 H     1 <1>   0.4000 
 36 H        5.8230    -0.0160     0.1840 H     1 <1>   0.0800 
 37 H        5.1340     1.0670     1.3460 H     1 <1>   0.0800 
 38 H        4.7290     3.8580    -1.0220 H     1 <1>   0.0800 
 39 H        3.9760     2.5380    -1.8650 H     1 <1>   0.0800 
 40 H       -0.3020     1.5270     1.6680 H     1 <1>   0.1500 
 41 H        0.5590     3.2090    -2.1540 H     1 <1>   0.1500 
 42 H        7.1810     0.9740    -1.3030 H     1 <1>   0.0800 
 43 H        5.9020     1.2270    -2.4550 H     1 <1>   0.0800 
 44 H       -2.0340     3.2120     2.0170 H     1 <1>   0.1500 
 45 H       -1.1860     4.8930    -1.8070 H     1 <1>   0.1500 
 46 H       -2.4900     4.9050     0.2830 H     1 <1>   0.1500 
 47 H        7.2960     3.6620    -0.2560 H     1 <1>   0.3700 
 48 H        8.9370     5.0710    -2.2040 H     1 <1>   0.0800 
 49 H        7.3540     5.7580    -1.9670 H     1 <1>   0.0800 
 50 H       10.6310     5.7740    -0.8110 H     1 <1>   0.1500 
 51 H        7.5080     6.9630     2.7830 H     1 <1>   0.1500 
 52 H        5.6550     6.5020     1.4230 H     1 <1>   0.0800 
 53 H        5.9660     4.8590     0.9400 H     1 <1>   0.0800 
 54 H        5.8230     6.1230    -0.2630 H     1 <1>   0.0800 
 55 H       11.4650     6.7920     1.2470 H     1 <1>   0.1500 
 56 H        9.8990     7.3880     3.0490 H     1 <1>   0.1500 
@<TRIPOS>BOND
  1   1   2  ar  
  2   2   3  ar  
  3   2   4  1   
  4   4   5  1   
  5   4   6  1   
  6   4   7  1   
  7   5   8  1   
  8   5   9  1   
  9   5  30  1   
 10   6  10  1   
 11   6  31  1   
 12   6  32  1   
 13   7  11  1   
 14   7  33  1   
 15   7  34  1   
 16   8  35  1   
 17   9  12  1   
 18   9  36  1   
 19   9  37  1   
 20  10  12  1   
 21  10  38  1   
 22  10  39  1   
 23  11  13  ar  
 24  11  14  ar  
 25  12  15  1   
 26  13  16  ar  
 27  13  40  1   
 28  14  17  ar  
 29  14  41  1   
 30  15  18  1   
 31  15  42  1   
 32  15  43  1   
 33  16  19  ar  
 34  16  44  1   
 35  17  19  ar  
 36  17  45  1   
 37  18  20  2   
 38  18  21  am  
 39  19  46  1   
 40  21  22  1   
 41  21  47  1   
 42  22  23  1   
 43  22  48  1   
 44  22  49  1   
 45  23  24  ar  
 46  23  25  ar  
 47  24  26  ar  
 48  24  27  1   
 49  25  28  ar  
 50  25  50  1   
 51  26  29  ar  
 52  26  51  1   
 53  27  52  1   
 54  27  53  1   
 55  27  54  1   
 56  28  29  ar  
 57  28  55  1   
 58  29  56  1   
@<TRIPOS>SUBSTRUCTURE
  1 ****  10 GROUP 4 **** **** 0

# MOE 2024.06 (io_trps.svl 2023.06)
