@<TRIPOS>MOLECULE
NONAME
54 56 1 0 0 
SMALL
USER_CHARGES


@<TRIPOS>ATOM
  1 O        1.4650     0.5280    -0.5430 O.2   1 <1>  -0.5700 
  2 C        2.4300    -0.0890    -0.9440 C.2   1 <1>   0.7150 
  3 N        3.2460     0.5440    -1.8150 N.am  1 <1>  -0.8000 
  4 C        2.6910    -1.4420    -0.5090 C.2   1 <1>   0.0550 
  5 O        3.7040    -2.1470    -0.9950 O.3   1 <1>  -0.2800 
  6 C        2.0370    -2.2150     0.3970 C.2   1 <1>  -0.1500 
  7 C        3.7360    -3.3390    -0.4320 C.2   1 <1>  -0.0400 
  8 C        2.7010    -3.4450     0.4420 C.2   1 <1>  -0.1810 
  9 C        4.8640    -4.2880    -0.8720 C.3   1 <1>   0.1800 
 10 C        2.2520    -4.5910     1.3220 C.3   1 <1>   0.5240 
 11 C        6.1960    -3.5230    -0.9210 C.3   1 <1>  -0.2400 
 12 C        4.5390    -4.8210    -2.2730 C.3   1 <1>  -0.2400 
 13 C        5.0460    -5.4750     0.0840 C.3   1 <1>  -0.2400 
 14 N        1.3450    -5.4600     0.5310 N.4   1 <1>  -0.9590 
 15 C        0.0920    -4.7880     0.0490 C.3   1 <1>   0.3430 
 16 C        0.9320    -6.7130     1.2080 C.3   1 <1>   0.3430 
 17 C       -1.0530    -5.7890     0.2870 C.3   1 <1>   0.2000 
 18 C       -0.3480    -7.1310     0.4810 C.3   1 <1>  -0.0800 
 19 O       -1.7320    -5.4640     1.4560 O.3   1 <1>  -0.6800 
 20 C       -0.0950    -7.7970    -0.8970 C.3   1 <1>  -0.0170 
 21 C        1.2180    -8.5560    -0.9900 C.ar  1 <1>   0.1670 
 22 N        2.3000    -7.8170    -1.2120 N.ar  1 <1>  -0.6200 
 23 C        1.2270    -9.9350    -0.8540 C.ar  1 <1>  -0.1500 
 24 C        3.4320    -8.4990    -1.3380 C.ar  1 <1>   0.1600 
 25 C        2.4160   -10.6220    -0.9640 C.ar  1 <1>  -0.1500 
 26 C        3.5430    -9.8730    -1.2180 C.ar  1 <1>  -0.1500 
 27 H        3.0460     1.5040    -2.0920 H     1 <1>   0.3700 
 28 H        4.0840     0.1000    -2.1880 H     1 <1>   0.3700 
 29 H        1.1750    -1.9170     0.9690 H     1 <1>   0.1500 
 30 H        1.7410    -4.2050     2.1890 H     1 <1>   0.0800 
 31 H        3.1060    -5.1540     1.6560 H     1 <1>   0.0800 
 32 H        7.0030    -4.1730    -1.2060 H     1 <1>   0.0800 
 33 H        6.4190    -3.1010     0.0430 H     1 <1>   0.0800 
 34 H        6.1470    -2.7200    -1.6350 H     1 <1>   0.0800 
 35 H        5.3200    -5.4730    -2.6240 H     1 <1>   0.0800 
 36 H        4.4440    -4.0050    -2.9670 H     1 <1>   0.0800 
 37 H        3.6130    -5.3650    -2.2670 H     1 <1>   0.0800 
 38 H        5.8830    -6.0760    -0.2260 H     1 <1>   0.0800 
 39 H        4.1780    -6.1040     0.0900 H     1 <1>   0.0800 
 40 H        5.2430    -5.1230     1.0810 H     1 <1>   0.0800 
 41 H        1.8730    -5.7700    -0.3070 H     1 <1>   0.4500 
 42 H       -0.1040    -3.8710     0.5800 H     1 <1>   0.0800 
 43 H        0.1840    -4.5730    -1.0030 H     1 <1>   0.0800 
 44 H        1.7000    -7.4690     1.1530 H     1 <1>   0.0800 
 45 H        0.7080    -6.5150     2.2440 H     1 <1>   0.0800 
 46 H       -1.7700    -5.7890    -0.5170 H     1 <1>   0.0800 
 47 H       -0.9240    -7.8050     1.0910 H     1 <1>   0.0800 
 48 H       -1.1740    -5.4870     2.2550 H     1 <1>   0.4000 
 49 H       -0.0850    -7.0600    -1.6820 H     1 <1>   0.0800 
 50 H       -0.9130    -8.4610    -1.1200 H     1 <1>   0.0800 
 51 H        0.3160   -10.4770    -0.6710 H     1 <1>   0.1500 
 52 H        4.3260    -7.9370    -1.5500 H     1 <1>   0.1500 
 53 H        2.4620   -11.6940    -0.8650 H     1 <1>   0.1500 
 54 H        4.5010   -10.3500    -1.3280 H     1 <1>   0.1500 
@<TRIPOS>BOND
  1   1   2  2   
  2   2   3  am  
  3   2   4  1   
  4   3  27  1   
  5   3  28  1   
  6   4   5  1   
  7   4   6  2   
  8   5   7  1   
  9   6   8  1   
 10   6  29  1   
 11   7   8  2   
 12   7   9  1   
 13   8  10  1   
 14   9  11  1   
 15   9  12  1   
 16   9  13  1   
 17  10  14  1   
 18  10  30  1   
 19  10  31  1   
 20  11  32  1   
 21  11  33  1   
 22  11  34  1   
 23  12  35  1   
 24  12  36  1   
 25  12  37  1   
 26  13  38  1   
 27  13  39  1   
 28  13  40  1   
 29  14  15  1   
 30  14  16  1   
 31  14  41  1   
 32  15  17  1   
 33  15  42  1   
 34  15  43  1   
 35  16  18  1   
 36  16  44  1   
 37  16  45  1   
 38  17  18  1   
 39  17  19  1   
 40  17  46  1   
 41  18  20  1   
 42  18  47  1   
 43  19  48  1   
 44  20  21  1   
 45  20  49  1   
 46  20  50  1   
 47  21  22  ar  
 48  21  23  ar  
 49  22  24  ar  
 50  23  25  ar  
 51  23  51  1   
 52  24  26  ar  
 53  24  52  1   
 54  25  26  ar  
 55  25  53  1   
 56  26  54  1   
@<TRIPOS>SUBSTRUCTURE
  1 ****  14 GROUP 4 **** **** 0

# MOE 2024.06 (io_trps.svl 2023.06)
