@<TRIPOS>MOLECULE
NONAME
58 61 1 0 0 
SMALL
USER_CHARGES


@<TRIPOS>ATOM
  1 O       -2.3230     1.9540    -2.1380 O.2   1 <1>  -0.5700 
  2 C       -2.5550     1.6440    -0.9890 C.2   1 <1>   0.5690 
  3 N       -3.6550     0.8960    -0.6420 N.am  1 <1>  -0.6600 
  4 C       -1.5250     2.1290     0.0610 C.3   1 <1>   0.4840 
  5 C       -4.6480     0.4560    -1.6680 C.3   1 <1>   0.1400 
  6 C       -4.0220     0.4780     0.7430 C.3   1 <1>   0.1400 
  7 N       -0.2360     2.5570    -0.5920 N.4   1 <1>  -0.9590 
  8 C       -2.0080     3.3660     0.8280 C.3   1 <1>  -0.1600 
  9 C       -4.7760    -1.0690    -1.6330 C.3   1 <1>  -0.1600 
 10 C       -4.1330    -1.0470     0.7970 C.3   1 <1>  -0.1600 
 11 C        0.2140     3.8270     0.0200 C.3   1 <1>   0.3430 
 12 C        0.8010     1.4870    -0.6460 C.3   1 <1>   0.2630 
 13 C       -1.0770     4.5100     0.4280 C.3   1 <1>  -0.1600 
 14 C       -5.1440    -1.5800    -0.2290 C.3   1 <1>   0.4240 
 15 O       -6.3730    -1.0020     0.1390 O.3   1 <1>  -0.5600 
 16 C       -5.1950    -3.1210    -0.1830 C.ar  1 <1>  -0.1430 
 17 C       -7.5360    -1.6310    -0.3030 C.3   1 <1>   0.1200 
 18 C       -6.3750    -3.7940     0.1010 C.ar  1 <1>  -0.1430 
 19 C       -4.0550    -3.8730    -0.4320 C.ar  1 <1>  -0.1500 
 20 C       -7.6400    -3.0000     0.3610 C.3   1 <1>  -0.0170 
 21 C       -6.4040    -5.1790     0.1430 C.ar  1 <1>  -0.1500 
 22 C       -4.0600    -5.2570    -0.3900 C.ar  1 <1>   0.0820 
 23 C       -5.2590    -5.9330    -0.1040 C.ar  1 <1>   0.0820 
 24 O       -2.8430    -5.8230    -0.6460 O.3   1 <1>  -0.3630 
 25 O       -5.2960    -7.2980    -0.0830 O.3   1 <1>  -0.3620 
 26 C       -2.5330    -7.1540    -0.3030 C.3   1 <1>   0.0400 
 27 C       -6.4910    -8.0210     0.1140 C.3   1 <1>   0.0400 
 28 H       -1.3360     1.3290     0.7550 H     1 <1>   0.0800 
 29 H       -5.6020     0.9080    -1.4530 H     1 <1>   0.0800 
 30 H       -4.3480     0.7670    -2.6540 H     1 <1>   0.0800 
 31 H       -3.2970     0.8080     1.4640 H     1 <1>   0.0800 
 32 H       -4.9710     0.9190     1.0030 H     1 <1>   0.0800 
 33 H       -0.5470     2.7540    -1.5650 H     1 <1>   0.4500 
 34 H       -3.0370     3.6010     0.6110 H     1 <1>   0.0800 
 35 H       -1.9230     3.1730     1.8830 H     1 <1>   0.0800 
 36 H       -3.8380    -1.4940    -1.9390 H     1 <1>   0.0800 
 37 H       -5.5110    -1.3920    -2.3450 H     1 <1>   0.0800 
 38 H       -4.4440    -1.3570     1.7790 H     1 <1>   0.0800 
 39 H       -3.1640    -1.4710     0.6180 H     1 <1>   0.0800 
 40 H        0.8080     3.6230     0.8970 H     1 <1>   0.0800 
 41 H        0.7850     4.4260    -0.6720 H     1 <1>   0.0800 
 42 H        1.1090     1.2100     0.3490 H     1 <1>   0.0800 
 43 H        1.6640     1.8330    -1.1920 H     1 <1>   0.0800 
 44 H        0.4090     0.6150    -1.1460 H     1 <1>   0.0800 
 45 H       -0.9210     5.2120     1.2290 H     1 <1>   0.0800 
 46 H       -1.4800     5.0370    -0.4210 H     1 <1>   0.0800 
 47 H       -8.3720    -1.0130    -0.0240 H     1 <1>   0.0800 
 48 H       -7.5070    -1.7210    -1.3740 H     1 <1>   0.0800 
 49 H       -3.1240    -3.3920    -0.6650 H     1 <1>   0.1500 
 50 H       -7.7790    -2.8750     1.4200 H     1 <1>   0.0800 
 51 H       -8.4950    -3.5200    -0.0340 H     1 <1>   0.0800 
 52 H       -7.3370    -5.6540     0.3720 H     1 <1>   0.1500 
 53 H       -1.4720    -7.2880    -0.4050 H     1 <1>   0.0800 
 54 H       -3.0500    -7.8150    -0.9750 H     1 <1>   0.0800 
 55 H       -2.8310    -7.3320     0.7160 H     1 <1>   0.0800 
 56 H       -6.2610    -9.0690     0.0510 H     1 <1>   0.0800 
 57 H       -7.1920    -7.7550    -0.6570 H     1 <1>   0.0800 
 58 H       -6.8820    -7.7920     1.0900 H     1 <1>   0.0800 
@<TRIPOS>BOND
  1   1   2  2   
  2   2   3  am  
  3   2   4  1   
  4   3   5  1   
  5   3   6  1   
  6   4   7  1   
  7   4   8  1   
  8   4  28  1   
  9   5   9  1   
 10   5  29  1   
 11   5  30  1   
 12   6  10  1   
 13   6  31  1   
 14   6  32  1   
 15   7  11  1   
 16   7  12  1   
 17   7  33  1   
 18   8  13  1   
 19   8  34  1   
 20   8  35  1   
 21   9  14  1   
 22   9  36  1   
 23   9  37  1   
 24  10  14  1   
 25  10  38  1   
 26  10  39  1   
 27  11  13  1   
 28  11  40  1   
 29  11  41  1   
 30  12  42  1   
 31  12  43  1   
 32  12  44  1   
 33  13  45  1   
 34  13  46  1   
 35  14  15  1   
 36  14  16  1   
 37  15  17  1   
 38  16  18  ar  
 39  16  19  ar  
 40  17  20  1   
 41  17  47  1   
 42  17  48  1   
 43  18  20  1   
 44  18  21  ar  
 45  19  22  ar  
 46  19  49  1   
 47  20  50  1   
 48  20  51  1   
 49  21  23  ar  
 50  21  52  1   
 51  22  23  ar  
 52  22  24  1   
 53  23  25  1   
 54  24  26  1   
 55  25  27  1   
 56  26  53  1   
 57  26  54  1   
 58  26  55  1   
 59  27  56  1   
 60  27  57  1   
 61  27  58  1   
@<TRIPOS>SUBSTRUCTURE
  1 ****  10 GROUP 4 **** **** 0

# MOE 2024.06 (io_trps.svl 2023.06)
