@<TRIPOS>MOLECULE
NONAME
44 45 1 0 0 
SMALL
USER_CHARGES


@<TRIPOS>ATOM
  1 S        0.7340     0.3820    -1.4550 S.o2  1 <1>   1.3330 
  2 O        1.0420    -0.9570    -1.9060 O.2   1 <1>  -0.6500 
  3 O       -0.0310     1.2670    -2.3040 O.2   1 <1>  -0.6500 
  4 N       -0.1070     0.2530     0.0170 N.am  1 <1>  -0.8490 
  5 C        2.2720     1.1830    -0.9950 C.3   1 <1>  -0.0550 
  6 C       -1.0460    -0.8730     0.0190 C.3   1 <1>   0.1160 
  7 C       -0.8120     1.4840     0.3920 C.3   1 <1>   0.1160 
  8 C        3.2190     0.3010    -0.1520 C.3   1 <1>  -0.0800 
  9 C        4.5910     0.9040     0.1100 C.3   1 <1>   0.2200 
 10 C        2.7240    -0.0340     1.2610 C.3   1 <1>   0.1200 
 11 N        4.4770     2.3340     0.4870 N.am  1 <1>  -0.7300 
 12 C        5.0080     0.1100     1.3390 C.3   1 <1>   0.1200 
 13 O        3.8450    -0.0050     2.0990 O.3   1 <1>  -0.5600 
 14 C        4.7120     3.3940    -0.3410 C.2   1 <1>   0.5440 
 15 O        4.9610     3.1520    -1.5060 O.2   1 <1>  -0.5700 
 16 C        4.6560     4.7640     0.1460 C.ar  1 <1>   0.0860 
 17 C        5.2080     5.8080    -0.6060 C.ar  1 <1>  -0.1500 
 18 C        4.0540     5.0960     1.3670 C.ar  1 <1>  -0.1500 
 19 C        5.1790     7.1250    -0.1770 C.ar  1 <1>  -0.1440 
 20 C        4.0120     6.4030     1.8180 C.ar  1 <1>  -0.1500 
 21 C        4.5750     7.3960     1.0410 C.ar  1 <1>   0.1900 
 22 C        5.7900     8.2340    -1.0210 C.3   1 <1>  -0.0970 
 23 F        4.5270     8.6240     1.4790 F     1 <1>  -0.1900 
 24 H        2.7900     1.4540    -1.8950 H     1 <1>   0.0800 
 25 H        2.0550     2.0910    -0.4700 H     1 <1>   0.0800 
 26 H       -1.5550    -0.9350     0.9660 H     1 <1>   0.0800 
 27 H       -0.5140    -1.7980    -0.1360 H     1 <1>   0.0800 
 28 H       -1.7720    -0.7570    -0.7680 H     1 <1>   0.0800 
 29 H       -1.2490     1.3770     1.3700 H     1 <1>   0.0800 
 30 H       -1.5940     1.7020    -0.3180 H     1 <1>   0.0800 
 31 H       -0.1270     2.3140     0.4150 H     1 <1>   0.0800 
 32 H        3.3650    -0.6300    -0.6730 H     1 <1>   0.0800 
 33 H        5.2710     0.7750    -0.7160 H     1 <1>   0.0800 
 34 H        2.2750    -1.0120     1.3060 H     1 <1>   0.0800 
 35 H        2.0280     0.7020     1.6270 H     1 <1>   0.0800 
 36 H        4.2780     2.4760     1.4790 H     1 <1>   0.3700 
 37 H        5.7760     0.5980     1.9140 H     1 <1>   0.0800 
 38 H        5.3260    -0.8820     1.0660 H     1 <1>   0.0800 
 39 H        5.6700     5.5690    -1.5490 H     1 <1>   0.1500 
 40 H        3.6070     4.3300     1.9730 H     1 <1>   0.1500 
 41 H        3.5510     6.6570     2.7560 H     1 <1>   0.1500 
 42 H        6.2140     7.8420    -1.9270 H     1 <1>   0.0800 
 43 H        6.5650     8.7320    -0.4660 H     1 <1>   0.0800 
 44 H        5.0350     8.9550    -1.2800 H     1 <1>   0.0800 
@<TRIPOS>BOND
  1   1   2  2   
  2   1   3  2   
  3   1   4  am  
  4   1   5  1   
  5   4   6  1   
  6   4   7  1   
  7   5   8  1   
  8   5  24  1   
  9   5  25  1   
 10   6  26  1   
 11   6  27  1   
 12   6  28  1   
 13   7  29  1   
 14   7  30  1   
 15   7  31  1   
 16   8   9  1   
 17   8  10  1   
 18   8  32  1   
 19   9  11  1   
 20   9  12  1   
 21   9  33  1   
 22  10  13  1   
 23  10  34  1   
 24  10  35  1   
 25  11  14  am  
 26  11  36  1   
 27  12  13  1   
 28  12  37  1   
 29  12  38  1   
 30  14  15  2   
 31  14  16  1   
 32  16  17  ar  
 33  16  18  ar  
 34  17  19  ar  
 35  17  39  1   
 36  18  20  ar  
 37  18  40  1   
 38  19  21  ar  
 39  19  22  1   
 40  20  21  ar  
 41  20  41  1   
 42  21  23  1   
 43  22  42  1   
 44  22  43  1   
 45  22  44  1   
@<TRIPOS>SUBSTRUCTURE
  1 ****  11 GROUP 4 **** **** 0

# MOE 2024.06 (io_trps.svl 2023.06)
