@<TRIPOS>MOLECULE
NONAME
37 38 1 0 0 
SMALL
USER_CHARGES


@<TRIPOS>ATOM
  1 CL       1.8040    -1.2230     0.6260 Cl    1 <1>  -0.1770 
  2 C        0.7500    -2.5890     0.3740 C.ar  1 <1>   0.1770 
  3 C        1.1600    -3.8460     0.7730 C.ar  1 <1>  -0.1500 
  4 C       -0.4790    -2.3940    -0.2230 C.ar  1 <1>  -0.1500 
  5 C        0.3290    -4.9400     0.5800 C.ar  1 <1>  -0.1440 
  6 C       -1.3120    -3.4820    -0.4150 C.ar  1 <1>  -0.1500 
  7 C       -0.9220    -4.7530    -0.0070 C.ar  1 <1>  -0.1430 
  8 C        0.8330    -6.3120     1.0140 C.3   1 <1>  -0.0960 
  9 C       -1.8930    -5.9050    -0.2210 C.3   1 <1>   0.4870 
 10 N       -3.0240    -5.7100     0.7390 N.4   1 <1>  -0.9590 
 11 C       -2.7680    -6.4560     2.0200 C.3   1 <1>   0.3430 
 12 C       -4.3300    -6.0760     0.0880 C.3   1 <1>   0.3430 
 13 C       -2.8200    -7.9980     1.8760 C.3   1 <1>   0.2000 
 14 C       -4.8650    -7.4520     0.5340 C.3   1 <1>  -0.1600 
 15 O       -1.5280    -8.4660     1.7380 O.3   1 <1>  -0.6800 
 16 C       -3.7250    -8.4840     0.7150 C.3   1 <1>  -0.1860 
 17 C       -2.9570    -8.7190    -0.5850 C.2   1 <1>   0.9060 
 18 O       -3.2270    -8.0480    -1.5850 O.co2 1 <1>  -0.9000 
 19 O       -1.9800    -9.4670    -0.5520 O.co2 1 <1>  -0.9000 
 20 H        2.1280    -3.9560     1.2270 H     1 <1>   0.1500 
 21 H       -0.7690    -1.4070    -0.5340 H     1 <1>   0.1500 
 22 H       -2.2650    -3.3270    -0.8930 H     1 <1>   0.1500 
 23 H        1.8990    -6.3000     1.1520 H     1 <1>   0.0800 
 24 H        0.6140    -7.0590     0.2720 H     1 <1>   0.0800 
 25 H        0.3810    -6.5990     1.9450 H     1 <1>   0.0800 
 26 H       -1.4130    -6.8560    -0.0660 H     1 <1>   0.0800 
 27 H       -2.2540    -5.8870    -1.2370 H     1 <1>   0.0800 
 28 H       -3.0100    -4.7060     0.9350 H     1 <1>   0.4500 
 29 H       -1.8130    -6.1760     2.4320 H     1 <1>   0.0800 
 30 H       -3.5270    -6.1710     2.7270 H     1 <1>   0.0800 
 31 H       -5.0720    -5.3280     0.3100 H     1 <1>   0.0800 
 32 H       -4.1990    -6.0930    -0.9830 H     1 <1>   0.0800 
 33 H       -3.1850    -8.4050     2.8030 H     1 <1>   0.0800 
 34 H       -5.4200    -7.3470     1.4490 H     1 <1>   0.0800 
 35 H       -5.5520    -7.8070    -0.2150 H     1 <1>   0.0800 
 36 H       -1.4880    -9.0220     0.8910 H     1 <1>   0.4000 
 37 H       -4.1530    -9.4300     0.9900 H     1 <1>   0.0800 
@<TRIPOS>BOND
  1   1   2  1   
  2   2   3  ar  
  3   2   4  ar  
  4   3   5  ar  
  5   3  20  1   
  6   4   6  ar  
  7   4  21  1   
  8   5   7  ar  
  9   5   8  1   
 10   6   7  ar  
 11   6  22  1   
 12   7   9  1   
 13   8  23  1   
 14   8  24  1   
 15   8  25  1   
 16   9  10  1   
 17   9  26  1   
 18   9  27  1   
 19  10  11  1   
 20  10  12  1   
 21  10  28  1   
 22  11  13  1   
 23  11  29  1   
 24  11  30  1   
 25  12  14  1   
 26  12  31  1   
 27  12  32  1   
 28  13  15  1   
 29  13  16  1   
 30  13  33  1   
 31  14  16  1   
 32  14  34  1   
 33  14  35  1   
 34  15  36  1   
 35  16  17  1   
 36  16  37  1   
 37  17  18  ar  
 38  17  19  ar  
@<TRIPOS>SUBSTRUCTURE
  1 ****   9 GROUP 4 **** **** 0

# MOE 2024.06 (io_trps.svl 2023.06)
