@<TRIPOS>MOLECULE
NONAME
26 25 1 0 0 
SMALL
USER_CHARGES


@<TRIPOS>ATOM
  1 O       -0.7290    -0.2540    -1.5750 O.co2 1 <1>  -0.9000 
  2 C       -1.4420    -1.2540    -1.4990 C.2   1 <1>   0.9060 
  3 O       -2.2160    -1.6300    -2.3940 O.co2 1 <1>  -0.9000 
  4 C       -1.4720    -2.1020    -0.2110 C.3   1 <1>   0.3170 
  5 N       -2.7540    -2.8840    -0.1840 N.4   1 <1>  -0.9060 
  6 C       -0.3110    -3.1040    -0.1420 C.3   1 <1>  -0.1600 
  7 C       -3.8610    -2.1350     0.4280 C.3   1 <1>   0.3430 
  8 C        1.0570    -2.4050    -0.0160 C.3   1 <1>  -0.0990 
  9 C       -5.1300    -2.9570     0.2750 C.3   1 <1>  -0.2400 
 10 C        2.1850    -3.4100     0.0830 C.2   1 <1>   0.5690 
 11 O        2.2340    -4.1600     1.0220 O.2   1 <1>  -0.5700 
 12 N        3.1130    -3.4640    -0.8860 N.am  1 <1>  -0.8000 
 13 H       -1.4220    -1.4360     0.6310 H     1 <1>   0.0800 
 14 H       -2.9580    -2.9250    -1.2110 H     1 <1>   0.4500 
 15 H       -2.6330    -3.8320     0.1740 H     1 <1>   0.4500 
 16 H       -0.4390    -3.7430     0.7140 H     1 <1>   0.0800 
 17 H       -0.3080    -3.7110    -1.0310 H     1 <1>   0.0800 
 18 H       -3.6560    -1.9550     1.4710 H     1 <1>   0.0800 
 19 H       -3.9770    -1.1850    -0.0730 H     1 <1>   0.0800 
 20 H        1.0770    -1.7920     0.8670 H     1 <1>   0.0800 
 21 H        1.2320    -1.7660    -0.8630 H     1 <1>   0.0800 
 22 H       -5.0390    -3.9020     0.7810 H     1 <1>   0.0800 
 23 H       -5.3490    -3.1210    -0.7660 H     1 <1>   0.0800 
 24 H       -5.9550    -2.4210     0.7090 H     1 <1>   0.0800 
 25 H        3.8750    -4.1390    -0.8170 H     1 <1>   0.3700 
 26 H        3.1140    -2.8500    -1.7020 H     1 <1>   0.3700 
@<TRIPOS>BOND
  1   1   2  ar  
  2   2   3  ar  
  3   2   4  1   
  4   4   5  1   
  5   4   6  1   
  6   4  13  1   
  7   5   7  1   
  8   5  14  1   
  9   5  15  1   
 10   6   8  1   
 11   6  16  1   
 12   6  17  1   
 13   7   9  1   
 14   7  18  1   
 15   7  19  1   
 16   8  10  1   
 17   8  20  1   
 18   8  21  1   
 19   9  22  1   
 20   9  23  1   
 21   9  24  1   
 22  10  11  2   
 23  10  12  am  
 24  12  25  1   
 25  12  26  1   
@<TRIPOS>SUBSTRUCTURE
  1 ****   4 GROUP 4 **** **** 0

# MOE 2024.06 (io_trps.svl 2023.06)
