@<TRIPOS>MOLECULE
NONAME
49 50 1 0 0 
SMALL
USER_CHARGES


@<TRIPOS>ATOM
  1 O       -0.0890    -0.2680     0.2380 O.2   1 <1>  -0.5700 
  2 C       -1.1040     0.3850     0.3670 C.2   1 <1>   0.5690 
  3 N       -2.2890    -0.2820     0.6020 N.am  1 <1>  -0.6600 
  4 C       -0.9760     1.9440     0.2810 C.3   1 <1>   0.3410 
  5 C       -2.4320    -1.6770     0.0960 C.3   1 <1>   0.3200 
  6 C       -3.1920     0.0650     1.7440 C.3   1 <1>   0.1400 
  7 O       -0.1300     2.2260    -0.8420 O.3   1 <1>  -0.3630 
  8 C       -0.3250     2.4800     1.5720 C.3   1 <1>  -0.2400 
  9 C       -2.3040     2.6860     0.0280 C.3   1 <1>  -0.2400 
 10 C       -3.6010    -1.7710    -0.8670 C.2   1 <1>  -0.3320 
 11 C       -4.6310     0.3610     1.2980 C.3   1 <1>   0.1200 
 12 C        0.4110     3.4440    -1.0800 C.ar  1 <1>   0.0830 
 13 N       -4.3330    -2.8840    -1.0770 N.pl3 1 <1>   0.0480 
 14 C       -4.1140    -0.8210    -1.6820 C.2   1 <1>   0.0770 
 15 O       -5.3380     0.8770     2.3750 O.3   1 <1>  -0.6800 
 16 C        1.6450     3.7700    -0.5410 C.ar  1 <1>  -0.1500 
 17 C       -0.2400     4.3450    -1.9070 C.ar  1 <1>  -0.1500 
 18 C       -5.2550    -2.5210    -1.9960 C.2   1 <1>   0.0360 
 19 C       -4.1680    -4.2170    -0.4690 C.3   1 <1>   0.0160 
 20 N       -5.1610    -1.2910    -2.3820 N.2   1 <1>  -0.5650 
 21 C        2.2050     5.0110    -0.7930 C.ar  1 <1>  -0.1500 
 22 C        0.3220     5.5850    -2.1590 C.ar  1 <1>  -0.1500 
 23 C        1.5430     5.9260    -1.5980 C.ar  1 <1>  -0.1430 
 24 C        2.1590     7.2860    -1.8740 C.3   1 <1>  -0.0970 
 25 H       -2.5770    -2.3390     0.9300 H     1 <1>   0.0800 
 26 H       -1.5420    -1.9950    -0.4220 H     1 <1>   0.0800 
 27 H       -2.8020     0.9210     2.2620 H     1 <1>   0.0800 
 28 H       -3.2030    -0.7540     2.4400 H     1 <1>   0.0800 
 29 H        0.6450     2.0360     1.7030 H     1 <1>   0.0800 
 30 H       -0.9250     2.2210     2.4230 H     1 <1>   0.0800 
 31 H       -0.2340     3.5500     1.5460 H     1 <1>   0.0800 
 32 H       -2.7930     2.2810    -0.8390 H     1 <1>   0.0800 
 33 H       -2.1340     3.7350    -0.1170 H     1 <1>   0.0800 
 34 H       -2.9610     2.6030     0.8690 H     1 <1>   0.0800 
 35 H       -5.1340    -0.5270     0.9580 H     1 <1>   0.0800 
 36 H       -4.6450     1.1000     0.5160 H     1 <1>   0.0800 
 37 H       -3.7750     0.1950    -1.8020 H     1 <1>   0.1500 
 38 H       -5.6350     0.1660     2.9750 H     1 <1>   0.4000 
 39 H        2.1630     3.0520     0.0680 H     1 <1>   0.1500 
 40 H       -1.1790     4.0720    -2.3530 H     1 <1>   0.1500 
 41 H       -5.9940    -3.2100    -2.3660 H     1 <1>   0.1500 
 42 H       -3.1640    -4.5630    -0.6360 H     1 <1>   0.0800 
 43 H       -4.8600    -4.9060    -0.9170 H     1 <1>   0.0800 
 44 H       -4.3600    -4.1540     0.5870 H     1 <1>   0.0800 
 45 H        3.1610     5.2580    -0.3660 H     1 <1>   0.1500 
 46 H       -0.1940     6.2810    -2.7970 H     1 <1>   0.1500 
 47 H        2.7580     7.6040    -1.0400 H     1 <1>   0.0800 
 48 H        1.3910     8.0200    -2.0400 H     1 <1>   0.0800 
 49 H        2.7820     7.2310    -2.7490 H     1 <1>   0.0800 
@<TRIPOS>BOND
  1   1   2  2   
  2   2   3  am  
  3   2   4  1   
  4   3   5  1   
  5   3   6  1   
  6   4   7  1   
  7   4   8  1   
  8   4   9  1   
  9   5  10  1   
 10   5  25  1   
 11   5  26  1   
 12   6  11  1   
 13   6  27  1   
 14   6  28  1   
 15   7  12  1   
 16   8  29  1   
 17   8  30  1   
 18   8  31  1   
 19   9  32  1   
 20   9  33  1   
 21   9  34  1   
 22  10  13  1   
 23  10  14  2   
 24  11  15  1   
 25  11  35  1   
 26  11  36  1   
 27  12  16  ar  
 28  12  17  ar  
 29  13  18  1   
 30  13  19  1   
 31  14  20  1   
 32  14  37  1   
 33  15  38  1   
 34  16  21  ar  
 35  16  39  1   
 36  17  22  ar  
 37  17  40  1   
 38  18  20  2   
 39  18  41  1   
 40  19  42  1   
 41  19  43  1   
 42  19  44  1   
 43  21  23  ar  
 44  21  45  1   
 45  22  23  ar  
 46  22  46  1   
 47  23  24  1   
 48  24  47  1   
 49  24  48  1   
 50  24  49  1   
@<TRIPOS>SUBSTRUCTURE
  1 ****   4 GROUP 4 **** **** 0

# MOE 2024.06 (io_trps.svl 2023.06)
