@<TRIPOS>MOLECULE
NONAME
44 46 1 0 0 
SMALL
USER_CHARGES


@<TRIPOS>ATOM
  1 O       -0.8420     0.7230     1.7590 O.3   1 <1>  -0.5600 
  2 C        0.1280     1.1550     0.8470 C.3   1 <1>   0.1200 
  3 C       -2.0900     1.2810     1.4670 C.3   1 <1>   0.1200 
  4 C       -0.5070     2.2670     0.0130 C.3   1 <1>   0.2890 
  5 C       -1.9800     1.9060     0.0740 C.3   1 <1>  -0.0800 
  6 N       -0.3080     3.5780     0.6840 N.pl3 1 <1>  -0.8690 
  7 C       -2.3680     0.9180    -1.0430 C.3   1 <1>  -0.0170 
  8 C        0.2940     4.6720     0.1130 C.ar  1 <1>   0.4100 
  9 C       -3.8430     0.5510    -0.9780 C.ar  1 <1>  -0.1430 
 10 N        0.5680     4.6320    -1.1760 N.ar  1 <1>  -0.6200 
 11 C        0.5960     5.7770     0.8710 C.ar  1 <1>  -0.1500 
 12 C       -4.2730    -0.6780    -0.5190 C.ar  1 <1>  -0.1500 
 13 C       -4.8290     1.4310    -1.3760 C.ar  1 <1>  -0.1500 
 14 C        1.1440     5.7130    -1.6630 C.ar  1 <1>   0.4700 
 15 C        1.1930     6.8480     0.2530 C.ar  1 <1>   0.4100 
 16 C       -5.6290    -0.9570    -0.4790 C.ar  1 <1>   0.1600 
 17 C       -6.1590     1.0520    -1.2960 C.ar  1 <1>   0.1600 
 18 N        1.4780     6.8230    -1.0350 N.ar  1 <1>  -0.6200 
 19 N        1.5160     7.9790     0.9630 N.pl3 1 <1>  -0.8690 
 20 N       -6.5830    -0.1210    -0.8550 N.ar  1 <1>  -0.6200 
 21 C        1.9010     9.2680     0.3260 C.3   1 <1>   0.2090 
 22 C        3.4140     9.3090     0.0920 C.3   1 <1>   0.1200 
 23 O        3.7580    10.4900    -0.5560 O.3   1 <1>  -0.6800 
 24 H        1.0010     1.4900     1.3780 H     1 <1>   0.0800 
 25 H        0.3810     0.3170     0.2240 H     1 <1>   0.0800 
 26 H       -2.8440     0.5180     1.5350 H     1 <1>   0.0800 
 27 H       -2.2850     2.0410     2.2040 H     1 <1>   0.0800 
 28 H       -0.1210     2.2790    -0.9910 H     1 <1>   0.0800 
 29 H       -2.5970     2.7840    -0.0070 H     1 <1>   0.0800 
 30 H       -0.3500     3.5240     1.7040 H     1 <1>   0.4000 
 31 H       -1.7730     0.0240    -0.9730 H     1 <1>   0.0800 
 32 H       -2.1670     1.3670    -2.0000 H     1 <1>   0.0800 
 33 H        0.3710     5.8030     1.9150 H     1 <1>   0.1500 
 34 H       -3.5690    -1.4200    -0.1910 H     1 <1>   0.1500 
 35 H       -4.5750     2.4070    -1.7480 H     1 <1>   0.1500 
 36 H        1.3730     5.6860    -2.7150 H     1 <1>   0.1500 
 37 H       -5.9460    -1.9210    -0.1170 H     1 <1>   0.1500 
 38 H       -6.9140     1.7520    -1.6110 H     1 <1>   0.1500 
 39 H        1.1690     8.0560     1.9210 H     1 <1>   0.4000 
 40 H        1.3840     9.3720    -0.6130 H     1 <1>   0.0800 
 41 H        1.6150    10.0810     0.9700 H     1 <1>   0.0800 
 42 H        3.7260     8.4820    -0.5210 H     1 <1>   0.0800 
 43 H        3.9370     9.2820     1.0320 H     1 <1>   0.0800 
 44 H        3.4600    10.4630    -1.4870 H     1 <1>   0.4000 
@<TRIPOS>BOND
  1   1   2  1   
  2   1   3  1   
  3   2   4  1   
  4   2  24  1   
  5   2  25  1   
  6   3   5  1   
  7   3  26  1   
  8   3  27  1   
  9   4   5  1   
 10   4   6  1   
 11   4  28  1   
 12   5   7  1   
 13   5  29  1   
 14   6   8  1   
 15   6  30  1   
 16   7   9  1   
 17   7  31  1   
 18   7  32  1   
 19   8  10  ar  
 20   8  11  ar  
 21   9  12  ar  
 22   9  13  ar  
 23  10  14  ar  
 24  11  15  ar  
 25  11  33  1   
 26  12  16  ar  
 27  12  34  1   
 28  13  17  ar  
 29  13  35  1   
 30  14  18  ar  
 31  14  36  1   
 32  15  18  ar  
 33  15  19  1   
 34  16  20  ar  
 35  16  37  1   
 36  17  20  ar  
 37  17  38  1   
 38  19  21  1   
 39  19  39  1   
 40  21  22  1   
 41  21  40  1   
 42  21  41  1   
 43  22  23  1   
 44  22  42  1   
 45  22  43  1   
 46  23  44  1   
@<TRIPOS>SUBSTRUCTURE
  1 ****   6 GROUP 4 **** **** 0

# MOE 2024.06 (io_trps.svl 2023.06)
