@<TRIPOS>MOLECULE
NONAME
56 59 1 0 0 
SMALL
USER_CHARGES


@<TRIPOS>ATOM
  1 S       -1.2530     0.5690     0.8770 S.3   1 <1>  -0.0800 
  2 C       -0.0420     1.0000    -0.3190 C.2   1 <1>  -0.1400 
  3 C       -1.1520    -1.1320     0.4480 C.2   1 <1>  -0.1400 
  4 C        0.3800    -0.1020    -0.9680 C.2   1 <1>  -0.1500 
  5 C        0.3220     2.4740    -0.4290 C.3   1 <1>   0.1000 
  6 C       -0.2450    -1.3130    -0.5300 C.2   1 <1>  -0.1500 
  7 C       -2.0370    -2.1150     1.1950 C.3   1 <1>   0.5230 
  8 C        1.3630     2.7830    -1.5020 C.3   1 <1>  -0.1600 
  9 C        0.9590     3.0270     0.8440 C.3   1 <1>  -0.1600 
 10 N       -3.4710    -1.9690     0.7910 N.4   1 <1>  -0.9590 
 11 C        1.9200     4.1530    -1.1160 C.3   1 <1>  -0.1600 
 12 C        1.7580     4.2590     0.4050 C.3   1 <1>  -0.1600 
 13 C       -3.6180    -1.9780    -0.7010 C.3   1 <1>   0.3430 
 14 C       -4.1160    -0.7920     1.4350 C.3   1 <1>   0.3430 
 15 C       -5.0850    -2.0620    -1.1850 C.3   1 <1>   0.1400 
 16 C       -5.5400    -1.1340     1.8870 C.3   1 <1>  -0.1600 
 17 N       -6.0740    -2.4890    -0.1360 N.am  1 <1>  -0.6600 
 18 C       -6.5450    -1.3980     0.7580 C.3   1 <1>   0.1400 
 19 C       -6.1370    -3.7990     0.2870 C.2   1 <1>   0.7030 
 20 O       -5.0860    -4.2990     0.6470 O.2   1 <1>  -0.5700 
 21 C       -7.3770    -4.5660     0.3700 C.2   1 <1>   0.2770 
 22 N       -8.6260    -4.3240    -0.2210 N.pl3 1 <1>  -0.7640 
 23 C       -7.5250    -5.7220     1.0680 C.2   1 <1>   0.2000 
 24 C       -9.4460    -5.3070     0.1390 C.cat 1 <1>   0.6500 
 25 C       -8.9740    -3.2060    -1.1450 C.3   1 <1>   0.2740 
 26 N       -8.8100    -6.1620     0.9210 N.pl3 1 <1>  -0.7000 
 27 H        1.1210    -0.1210    -1.7490 H     1 <1>   0.1500 
 28 H       -0.5670     3.0430    -0.6450 H     1 <1>   0.0800 
 29 H        0.0330    -2.2510    -0.9810 H     1 <1>   0.1500 
 30 H       -1.9290    -1.9660     2.2580 H     1 <1>   0.0800 
 31 H       -1.7050    -3.1140     0.9660 H     1 <1>   0.0800 
 32 H        0.9380     2.7810    -2.4900 H     1 <1>   0.0800 
 33 H        2.1590     2.0600    -1.4540 H     1 <1>   0.0800 
 34 H        1.6350     2.2930     1.2490 H     1 <1>   0.0800 
 35 H        0.2210     3.2700     1.5870 H     1 <1>   0.0800 
 36 H       -3.9700    -2.8200     1.1110 H     1 <1>   0.4500 
 37 H        1.3390     4.9260    -1.5920 H     1 <1>   0.0800 
 38 H        2.9490     4.2570    -1.4160 H     1 <1>   0.0800 
 39 H        2.7160     4.2780     0.8960 H     1 <1>   0.0800 
 40 H        1.2230     5.1600     0.6540 H     1 <1>   0.0800 
 41 H       -3.0920    -2.8320    -1.0950 H     1 <1>   0.0800 
 42 H       -3.1550    -1.1010    -1.1240 H     1 <1>   0.0800 
 43 H       -4.1250     0.0460     0.7570 H     1 <1>   0.0800 
 44 H       -3.5460    -0.5020     2.3040 H     1 <1>   0.0800 
 45 H       -5.1270    -2.7520    -2.0120 H     1 <1>   0.0800 
 46 H       -5.3730    -1.1010    -1.5750 H     1 <1>   0.0800 
 47 H       -5.9070    -0.2980     2.4560 H     1 <1>   0.0800 
 48 H       -5.5140    -1.9710     2.5620 H     1 <1>   0.0800 
 49 H       -6.6970    -0.4980     0.1840 H     1 <1>   0.0800 
 50 H       -7.4940    -1.6700     1.1900 H     1 <1>   0.0800 
 51 H       -6.7810    -6.2430     1.6520 H     1 <1>   0.1500 
 52 H      -10.4810    -5.4020    -0.1660 H     1 <1>   0.1500 
 53 H       -8.2440    -3.1390    -1.9350 H     1 <1>   0.0800 
 54 H       -8.9970    -2.2740    -0.6070 H     1 <1>   0.0800 
 55 H       -9.9420    -3.3700    -1.5880 H     1 <1>   0.0800 
 56 H       -9.2070    -7.0140     1.3350 H     1 <1>   0.4500 
@<TRIPOS>BOND
  1   1   2  1   
  2   1   3  1   
  3   2   4  2   
  4   2   5  1   
  5   3   6  2   
  6   3   7  1   
  7   4   6  1   
  8   4  27  1   
  9   5   8  1   
 10   5   9  1   
 11   5  28  1   
 12   6  29  1   
 13   7  10  1   
 14   7  30  1   
 15   7  31  1   
 16   8  11  1   
 17   8  32  1   
 18   8  33  1   
 19   9  12  1   
 20   9  34  1   
 21   9  35  1   
 22  10  13  1   
 23  10  14  1   
 24  10  36  1   
 25  11  12  1   
 26  11  37  1   
 27  11  38  1   
 28  12  39  1   
 29  12  40  1   
 30  13  15  1   
 31  13  41  1   
 32  13  42  1   
 33  14  16  1   
 34  14  43  1   
 35  14  44  1   
 36  15  17  1   
 37  15  45  1   
 38  15  46  1   
 39  16  18  1   
 40  16  47  1   
 41  16  48  1   
 42  17  18  1   
 43  17  19  am  
 44  18  49  1   
 45  18  50  1   
 46  19  20  2   
 47  19  21  1   
 48  21  22  1   
 49  21  23  2   
 50  22  24  ar  
 51  22  25  1   
 52  23  26  1   
 53  23  51  1   
 54  24  26  ar  
 55  24  52  1   
 56  25  53  1   
 57  25  54  1   
 58  25  55  1   
 59  26  56  1   
@<TRIPOS>SUBSTRUCTURE
  1 ****  10 GROUP 4 **** **** 0

# MOE 2024.06 (io_trps.svl 2023.06)
