@<TRIPOS>MOLECULE
NONAME
47 50 1 0 0 
SMALL
USER_CHARGES


@<TRIPOS>ATOM
  1 O        1.3820    -0.6380     2.2280 O.2   1 <1>  -0.5700 
  2 C        1.7330    -1.0810     1.1450 C.2   1 <1>   0.5440 
  3 N        2.4290    -0.2800     0.2690 N.am  1 <1>  -0.4200 
  4 C        1.4430    -2.4280     0.7440 C.ar  1 <1>   0.0860 
  5 C        2.8230    -0.7900    -0.9450 C.2   1 <1>   0.4500 
  6 C        2.7500     1.1230     0.6380 C.3   1 <1>   0.0600 
  7 C        1.8920    -2.8400    -0.5150 C.ar  1 <1>   0.1790 
  8 C        0.7420    -3.3430     1.5330 C.ar  1 <1>  -0.1500 
  9 N        2.5890    -1.9820    -1.3430 N.2   1 <1>  -0.6290 
 10 C        1.6350    -4.1350    -0.9440 C.ar  1 <1>  -0.1500 
 11 C        0.4980    -4.6250     1.0880 C.ar  1 <1>  -0.1500 
 12 C        0.9470    -5.0590    -0.1660 C.ar  1 <1>   0.0860 
 13 C        0.7050    -6.4110    -0.6410 C.2   1 <1>   0.5440 
 14 O        0.6580    -6.6570    -1.8290 O.2   1 <1>  -0.5700 
 15 N        0.5270    -7.4410     0.2360 N.am  1 <1>  -0.7300 
 16 C        0.2750    -8.8500    -0.1400 C.3   1 <1>   0.2200 
 17 C       -1.2000    -9.1570     0.0540 C.3   1 <1>  -0.0800 
 18 C        0.9180    -9.7710     0.8900 C.3   1 <1>   0.1200 
 19 C       -1.2720    -9.5110     1.5450 C.3   1 <1>   0.1200 
 20 C       -1.6580   -10.3180    -0.8480 C.3   1 <1>  -0.0170 
 21 O        0.0290    -9.8090     1.9650 O.3   1 <1>  -0.5600 
 22 C       -3.1420   -10.6020    -0.6780 C.ar  1 <1>  -0.1430 
 23 C       -3.6070   -11.6990     0.0200 C.ar  1 <1>  -0.1500 
 24 C       -4.1040    -9.7710    -1.2160 C.ar  1 <1>  -0.1500 
 25 C       -4.9710   -11.9020     0.1460 C.ar  1 <1>   0.1600 
 26 C       -5.4440   -10.0650    -1.0320 C.ar  1 <1>   0.1600 
 27 N       -5.9010   -11.1100    -0.3610 N.ar  1 <1>  -0.6200 
 28 H        3.3650    -0.1200    -1.5900 H     1 <1>   0.0600 
 29 H        3.2920     1.6120    -0.1520 H     1 <1>   0.0800 
 30 H        3.3470     1.1300     1.5330 H     1 <1>   0.0800 
 31 H        1.8380     1.6620     0.8260 H     1 <1>   0.0800 
 32 H        0.3890    -3.0280     2.5010 H     1 <1>   0.1500 
 33 H        1.9880    -4.4270    -1.9190 H     1 <1>   0.1500 
 34 H       -0.0550    -5.3000     1.7170 H     1 <1>   0.1500 
 35 H        0.6000    -7.2880     1.2440 H     1 <1>   0.3700 
 36 H        0.6270    -9.0440    -1.1400 H     1 <1>   0.0800 
 37 H       -1.8050    -8.2940    -0.1660 H     1 <1>   0.0800 
 38 H        1.8780    -9.4180     1.2220 H     1 <1>   0.0800 
 39 H        1.0100   -10.7700     0.5040 H     1 <1>   0.0800 
 40 H       -1.9030   -10.3590     1.7460 H     1 <1>   0.0800 
 41 H       -1.6140    -8.6690     2.1210 H     1 <1>   0.0800 
 42 H       -1.0920   -11.2070    -0.6300 H     1 <1>   0.0800 
 43 H       -1.4740   -10.0620    -1.8780 H     1 <1>   0.0800 
 44 H       -2.9240   -12.3980     0.4670 H     1 <1>   0.1500 
 45 H       -3.8230    -8.8990    -1.7780 H     1 <1>   0.1500 
 46 H       -5.3150   -12.7630     0.6940 H     1 <1>   0.1500 
 47 H       -6.1800    -9.4050    -1.4590 H     1 <1>   0.1500 
@<TRIPOS>BOND
  1   1   2  2   
  2   2   3  am  
  3   2   4  1   
  4   3   5  1   
  5   3   6  1   
  6   4   7  ar  
  7   4   8  ar  
  8   5   9  2   
  9   5  28  1   
 10   6  29  1   
 11   6  30  1   
 12   6  31  1   
 13   7   9  1   
 14   7  10  ar  
 15   8  11  ar  
 16   8  32  1   
 17  10  12  ar  
 18  10  33  1   
 19  11  12  ar  
 20  11  34  1   
 21  12  13  1   
 22  13  14  2   
 23  13  15  am  
 24  15  16  1   
 25  15  35  1   
 26  16  17  1   
 27  16  18  1   
 28  16  36  1   
 29  17  19  1   
 30  17  20  1   
 31  17  37  1   
 32  18  21  1   
 33  18  38  1   
 34  18  39  1   
 35  19  21  1   
 36  19  40  1   
 37  19  41  1   
 38  20  22  1   
 39  20  42  1   
 40  20  43  1   
 41  22  23  ar  
 42  22  24  ar  
 43  23  25  ar  
 44  23  44  1   
 45  24  26  ar  
 46  24  45  1   
 47  25  27  ar  
 48  25  46  1   
 49  26  27  ar  
 50  26  47  1   
@<TRIPOS>SUBSTRUCTURE
  1 ****  13 GROUP 4 **** **** 0

# MOE 2024.06 (io_trps.svl 2023.06)
