@<TRIPOS>MOLECULE
NONAME
49 52 1 0 0 
SMALL
USER_CHARGES


@<TRIPOS>ATOM
  1 O       -0.1840     0.1590     0.4250 O.2   1 <1>  -0.5700 
  2 C       -1.2380     0.7590     0.5450 C.2   1 <1>   0.7160 
  3 N       -2.4130     0.0450     0.4520 N.am  1 <1>  -0.6600 
  4 C       -1.2550     2.1910     0.7620 C.2   1 <1>  -0.0860 
  5 C       -3.7330     0.6580     0.1680 C.3   1 <1>   0.1400 
  6 C       -2.4370    -1.4090     0.1650 C.3   1 <1>   0.1400 
  7 C       -0.5740     3.1940     0.1110 C.2   1 <1>  -0.3320 
  8 C       -2.0200     2.8500     1.7460 C.2   1 <1>  -0.1500 
  9 C       -4.5640    -0.4640    -0.4540 C.3   1 <1>   0.2000 
 10 C       -3.9190    -1.7630     0.0230 C.3   1 <1>  -0.0800 
 11 N       -0.8930     4.4000     0.6420 N.pl3 1 <1>   0.0480 
 12 C        0.4090     3.0350    -1.0390 C.3   1 <1>  -0.0600 
 13 C       -1.7820     4.1800     1.6430 C.2   1 <1>  -0.3020 
 14 O       -5.8870    -0.4110    -0.0410 O.3   1 <1>  -0.6800 
 15 C       -4.1890    -2.9440    -0.9240 C.3   1 <1>  -0.0170 
 16 C       -0.3750     5.7180     0.2390 C.3   1 <1>   0.0160 
 17 C       -3.5400    -4.2190    -0.4150 C.ar  1 <1>   0.1670 
 18 N       -2.3100    -4.4430    -0.7640 N.ar  1 <1>  -0.6200 
 19 C       -4.2840    -5.0810     0.4060 C.ar  1 <1>  -0.1500 
 20 C       -1.7160    -5.5720    -0.2990 C.ar  1 <1>   0.3100 
 21 C       -3.7150    -6.2220     0.8830 C.ar  1 <1>  -0.1500 
 22 C       -2.3830    -6.4970     0.5330 C.ar  1 <1>   0.0000 
 23 C       -0.3820    -5.8320    -0.6540 C.ar  1 <1>  -0.1500 
 24 C       -1.6920    -7.6440     0.9730 C.ar  1 <1>  -0.1500 
 25 C        0.2720    -6.9530    -0.2150 C.ar  1 <1>  -0.1500 
 26 C       -0.3920    -7.8680     0.6080 C.ar  1 <1>  -0.1500 
 27 H       -4.1720     0.9930     1.0910 H     1 <1>   0.0800 
 28 H       -3.6300     1.4840    -0.5150 H     1 <1>   0.0800 
 29 H       -1.9050    -1.5970    -0.7530 H     1 <1>   0.0800 
 30 H       -1.9700    -1.9650     0.9610 H     1 <1>   0.0800 
 31 H       -2.6650     2.3520     2.4490 H     1 <1>   0.1500 
 32 H       -4.5380    -0.3840    -1.5280 H     1 <1>   0.0800 
 33 H       -4.2820    -2.0040     1.0070 H     1 <1>   0.0800 
 34 H        0.4950     2.0030    -1.3280 H     1 <1>   0.0800 
 35 H        1.3820     3.3820    -0.7430 H     1 <1>   0.0800 
 36 H        0.0780     3.5980    -1.8930 H     1 <1>   0.0800 
 37 H       -2.1940     4.9790     2.2340 H     1 <1>   0.1500 
 38 H       -5.9410    -0.4790     0.9310 H     1 <1>   0.4000 
 39 H       -3.8040    -2.7220    -1.9040 H     1 <1>   0.0800 
 40 H       -5.2500    -3.0930    -1.0200 H     1 <1>   0.0800 
 41 H       -0.8070     6.4810     0.8590 H     1 <1>   0.0800 
 42 H       -0.6330     5.9010    -0.7880 H     1 <1>   0.0800 
 43 H        0.6940     5.7270     0.3520 H     1 <1>   0.0800 
 44 H       -5.3000    -4.8280     0.6500 H     1 <1>   0.1500 
 45 H       -4.2530    -6.9070     1.5140 H     1 <1>   0.1500 
 46 H        0.1100    -5.1150    -1.2850 H     1 <1>   0.1500 
 47 H       -2.2080    -8.3440     1.6060 H     1 <1>   0.1500 
 48 H        1.2940    -7.1400    -0.4950 H     1 <1>   0.1500 
 49 H        0.1340    -8.7450     0.9460 H     1 <1>   0.1500 
@<TRIPOS>BOND
  1   1   2  2   
  2   2   3  am  
  3   2   4  1   
  4   3   5  1   
  5   3   6  1   
  6   4   7  2   
  7   4   8  1   
  8   5   9  1   
  9   5  27  1   
 10   5  28  1   
 11   6  10  1   
 12   6  29  1   
 13   6  30  1   
 14   7  11  1   
 15   7  12  1   
 16   8  13  2   
 17   8  31  1   
 18   9  10  1   
 19   9  14  1   
 20   9  32  1   
 21  10  15  1   
 22  10  33  1   
 23  11  13  1   
 24  11  16  1   
 25  12  34  1   
 26  12  35  1   
 27  12  36  1   
 28  13  37  1   
 29  14  38  1   
 30  15  17  1   
 31  15  39  1   
 32  15  40  1   
 33  16  41  1   
 34  16  42  1   
 35  16  43  1   
 36  17  18  ar  
 37  17  19  ar  
 38  18  20  ar  
 39  19  21  ar  
 40  19  44  1   
 41  20  22  ar  
 42  20  23  ar  
 43  21  22  ar  
 44  21  45  1   
 45  22  24  ar  
 46  23  25  ar  
 47  23  46  1   
 48  24  26  ar  
 49  24  47  1   
 50  25  26  ar  
 51  25  48  1   
 52  26  49  1   
@<TRIPOS>SUBSTRUCTURE
  1 ****   6 GROUP 4 **** **** 0

# MOE 2024.06 (io_trps.svl 2023.06)
