@<TRIPOS>MOLECULE
NONAME
56 59 1 0 0 
SMALL
USER_CHARGES


@<TRIPOS>ATOM
  1 O        0.2590    -0.0860    -1.2640 O.2   1 <1>  -0.5700 
  2 C        0.1560    -1.0040    -0.4760 C.2   1 <1>   0.5440 
  3 N       -0.7810    -0.8480     0.4850 N.am  1 <1>  -0.8000 
  4 C        1.0010    -2.1760    -0.5570 C.ar  1 <1>   0.0860 
  5 C        0.6250    -3.4440    -0.0580 C.ar  1 <1>   0.4100 
  6 C        2.2580    -2.0690    -1.1380 C.ar  1 <1>  -0.1500 
  7 N        1.4290    -4.5070    -0.0760 N.ar  1 <1>  -0.6200 
  8 N       -0.6370    -3.6960     0.4640 N.pl3 1 <1>  -0.8380 
  9 C        3.0700    -3.1780    -1.1710 C.ar  1 <1>  -0.1500 
 10 C        2.6140    -4.3640    -0.6250 C.ar  1 <1>   0.1670 
 11 C       -1.7850    -3.7790    -0.4800 C.3   1 <1>   0.2090 
 12 C       -0.7970    -4.5100     1.7040 C.3   1 <1>   0.2090 
 13 C        3.4900    -5.5980    -0.6380 C.3   1 <1>  -0.0970 
 14 C       -2.0400    -5.2380    -0.8510 C.3   1 <1>  -0.1600 
 15 C       -1.1000    -5.9700     1.3600 C.3   1 <1>  -0.1600 
 16 C       -2.2820    -6.1040     0.3940 C.3   1 <1>   0.4240 
 17 O       -3.3930    -5.5800     1.0890 O.3   1 <1>  -0.5600 
 18 C       -2.4970    -7.5840     0.0080 C.ar  1 <1>  -0.1430 
 19 C       -4.6600    -5.9700     0.6610 C.3   1 <1>   0.1200 
 20 C       -3.7010    -8.2290     0.2580 C.ar  1 <1>  -0.1430 
 21 C       -1.4820    -8.3030    -0.6100 C.ar  1 <1>  -0.1500 
 22 C       -4.8300    -7.4640     0.9190 C.3   1 <1>  -0.0170 
 23 C       -3.8770    -9.5570    -0.0960 C.ar  1 <1>  -0.1500 
 24 C       -1.6370    -9.6320    -0.9650 C.ar  1 <1>   0.0830 
 25 C       -2.8590   -10.2770    -0.7170 C.ar  1 <1>   0.0830 
 26 O       -0.5460   -10.2030    -1.5490 O.3   1 <1>  -0.3630 
 27 O       -3.0350   -11.5760    -1.1000 O.3   1 <1>  -0.3620 
 28 C       -0.2210   -11.5520    -1.3020 C.3   1 <1>   0.0400 
 29 C       -4.2900   -12.2150    -1.0330 C.3   1 <1>   0.0400 
 30 H       -1.4010    -0.0410     0.4690 H     1 <1>   0.3700 
 31 H       -1.0640    -1.6720     1.0290 H     1 <1>   0.3700 
 32 H        2.5870    -1.1300    -1.5500 H     1 <1>   0.1500 
 33 H        4.0480    -3.1190    -1.6140 H     1 <1>   0.1500 
 34 H       -1.5700    -3.2140    -1.3710 H     1 <1>   0.0800 
 35 H       -2.6590    -3.3560    -0.0150 H     1 <1>   0.0800 
 36 H       -1.6030    -4.1030     2.2910 H     1 <1>   0.0800 
 37 H        0.1050    -4.4580     2.2910 H     1 <1>   0.0800 
 38 H        2.9950    -6.3810    -1.1840 H     1 <1>   0.0800 
 39 H        3.6530    -5.9320     0.3700 H     1 <1>   0.0800 
 40 H        4.4390    -5.3980    -1.0980 H     1 <1>   0.0800 
 41 H       -1.1780    -5.6020    -1.3780 H     1 <1>   0.0800 
 42 H       -2.8740    -5.3090    -1.5210 H     1 <1>   0.0800 
 43 H       -1.3110    -6.5200     2.2570 H     1 <1>   0.0800 
 44 H       -0.2180    -6.3980     0.9240 H     1 <1>   0.0800 
 45 H       -4.7680    -5.7430    -0.3850 H     1 <1>   0.0800 
 46 H       -5.3860    -5.4070     1.2210 H     1 <1>   0.0800 
 47 H       -0.5380    -7.8360    -0.8270 H     1 <1>   0.1500 
 48 H       -5.7780    -7.7850     0.5270 H     1 <1>   0.0800 
 49 H       -4.8210    -7.6480     1.9790 H     1 <1>   0.0800 
 50 H       -4.8210   -10.0160     0.1200 H     1 <1>   0.1500 
 51 H        0.8240   -11.6880    -1.5100 H     1 <1>   0.0800 
 52 H       -0.8050   -12.1740    -1.9550 H     1 <1>   0.0800 
 53 H       -0.4270   -11.7820    -0.2710 H     1 <1>   0.0800 
 54 H       -4.1870   -13.1990    -1.4550 H     1 <1>   0.0800 
 55 H       -5.0030   -11.6470    -1.6030 H     1 <1>   0.0800 
 56 H       -4.5890   -12.2910    -0.0020 H     1 <1>   0.0800 
@<TRIPOS>BOND
  1   1   2  2   
  2   2   3  am  
  3   2   4  1   
  4   3  30  1   
  5   3  31  1   
  6   4   5  ar  
  7   4   6  ar  
  8   5   7  ar  
  9   5   8  1   
 10   6   9  ar  
 11   6  32  1   
 12   7  10  ar  
 13   8  11  1   
 14   8  12  1   
 15   9  10  ar  
 16   9  33  1   
 17  10  13  1   
 18  11  14  1   
 19  11  34  1   
 20  11  35  1   
 21  12  15  1   
 22  12  36  1   
 23  12  37  1   
 24  13  38  1   
 25  13  39  1   
 26  13  40  1   
 27  14  16  1   
 28  14  41  1   
 29  14  42  1   
 30  15  16  1   
 31  15  43  1   
 32  15  44  1   
 33  16  17  1   
 34  16  18  1   
 35  17  19  1   
 36  18  20  ar  
 37  18  21  ar  
 38  19  22  1   
 39  19  45  1   
 40  19  46  1   
 41  20  22  1   
 42  20  23  ar  
 43  21  24  ar  
 44  21  47  1   
 45  22  48  1   
 46  22  49  1   
 47  23  25  ar  
 48  23  50  1   
 49  24  25  ar  
 50  24  26  1   
 51  25  27  1   
 52  26  28  1   
 53  27  29  1   
 54  28  51  1   
 55  28  52  1   
 56  28  53  1   
 57  29  54  1   
 58  29  55  1   
 59  29  56  1   
@<TRIPOS>SUBSTRUCTURE
  1 ****  16 GROUP 4 **** **** 0

# MOE 2024.06 (io_trps.svl 2023.06)
