@<TRIPOS>MOLECULE
NONAME
46 47 1 0 0 
SMALL
USER_CHARGES


@<TRIPOS>ATOM
  1 O        2.9850    -0.1030     1.5340 O.co2 1 <1>  -0.9000 
  2 C        2.8960     1.0190     1.0320 C.2   1 <1>   0.9060 
  3 O        3.5300     1.9820     1.4930 O.co2 1 <1>  -0.9000 
  4 C        2.2210     1.1580    -0.3500 C.3   1 <1>  -0.1060 
  5 C        3.0590     0.2990    -1.3320 C.3   1 <1>   0.2000 
  6 C        2.2780     2.6270    -0.8850 C.3   1 <1>  -0.1600 
  7 C        0.7440     0.6710    -0.3080 C.3   1 <1>  -0.1600 
  8 O        3.0560    -1.0240    -0.9270 O.3   1 <1>  -0.6800 
  9 C        4.5320     0.7740    -1.4230 C.3   1 <1>   0.3430 
 10 C        3.6590     3.0970    -1.3800 C.3   1 <1>   0.3430 
 11 C       -0.1630     1.4910     0.6250 C.3   1 <1>  -0.1600 
 12 N        4.7130     2.1710    -0.9050 N.4   1 <1>  -0.9590 
 13 C       -1.5770     0.9060     0.6610 C.3   1 <1>  -0.2400 
 14 C        6.1000     2.6870    -0.9910 C.3   1 <1>   0.3430 
 15 C        6.4030     3.5580     0.2300 C.3   1 <1>   0.0200 
 16 C        7.8000     4.1350     0.1210 C.2   1 <1>   0.0060 
 17 N        8.4660     4.1700    -0.9890 N.2   1 <1>  -0.5650 
 18 N        8.4660     4.6680     1.1750 N.pl3 1 <1>   0.0480 
 19 C        9.6290     4.7550    -0.6470 C.2   1 <1>   0.0770 
 20 C        9.6460     5.0640     0.6670 C.2   1 <1>  -0.3020 
 21 C        8.0270     4.7960     2.5780 C.3   1 <1>   0.0160 
 22 H        2.6210     0.3250    -2.3140 H     1 <1>   0.0800 
 23 H        1.9620     3.2960    -0.1030 H     1 <1>   0.0800 
 24 H        1.5820     2.7500    -1.6940 H     1 <1>   0.0800 
 25 H        0.3320     0.6810    -1.3020 H     1 <1>   0.0800 
 26 H        0.7280    -0.3520     0.0310 H     1 <1>   0.0800 
 27 H        3.0320    -1.0230     0.0790 H     1 <1>   0.4000 
 28 H        4.8530     0.7190    -2.4490 H     1 <1>   0.0800 
 29 H        5.1380     0.1040    -0.8360 H     1 <1>   0.0800 
 30 H        3.8460     4.0910    -1.0100 H     1 <1>   0.0800 
 31 H        3.6700     3.1270    -2.4570 H     1 <1>   0.0800 
 32 H        0.2420     1.4830     1.6230 H     1 <1>   0.0800 
 33 H       -0.2200     2.5130     0.2950 H     1 <1>   0.0800 
 34 H        4.5040     2.0940     0.1260 H     1 <1>   0.4500 
 35 H       -1.5520    -0.1070     1.0220 H     1 <1>   0.0800 
 36 H       -2.0160     0.9150    -0.3210 H     1 <1>   0.0800 
 37 H       -2.1980     1.4870     1.3200 H     1 <1>   0.0800 
 38 H        6.8000     1.8680    -1.0010 H     1 <1>   0.0800 
 39 H        6.2370     3.2570    -1.8950 H     1 <1>   0.0800 
 40 H        6.3270     2.9570     1.1180 H     1 <1>   0.0800 
 41 H        5.7000     4.3680     0.2930 H     1 <1>   0.0800 
 42 H       10.4060     4.9270    -1.3740 H     1 <1>   0.1500 
 43 H       10.4180     5.5330     1.2490 H     1 <1>   0.1500 
 44 H        8.7190     5.4170     3.1170 H     1 <1>   0.0800 
 45 H        7.9950     3.8210     3.0310 H     1 <1>   0.0800 
 46 H        7.0500     5.2400     2.6100 H     1 <1>   0.0800 
@<TRIPOS>BOND
  1   1   2  ar  
  2   2   3  ar  
  3   2   4  1   
  4   4   5  1   
  5   4   6  1   
  6   4   7  1   
  7   5   8  1   
  8   5   9  1   
  9   5  22  1   
 10   6  10  1   
 11   6  23  1   
 12   6  24  1   
 13   7  11  1   
 14   7  25  1   
 15   7  26  1   
 16   8  27  1   
 17   9  12  1   
 18   9  28  1   
 19   9  29  1   
 20  10  12  1   
 21  10  30  1   
 22  10  31  1   
 23  11  13  1   
 24  11  32  1   
 25  11  33  1   
 26  12  14  1   
 27  12  34  1   
 28  13  35  1   
 29  13  36  1   
 30  13  37  1   
 31  14  15  1   
 32  14  38  1   
 33  14  39  1   
 34  15  16  1   
 35  15  40  1   
 36  15  41  1   
 37  16  17  2   
 38  16  18  1   
 39  17  19  1   
 40  18  20  1   
 41  18  21  1   
 42  19  20  2   
 43  19  42  1   
 44  20  43  1   
 45  21  44  1   
 46  21  45  1   
 47  21  46  1   
@<TRIPOS>SUBSTRUCTURE
  1 ****  12 GROUP 4 **** **** 0

# MOE 2024.06 (io_trps.svl 2023.06)
