@<TRIPOS>MOLECULE
NONAME
54 56 1 0 0 
SMALL
USER_CHARGES


@<TRIPOS>ATOM
  1 O       -0.6310     0.2360     1.9810 O.2   1 <1>  -0.5700 
  2 C       -1.4880     0.9150     1.4510 C.2   1 <1>   0.5440 
  3 N       -2.4920     0.2850     0.7550 N.am  1 <1>  -0.6600 
  4 C       -1.4360     2.3590     1.5520 C.ar  1 <1>   0.0860 
  5 C       -3.5060     0.9510    -0.1030 C.3   1 <1>   0.1400 
  6 C       -2.5270    -1.1840     0.5380 C.3   1 <1>   0.1400 
  7 C       -0.3970     3.0760     0.9670 C.ar  1 <1>  -0.1500 
  8 C       -2.4190     3.0770     2.2310 C.ar  1 <1>  -0.1500 
  9 C       -4.4940    -0.1620    -0.4440 C.3   1 <1>   0.2000 
 10 C       -3.6080    -1.4080    -0.5250 C.3   1 <1>  -0.0800 
 11 C       -0.3400     4.4570     1.0340 C.ar  1 <1>   0.0830 
 12 C       -2.3750     4.4580     2.3090 C.ar  1 <1>  -0.1500 
 13 O       -5.3750    -0.2880     0.6210 O.3   1 <1>  -0.6800 
 14 C       -4.3420    -2.7550    -0.3930 C.3   1 <1>   0.0210 
 15 O        0.7110     5.0540     0.4210 O.3   1 <1>  -0.3630 
 16 C       -1.3390     5.1520     1.7110 C.ar  1 <1>  -0.1500 
 17 C       -3.3660    -3.9100    -0.4960 C.2   1 <1>   0.1080 
 18 C        0.8930     6.4530     0.4760 C.3   1 <1>   0.1200 
 19 N       -2.6830    -4.1610    -1.5700 N.2   1 <1>  -0.7070 
 20 C       -3.0830    -4.8080     0.5280 C.2   1 <1>  -0.1500 
 21 C        2.1700     6.8040    -0.2790 C.3   1 <1>   0.1200 
 22 N       -1.9400    -5.2390    -1.2560 N.pl3 1 <1>   0.3000 
 23 C       -2.1640    -5.6490     0.0100 C.2   1 <1>  -0.3320 
 24 O        2.3370     8.1850    -0.2320 O.3   1 <1>  -0.5600 
 25 C       -1.4740    -6.8350     0.6560 C.3   1 <1>  -0.0600 
 26 C        3.4720     8.6380    -0.8880 C.3   1 <1>   0.1200 
 27 C        3.5100    10.1540    -0.7470 C.3   1 <1>  -0.2400 
 28 H       -3.9910     1.7710     0.3970 H     1 <1>   0.0800 
 29 H       -3.0260     1.3050    -0.9990 H     1 <1>   0.0800 
 30 H       -1.5680    -1.5470     0.2040 H     1 <1>   0.0800 
 31 H       -2.7830    -1.6700     1.4640 H     1 <1>   0.0800 
 32 H        0.3810     2.5430     0.4510 H     1 <1>   0.1500 
 33 H       -3.2230     2.5400     2.7040 H     1 <1>   0.1500 
 34 H       -5.0580     0.0260    -1.3410 H     1 <1>   0.0800 
 35 H       -3.1160    -1.3950    -1.4820 H     1 <1>   0.0800 
 36 H       -3.1450     4.9930     2.8380 H     1 <1>   0.1500 
 37 H       -4.8500    -0.3330     1.4460 H     1 <1>   0.4000 
 38 H       -5.0680    -2.8470    -1.1790 H     1 <1>   0.0800 
 39 H       -4.8600    -2.8160     0.5470 H     1 <1>   0.0800 
 40 H       -1.3250     6.2240     1.7830 H     1 <1>   0.1500 
 41 H        0.0460     6.9260     0.0110 H     1 <1>   0.0800 
 42 H        0.9790     6.7460     1.5070 H     1 <1>   0.0800 
 43 H       -3.5190    -4.8080     1.5110 H     1 <1>   0.1500 
 44 H        2.0890     6.5000    -1.3080 H     1 <1>   0.0800 
 45 H        3.0190     6.3370     0.1900 H     1 <1>   0.0800 
 46 H       -1.2920    -5.6680    -1.9270 H     1 <1>   0.2700 
 47 H       -1.8190    -6.9580     1.6680 H     1 <1>   0.0800 
 48 H       -0.4090    -6.6820     0.6760 H     1 <1>   0.0800 
 49 H       -1.6900    -7.7350     0.1090 H     1 <1>   0.0800 
 50 H        4.3400     8.1920    -0.4320 H     1 <1>   0.0800 
 51 H        3.4120     8.3540    -1.9260 H     1 <1>   0.0800 
 52 H        3.5560    10.4260     0.2930 H     1 <1>   0.0800 
 53 H        2.6330    10.5870    -1.1930 H     1 <1>   0.0800 
 54 H        4.3790    10.5450    -1.2440 H     1 <1>   0.0800 
@<TRIPOS>BOND
  1   1   2  2   
  2   2   3  am  
  3   2   4  1   
  4   3   5  1   
  5   3   6  1   
  6   4   7  ar  
  7   4   8  ar  
  8   5   9  1   
  9   5  28  1   
 10   5  29  1   
 11   6  10  1   
 12   6  30  1   
 13   6  31  1   
 14   7  11  ar  
 15   7  32  1   
 16   8  12  ar  
 17   8  33  1   
 18   9  10  1   
 19   9  13  1   
 20   9  34  1   
 21  10  14  1   
 22  10  35  1   
 23  11  15  1   
 24  11  16  ar  
 25  12  16  ar  
 26  12  36  1   
 27  13  37  1   
 28  14  17  1   
 29  14  38  1   
 30  14  39  1   
 31  15  18  1   
 32  16  40  1   
 33  17  19  2   
 34  17  20  1   
 35  18  21  1   
 36  18  41  1   
 37  18  42  1   
 38  19  22  1   
 39  20  23  2   
 40  20  43  1   
 41  21  24  1   
 42  21  44  1   
 43  21  45  1   
 44  22  23  1   
 45  22  46  1   
 46  23  25  1   
 47  24  26  1   
 48  25  47  1   
 49  25  48  1   
 50  25  49  1   
 51  26  27  1   
 52  26  50  1   
 53  26  51  1   
 54  27  52  1   
 55  27  53  1   
 56  27  54  1   
@<TRIPOS>SUBSTRUCTURE
  1 ****   2 GROUP 4 **** **** 0

# MOE 2024.06 (io_trps.svl 2023.06)
