@<TRIPOS>MOLECULE
NONAME
44 46 1 0 0 
SMALL
USER_CHARGES


@<TRIPOS>ATOM
  1 S        1.7750    -0.0610     0.4960 S.3   1 <1>  -0.0800 
  2 C        0.5280    -0.6720    -0.5680 C.2   1 <1>   0.4620 
  3 C        1.7770    -1.5890     1.3190 C.2   1 <1>  -0.1100 
  4 N        0.1650    -1.8710    -0.3240 N.2   1 <1>  -0.5650 
  5 N        0.0500     0.1340    -1.5450 N.pl3 1 <1>  -0.8840 
  6 C        0.8660    -2.4190     0.7650 C.2   1 <1>   0.1410 
  7 C        0.6350    -3.7890     1.2220 C.2   1 <1>   0.7160 
  8 O        1.5790    -4.4300     1.6500 O.2   1 <1>  -0.5700 
  9 N       -0.6010    -4.4060     1.1980 N.am  1 <1>  -0.6600 
 10 C       -0.7410    -5.8900     1.0890 C.3   1 <1>   0.1400 
 11 C       -1.9030    -3.7100     0.9850 C.3   1 <1>   0.1400 
 12 C       -1.4480    -6.2690    -0.2290 C.3   1 <1>   0.3430 
 13 C       -2.5120    -4.1550    -0.3610 C.3   1 <1>   0.2000 
 14 O       -2.6510    -5.5520    -0.3690 O.3   1 <1>  -0.5600 
 15 C       -1.7400    -7.7660    -0.2700 C.ar  1 <1>  -0.1430 
 16 C       -3.8900    -3.5300    -0.6760 C.3   1 <1>  -0.0800 
 17 C       -0.8290    -8.6280    -0.8640 C.ar  1 <1>  -0.1500 
 18 C       -2.8980    -8.2910     0.2890 C.ar  1 <1>  -0.1500 
 19 C       -3.8000    -2.0040    -0.8350 C.3   1 <1>  -0.2400 
 20 C       -4.9770    -3.8800     0.3550 C.3   1 <1>  -0.2400 
 21 C       -1.0680    -9.9910    -0.8970 C.ar  1 <1>  -0.1500 
 22 C       -3.1390    -9.6540     0.2560 C.ar  1 <1>  -0.1500 
 23 C       -2.2240   -10.5050    -0.3360 C.ar  1 <1>  -0.1500 
 24 H        2.4610    -1.7290     2.1370 H     1 <1>   0.1500 
 25 H        0.4790     1.0370    -1.7510 H     1 <1>   0.4000 
 26 H       -0.5820    -0.2490    -2.2480 H     1 <1>   0.4000 
 27 H        0.2220    -6.3680     1.1190 H     1 <1>   0.0800 
 28 H       -1.3160    -6.2570     1.9200 H     1 <1>   0.0800 
 29 H       -2.5710    -3.9740     1.7840 H     1 <1>   0.0800 
 30 H       -1.7780    -2.6440     1.0110 H     1 <1>   0.0800 
 31 H       -0.8170    -6.0080    -1.0600 H     1 <1>   0.0800 
 32 H       -1.8330    -3.8890    -1.1540 H     1 <1>   0.0800 
 33 H       -4.1980    -3.9320    -1.6270 H     1 <1>   0.0800 
 34 H        0.0750    -8.2430    -1.3030 H     1 <1>   0.1500 
 35 H       -3.6170    -7.6350     0.7480 H     1 <1>   0.1500 
 36 H       -3.5710    -1.5270     0.1000 H     1 <1>   0.0800 
 37 H       -4.7370    -1.6150    -1.1920 H     1 <1>   0.0800 
 38 H       -3.0350    -1.7480    -1.5480 H     1 <1>   0.0800 
 39 H       -4.7590    -3.4480     1.3150 H     1 <1>   0.0800 
 40 H       -5.0550    -4.9480     0.4660 H     1 <1>   0.0800 
 41 H       -5.9310    -3.5090     0.0260 H     1 <1>   0.0800 
 42 H       -0.3560   -10.6510    -1.3600 H     1 <1>   0.1500 
 43 H       -4.0400   -10.0490     0.6910 H     1 <1>   0.1500 
 44 H       -2.4110   -11.5640    -0.3620 H     1 <1>   0.1500 
@<TRIPOS>BOND
  1   1   2  1   
  2   1   3  1   
  3   2   4  2   
  4   2   5  1   
  5   3   6  2   
  6   3  24  1   
  7   4   6  1   
  8   5  25  1   
  9   5  26  1   
 10   6   7  1   
 11   7   8  2   
 12   7   9  am  
 13   9  10  1   
 14   9  11  1   
 15  10  12  1   
 16  10  27  1   
 17  10  28  1   
 18  11  13  1   
 19  11  29  1   
 20  11  30  1   
 21  12  14  1   
 22  12  15  1   
 23  12  31  1   
 24  13  14  1   
 25  13  16  1   
 26  13  32  1   
 27  15  17  ar  
 28  15  18  ar  
 29  16  19  1   
 30  16  20  1   
 31  16  33  1   
 32  17  21  ar  
 33  17  34  1   
 34  18  22  ar  
 35  18  35  1   
 36  19  36  1   
 37  19  37  1   
 38  19  38  1   
 39  20  39  1   
 40  20  40  1   
 41  20  41  1   
 42  21  23  ar  
 43  21  42  1   
 44  22  23  ar  
 45  22  43  1   
 46  23  44  1   
@<TRIPOS>SUBSTRUCTURE
  1 ****   9 GROUP 4 **** **** 0

# MOE 2024.06 (io_trps.svl 2023.06)
