@<TRIPOS>MOLECULE
NONAME
52 56 1 0 0 
SMALL
USER_CHARGES


@<TRIPOS>ATOM
  1 CL       1.0860     0.4460    -0.8270 Cl    1 <1>  -0.1770 
  2 C        0.6820     1.9550    -0.0380 C.ar  1 <1>   0.1770 
  3 C        1.6460     2.7190     0.6140 C.ar  1 <1>  -0.1440 
  4 C       -0.6410     2.3540    -0.0930 C.ar  1 <1>  -0.1500 
  5 C        1.2410     3.9070     1.2120 C.ar  1 <1>  -0.1500 
  6 C        3.1170     2.3200     0.7000 C.3   1 <1>   0.3640 
  7 C       -1.0250     3.5390     0.5090 C.ar  1 <1>  -0.1500 
  8 C       -0.0820     4.3130     1.1600 C.ar  1 <1>  -0.1500 
  9 N        3.2410     1.0130     1.3880 N.am  1 <1>  -0.7300 
 10 C        3.8290     2.3450    -0.6770 C.3   1 <1>   0.2610 
 11 C        4.0310     0.0110     0.9400 C.2   1 <1>   0.5690 
 12 O        5.0180     1.5670    -0.6710 O.3   1 <1>  -0.5600 
 13 C        4.0600     3.8010    -1.1010 C.2   1 <1>   0.5690 
 14 O        4.1170    -1.0230     1.5520 O.2   1 <1>  -0.5700 
 15 C        4.8080     0.2050    -0.3650 C.3   1 <1>   0.1810 
 16 O        3.3910     4.1990    -2.0270 O.2   1 <1>  -0.5700 
 17 N        4.9210     4.6500    -0.4420 N.am  1 <1>  -0.6600 
 18 C        4.9250     6.2850    -0.9300 C.3   1 <1>   0.2200 
 19 C        6.0840     4.0910     0.7420 C.3   1 <1>   0.1400 
 20 C        4.5210     6.7290     0.3870 C.3   1 <1>  -0.1600 
 21 C        6.1570     7.5100    -1.2270 C.3   1 <1>  -0.1600 
 22 C        7.5910     4.9540     0.8830 C.3   1 <1>  -0.0800 
 23 C        5.9270     6.4870     0.9260 C.3   1 <1>  -0.0800 
 24 C        7.3480     7.7780     0.0550 C.3   1 <1>  -0.0800 
 25 C        7.1080     5.4480    -0.1940 C.3   1 <1>  -0.1600 
 26 C        8.3050     6.5220     0.8540 C.3   1 <1>  -0.1600 
 27 C        6.4380     7.9060     1.1750 C.3   1 <1>  -0.1600 
 28 H       -1.3610     1.7420    -0.6050 H     1 <1>   0.1500 
 29 H        1.9530     4.5330     1.7230 H     1 <1>   0.1500 
 30 H        3.6110     3.0400     1.3260 H     1 <1>   0.0800 
 31 H       -2.0530     3.8570     0.4690 H     1 <1>   0.1500 
 32 H       -0.3790     5.2370     1.6260 H     1 <1>   0.1500 
 33 H        2.6760     0.8550     2.2220 H     1 <1>   0.3700 
 34 H        3.1850     1.9100    -1.4170 H     1 <1>   0.0800 
 35 H        4.2680    -0.2480    -1.1770 H     1 <1>   0.0800 
 36 H        5.7710    -0.2650    -0.2820 H     1 <1>   0.0800 
 37 H        4.1210     6.4420    -1.6290 H     1 <1>   0.0800 
 38 H        5.6080     4.0410     1.7060 H     1 <1>   0.0800 
 39 H        6.3450     3.0750     0.5100 H     1 <1>   0.0800 
 40 H        4.1430     7.7350     0.3530 H     1 <1>   0.0800 
 41 H        3.7650     6.1200     0.8540 H     1 <1>   0.0800 
 42 H        6.6520     7.2890    -2.1570 H     1 <1>   0.0800 
 43 H        5.6480     8.4420    -1.3960 H     1 <1>   0.0800 
 44 H        8.3790     4.2450     0.6940 H     1 <1>   0.0800 
 45 H        5.7850     6.1280     1.9380 H     1 <1>   0.0800 
 46 H        7.9150     8.6810    -0.0930 H     1 <1>   0.0800 
 47 H        7.7870     5.8180    -0.9920 H     1 <1>   0.0800 
 48 H        7.0400     4.6590    -0.9750 H     1 <1>   0.0800 
 49 H        8.5750     6.7940     1.8610 H     1 <1>   0.0800 
 50 H        9.2640     6.4670     0.3560 H     1 <1>   0.0800 
 51 H        6.9160     8.0350     2.1310 H     1 <1>   0.0800 
 52 H        5.7670     8.7370     1.0400 H     1 <1>   0.0800 
@<TRIPOS>BOND
  1   1   2  1   
  2   2   3  ar  
  3   2   4  ar  
  4   3   5  ar  
  5   3   6  1   
  6   4   7  ar  
  7   4  28  1   
  8   5   8  ar  
  9   5  29  1   
 10   6   9  1   
 11   6  10  1   
 12   6  30  1   
 13   7   8  ar  
 14   7  31  1   
 15   8  32  1   
 16   9  11  am  
 17   9  33  1   
 18  10  12  1   
 19  10  13  1   
 20  10  34  1   
 21  11  14  2   
 22  11  15  1   
 23  12  15  1   
 24  13  16  2   
 25  13  17  am  
 26  15  35  1   
 27  15  36  1   
 28  17  18  1   
 29  17  19  1   
 30  18  20  1   
 31  18  21  1   
 32  18  37  1   
 33  19  22  1   
 34  19  38  1   
 35  19  39  1   
 36  20  23  1   
 37  20  40  1   
 38  20  41  1   
 39  21  24  1   
 40  21  42  1   
 41  21  43  1   
 42  22  25  1   
 43  22  26  1   
 44  22  44  1   
 45  23  25  1   
 46  23  27  1   
 47  23  45  1   
 48  24  26  1   
 49  24  27  1   
 50  24  46  1   
 51  25  47  1   
 52  25  48  1   
 53  26  49  1   
 54  26  50  1   
 55  27  51  1   
 56  27  52  1   
@<TRIPOS>SUBSTRUCTURE
  1 ****  13 GROUP 4 **** **** 0

# MOE 2024.06 (io_trps.svl 2023.06)
