@<TRIPOS>MOLECULE
NONAME
45 47 1 0 0 
SMALL
USER_CHARGES


@<TRIPOS>ATOM
  1 O       -1.2690     0.5520    -1.3230 O.2   1 <1>  -0.5700 
  2 C       -1.6130     1.0070    -0.2500 C.2   1 <1>   0.7150 
  3 N       -2.0970     0.1520     0.6870 N.am  1 <1>  -0.7300 
  4 C       -1.5430     2.4060     0.0580 C.2   1 <1>  -0.2370 
  5 C       -2.2580    -1.3090     0.5260 C.3   1 <1>   0.2200 
  6 N       -0.9010     3.3560    -0.6790 N.pl3 1 <1>   0.3140 
  7 C       -2.0790     3.0810     1.1150 C.2   1 <1>  -0.1500 
  8 C       -3.7220    -1.6200     0.2620 C.3   1 <1>  -0.0800 
  9 C       -2.0340    -1.9950     1.8680 C.3   1 <1>   0.1200 
 10 N       -1.0150     4.5780    -0.1310 N.2   1 <1>  -0.7070 
 11 C       -0.1190     3.1940    -1.9300 C.3   1 <1>   0.0960 
 12 C       -1.7200     4.4030     0.9390 C.2   1 <1>   0.1080 
 13 C       -4.3070    -1.6710     1.6780 C.3   1 <1>   0.1200 
 14 C       -3.8880    -2.9540    -0.4900 C.3   1 <1>  -0.0160 
 15 O       -3.2420    -1.8830     2.5600 O.3   1 <1>  -0.5600 
 16 C        1.2910     2.6620    -1.6430 C.3   1 <1>  -0.2400 
 17 C       -2.0800     5.5480     1.8570 C.3   1 <1>  -0.0590 
 18 C       -5.3520    -3.2510    -0.7770 C.ar  1 <1>  -0.1430 
 19 C       -6.0500    -2.5730    -1.7570 C.ar  1 <1>  -0.1500 
 20 C       -6.0580    -4.2100    -0.0790 C.ar  1 <1>  -0.1500 
 21 C       -7.3830    -2.8740    -1.9800 C.ar  1 <1>   0.1600 
 22 C       -7.3910    -4.4340    -0.3820 C.ar  1 <1>   0.1600 
 23 N       -8.0710    -3.7870    -1.3150 N.ar  1 <1>  -0.6200 
 24 H       -2.4050     0.5240     1.5850 H     1 <1>   0.3700 
 25 H       -1.5960    -1.6800    -0.2380 H     1 <1>   0.0800 
 26 H       -2.6640     2.6990     1.9300 H     1 <1>   0.1500 
 27 H       -4.1850    -0.8400    -0.3170 H     1 <1>   0.0800 
 28 H       -1.2440    -1.5430     2.4410 H     1 <1>   0.0800 
 29 H       -1.8320    -3.0430     1.7320 H     1 <1>   0.0800 
 30 H       -0.6470     2.5380    -2.5950 H     1 <1>   0.0800 
 31 H       -0.0490     4.1580    -2.4020 H     1 <1>   0.0800 
 32 H       -5.0290    -2.4580     1.8090 H     1 <1>   0.0800 
 33 H       -4.7590    -0.7290     1.9370 H     1 <1>   0.0800 
 34 H       -3.4610    -3.7610     0.0800 H     1 <1>   0.0800 
 35 H       -3.3590    -2.9030    -1.4260 H     1 <1>   0.0800 
 36 H        1.2420     1.6860    -1.1940 H     1 <1>   0.0800 
 37 H        1.8110     3.3340    -0.9820 H     1 <1>   0.0800 
 38 H        1.8440     2.5870    -2.5610 H     1 <1>   0.0800 
 39 H       -2.6640     5.1970     2.6870 H     1 <1>   0.0800 
 40 H       -2.6470     6.2790     1.3100 H     1 <1>   0.0800 
 41 H       -1.1820     6.0080     2.2240 H     1 <1>   0.0800 
 42 H       -5.5700    -1.8140    -2.3480 H     1 <1>   0.1500 
 43 H       -5.5880    -4.7840     0.6970 H     1 <1>   0.1500 
 44 H       -7.9110    -2.3350    -2.7480 H     1 <1>   0.1500 
 45 H       -7.9270    -5.1850     0.1740 H     1 <1>   0.1500 
@<TRIPOS>BOND
  1   1   2  2   
  2   2   3  am  
  3   2   4  1   
  4   3   5  1   
  5   3  24  1   
  6   4   6  1   
  7   4   7  2   
  8   5   8  1   
  9   5   9  1   
 10   5  25  1   
 11   6  10  1   
 12   6  11  1   
 13   7  12  1   
 14   7  26  1   
 15   8  13  1   
 16   8  14  1   
 17   8  27  1   
 18   9  15  1   
 19   9  28  1   
 20   9  29  1   
 21  10  12  2   
 22  11  16  1   
 23  11  30  1   
 24  11  31  1   
 25  12  17  1   
 26  13  15  1   
 27  13  32  1   
 28  13  33  1   
 29  14  18  1   
 30  14  34  1   
 31  14  35  1   
 32  16  36  1   
 33  16  37  1   
 34  16  38  1   
 35  17  39  1   
 36  17  40  1   
 37  17  41  1   
 38  18  19  ar  
 39  18  20  ar  
 40  19  21  ar  
 41  19  42  1   
 42  20  22  ar  
 43  20  43  1   
 44  21  23  ar  
 45  21  44  1   
 46  22  23  ar  
 47  22  45  1   
@<TRIPOS>SUBSTRUCTURE
  1 ****   3 GROUP 4 **** **** 0

# MOE 2024.06 (io_trps.svl 2023.06)
