@<TRIPOS>MOLECULE
NONAME
47 49 1 0 0 
SMALL
USER_CHARGES


@<TRIPOS>ATOM
  1 F       -0.8580    -1.3420    -1.4730 F     1 <1>  -0.1900 
  2 C       -1.6580    -1.6970    -0.5000 C.ar  1 <1>   0.1900 
  3 C       -2.3120    -0.7550     0.3010 C.ar  1 <1>   0.0820 
  4 C       -1.8260    -3.0570    -0.3180 C.ar  1 <1>  -0.1500 
  5 O       -2.2250     0.6010     0.2150 O.3   1 <1>  -0.3630 
  6 C       -3.1450    -1.2340     1.3000 C.ar  1 <1>  -0.1500 
  7 C       -2.6750    -3.5150     0.6810 C.ar  1 <1>  -0.1430 
  8 C       -1.3150     1.2630    -0.6370 C.3   1 <1>   0.0400 
  9 C       -3.3260    -2.5950     1.4920 C.ar  1 <1>  -0.1500 
 10 C       -2.8850    -5.0040     0.8710 C.3   1 <1>   0.4870 
 11 N       -3.8240    -5.4680    -0.1830 N.4   1 <1>  -0.9590 
 12 C       -3.8010    -6.9610    -0.3040 C.3   1 <1>   0.5660 
 13 C       -5.2160    -4.9470     0.0230 C.3   1 <1>   0.3430 
 14 C       -2.4170    -7.3630    -0.7950 C.ar  1 <1>  -0.1430 
 15 C       -4.9130    -7.5250    -1.2300 C.3   1 <1>   0.2000 
 16 C       -6.1950    -5.5410    -1.0040 C.3   1 <1>   0.1200 
 17 C       -1.6490    -8.2170    -0.0170 C.ar  1 <1>  -0.1500 
 18 C       -1.9020    -6.8900    -1.9970 C.ar  1 <1>  -0.1500 
 19 O       -6.1610    -6.9360    -0.9460 O.3   1 <1>  -0.5600 
 20 C       -5.0410    -9.0470    -1.0460 C.3   1 <1>   0.1200 
 21 C       -0.3780    -8.5810    -0.4240 C.ar  1 <1>  -0.1500 
 22 C       -0.6300    -7.2550    -2.4020 C.ar  1 <1>  -0.1500 
 23 O       -5.0680    -9.3650     0.3100 O.3   1 <1>  -0.6800 
 24 C        0.1330    -8.0980    -1.6150 C.ar  1 <1>  -0.1500 
 25 H       -1.2880    -3.7350    -0.9580 H     1 <1>   0.1500 
 26 H       -3.6520    -0.5250     1.9320 H     1 <1>   0.1500 
 27 H       -1.3950     2.3190    -0.4550 H     1 <1>   0.0800 
 28 H       -1.5740     1.0510    -1.6600 H     1 <1>   0.0800 
 29 H       -0.3170     0.9290    -0.4140 H     1 <1>   0.0800 
 30 H       -3.9780    -2.9200     2.2860 H     1 <1>   0.1500 
 31 H       -3.2840    -5.2070     1.8510 H     1 <1>   0.0800 
 32 H       -1.9350    -5.5060     0.7770 H     1 <1>   0.0800 
 33 H       -3.4650    -5.0980    -1.0670 H     1 <1>   0.4500 
 34 H       -3.9550    -7.3880     0.6740 H     1 <1>   0.0800 
 35 H       -5.5630    -5.2080     1.0100 H     1 <1>   0.0800 
 36 H       -5.2220    -3.8720    -0.0580 H     1 <1>   0.0800 
 37 H       -4.6870    -7.3190    -2.2600 H     1 <1>   0.0800 
 38 H       -5.9580    -5.2240    -2.0050 H     1 <1>   0.0800 
 39 H       -7.2010    -5.2310    -0.7760 H     1 <1>   0.0800 
 40 H       -2.0290    -8.6140     0.9110 H     1 <1>   0.1500 
 41 H       -2.4710    -6.2400    -2.6390 H     1 <1>   0.1500 
 42 H       -4.1990    -9.5540    -1.4870 H     1 <1>   0.0800 
 43 H       -5.9480    -9.4010    -1.5070 H     1 <1>   0.0800 
 44 H        0.2170    -9.2440     0.1830 H     1 <1>   0.1500 
 45 H       -0.2280    -6.8890    -3.3320 H     1 <1>   0.1500 
 46 H       -5.3890   -10.2830     0.4410 H     1 <1>   0.4000 
 47 H        1.1220    -8.3830    -1.9310 H     1 <1>   0.1500 
@<TRIPOS>BOND
  1   1   2  1   
  2   2   3  ar  
  3   2   4  ar  
  4   3   5  1   
  5   3   6  ar  
  6   4   7  ar  
  7   4  25  1   
  8   5   8  1   
  9   6   9  ar  
 10   6  26  1   
 11   7   9  ar  
 12   7  10  1   
 13   8  27  1   
 14   8  28  1   
 15   8  29  1   
 16   9  30  1   
 17  10  11  1   
 18  10  31  1   
 19  10  32  1   
 20  11  12  1   
 21  11  13  1   
 22  11  33  1   
 23  12  14  1   
 24  12  15  1   
 25  12  34  1   
 26  13  16  1   
 27  13  35  1   
 28  13  36  1   
 29  14  17  ar  
 30  14  18  ar  
 31  15  19  1   
 32  15  20  1   
 33  15  37  1   
 34  16  19  1   
 35  16  38  1   
 36  16  39  1   
 37  17  21  ar  
 38  17  40  1   
 39  18  22  ar  
 40  18  41  1   
 41  20  23  1   
 42  20  42  1   
 43  20  43  1   
 44  21  24  ar  
 45  21  44  1   
 46  22  24  ar  
 47  22  45  1   
 48  23  46  1   
 49  24  47  1   
@<TRIPOS>SUBSTRUCTURE
  1 ****  11 GROUP 4 **** **** 0

# MOE 2024.06 (io_trps.svl 2023.06)
