@<TRIPOS>MOLECULE
NONAME
51 53 1 0 0 
SMALL
USER_CHARGES


@<TRIPOS>ATOM
  1 S        0.0070    -0.1280     1.6390 S.o2  1 <1>   1.5010 
  2 O        0.6490    -1.1290     2.4640 O.2   1 <1>  -0.6500 
  3 O       -0.9200     0.8180     2.2190 O.2   1 <1>  -0.6500 
  4 N       -0.8350    -0.9830     0.4400 N.am  1 <1>  -0.8490 
  5 C        1.2580     0.7340     0.6810 C.2   1 <1>  -0.0630 
  6 C       -1.5720    -2.1340     1.0050 C.3   1 <1>   0.1960 
  7 C       -1.6120    -0.1280    -0.4870 C.3   1 <1>   0.1960 
  8 C        2.3220     0.1020     0.0540 C.2   1 <1>   0.1390 
  9 C        1.4200     2.0410     0.3530 C.2   1 <1>  -0.3020 
 10 C       -2.5240    -2.6960    -0.0690 C.3   1 <1>   0.4230 
 11 C       -3.1320    -0.2400    -0.2820 C.3   1 <1>  -0.1600 
 12 N        3.0760     0.9260    -0.6070 N.2   1 <1>  -0.7070 
 13 N        2.5210     2.1330    -0.4140 N.pl3 1 <1>   0.3140 
 14 N       -3.0480    -4.0910     0.1030 N.4   1 <1>  -0.9590 
 15 C       -3.6820    -1.7010    -0.2630 C.3   1 <1>  -0.1060 
 16 C        3.0990     3.3630    -0.9930 C.3   1 <1>   0.0960 
 17 C       -3.7640    -4.5450    -1.1220 C.3   1 <1>   0.3430 
 18 C       -2.0700    -5.0900     0.6090 C.3   1 <1>   0.2630 
 19 C       -4.6950    -1.8180     0.8900 C.2   1 <1>   0.9060 
 20 C       -4.3620    -2.0820    -1.5980 C.3   1 <1>  -0.1600 
 21 C        3.9370     4.1180     0.0490 C.3   1 <1>  -0.1600 
 22 C       -4.8480    -3.5450    -1.5510 C.3   1 <1>  -0.1600 
 23 O       -4.5390    -2.6980     1.7510 O.co2 1 <1>  -0.9000 
 24 O       -5.6740    -1.0770     0.8900 O.co2 1 <1>  -0.9000 
 25 C        4.5410     5.3970    -0.5410 C.3   1 <1>  -0.2400 
 26 H       -0.8560    -2.8750     1.3080 H     1 <1>   0.0800 
 27 H       -2.1340    -1.8250     1.8730 H     1 <1>   0.0800 
 28 H       -1.3170     0.9050    -0.3930 H     1 <1>   0.0800 
 29 H       -1.3810    -0.4290    -1.4950 H     1 <1>   0.0800 
 30 H        2.5060    -0.9590     0.1060 H     1 <1>   0.1500 
 31 H        0.8170     2.8870     0.6290 H     1 <1>   0.1500 
 32 H       -1.9460    -2.6980    -0.9770 H     1 <1>   0.0800 
 33 H       -3.3540     0.2380     0.6590 H     1 <1>   0.0800 
 34 H       -3.6440     0.3380    -1.0310 H     1 <1>   0.0800 
 35 H       -3.7740    -3.9340     0.8550 H     1 <1>   0.4500 
 36 H        3.7160     3.0830    -1.8280 H     1 <1>   0.0800 
 37 H        2.2970     3.9830    -1.3500 H     1 <1>   0.0800 
 38 H       -3.0530    -4.6560    -1.9240 H     1 <1>   0.0800 
 39 H       -4.2210    -5.5040    -0.9410 H     1 <1>   0.0800 
 40 H       -1.2470    -5.1910    -0.0790 H     1 <1>   0.0800 
 41 H       -2.5500    -6.0470     0.7270 H     1 <1>   0.0800 
 42 H       -1.6910    -4.7820     1.5700 H     1 <1>   0.0800 
 43 H       -5.2080    -1.4340    -1.7680 H     1 <1>   0.0800 
 44 H       -3.6740    -1.9500    -2.4160 H     1 <1>   0.0800 
 45 H        3.3180     4.3760     0.8920 H     1 <1>   0.0800 
 46 H        4.7320     3.4770     0.3930 H     1 <1>   0.0800 
 47 H       -5.2230    -3.8260    -2.5190 H     1 <1>   0.0800 
 48 H       -5.6760    -3.6230    -0.8640 H     1 <1>   0.0800 
 49 H        3.7660     6.0630    -0.8770 H     1 <1>   0.0800 
 50 H        5.1830     5.1610    -1.3730 H     1 <1>   0.0800 
 51 H        5.1270     5.9040     0.2060 H     1 <1>   0.0800 
@<TRIPOS>BOND
  1   1   2  2   
  2   1   3  2   
  3   1   4  am  
  4   1   5  1   
  5   4   6  1   
  6   4   7  1   
  7   5   8  1   
  8   5   9  2   
  9   6  10  1   
 10   6  26  1   
 11   6  27  1   
 12   7  11  1   
 13   7  28  1   
 14   7  29  1   
 15   8  12  2   
 16   8  30  1   
 17   9  13  1   
 18   9  31  1   
 19  10  14  1   
 20  10  15  1   
 21  10  32  1   
 22  11  15  1   
 23  11  33  1   
 24  11  34  1   
 25  12  13  1   
 26  13  16  1   
 27  14  17  1   
 28  14  18  1   
 29  14  35  1   
 30  15  19  1   
 31  15  20  1   
 32  16  21  1   
 33  16  36  1   
 34  16  37  1   
 35  17  22  1   
 36  17  38  1   
 37  17  39  1   
 38  18  40  1   
 39  18  41  1   
 40  18  42  1   
 41  19  23  ar  
 42  19  24  ar  
 43  20  22  1   
 44  20  43  1   
 45  20  44  1   
 46  21  25  1   
 47  21  45  1   
 48  21  46  1   
 49  22  47  1   
 50  22  48  1   
 51  25  49  1   
 52  25  50  1   
 53  25  51  1   
@<TRIPOS>SUBSTRUCTURE
  1 ****   4 GROUP 4 **** **** 0

# MOE 2024.06 (io_trps.svl 2023.06)
