@<TRIPOS>MOLECULE
NONAME
51 53 1 0 0 
SMALL
USER_CHARGES


@<TRIPOS>ATOM
  1 O       -0.0140    -0.6620    -0.0020 O.3   1 <1>  -0.3630 
  2 C        1.0690     0.1040     0.2830 C.ar  1 <1>   0.0830 
  3 C        0.0280    -2.0610     0.1210 C.3   1 <1>   0.1200 
  4 C        2.2970    -0.4090     0.6940 C.ar  1 <1>  -0.1500 
  5 C        0.9130     1.4750     0.1500 C.ar  1 <1>  -0.1500 
  6 C       -1.3530    -2.5880    -0.2780 C.3   1 <1>   0.3430 
  7 C        3.3490     0.4490     0.9660 C.ar  1 <1>  -0.1500 
  8 C        1.9660     2.3300     0.4220 C.ar  1 <1>  -0.1500 
  9 N       -1.4370    -4.0850    -0.2460 N.4   1 <1>  -0.9590 
 10 C        3.1840     1.8170     0.8300 C.ar  1 <1>  -0.1500 
 11 C       -2.6830    -4.5520    -0.9030 C.3   1 <1>   0.5230 
 12 C       -1.3100    -4.6480     1.1400 C.3   1 <1>   0.2630 
 13 C       -2.5790    -6.0500    -1.0530 C.2   1 <1>  -0.3320 
 14 N       -3.5000    -6.9560    -0.6350 N.pl3 1 <1>   0.0480 
 15 C       -1.5760    -6.7560    -1.6240 C.2   1 <1>   0.0770 
 16 C       -2.9620    -8.1510    -0.9730 C.2   1 <1>   0.0360 
 17 C       -4.8310    -6.8090     0.0190 C.3   1 <1>   0.1760 
 18 N       -1.8130    -8.0700    -1.5570 N.2   1 <1>  -0.5650 
 19 C       -5.8040    -6.0050    -0.8610 C.3   1 <1>  -0.1600 
 20 C       -4.7000    -6.2070     1.4300 C.3   1 <1>  -0.1600 
 21 C       -7.1740    -5.8720    -0.1810 C.3   1 <1>  -0.1600 
 22 C       -6.0760    -6.0760     2.0970 C.3   1 <1>  -0.1600 
 23 C       -7.0450    -5.2670     1.2240 C.3   1 <1>  -0.1600 
 24 H        0.2580    -2.2950     1.1450 H     1 <1>   0.0800 
 25 H        0.7890    -2.4300    -0.5430 H     1 <1>   0.0800 
 26 H        2.4620    -1.4630     0.8100 H     1 <1>   0.1500 
 27 H       -0.0340     1.8720    -0.1680 H     1 <1>   0.1500 
 28 H       -1.5620    -2.2400    -1.2770 H     1 <1>   0.0800 
 29 H       -2.0900    -2.1680     0.3880 H     1 <1>   0.0800 
 30 H        4.3000     0.0570     1.2840 H     1 <1>   0.1500 
 31 H        1.8380     3.3940     0.3160 H     1 <1>   0.1500 
 32 H       -0.6740    -4.4770    -0.8140 H     1 <1>   0.4500 
 33 H        4.0040     2.4820     1.0420 H     1 <1>   0.1500 
 34 H       -2.7850    -4.1030    -1.8780 H     1 <1>   0.0800 
 35 H       -3.5410    -4.2840    -0.3100 H     1 <1>   0.0800 
 36 H       -2.1010    -4.2790     1.7710 H     1 <1>   0.0800 
 37 H       -0.3630    -4.3720     1.5750 H     1 <1>   0.0800 
 38 H       -1.3660    -5.7250     1.1120 H     1 <1>   0.0800 
 39 H       -0.6730    -6.3990    -2.0930 H     1 <1>   0.1500 
 40 H       -3.4610    -9.0830    -0.7680 H     1 <1>   0.1500 
 41 H       -5.2420    -7.7980     0.1290 H     1 <1>   0.0800 
 42 H       -5.9300    -6.5050    -1.8060 H     1 <1>   0.0800 
 43 H       -5.4240    -5.0190    -1.0480 H     1 <1>   0.0800 
 44 H       -4.2560    -5.2320     1.3850 H     1 <1>   0.0800 
 45 H       -4.0780    -6.8440     2.0350 H     1 <1>   0.0800 
 46 H       -7.6340    -6.8440    -0.1070 H     1 <1>   0.0800 
 47 H       -7.8200    -5.2540    -0.7810 H     1 <1>   0.0800 
 48 H       -5.9730    -5.5990     3.0570 H     1 <1>   0.0800 
 49 H       -6.4890    -7.0570     2.2670 H     1 <1>   0.0800 
 50 H       -8.0150    -5.2460     1.6930 H     1 <1>   0.0800 
 51 H       -6.7010    -4.2500     1.1480 H     1 <1>   0.0800 
@<TRIPOS>BOND
  1   1   2  1   
  2   1   3  1   
  3   2   4  ar  
  4   2   5  ar  
  5   3   6  1   
  6   3  24  1   
  7   3  25  1   
  8   4   7  ar  
  9   4  26  1   
 10   5   8  ar  
 11   5  27  1   
 12   6   9  1   
 13   6  28  1   
 14   6  29  1   
 15   7  10  ar  
 16   7  30  1   
 17   8  10  ar  
 18   8  31  1   
 19   9  11  1   
 20   9  12  1   
 21   9  32  1   
 22  10  33  1   
 23  11  13  1   
 24  11  34  1   
 25  11  35  1   
 26  12  36  1   
 27  12  37  1   
 28  12  38  1   
 29  13  14  1   
 30  13  15  2   
 31  14  16  1   
 32  14  17  1   
 33  15  18  1   
 34  15  39  1   
 35  16  18  2   
 36  16  40  1   
 37  17  19  1   
 38  17  20  1   
 39  17  41  1   
 40  19  21  1   
 41  19  42  1   
 42  19  43  1   
 43  20  22  1   
 44  20  44  1   
 45  20  45  1   
 46  21  23  1   
 47  21  46  1   
 48  21  47  1   
 49  22  23  1   
 50  22  48  1   
 51  22  49  1   
 52  23  50  1   
 53  23  51  1   
@<TRIPOS>SUBSTRUCTURE
  1 ****   9 GROUP 4 **** **** 0

# MOE 2024.06 (io_trps.svl 2023.06)
