@<TRIPOS>MOLECULE
NONAME
50 52 1 0 0 
SMALL
USER_CHARGES


@<TRIPOS>ATOM
  1 F        0.2390    -0.7140    -1.1380 F     1 <1>  -0.1900 
  2 C        0.1010    -1.9530    -0.7510 C.ar  1 <1>   0.1900 
  3 C       -0.3070    -2.2060     0.5440 C.ar  1 <1>  -0.1500 
  4 C        0.3700    -2.9670    -1.6510 C.ar  1 <1>  -0.1500 
  5 C       -0.4520    -3.5230     0.9480 C.ar  1 <1>  -0.1500 
  6 C        0.2210    -4.2790    -1.2350 C.ar  1 <1>  -0.1500 
  7 C       -0.1890    -4.5600     0.0630 C.ar  1 <1>  -0.1430 
  8 C       -0.3580    -6.0040     0.5110 C.3   1 <1>  -0.0160 
  9 C       -1.7990    -6.4710     0.2620 C.3   1 <1>  -0.0990 
 10 C       -2.0660    -7.9020     0.7050 C.2   1 <1>   0.5690 
 11 O       -1.1260    -8.6200     0.9590 O.2   1 <1>  -0.5700 
 12 N       -3.3510    -8.3710     0.7890 N.am  1 <1>  -0.6600 
 13 C       -3.6400    -9.7310     1.3340 C.3   1 <1>   0.1400 
 14 C       -4.5500    -7.7180     0.1870 C.3   1 <1>   0.1400 
 15 C       -4.1180   -10.6430     0.1810 C.3   1 <1>   0.4230 
 16 C       -5.0710    -8.6100    -0.9510 C.3   1 <1>  -0.1600 
 17 N       -4.3480   -12.0750     0.5750 N.4   1 <1>  -0.9590 
 18 C       -5.3920   -10.0530    -0.4640 C.3   1 <1>  -0.1060 
 19 C       -4.6810   -12.9280    -0.5930 C.3   1 <1>   0.3430 
 20 C       -3.2960   -12.6760     1.4380 C.3   1 <1>   0.2630 
 21 C       -6.5170   -10.0320     0.5900 C.2   1 <1>   0.9060 
 22 C       -5.8000   -10.9130    -1.6840 C.3   1 <1>  -0.1600 
 23 C       -5.9270   -12.3970    -1.3070 C.3   1 <1>  -0.1600 
 24 O       -6.5400   -10.9170     1.4610 O.co2 1 <1>  -0.9000 
 25 O       -7.3580    -9.1350     0.5610 O.co2 1 <1>  -0.9000 
 26 H       -0.5050    -1.3910     1.2160 H     1 <1>   0.1500 
 27 H        0.6870    -2.7310    -2.6500 H     1 <1>   0.1500 
 28 H       -0.7690    -3.7360     1.9540 H     1 <1>   0.1500 
 29 H        0.4270    -5.0800    -1.9240 H     1 <1>   0.1500 
 30 H        0.3290    -6.6340    -0.0280 H     1 <1>   0.0800 
 31 H       -0.1230    -6.0910     1.5580 H     1 <1>   0.0800 
 32 H       -2.0160    -6.3930    -0.7870 H     1 <1>   0.0800 
 33 H       -2.4640    -5.8190     0.7970 H     1 <1>   0.0800 
 34 H       -2.7520   -10.1330     1.7840 H     1 <1>   0.0800 
 35 H       -4.3950    -9.6500     2.0970 H     1 <1>   0.0800 
 36 H       -5.3100    -7.5960     0.9430 H     1 <1>   0.0800 
 37 H       -4.3190    -6.7420    -0.2020 H     1 <1>   0.0800 
 38 H       -3.3370   -10.6300    -0.5590 H     1 <1>   0.0800 
 39 H       -5.9620    -8.1610    -1.3550 H     1 <1>   0.0800 
 40 H       -4.3360    -8.6300    -1.7360 H     1 <1>   0.0800 
 41 H       -5.2400   -11.9810     1.1330 H     1 <1>   0.4500 
 42 H       -3.8510   -12.9400    -1.2790 H     1 <1>   0.0800 
 43 H       -4.8680   -13.9380    -0.2650 H     1 <1>   0.0800 
 44 H       -2.3470   -12.6740     0.9280 H     1 <1>   0.0800 
 45 H       -3.5580   -13.6910     1.6880 H     1 <1>   0.0800 
 46 H       -3.2020   -12.1170     2.3540 H     1 <1>   0.0800 
 47 H       -6.7430   -10.5600    -2.0690 H     1 <1>   0.0800 
 48 H       -5.0660   -10.8110    -2.4650 H     1 <1>   0.0800 
 49 H       -6.0990   -12.9780    -2.1960 H     1 <1>   0.0800 
 50 H       -6.7820   -12.5380    -0.6680 H     1 <1>   0.0800 
@<TRIPOS>BOND
  1   1   2  1   
  2   2   3  ar  
  3   2   4  ar  
  4   3   5  ar  
  5   3  26  1   
  6   4   6  ar  
  7   4  27  1   
  8   5   7  ar  
  9   5  28  1   
 10   6   7  ar  
 11   6  29  1   
 12   7   8  1   
 13   8   9  1   
 14   8  30  1   
 15   8  31  1   
 16   9  10  1   
 17   9  32  1   
 18   9  33  1   
 19  10  11  2   
 20  10  12  am  
 21  12  13  1   
 22  12  14  1   
 23  13  15  1   
 24  13  34  1   
 25  13  35  1   
 26  14  16  1   
 27  14  36  1   
 28  14  37  1   
 29  15  17  1   
 30  15  18  1   
 31  15  38  1   
 32  16  18  1   
 33  16  39  1   
 34  16  40  1   
 35  17  19  1   
 36  17  20  1   
 37  17  41  1   
 38  18  21  1   
 39  18  22  1   
 40  19  23  1   
 41  19  42  1   
 42  19  43  1   
 43  20  44  1   
 44  20  45  1   
 45  20  46  1   
 46  21  24  ar  
 47  21  25  ar  
 48  22  23  1   
 49  22  47  1   
 50  22  48  1   
 51  23  49  1   
 52  23  50  1   
@<TRIPOS>SUBSTRUCTURE
  1 ****  12 GROUP 4 **** **** 0

# MOE 2024.06 (io_trps.svl 2023.06)
