@<TRIPOS>MOLECULE
NONAME
46 48 1 0 0 
SMALL
USER_CHARGES


@<TRIPOS>ATOM
  1 O       -4.2470     2.2930    -1.1090 O.2   1 <1>  -0.5700 
  2 C       -3.4690     1.6100    -0.4860 C.2   1 <1>   0.5690 
  3 N       -3.5790     0.2420    -0.4810 N.am  1 <1>  -0.6600 
  4 C       -2.3830     2.3610     0.2700 C.3   1 <1>  -0.0990 
  5 C       -2.6870    -0.6720     0.3210 C.3   1 <1>   0.3640 
  6 C       -4.7150    -0.3690    -1.2400 C.3   1 <1>   0.1400 
  7 C       -1.3320     2.9230    -0.6960 C.3   1 <1>  -0.0170 
  8 C       -1.2690    -0.6470    -0.2570 C.ar  1 <1>  -0.1440 
  9 C       -3.1520    -2.1600     0.4500 C.3   1 <1>   0.2000 
 10 C       -4.6210    -1.8910    -1.3520 C.3   1 <1>   0.1200 
 11 C       -0.2320     3.6440     0.0670 C.ar  1 <1>  -0.1440 
 12 C       -0.1790    -0.5740     0.6000 C.ar  1 <1>  -0.1500 
 13 C       -1.0410    -0.7070    -1.6260 C.ar  1 <1>  -0.1500 
 14 O       -4.4210    -2.4210    -0.0840 O.3   1 <1>  -0.5600 
 15 C       -3.1960    -2.6280     1.9120 C.3   1 <1>   0.1200 
 16 C        1.0110     3.0540     0.2450 C.ar  1 <1>   0.1600 
 17 C       -0.4530     4.8980     0.5980 C.ar  1 <1>  -0.1500 
 18 C        1.1120    -0.5670     0.1020 C.ar  1 <1>  -0.1500 
 19 C        0.2490    -0.6970    -2.1270 C.ar  1 <1>  -0.1500 
 20 O       -1.9470    -2.5050     2.5130 O.3   1 <1>  -0.6800 
 21 N        2.0250     3.5980     0.9010 N.ar  1 <1>  -0.6200 
 22 C        0.5910     5.4820     1.2830 C.ar  1 <1>  -0.1500 
 23 C        1.3270    -0.6280    -1.2630 C.ar  1 <1>  -0.1500 
 24 C        1.7890     4.7990     1.4040 C.ar  1 <1>   0.1600 
 25 H       -2.8500     3.1770     0.7910 H     1 <1>   0.0800 
 26 H       -1.9050     1.7500     1.0070 H     1 <1>   0.0800 
 27 H       -2.6440    -0.2730     1.3190 H     1 <1>   0.0800 
 28 H       -5.6360    -0.1150    -0.7440 H     1 <1>   0.0800 
 29 H       -4.7510     0.0550    -2.2280 H     1 <1>   0.0800 
 30 H       -1.8010     3.6070    -1.3820 H     1 <1>   0.0800 
 31 H       -0.9100     2.1210    -1.2760 H     1 <1>   0.0800 
 32 H       -2.4630    -2.7920    -0.0830 H     1 <1>   0.0800 
 33 H       -3.8140    -2.1910    -1.9980 H     1 <1>   0.0800 
 34 H       -5.5430    -2.2900    -1.7360 H     1 <1>   0.0800 
 35 H       -0.3260    -0.5230     1.6670 H     1 <1>   0.1500 
 36 H       -1.8680    -0.7580    -2.3120 H     1 <1>   0.1500 
 37 H       -3.4960    -3.6600     1.9680 H     1 <1>   0.0800 
 38 H       -3.8900    -2.0230     2.4710 H     1 <1>   0.0800 
 39 H        1.1820     2.0810    -0.1770 H     1 <1>   0.1500 
 40 H       -1.3980     5.4010     0.4850 H     1 <1>   0.1500 
 41 H        1.9490    -0.5110     0.7770 H     1 <1>   0.1500 
 42 H        0.4150    -0.7420    -3.1890 H     1 <1>   0.1500 
 43 H       -1.3230    -3.1720     2.1610 H     1 <1>   0.4000 
 44 H        0.4800     6.4580     1.7190 H     1 <1>   0.1500 
 45 H        2.3310    -0.6200    -1.6510 H     1 <1>   0.1500 
 46 H        2.5960     5.2650     1.9420 H     1 <1>   0.1500 
@<TRIPOS>BOND
  1   1   2  2   
  2   2   3  am  
  3   2   4  1   
  4   3   5  1   
  5   3   6  1   
  6   4   7  1   
  7   4  25  1   
  8   4  26  1   
  9   5   8  1   
 10   5   9  1   
 11   5  27  1   
 12   6  10  1   
 13   6  28  1   
 14   6  29  1   
 15   7  11  1   
 16   7  30  1   
 17   7  31  1   
 18   8  12  ar  
 19   8  13  ar  
 20   9  14  1   
 21   9  15  1   
 22   9  32  1   
 23  10  14  1   
 24  10  33  1   
 25  10  34  1   
 26  11  16  ar  
 27  11  17  ar  
 28  12  18  ar  
 29  12  35  1   
 30  13  19  ar  
 31  13  36  1   
 32  15  20  1   
 33  15  37  1   
 34  15  38  1   
 35  16  21  ar  
 36  16  39  1   
 37  17  22  ar  
 38  17  40  1   
 39  18  23  ar  
 40  18  41  1   
 41  19  23  ar  
 42  19  42  1   
 43  20  43  1   
 44  21  24  ar  
 45  22  24  ar  
 46  22  44  1   
 47  23  45  1   
 48  24  46  1   
@<TRIPOS>SUBSTRUCTURE
  1 ****   8 GROUP 4 **** **** 0

# MOE 2024.06 (io_trps.svl 2023.06)
