@<TRIPOS>MOLECULE
NONAME
49 51 1 0 0 
SMALL
USER_CHARGES


@<TRIPOS>ATOM
  1 O        1.6050    -2.5470     3.6250 O.3   1 <1>  -0.8290 
  2 C        2.2350    -2.5190     2.5610 C.ar  1 <1>   0.4490 
  3 N        2.2580    -3.6550     1.8520 N.ar  1 <1>  -0.6200 
  4 N        2.8290    -1.3600     2.2170 N.ar  1 <1>  -0.6200 
  5 C        2.9230    -3.6290     0.7130 C.ar  1 <1>   0.3960 
  6 C        3.4790    -1.3520     1.0900 C.ar  1 <1>   0.1660 
  7 C        2.9660    -4.8450    -0.0970 C.2   1 <1>   0.5440 
  8 C        3.5580    -2.4710     0.2960 C.ar  1 <1>  -0.1500 
  9 C        4.1600    -0.0590     0.6710 C.3   1 <1>  -0.0170 
 10 O        3.4660    -4.8800    -1.2100 O.2   1 <1>  -0.5700 
 11 N        2.4070    -5.9900     0.3990 N.am  1 <1>  -0.7300 
 12 C        3.4420     0.6480    -0.4970 C.3   1 <1>  -0.0800 
 13 C        2.1130    -7.2310    -0.3440 C.3   1 <1>   0.2200 
 14 C        4.2430     1.8740    -0.9520 C.3   1 <1>  -0.2400 
 15 C        2.0200     1.0750    -0.1060 C.3   1 <1>  -0.2400 
 16 C        0.6220    -7.4310    -0.6130 C.3   1 <1>  -0.0800 
 17 C        2.5150    -8.4790     0.4480 C.3   1 <1>   0.1200 
 18 C        0.5290    -8.9540    -0.5700 C.3   1 <1>   0.1200 
 19 C       -0.3180    -6.7770     0.4270 C.3   1 <1>  -0.0170 
 20 O        1.4180    -9.3460     0.4250 O.3   1 <1>  -0.5600 
 21 C       -1.7810    -7.0820     0.1370 C.ar  1 <1>  -0.1440 
 22 C       -2.4680    -6.4460    -0.8770 C.ar  1 <1>  -0.1500 
 23 C       -2.4960    -8.0050     0.8720 C.ar  1 <1>  -0.1500 
 24 C       -3.7970    -6.7620    -1.1050 C.ar  1 <1>   0.1600 
 25 C       -3.8240    -8.2470     0.5620 C.ar  1 <1>   0.1600 
 26 N       -4.4920    -7.6500    -0.4120 N.ar  1 <1>  -0.6200 
 27 H        4.0960    -2.4570    -0.6310 H     1 <1>   0.1500 
 28 H        4.2050     0.6000     1.5200 H     1 <1>   0.0800 
 29 H        5.1700    -0.2890     0.3880 H     1 <1>   0.0800 
 30 H        1.9750    -5.8760     1.3270 H     1 <1>   0.3700 
 31 H        3.3740    -0.0380    -1.3240 H     1 <1>   0.0800 
 32 H        2.6540    -7.2300    -1.2750 H     1 <1>   0.0800 
 33 H        4.3290     2.5870    -0.1500 H     1 <1>   0.0800 
 34 H        3.7540     2.3500    -1.7840 H     1 <1>   0.0800 
 35 H        5.2310     1.5830    -1.2620 H     1 <1>   0.0800 
 36 H        2.0450     1.7420     0.7380 H     1 <1>   0.0800 
 37 H        1.4310     0.2160     0.1670 H     1 <1>   0.0800 
 38 H        1.5330     1.5700    -0.9270 H     1 <1>   0.0800 
 39 H        0.3700    -7.0750    -1.5960 H     1 <1>   0.0800 
 40 H        2.7370    -8.2490     1.4750 H     1 <1>   0.0800 
 41 H        3.3500    -8.9750    -0.0130 H     1 <1>   0.0800 
 42 H        0.8630    -9.3850    -1.4980 H     1 <1>   0.0800 
 43 H       -0.4520    -9.3260    -0.3360 H     1 <1>   0.0800 
 44 H       -0.1920    -5.7070     0.4150 H     1 <1>   0.0800 
 45 H       -0.0650    -7.1200     1.4160 H     1 <1>   0.0800 
 46 H       -1.9810    -5.7080    -1.4860 H     1 <1>   0.1500 
 47 H       -2.0300    -8.5360     1.6830 H     1 <1>   0.1500 
 48 H       -4.3170    -6.2550    -1.9000 H     1 <1>   0.1500 
 49 H       -4.3650    -8.9710     1.1470 H     1 <1>   0.1500 
@<TRIPOS>BOND
  1   1   2  1   
  2   2   3  ar  
  3   2   4  ar  
  4   3   5  ar  
  5   4   6  ar  
  6   5   7  1   
  7   5   8  ar  
  8   6   8  ar  
  9   6   9  1   
 10   7  10  2   
 11   7  11  am  
 12   8  27  1   
 13   9  12  1   
 14   9  28  1   
 15   9  29  1   
 16  11  13  1   
 17  11  30  1   
 18  12  14  1   
 19  12  15  1   
 20  12  31  1   
 21  13  16  1   
 22  13  17  1   
 23  13  32  1   
 24  14  33  1   
 25  14  34  1   
 26  14  35  1   
 27  15  36  1   
 28  15  37  1   
 29  15  38  1   
 30  16  18  1   
 31  16  19  1   
 32  16  39  1   
 33  17  20  1   
 34  17  40  1   
 35  17  41  1   
 36  18  20  1   
 37  18  42  1   
 38  18  43  1   
 39  19  21  1   
 40  19  44  1   
 41  19  45  1   
 42  21  22  ar  
 43  21  23  ar  
 44  22  24  ar  
 45  22  46  1   
 46  23  25  ar  
 47  23  47  1   
 48  24  26  ar  
 49  24  48  1   
 50  25  26  ar  
 51  25  49  1   
@<TRIPOS>SUBSTRUCTURE
  1 ****  11 GROUP 4 **** **** 0

# MOE 2024.06 (io_trps.svl 2023.06)
