@<TRIPOS>MOLECULE
NONAME
37 39 1 0 0 
SMALL
USER_CHARGES


@<TRIPOS>ATOM
  1 F        0.0420    -0.1590    -0.8210 F     1 <1>  -0.1900 
  2 C        1.0780    -0.8170    -0.3510 C.ar  1 <1>   0.1900 
  3 C        0.9420    -2.1140     0.1550 C.ar  1 <1>   0.1000 
  4 C        2.2980    -0.1710    -0.3820 C.ar  1 <1>   0.1600 
  5 N       -0.2380    -2.8770     0.2420 N.pl3 1 <1>  -0.8380 
  6 C        2.1390    -2.6420     0.6230 C.ar  1 <1>  -0.1500 
  7 N        3.4360    -0.6950     0.0580 N.ar  1 <1>  -0.6200 
  8 C       -1.5610    -2.3880    -0.2470 C.3   1 <1>   0.2090 
  9 C       -0.1980    -4.3620     0.0610 C.3   1 <1>   0.2090 
 10 C        3.3180    -1.9200     0.5520 C.ar  1 <1>   0.1600 
 11 C       -2.4850    -3.5960    -0.1230 C.3   1 <1>   0.2000 
 12 C       -1.5680    -4.7590    -0.4990 C.3   1 <1>  -0.0800 
 13 O       -2.8540    -3.7100     1.2100 O.3   1 <1>  -0.6800 
 14 C       -2.0390    -6.1560    -0.0520 C.3   1 <1>   0.0210 
 15 C       -1.0150    -7.2270    -0.3840 C.2   1 <1>   0.1080 
 16 N       -0.3810    -7.2840    -1.5150 N.2   1 <1>  -0.7070 
 17 C       -0.6400    -8.2520     0.4780 C.2   1 <1>  -0.1500 
 18 N        0.4180    -8.3610    -1.4050 N.pl3 1 <1>   0.3000 
 19 C        0.2820    -8.9630    -0.2050 C.2   1 <1>  -0.3320 
 20 C        1.0490   -10.2020     0.2200 C.3   1 <1>  -0.0600 
 21 H        2.3400     0.8240    -0.7870 H     1 <1>   0.1500 
 22 H        2.1570    -3.6230     1.0550 H     1 <1>   0.1500 
 23 H       -1.9150    -1.5530     0.3330 H     1 <1>   0.0800 
 24 H       -1.4780    -2.1040    -1.2820 H     1 <1>   0.0800 
 25 H        0.5860    -4.6530    -0.6180 H     1 <1>   0.0800 
 26 H       -0.0330    -4.8270     1.0180 H     1 <1>   0.0800 
 27 H        4.2200    -2.3750     0.9260 H     1 <1>   0.1500 
 28 H       -3.3720    -3.5270    -0.7290 H     1 <1>   0.0800 
 29 H       -1.4760    -4.7690    -1.5710 H     1 <1>   0.0800 
 30 H       -2.0550    -3.5130     1.7450 H     1 <1>   0.4000 
 31 H       -2.9620    -6.3960    -0.5470 H     1 <1>   0.0800 
 32 H       -2.2190    -6.1700     1.0080 H     1 <1>   0.0800 
 33 H       -1.0210    -8.4190     1.4690 H     1 <1>   0.1500 
 34 H        1.0410    -8.6590    -2.1650 H     1 <1>   0.2700 
 35 H        0.7630   -10.4910     1.2160 H     1 <1>   0.0800 
 36 H        2.1060   -10.0080     0.2100 H     1 <1>   0.0800 
 37 H        0.8350   -11.0180    -0.4470 H     1 <1>   0.0800 
@<TRIPOS>BOND
  1   1   2  1   
  2   2   3  ar  
  3   2   4  ar  
  4   3   5  1   
  5   3   6  ar  
  6   4   7  ar  
  7   4  21  1   
  8   5   8  1   
  9   5   9  1   
 10   6  10  ar  
 11   6  22  1   
 12   7  10  ar  
 13   8  11  1   
 14   8  23  1   
 15   8  24  1   
 16   9  12  1   
 17   9  25  1   
 18   9  26  1   
 19  10  27  1   
 20  11  12  1   
 21  11  13  1   
 22  11  28  1   
 23  12  14  1   
 24  12  29  1   
 25  13  30  1   
 26  14  15  1   
 27  14  31  1   
 28  14  32  1   
 29  15  16  2   
 30  15  17  1   
 31  16  18  1   
 32  17  19  2   
 33  17  33  1   
 34  18  19  1   
 35  18  34  1   
 36  19  20  1   
 37  20  35  1   
 38  20  36  1   
 39  20  37  1   
@<TRIPOS>SUBSTRUCTURE
  1 ****   9 GROUP 4 **** **** 0

# MOE 2024.06 (io_trps.svl 2023.06)
