@<TRIPOS>MOLECULE
NONAME
47 49 1 0 0 
SMALL
USER_CHARGES


@<TRIPOS>ATOM
  1 O        0.1380    -0.0390    -1.7250 O.2   1 <1>  -0.5700 
  2 C        0.0720     0.6860    -0.7630 C.2   1 <1>   0.5690 
  3 N       -1.0540     1.0200    -0.0640 N.am  1 <1>  -0.4770 
  4 C        1.2990     1.3360    -0.1890 C.3   1 <1>  -0.0990 
  5 C       -2.3730     0.5680    -0.2570 C.ar  1 <1>   0.1170 
  6 C       -0.6910     1.8910     1.0760 C.3   1 <1>   0.1400 
  7 C        0.7190     2.3990     0.7390 C.3   1 <1>   0.2890 
  8 C       -2.6320    -0.7510    -0.6140 C.ar  1 <1>  -0.1500 
  9 C       -3.4570     1.4240    -0.0890 C.ar  1 <1>  -0.1500 
 10 N        0.6260     3.6810    -0.0040 N.pl3 1 <1>  -0.8690 
 11 C       -3.9270    -1.2040    -0.7850 C.ar  1 <1>  -0.1500 
 12 C       -4.7540     0.9740    -0.2580 C.ar  1 <1>  -0.1500 
 13 C        0.3810     4.8810     0.6190 C.ar  1 <1>   0.4100 
 14 C       -4.9980    -0.3440    -0.6040 C.ar  1 <1>  -0.1430 
 15 N        0.3940     4.9060     1.9380 N.ar  1 <1>  -0.6200 
 16 C        0.1170     6.0100    -0.1140 C.ar  1 <1>  -0.1500 
 17 C       -6.4200    -0.8400    -0.7930 C.3   1 <1>  -0.0970 
 18 C        0.1370     6.0830     2.4760 C.ar  1 <1>   0.4700 
 19 C       -0.1360     7.1850     0.5540 C.ar  1 <1>   0.4100 
 20 N       -0.1320     7.2230     1.8750 N.ar  1 <1>  -0.6200 
 21 N       -0.4000     8.3600    -0.1290 N.pl3 1 <1>  -0.8380 
 22 C        0.5220     8.7980    -1.2040 C.3   1 <1>   0.2090 
 23 C       -1.1320     9.4630     0.5570 C.3   1 <1>   0.1290 
 24 C       -0.2360     8.8160    -2.5270 C.3   1 <1>  -0.2400 
 25 H        1.9280     1.7520    -0.9540 H     1 <1>   0.0800 
 26 H        1.8420     0.6010     0.3730 H     1 <1>   0.0800 
 27 H       -0.6690     1.2990     1.9730 H     1 <1>   0.0800 
 28 H       -1.3760     2.7090     1.2010 H     1 <1>   0.0800 
 29 H        1.3190     2.5300     1.6240 H     1 <1>   0.0800 
 30 H       -1.8110    -1.4300    -0.7620 H     1 <1>   0.1500 
 31 H       -3.2940     2.4540     0.1660 H     1 <1>   0.1500 
 32 H        0.2520     3.5840    -0.9520 H     1 <1>   0.4000 
 33 H       -4.0970    -2.2290    -1.0630 H     1 <1>   0.1500 
 34 H       -5.5750     1.6570    -0.1230 H     1 <1>   0.1500 
 35 H        0.1020     5.9790    -1.1820 H     1 <1>   0.1500 
 36 H       -6.4930    -1.8820    -0.5350 H     1 <1>   0.0800 
 37 H       -6.7140    -0.7160    -1.8200 H     1 <1>   0.0800 
 38 H       -7.0980    -0.2880    -0.1680 H     1 <1>   0.0800 
 39 H        0.1480     6.1170     3.5530 H     1 <1>   0.1500 
 40 H        1.3610     8.1250    -1.2700 H     1 <1>   0.0800 
 41 H        0.9030     9.7800    -0.9800 H     1 <1>   0.0800 
 42 H       -1.8970     9.0550     1.1940 H     1 <1>   0.0800 
 43 H       -1.5970    10.1070    -0.1680 H     1 <1>   0.0800 
 44 H       -0.4470    10.0360     1.1580 H     1 <1>   0.0800 
 45 H       -0.6200     7.8380    -2.7480 H     1 <1>   0.0800 
 46 H        0.4260     9.1130    -3.3200 H     1 <1>   0.0800 
 47 H       -1.0500     9.5160    -2.4810 H     1 <1>   0.0800 
@<TRIPOS>BOND
  1   1   2  2   
  2   2   3  am  
  3   2   4  1   
  4   3   5  1   
  5   3   6  1   
  6   4   7  1   
  7   4  25  1   
  8   4  26  1   
  9   5   8  ar  
 10   5   9  ar  
 11   6   7  1   
 12   6  27  1   
 13   6  28  1   
 14   7  10  1   
 15   7  29  1   
 16   8  11  ar  
 17   8  30  1   
 18   9  12  ar  
 19   9  31  1   
 20  10  13  1   
 21  10  32  1   
 22  11  14  ar  
 23  11  33  1   
 24  12  14  ar  
 25  12  34  1   
 26  13  15  ar  
 27  13  16  ar  
 28  14  17  1   
 29  15  18  ar  
 30  16  19  ar  
 31  16  35  1   
 32  17  36  1   
 33  17  37  1   
 34  17  38  1   
 35  18  20  ar  
 36  18  39  1   
 37  19  20  ar  
 38  19  21  1   
 39  21  22  1   
 40  21  23  1   
 41  22  24  1   
 42  22  40  1   
 43  22  41  1   
 44  23  42  1   
 45  23  43  1   
 46  23  44  1   
 47  24  45  1   
 48  24  46  1   
 49  24  47  1   
@<TRIPOS>SUBSTRUCTURE
  1 ****  10 GROUP 4 **** **** 0

# MOE 2024.06 (io_trps.svl 2023.06)
