@<TRIPOS>MOLECULE
NONAME
46 47 1 0 0 
SMALL
USER_CHARGES


@<TRIPOS>ATOM
  1 S        0.0610    -0.5700    -1.5870 S.o2  1 <1>   1.4470 
  2 O       -0.5930     0.2380    -2.5950 O.2   1 <1>  -0.6500 
  3 O        0.7710    -1.7640    -1.9930 O.2   1 <1>  -0.6500 
  4 N       -1.1210    -1.0290    -0.4640 N.am  1 <1>  -0.8490 
  5 C        1.1810     0.4670    -0.6040 C.ar  1 <1>  -0.0090 
  6 C       -1.8950    -2.1960    -0.9340 C.3   1 <1>   0.1960 
  7 C       -2.0050     0.0830    -0.0960 C.3   1 <1>   0.1960 
  8 C        1.7220     1.6380    -1.1260 C.ar  1 <1>  -0.1500 
  9 C        1.5360     0.1100     0.6920 C.ar  1 <1>  -0.1500 
 10 C       -2.9190    -2.6600     0.1170 C.3   1 <1>   0.2000 
 11 C       -2.9780    -0.3530     1.0020 C.3   1 <1>  -0.1600 
 12 C        2.5780     2.4320    -0.3820 C.ar  1 <1>  -0.1500 
 13 C        2.3890     0.8970     1.4440 C.ar  1 <1>  -0.1500 
 14 O       -3.6390    -3.7310    -0.3870 O.3   1 <1>  -0.6800 
 15 C       -3.8850    -1.5390     0.5710 C.3   1 <1>  -0.1060 
 16 C        2.9160     2.0630     0.9160 C.ar  1 <1>   0.0820 
 17 C       -4.6830    -2.0910     1.7670 C.2   1 <1>   0.9060 
 18 C       -4.8660    -1.1240    -0.5750 C.3   1 <1>  -0.1600 
 19 O        3.7410     2.7800     1.7150 O.3   1 <1>  -0.3630 
 20 O       -4.7770    -1.4270     2.8060 O.co2 1 <1>  -0.9000 
 21 O       -5.2130    -3.2080     1.6600 O.co2 1 <1>  -0.9000 
 22 C       -5.8230     0.0270    -0.2210 C.3   1 <1>  -0.1600 
 23 C        4.3510     3.9690     1.2660 C.3   1 <1>   0.0400 
 24 C       -6.8310     0.2670    -1.3480 C.3   1 <1>  -0.2400 
 25 H       -2.4010    -1.9500    -1.8510 H     1 <1>   0.0800 
 26 H       -1.2240    -3.0150    -1.1260 H     1 <1>   0.0800 
 27 H       -1.4160     0.9050     0.2750 H     1 <1>   0.0800 
 28 H       -2.5510     0.4280    -0.9590 H     1 <1>   0.0800 
 29 H        1.4660     1.9320    -2.1310 H     1 <1>   0.1500 
 30 H        1.1350    -0.7960     1.1170 H     1 <1>   0.1500 
 31 H       -2.3820    -3.0270     0.9750 H     1 <1>   0.0800 
 32 H       -2.4040    -0.6460     1.8650 H     1 <1>   0.0800 
 33 H       -3.5780     0.4810     1.3140 H     1 <1>   0.0800 
 34 H        2.9690     3.3280    -0.8270 H     1 <1>   0.1500 
 35 H        2.6530     0.6110     2.4470 H     1 <1>   0.1500 
 36 H       -4.3850    -3.8660     0.2700 H     1 <1>   0.4000 
 37 H       -4.3230    -0.8610    -1.4630 H     1 <1>   0.0800 
 38 H       -5.4690    -1.9820    -0.8220 H     1 <1>   0.0800 
 39 H       -6.3570    -0.2110     0.6850 H     1 <1>   0.0800 
 40 H       -5.2730     0.9350    -0.0530 H     1 <1>   0.0800 
 41 H        4.9630     4.3520     2.0630 H     1 <1>   0.0800 
 42 H        3.5860     4.6830     1.0190 H     1 <1>   0.0800 
 43 H        4.9630     3.7460     0.4100 H     1 <1>   0.0800 
 44 H       -7.4210    -0.6180    -1.5120 H     1 <1>   0.0800 
 45 H       -6.3220     0.5210    -2.2610 H     1 <1>   0.0800 
 46 H       -7.4920     1.0730    -1.0840 H     1 <1>   0.0800 
@<TRIPOS>BOND
  1   1   2  2   
  2   1   3  2   
  3   1   4  am  
  4   1   5  1   
  5   4   6  1   
  6   4   7  1   
  7   5   8  ar  
  8   5   9  ar  
  9   6  10  1   
 10   6  25  1   
 11   6  26  1   
 12   7  11  1   
 13   7  27  1   
 14   7  28  1   
 15   8  12  ar  
 16   8  29  1   
 17   9  13  ar  
 18   9  30  1   
 19  10  14  1   
 20  10  15  1   
 21  10  31  1   
 22  11  15  1   
 23  11  32  1   
 24  11  33  1   
 25  12  16  ar  
 26  12  34  1   
 27  13  16  ar  
 28  13  35  1   
 29  14  36  1   
 30  15  17  1   
 31  15  18  1   
 32  16  19  1   
 33  17  20  ar  
 34  17  21  ar  
 35  18  22  1   
 36  18  37  1   
 37  18  38  1   
 38  19  23  1   
 39  22  24  1   
 40  22  39  1   
 41  22  40  1   
 42  23  41  1   
 43  23  42  1   
 44  23  43  1   
 45  24  44  1   
 46  24  45  1   
 47  24  46  1   
@<TRIPOS>SUBSTRUCTURE
  1 ****   7 GROUP 4 **** **** 0

# MOE 2024.06 (io_trps.svl 2023.06)
