@<TRIPOS>MOLECULE
NONAME
53 56 1 0 0 
SMALL
USER_CHARGES


@<TRIPOS>ATOM
  1 F       -0.8010    -1.1290     0.5890 F     1 <1>  -0.1900 
  2 C        0.0220    -2.0980     0.2930 C.ar  1 <1>   0.1900 
  3 C       -0.4170    -3.4030     0.3970 C.ar  1 <1>  -0.1500 
  4 C        1.3020    -1.7840    -0.1180 C.ar  1 <1>  -0.1500 
  5 C        0.4620    -4.4260     0.0830 C.ar  1 <1>  -0.1500 
  6 C        2.1710    -2.8170    -0.4290 C.ar  1 <1>  -0.1500 
  7 C        1.7640    -4.1450    -0.3260 C.ar  1 <1>  -0.1080 
  8 C        2.7530    -5.2600    -0.6810 C.3   1 <1>   0.3330 
  9 N        2.5520    -6.5560     0.0550 N.am  1 <1>  -0.5100 
 10 C        4.1140    -5.1270     0.0440 C.3   1 <1>   0.0000 
 11 C        1.7850    -7.5910    -0.3830 C.2   1 <1>   0.5690 
 12 C        4.0160    -6.6300     0.3610 C.3   1 <1>   0.2250 
 13 O        0.9670    -7.4470    -1.2610 O.2   1 <1>  -0.5700 
 14 C        1.9560    -8.9720     0.2550 C.3   1 <1>  -0.0190 
 15 C        2.7040    -9.9330    -0.6870 C.3   1 <1>  -0.1600 
 16 C        0.6020    -9.5820     0.6670 C.3   1 <1>  -0.1600 
 17 C        2.8450   -11.3290    -0.0730 C.3   1 <1>   0.1400 
 18 C        0.7720   -10.9810     1.2650 C.3   1 <1>   0.1400 
 19 N        1.4970   -11.8470     0.2940 N.am  1 <1>  -0.6600 
 20 C        1.0010   -12.9920    -0.2910 C.2   1 <1>   0.5690 
 21 O        1.6760   -13.6390    -1.0590 O.2   1 <1>  -0.5700 
 22 C       -0.4250   -13.4830     0.0080 C.3   1 <1>  -0.0190 
 23 C       -0.7390   -14.9210    -0.4230 C.3   1 <1>  -0.1600 
 24 C       -1.5140   -12.6730    -0.7050 C.3   1 <1>  -0.1600 
 25 C       -2.2650   -14.9960    -0.4350 C.3   1 <1>  -0.1600 
 26 C       -2.7540   -13.5730    -0.7290 C.3   1 <1>  -0.1600 
 27 H       -1.4220    -3.6120     0.7140 H     1 <1>   0.1500 
 28 H        1.6070    -0.7560    -0.1910 H     1 <1>   0.1500 
 29 H        0.1200    -5.4430     0.1540 H     1 <1>   0.1500 
 30 H        3.1680    -2.5790    -0.7560 H     1 <1>   0.1500 
 31 H        2.8570    -5.4300    -1.7380 H     1 <1>   0.0000 
 32 H        4.0770    -4.5190     0.9320 H     1 <1>   0.0000 
 33 H        4.9310    -4.8720    -0.6070 H     1 <1>   0.0000 
 34 H        4.5350    -7.2560    -0.3440 H     1 <1>   0.0000 
 35 H        4.2020    -6.8690     1.3930 H     1 <1>   0.0000 
 36 H        2.5420    -8.8570     1.1500 H     1 <1>   0.0800 
 37 H        3.6810    -9.5450    -0.9080 H     1 <1>   0.0800 
 38 H        2.1690   -10.0190    -1.6180 H     1 <1>   0.0800 
 39 H       -0.0450    -9.6490    -0.1910 H     1 <1>   0.0800 
 40 H        0.1220    -8.9420     1.3870 H     1 <1>   0.0800 
 41 H        3.4570   -11.2870     0.8110 H     1 <1>   0.0800 
 42 H        3.3300   -11.9810    -0.7790 H     1 <1>   0.0800 
 43 H       -0.1930   -11.3810     1.5130 H     1 <1>   0.0800 
 44 H        1.3460   -10.9220     2.1730 H     1 <1>   0.0800 
 45 H       -0.5890   -13.4390     1.0680 H     1 <1>   0.0800 
 46 H       -0.2970   -15.6460     0.2380 H     1 <1>   0.0800 
 47 H       -0.3740   -15.0900    -1.4230 H     1 <1>   0.0800 
 48 H       -1.1990   -12.4790    -1.7170 H     1 <1>   0.0800 
 49 H       -1.7120   -11.7350    -0.2190 H     1 <1>   0.0800 
 50 H       -2.6180   -15.3040     0.5350 H     1 <1>   0.0800 
 51 H       -2.6150   -15.6990    -1.1710 H     1 <1>   0.0800 
 52 H       -3.2340   -13.5220    -1.6910 H     1 <1>   0.0800 
 53 H       -3.4570   -13.2650     0.0270 H     1 <1>   0.0800 
@<TRIPOS>BOND
  1   1   2  1   
  2   2   3  ar  
  3   2   4  ar  
  4   3   5  ar  
  5   3  27  1   
  6   4   6  ar  
  7   4  28  1   
  8   5   7  ar  
  9   5  29  1   
 10   6   7  ar  
 11   6  30  1   
 12   7   8  1   
 13   8   9  1   
 14   8  10  1   
 15   8  31  1   
 16   9  11  am  
 17   9  12  1   
 18  10  12  1   
 19  10  32  1   
 20  10  33  1   
 21  11  13  2   
 22  11  14  1   
 23  12  34  1   
 24  12  35  1   
 25  14  15  1   
 26  14  16  1   
 27  14  36  1   
 28  15  17  1   
 29  15  37  1   
 30  15  38  1   
 31  16  18  1   
 32  16  39  1   
 33  16  40  1   
 34  17  19  1   
 35  17  41  1   
 36  17  42  1   
 37  18  19  1   
 38  18  43  1   
 39  18  44  1   
 40  19  20  am  
 41  20  21  2   
 42  20  22  1   
 43  22  23  1   
 44  22  24  1   
 45  22  45  1   
 46  23  25  1   
 47  23  46  1   
 48  23  47  1   
 49  24  26  1   
 50  24  48  1   
 51  24  49  1   
 52  25  26  1   
 53  25  50  1   
 54  25  51  1   
 55  26  52  1   
 56  26  53  1   
@<TRIPOS>SUBSTRUCTURE
  1 ****  11 GROUP 4 **** **** 0

# MOE 2024.06 (io_trps.svl 2023.06)
