@<TRIPOS>MOLECULE
NONAME
51 53 1 0 0 
SMALL
USER_CHARGES


@<TRIPOS>ATOM
  1 O        0.3110     2.4420     1.5560 O.co2 1 <1>  -0.9000 
  2 C       -0.8230     2.7260     1.1700 C.2   1 <1>   0.9060 
  3 O       -1.6190     3.3450     1.8840 O.co2 1 <1>  -0.9000 
  4 C       -1.0930     2.5740    -0.3040 C.3   1 <1>  -0.1860 
  5 C       -2.4780     3.0000    -0.8400 C.3   1 <1>   0.2000 
  6 C       -0.0040     3.4100    -0.9660 C.3   1 <1>   0.3430 
  7 O       -3.4280     2.8290     0.1360 O.3   1 <1>  -0.6800 
  8 C       -2.5340     4.4640    -1.2990 C.3   1 <1>  -0.1600 
  9 N       -0.1630     4.8820    -0.6790 N.4   1 <1>  -0.9590 
 10 C       -1.5850     5.3180    -0.4660 C.3   1 <1>   0.3430 
 11 C        0.6350     5.2450     0.5350 C.3   1 <1>   0.4860 
 12 C        0.7550     6.7570     0.5880 C.ar  1 <1>  -0.1430 
 13 C        1.6340     7.4280    -0.2510 C.ar  1 <1>  -0.1500 
 14 C       -0.0280     7.4760     1.4800 C.ar  1 <1>  -0.1500 
 15 C        1.7190     8.8080    -0.2070 C.ar  1 <1>  -0.1500 
 16 C        0.0570     8.8560     1.5250 C.ar  1 <1>  -0.1500 
 17 C        0.9320     9.5260     0.6850 C.ar  1 <1>   0.0820 
 18 O        0.9800    10.8800     0.7580 O.3   1 <1>  -0.1650 
 19 C        2.1430    11.5540     0.5810 C.ar  1 <1>   0.0820 
 20 C        2.1250    12.7170    -0.1700 C.ar  1 <1>  -0.1500 
 21 C        3.3330    11.1130     1.1410 C.ar  1 <1>  -0.1500 
 22 C        3.2890    13.4390    -0.3840 C.ar  1 <1>  -0.1430 
 23 C        4.4970    11.8300     0.9310 C.ar  1 <1>  -0.1500 
 24 C        4.4850    12.9900     0.1690 C.ar  1 <1>  -0.1430 
 25 C        3.2260    14.7090    -1.2200 C.3   1 <1>  -0.0970 
 26 C        5.7890    13.7470    -0.0390 C.3   1 <1>  -0.0970 
 27 H       -0.9330     1.5410    -0.5450 H     1 <1>   0.0800 
 28 H       -2.7670     2.3680    -1.6630 H     1 <1>   0.0800 
 29 H       -0.0540     3.2480    -2.0300 H     1 <1>   0.0800 
 30 H        0.9620     3.0690    -0.6240 H     1 <1>   0.0800 
 31 H       -2.9930     3.0370     1.0180 H     1 <1>   0.4000 
 32 H       -2.2520     4.5350    -2.3340 H     1 <1>   0.0800 
 33 H       -3.5400     4.8370    -1.2120 H     1 <1>   0.0800 
 34 H        0.2320     5.4250    -1.4510 H     1 <1>   0.4500 
 35 H       -1.8510     5.1990     0.5740 H     1 <1>   0.0800 
 36 H       -1.6930     6.3600    -0.7190 H     1 <1>   0.0800 
 37 H        0.1530     4.8850     1.4300 H     1 <1>   0.0800 
 38 H        1.6150     4.8000     0.4870 H     1 <1>   0.0800 
 39 H        2.2600     6.8880    -0.9410 H     1 <1>   0.1500 
 40 H       -0.7060     6.9660     2.1460 H     1 <1>   0.1500 
 41 H        2.3940     9.3280    -0.8660 H     1 <1>   0.1500 
 42 H       -0.5490     9.4190     2.2130 H     1 <1>   0.1500 
 43 H        1.1910    13.0480    -0.5850 H     1 <1>   0.1500 
 44 H        3.3510    10.2210     1.7400 H     1 <1>   0.1500 
 45 H        5.4150    11.4780     1.3680 H     1 <1>   0.1500 
 46 H        2.2240    14.8980    -1.5590 H     1 <1>   0.0800 
 47 H        3.8610    14.6130    -2.0830 H     1 <1>   0.0800 
 48 H        3.5500    15.5510    -0.6360 H     1 <1>   0.0800 
 49 H        6.6060    13.2530     0.4540 H     1 <1>   0.0800 
 50 H        5.7050    14.7410     0.3610 H     1 <1>   0.0800 
 51 H        6.0160    13.8080    -1.0880 H     1 <1>   0.0800 
@<TRIPOS>BOND
  1   1   2  ar  
  2   2   3  ar  
  3   2   4  1   
  4   4   5  1   
  5   4   6  1   
  6   4  27  1   
  7   5   7  1   
  8   5   8  1   
  9   5  28  1   
 10   6   9  1   
 11   6  29  1   
 12   6  30  1   
 13   7  31  1   
 14   8  10  1   
 15   8  32  1   
 16   8  33  1   
 17   9  10  1   
 18   9  11  1   
 19   9  34  1   
 20  10  35  1   
 21  10  36  1   
 22  11  12  1   
 23  11  37  1   
 24  11  38  1   
 25  12  13  ar  
 26  12  14  ar  
 27  13  15  ar  
 28  13  39  1   
 29  14  16  ar  
 30  14  40  1   
 31  15  17  ar  
 32  15  41  1   
 33  16  17  ar  
 34  16  42  1   
 35  17  18  1   
 36  18  19  1   
 37  19  20  ar  
 38  19  21  ar  
 39  20  22  ar  
 40  20  43  1   
 41  21  23  ar  
 42  21  44  1   
 43  22  24  ar  
 44  22  25  1   
 45  23  24  ar  
 46  23  45  1   
 47  24  26  1   
 48  25  46  1   
 49  25  47  1   
 50  25  48  1   
 51  26  49  1   
 52  26  50  1   
 53  26  51  1   
@<TRIPOS>SUBSTRUCTURE
  1 ****  13 GROUP 4 **** **** 0

# MOE 2024.06 (io_trps.svl 2023.06)
