@<TRIPOS>MOLECULE
F2147-9873
21 22 1 0 0 
SMALL
USER_CHARGES


@<TRIPOS>ATOM
  1 O       -5.4480    -2.4430     1.6690 O.2   1 <1>  -0.5700 
  2 C       -5.4680    -1.3900     1.0680 C.2   1 <1>   0.7800 
  3 O       -4.7010    -0.3680     1.3980 O.3   1 <1>  -0.4300 
  4 N       -6.2570    -1.1170     0.0010 N.am  1 <1>  -0.5850 
  5 C       -4.9220     0.7330     0.5380 C.3   1 <1>   0.1200 
  6 C       -7.2640    -2.0050    -0.6800 C.3   1 <1>   0.2250 
  7 C       -5.9970     0.2580    -0.4510 C.3   1 <1>   0.1400 
  8 C       -8.2590    -2.7370     0.2680 C.3   1 <1>   0.4720 
  9 C       -6.7670    -3.4420    -1.0170 C.3   1 <1>   0.4720 
 10 N       -7.2910    -3.8820     0.3180 N.4   1 <1>  -0.8440 
 11 H       -3.9980     0.9760     0.0410 H     1 <1>   0.0800 
 12 H       -5.2570     1.5700     1.1250 H     1 <1>   0.0800 
 13 H       -7.7420    -1.5100    -1.5070 H     1 <1>   0.0000 
 14 H       -6.8830     0.8660    -0.3770 H     1 <1>   0.0800 
 15 H       -5.6240     0.2710    -1.4610 H     1 <1>   0.0800 
 16 H       -9.1710    -3.0280    -0.2210 H     1 <1>   0.0000 
 17 H       -8.3920    -2.2680     1.2260 H     1 <1>   0.0000 
 18 H       -5.6990    -3.5400    -1.0930 H     1 <1>   0.0000 
 19 H       -7.3190    -3.9030    -1.8160 H     1 <1>   0.0000 
 20 H       -7.7030    -4.8180     0.3530 H     1 <1>   0.4500 
 21 H       -6.5760    -3.7090     1.0530 H     1 <1>   0.4500 
@<TRIPOS>BOND
  1   1   2  2   
  2   2   3  1   
  3   2   4  am  
  4   3   5  1   
  5   4   6  1   
  6   4   7  1   
  7   5   7  1   
  8   5  11  1   
  9   5  12  1   
 10   6   8  1   
 11   6   9  1   
 12   6  13  1   
 13   7  14  1   
 14   7  15  1   
 15   8  10  1   
 16   8  16  1   
 17   8  17  1   
 18   9  10  1   
 19   9  18  1   
 20   9  19  1   
 21  10  20  1   
 22  10  21  1   
@<TRIPOS>SUBSTRUCTURE
  1 ****   4 GROUP 4 **** **** 0

# MOE 2024.06 (io_trps.svl 2023.06)
