@<TRIPOS>MOLECULE
NONAME
58 60 1 0 0 
SMALL
USER_CHARGES


@<TRIPOS>ATOM
  1 O        1.0920    -0.2040    -1.2670 O.2   1 <1>  -0.5700 
  2 C        1.7830    -0.9880    -0.6400 C.2   1 <1>   0.7150 
  3 N        2.9920    -0.5300    -0.1590 N.am  1 <1>  -0.6600 
  4 C        1.2880    -2.3380    -0.4510 C.2   1 <1>   0.0550 
  5 C        3.4930     0.8530    -0.3970 C.3   1 <1>   0.1400 
  6 C        4.0290    -1.3150     0.5530 C.3   1 <1>   0.1400 
  7 O        1.8750    -3.2380     0.3310 O.3   1 <1>  -0.2800 
  8 C        0.1870    -2.9210    -0.9950 C.2   1 <1>  -0.1500 
  9 C        5.0190     0.7500    -0.2850 C.3   1 <1>   0.4240 
 10 C        5.1920    -0.3430     0.7680 C.3   1 <1>  -0.1600 
 11 C        1.1970    -4.3630     0.3110 C.2   1 <1>  -0.0400 
 12 C        0.1150    -4.2250    -0.4960 C.2   1 <1>  -0.1810 
 13 O        5.4900     0.2320    -1.4780 O.3   1 <1>  -0.6800 
 14 C        5.7920     2.0390     0.0300 C.ar  1 <1>  -0.1430 
 15 C        1.7770    -5.4880     1.1590 C.3   1 <1>   0.0200 
 16 C       -0.9920    -5.1890    -0.8680 C.3   1 <1>   0.5240 
 17 C        5.1760     3.2850     0.1070 C.ar  1 <1>  -0.1500 
 18 C        7.1640     1.9690     0.2450 C.ar  1 <1>  -0.1500 
 19 C        1.0150    -6.8140     1.0930 C.3   1 <1>  -0.2400 
 20 N       -2.0710    -5.1450     0.1650 N.4   1 <1>  -0.9590 
 21 C        5.9090     4.4210     0.4090 C.ar  1 <1>  -0.1500 
 22 C        7.8980     3.1020     0.5470 C.ar  1 <1>  -0.1500 
 23 C       -3.1110    -6.1800    -0.0850 C.3   1 <1>   0.3430 
 24 C       -2.6670    -3.7830     0.2840 C.3   1 <1>   0.3430 
 25 C        7.2700     4.3310     0.6320 C.ar  1 <1>  -0.1500 
 26 C       -2.5700    -7.5650     0.2520 C.3   1 <1>  -0.2400 
 27 C       -3.4050    -3.6560     1.6110 C.3   1 <1>  -0.2400 
 28 H        3.1040     1.4860     0.3800 H     1 <1>   0.0800 
 29 H        3.1920     1.2380    -1.3570 H     1 <1>   0.0800 
 30 H        4.3380    -2.1430    -0.0640 H     1 <1>   0.0800 
 31 H        3.6530    -1.6840     1.4920 H     1 <1>   0.0800 
 32 H       -0.4940    -2.4510    -1.6850 H     1 <1>   0.1500 
 33 H        6.1480    -0.8300     0.7040 H     1 <1>   0.0800 
 34 H        5.0990     0.0950     1.7460 H     1 <1>   0.0800 
 35 H        4.8650    -0.4570    -1.7720 H     1 <1>   0.4000 
 36 H        1.8190    -5.1570     2.1820 H     1 <1>   0.0800 
 37 H        2.7910    -5.6590     0.8380 H     1 <1>   0.0800 
 38 H       -0.5830    -6.1830    -0.9340 H     1 <1>   0.0800 
 39 H       -1.3900    -4.9260    -1.8350 H     1 <1>   0.0800 
 40 H        4.1230     3.4010    -0.0690 H     1 <1>   0.1500 
 41 H        7.6700     1.0230     0.1690 H     1 <1>   0.1500 
 42 H        0.0190    -6.6980     1.4760 H     1 <1>   0.0800 
 43 H        1.5200    -7.5450     1.7010 H     1 <1>   0.0800 
 44 H        0.9870    -7.1850     0.0840 H     1 <1>   0.0800 
 45 H       -1.6130    -5.3420     1.0630 H     1 <1>   0.4500 
 46 H        5.4190     5.3770     0.4670 H     1 <1>   0.1500 
 47 H        8.9590     3.0280     0.7110 H     1 <1>   0.1500 
 48 H       -3.4310    -6.1460    -1.1150 H     1 <1>   0.0800 
 49 H       -3.9720    -5.9930     0.5350 H     1 <1>   0.0800 
 50 H       -3.3370    -3.5910    -0.5390 H     1 <1>   0.0800 
 51 H       -1.8900    -3.0360     0.2660 H     1 <1>   0.0800 
 52 H        7.8390     5.2130     0.8660 H     1 <1>   0.1500 
 53 H       -1.7540    -7.8450    -0.3890 H     1 <1>   0.0800 
 54 H       -3.3540    -8.2890     0.1110 H     1 <1>   0.0800 
 55 H       -2.2630    -7.6150     1.2810 H     1 <1>   0.0800 
 56 H       -4.2630    -4.3020     1.6580 H     1 <1>   0.0800 
 57 H       -3.7560    -2.6440     1.7190 H     1 <1>   0.0800 
 58 H       -2.7470    -3.8630     2.4360 H     1 <1>   0.0800 
@<TRIPOS>BOND
  1   1   2  2   
  2   2   3  am  
  3   2   4  1   
  4   3   5  1   
  5   3   6  1   
  6   4   7  1   
  7   4   8  2   
  8   5   9  1   
  9   5  28  1   
 10   5  29  1   
 11   6  10  1   
 12   6  30  1   
 13   6  31  1   
 14   7  11  1   
 15   8  12  1   
 16   8  32  1   
 17   9  10  1   
 18   9  13  1   
 19   9  14  1   
 20  10  33  1   
 21  10  34  1   
 22  11  12  2   
 23  11  15  1   
 24  12  16  1   
 25  13  35  1   
 26  14  17  ar  
 27  14  18  ar  
 28  15  19  1   
 29  15  36  1   
 30  15  37  1   
 31  16  20  1   
 32  16  38  1   
 33  16  39  1   
 34  17  21  ar  
 35  17  40  1   
 36  18  22  ar  
 37  18  41  1   
 38  19  42  1   
 39  19  43  1   
 40  19  44  1   
 41  20  23  1   
 42  20  24  1   
 43  20  45  1   
 44  21  25  ar  
 45  21  46  1   
 46  22  25  ar  
 47  22  47  1   
 48  23  26  1   
 49  23  48  1   
 50  23  49  1   
 51  24  27  1   
 52  24  50  1   
 53  24  51  1   
 54  25  52  1   
 55  26  53  1   
 56  26  54  1   
 57  26  55  1   
 58  27  56  1   
 59  27  57  1   
 60  27  58  1   
@<TRIPOS>SUBSTRUCTURE
  1 ****   2 GROUP 4 **** **** 0

# MOE 2024.06 (io_trps.svl 2023.06)
