@<TRIPOS>MOLECULE
NONAME
58 60 1 0 0 
SMALL
USER_CHARGES


@<TRIPOS>ATOM
  1 O        1.0690    -1.2360    -0.4770 O.3   1 <1>  -0.5600 
  2 C        0.2170    -1.7160     0.5390 C.3   1 <1>   0.2800 
  3 C        0.6340    -0.2140    -1.3310 C.3   1 <1>   0.1200 
  4 C       -1.0900    -0.8970     0.6480 C.3   1 <1>  -0.1600 
  5 C        1.0140    -1.6340     1.8510 C.3   1 <1>  -0.1600 
  6 C       -0.0480    -3.2030     0.2200 C.3   1 <1>  -0.1600 
  7 C       -0.7600    -0.5510    -1.8570 C.3   1 <1>  -0.1600 
  8 C       -1.7700    -0.6180    -0.7050 C.3   1 <1>   0.2800 
  9 C        2.3410    -2.4050     1.8120 C.3   1 <1>   0.3430 
 10 C        1.1300    -4.1370     0.5310 C.3   1 <1>   0.3430 
 11 O       -2.3550     0.6200    -0.6010 O.3   1 <1>  -0.6800 
 12 C       -2.9150    -1.5830    -1.0140 C.3   1 <1>  -0.2400 
 13 N        2.3750    -3.3450     0.6550 N.4   1 <1>  -0.9590 
 14 C        3.6240    -4.1440     0.5760 C.3   1 <1>   0.4860 
 15 C        4.8030    -3.1930     0.5170 C.ar  1 <1>  -0.1440 
 16 C        5.0180    -2.4100    -0.6090 C.ar  1 <1>  -0.1500 
 17 C        5.6700    -3.0870     1.5940 C.ar  1 <1>  -0.1500 
 18 C        6.0820    -1.5270    -0.6500 C.ar  1 <1>  -0.1500 
 19 C        6.7320    -2.2020     1.5490 C.ar  1 <1>  -0.1500 
 20 C        6.9420    -1.4150     0.4300 C.ar  1 <1>  -0.1440 
 21 C        8.1120    -0.4440     0.3820 C.3   1 <1>  -0.0170 
 22 C        9.3560    -1.1280    -0.1980 C.3   1 <1>  -0.1600 
 23 C       10.5520    -0.1690    -0.2540 C.3   1 <1>  -0.1600 
 24 C       11.7860    -0.8640    -0.8350 C.3   1 <1>  -0.2400 
 25 H        1.3380    -0.1410    -2.1430 H     1 <1>   0.0800 
 26 H        0.6370     0.7150    -0.7870 H     1 <1>   0.0800 
 27 H       -0.8440     0.0390     1.1180 H     1 <1>   0.0800 
 28 H       -1.7790    -1.3940     1.3070 H     1 <1>   0.0800 
 29 H        0.4150    -2.0280     2.6520 H     1 <1>   0.0800 
 30 H        1.2180    -0.6070     2.0950 H     1 <1>   0.0800 
 31 H       -0.3110    -3.3080    -0.8160 H     1 <1>   0.0800 
 32 H       -0.8910    -3.5500     0.7900 H     1 <1>   0.0800 
 33 H       -0.7010    -1.5000    -2.3590 H     1 <1>   0.0800 
 34 H       -1.0720     0.1720    -2.5910 H     1 <1>   0.0800 
 35 H        2.4790    -2.9410     2.7360 H     1 <1>   0.0800 
 36 H        3.1500    -1.6970     1.7110 H     1 <1>   0.0800 
 37 H        1.2250    -4.8660    -0.2580 H     1 <1>   0.0800 
 38 H        0.9460    -4.6590     1.4560 H     1 <1>   0.0800 
 39 H       -1.6780     1.3100    -0.4800 H     1 <1>   0.4000 
 40 H       -2.5570    -2.5900    -1.1080 H     1 <1>   0.0800 
 41 H       -3.3880    -1.3080    -1.9400 H     1 <1>   0.0800 
 42 H       -3.6500    -1.5550    -0.2300 H     1 <1>   0.0800 
 43 H        2.3660    -2.6990    -0.1580 H     1 <1>   0.4500 
 44 H        3.6180    -4.7570    -0.3100 H     1 <1>   0.0800 
 45 H        3.7120    -4.7840     1.4380 H     1 <1>   0.0800 
 46 H        4.3690    -2.4770    -1.4650 H     1 <1>   0.1500 
 47 H        5.5350    -3.6880     2.4780 H     1 <1>   0.1500 
 48 H        6.2430    -0.9250    -1.5280 H     1 <1>   0.1500 
 49 H        7.4020    -2.1270     2.3900 H     1 <1>   0.1500 
 50 H        8.3240    -0.0840     1.3740 H     1 <1>   0.0800 
 51 H        7.8500     0.4070    -0.2230 H     1 <1>   0.0800 
 52 H        9.1330    -1.4840    -1.1890 H     1 <1>   0.0800 
 53 H        9.6060    -1.9790     0.4110 H     1 <1>   0.0800 
 54 H       10.7800     0.1860     0.7370 H     1 <1>   0.0800 
 55 H       10.3060     0.6830    -0.8660 H     1 <1>   0.0800 
 56 H       12.0640    -1.7060    -0.2270 H     1 <1>   0.0800 
 57 H       12.6140    -0.1770    -0.8670 H     1 <1>   0.0800 
 58 H       11.5890    -1.2080    -1.8350 H     1 <1>   0.0800 
@<TRIPOS>BOND
  1   1   2  1   
  2   1   3  1   
  3   2   4  1   
  4   2   5  1   
  5   2   6  1   
  6   3   7  1   
  7   3  25  1   
  8   3  26  1   
  9   4   8  1   
 10   4  27  1   
 11   4  28  1   
 12   5   9  1   
 13   5  29  1   
 14   5  30  1   
 15   6  10  1   
 16   6  31  1   
 17   6  32  1   
 18   7   8  1   
 19   7  33  1   
 20   7  34  1   
 21   8  11  1   
 22   8  12  1   
 23   9  13  1   
 24   9  35  1   
 25   9  36  1   
 26  10  13  1   
 27  10  37  1   
 28  10  38  1   
 29  11  39  1   
 30  12  40  1   
 31  12  41  1   
 32  12  42  1   
 33  13  14  1   
 34  13  43  1   
 35  14  15  1   
 36  14  44  1   
 37  14  45  1   
 38  15  16  ar  
 39  15  17  ar  
 40  16  18  ar  
 41  16  46  1   
 42  17  19  ar  
 43  17  47  1   
 44  18  20  ar  
 45  18  48  1   
 46  19  20  ar  
 47  19  49  1   
 48  20  21  1   
 49  21  22  1   
 50  21  50  1   
 51  21  51  1   
 52  22  23  1   
 53  22  52  1   
 54  22  53  1   
 55  23  24  1   
 56  23  54  1   
 57  23  55  1   
 58  24  56  1   
 59  24  57  1   
 60  24  58  1   
@<TRIPOS>SUBSTRUCTURE
  1 ****  13 GROUP 4 **** **** 0

# MOE 2024.06 (io_trps.svl 2023.06)
