@<TRIPOS>MOLECULE
NONAME
52 54 1 0 0 
SMALL
USER_CHARGES


@<TRIPOS>ATOM
  1 F       -3.1040    -0.1620     2.1570 F     1 <1>  -0.1900 
  2 C       -3.5550    -1.0270     1.2890 C.ar  1 <1>   0.1900 
  3 C       -4.8990    -1.0120     0.9700 C.ar  1 <1>  -0.1500 
  4 C       -2.6720    -1.9270     0.7240 C.ar  1 <1>  -0.1500 
  5 C       -5.3720    -1.9320     0.0490 C.ar  1 <1>  -0.1500 
  6 C       -3.1570    -2.8420    -0.1950 C.ar  1 <1>  -0.1500 
  7 C       -4.5050    -2.8480    -0.5350 C.ar  1 <1>  -0.1430 
  8 C       -5.0290    -3.8600    -1.5390 C.3   1 <1>  -0.0160 
  9 C       -5.3870    -5.1720    -0.8320 C.3   1 <1>  -0.1600 
 10 C       -5.9800    -6.2030    -1.8060 C.3   1 <1>  -0.0990 
 11 C       -6.3390    -7.5010    -1.1030 C.2   1 <1>   0.5690 
 12 O       -5.5100    -8.3790    -1.0850 O.2   1 <1>  -0.5700 
 13 N       -7.5620    -7.6550    -0.5120 N.am  1 <1>  -0.6600 
 14 C       -8.6480    -6.6530    -0.4340 C.3   1 <1>   0.1400 
 15 C       -7.9550    -8.9070     0.1670 C.3   1 <1>   0.1400 
 16 C       -9.5710    -7.1560     0.6840 C.3   1 <1>  -0.0800 
 17 C       -9.3870    -8.6850     0.6650 C.3   1 <1>  -0.0800 
 18 C      -11.0510    -6.6660     0.6260 C.3   1 <1>   0.2800 
 19 C      -10.4360    -9.3510    -0.2400 C.3   1 <1>  -0.1600 
 20 O      -11.4050    -6.3600    -0.6750 O.3   1 <1>  -0.6800 
 21 C      -12.0010    -7.7880     1.0850 C.3   1 <1>  -0.1600 
 22 C      -11.2910    -5.3930     1.4680 C.3   1 <1>  -0.1600 
 23 C      -11.8680    -9.0860     0.2600 C.3   1 <1>  -0.1600 
 24 C      -10.4620    -4.1610     1.0640 C.3   1 <1>  -0.2400 
 25 H       -5.5550    -0.2960     1.4310 H     1 <1>   0.1500 
 26 H       -1.6340    -1.9090     0.9990 H     1 <1>   0.1500 
 27 H       -6.4160    -1.9350    -0.2090 H     1 <1>   0.1500 
 28 H       -2.4840    -3.5520    -0.6430 H     1 <1>   0.1500 
 29 H       -5.8990    -3.4610    -2.0320 H     1 <1>   0.0800 
 30 H       -4.2820    -4.0430    -2.2920 H     1 <1>   0.0800 
 31 H       -6.0910    -4.9690    -0.0440 H     1 <1>   0.0800 
 32 H       -4.5020    -5.5850    -0.3780 H     1 <1>   0.0800 
 33 H       -5.2570    -6.4280    -2.5690 H     1 <1>   0.0800 
 34 H       -6.8500    -5.8050    -2.2920 H     1 <1>   0.0800 
 35 H       -8.2660    -5.6740    -0.2150 H     1 <1>   0.0800 
 36 H       -9.1500    -6.6380    -1.3860 H     1 <1>   0.0800 
 37 H       -7.8870    -9.7390    -0.5130 H     1 <1>   0.0800 
 38 H       -7.2890    -9.0750     0.9960 H     1 <1>   0.0800 
 39 H       -9.1480    -6.8200     1.6140 H     1 <1>   0.0800 
 40 H       -9.4840    -9.0920     1.6570 H     1 <1>   0.0800 
 41 H      -10.3350    -8.9520    -1.2360 H     1 <1>   0.0800 
 42 H      -10.2630   -10.4120    -0.2970 H     1 <1>   0.0800 
 43 H      -12.3570    -6.1550    -0.7090 H     1 <1>   0.4000 
 44 H      -11.7680    -8.0170     2.1100 H     1 <1>   0.0800 
 45 H      -13.0220    -7.4510     1.0670 H     1 <1>   0.0800 
 46 H      -12.3340    -5.1340     1.4170 H     1 <1>   0.0800 
 47 H      -11.0790    -5.6180     2.4980 H     1 <1>   0.0800 
 48 H      -12.1960    -9.9130     0.8660 H     1 <1>   0.0800 
 49 H      -12.5210    -9.0360    -0.5950 H     1 <1>   0.0800 
 50 H      -10.6040    -3.9290     0.0230 H     1 <1>   0.0800 
 51 H       -9.4160    -4.3260     1.2460 H     1 <1>   0.0800 
 52 H      -10.7700    -3.3090     1.6450 H     1 <1>   0.0800 
@<TRIPOS>BOND
  1   1   2  1   
  2   2   3  ar  
  3   2   4  ar  
  4   3   5  ar  
  5   3  25  1   
  6   4   6  ar  
  7   4  26  1   
  8   5   7  ar  
  9   5  27  1   
 10   6   7  ar  
 11   6  28  1   
 12   7   8  1   
 13   8   9  1   
 14   8  29  1   
 15   8  30  1   
 16   9  10  1   
 17   9  31  1   
 18   9  32  1   
 19  10  11  1   
 20  10  33  1   
 21  10  34  1   
 22  11  12  2   
 23  11  13  am  
 24  13  14  1   
 25  13  15  1   
 26  14  16  1   
 27  14  35  1   
 28  14  36  1   
 29  15  17  1   
 30  15  37  1   
 31  15  38  1   
 32  16  17  1   
 33  16  18  1   
 34  16  39  1   
 35  17  19  1   
 36  17  40  1   
 37  18  20  1   
 38  18  21  1   
 39  18  22  1   
 40  19  23  1   
 41  19  41  1   
 42  19  42  1   
 43  20  43  1   
 44  21  23  1   
 45  21  44  1   
 46  21  45  1   
 47  22  24  1   
 48  22  46  1   
 49  22  47  1   
 50  23  48  1   
 51  23  49  1   
 52  24  50  1   
 53  24  51  1   
 54  24  52  1   
@<TRIPOS>SUBSTRUCTURE
  1 ****  14 GROUP 4 **** **** 0

# MOE 2024.06 (io_trps.svl 2023.06)
