@<TRIPOS>MOLECULE
NONAME
47 49 1 0 0 
SMALL
USER_CHARGES


@<TRIPOS>ATOM
  1 O        3.3630    -1.5170    -2.8930 O.2   1 <1>  -0.5700 
  2 C        2.5120    -0.9960    -2.2150 C.2   1 <1>   0.5690 
  3 N        2.8510    -0.0600    -1.2600 N.am  1 <1>  -0.6600 
  4 C        1.0790    -1.4770    -2.4200 C.3   1 <1>   0.0440 
  5 C        1.8390     0.6940    -0.4240 C.3   1 <1>   0.2200 
  6 C        4.3080     0.2090    -1.0250 C.3   1 <1>   0.1400 
  7 C        0.5630    -2.1830    -1.1700 C.ar  1 <1>  -0.1440 
  8 C        2.1330     2.2020    -0.3500 C.3   1 <1>   0.1200 
  9 C        1.7200     0.0930     0.9990 C.3   1 <1>   0.3430 
 10 C        4.6630     0.7800     0.3610 C.3   1 <1>  -0.0800 
 11 C        1.2640    -3.2670    -0.6630 C.ar  1 <1>  -0.1500 
 12 C       -0.5880    -1.7530    -0.5270 C.ar  1 <1>  -0.1500 
 13 O        2.9910     2.4870     0.7140 O.3   1 <1>  -0.5600 
 14 N        2.8840    -0.7850     1.3520 N.4   1 <1>  -0.9590 
 15 C        4.3410     2.2780     0.4710 C.3   1 <1>   0.1200 
 16 C        4.1560    -0.0270     1.5770 C.3   1 <1>   0.3430 
 17 C        0.8450    -3.8960     0.4960 C.ar  1 <1>  -0.1500 
 18 C       -1.0020    -2.3710     0.6400 C.ar  1 <1>  -0.1500 
 19 C        2.5460    -1.6620     2.5110 C.3   1 <1>   0.2630 
 20 C       -0.2850    -3.4350     1.1620 C.ar  1 <1>   0.0830 
 21 O       -0.7300    -3.9710     2.3210 O.3   1 <1>  -0.3620 
 22 C       -0.4550    -5.3190     2.6390 C.3   1 <1>   0.0400 
 23 H        0.4550    -0.6470    -2.6920 H     1 <1>   0.0800 
 24 H        1.0610    -2.1710    -3.2410 H     1 <1>   0.0800 
 25 H        0.8760     0.6180    -0.8920 H     1 <1>   0.0800 
 26 H        4.8550    -0.7110    -1.1540 H     1 <1>   0.0800 
 27 H        4.6560     0.8830    -1.7910 H     1 <1>   0.0800 
 28 H        1.2180     2.7300    -0.1480 H     1 <1>   0.0800 
 29 H        2.5420     2.5790    -1.2730 H     1 <1>   0.0800 
 30 H        0.8180    -0.4910     1.0400 H     1 <1>   0.0800 
 31 H        1.6180     0.8860     1.7220 H     1 <1>   0.0800 
 32 H        5.7360     0.7400     0.4160 H     1 <1>   0.0800 
 33 H        2.1410    -3.6320    -1.1760 H     1 <1>   0.1500 
 34 H       -1.1720    -0.9400    -0.9250 H     1 <1>   0.1500 
 35 H        3.0220    -1.3660     0.5080 H     1 <1>   0.4500 
 36 H        4.6260     2.8160    -0.4190 H     1 <1>   0.0800 
 37 H        4.8750     2.7060     1.3030 H     1 <1>   0.0800 
 38 H        4.0310     0.6450     2.4110 H     1 <1>   0.0800 
 39 H        4.9240    -0.7330     1.8450 H     1 <1>   0.0800 
 40 H        1.4030    -4.7360     0.8650 H     1 <1>   0.1500 
 41 H       -1.8910    -2.0420     1.1490 H     1 <1>   0.1500 
 42 H        2.4000    -1.0680     3.3990 H     1 <1>   0.0800 
 43 H        3.3400    -2.3670     2.6910 H     1 <1>   0.0800 
 44 H        1.6390    -2.2100     2.3130 H     1 <1>   0.0800 
 45 H       -1.0560    -5.5910     3.4890 H     1 <1>   0.0800 
 46 H        0.5860    -5.4210     2.8830 H     1 <1>   0.0800 
 47 H       -0.7160    -5.9370     1.7970 H     1 <1>   0.0800 
@<TRIPOS>BOND
  1   1   2  2   
  2   2   3  am  
  3   2   4  1   
  4   3   5  1   
  5   3   6  1   
  6   4   7  1   
  7   4  23  1   
  8   4  24  1   
  9   5   8  1   
 10   5   9  1   
 11   5  25  1   
 12   6  10  1   
 13   6  26  1   
 14   6  27  1   
 15   7  11  ar  
 16   7  12  ar  
 17   8  13  1   
 18   8  28  1   
 19   8  29  1   
 20   9  14  1   
 21   9  30  1   
 22   9  31  1   
 23  10  15  1   
 24  10  16  1   
 25  10  32  1   
 26  11  17  ar  
 27  11  33  1   
 28  12  18  ar  
 29  12  34  1   
 30  13  15  1   
 31  14  16  1   
 32  14  19  1   
 33  14  35  1   
 34  15  36  1   
 35  15  37  1   
 36  16  38  1   
 37  16  39  1   
 38  17  20  ar  
 39  17  40  1   
 40  18  20  ar  
 41  18  41  1   
 42  19  42  1   
 43  19  43  1   
 44  19  44  1   
 45  20  21  1   
 46  21  22  1   
 47  22  45  1   
 48  22  46  1   
 49  22  47  1   
@<TRIPOS>SUBSTRUCTURE
  1 ****   9 GROUP 4 **** **** 0

# MOE 2024.06 (io_trps.svl 2023.06)
