@<TRIPOS>MOLECULE
NONAME
47 48 1 0 0 
SMALL
USER_CHARGES


@<TRIPOS>ATOM
  1 CL       0.1480     1.9710     2.5160 Cl    1 <1>  -0.1770 
  2 C       -1.3040     2.1050     1.5440 C.ar  1 <1>   0.1770 
  3 C       -1.2630     2.7080     0.2910 C.ar  1 <1>   0.0820 
  4 C       -2.4840     1.5990     2.0530 C.ar  1 <1>  -0.1500 
  5 O       -0.1020     3.2000    -0.2000 O.3   1 <1>  -0.3630 
  6 C       -2.4260     2.7930    -0.4700 C.ar  1 <1>  -0.1440 
  7 C       -3.6420     1.6920     1.3000 C.ar  1 <1>  -0.1500 
  8 C        0.2350     4.5050     0.2120 C.3   1 <1>   0.1200 
  9 C       -3.6100     2.2850     0.0470 C.ar  1 <1>  -0.1500 
 10 C       -2.4110     3.4340    -1.8510 C.3   1 <1>  -0.0960 
 11 C        1.5050     4.9290    -0.5220 C.3   1 <1>   0.1400 
 12 N        1.9260     6.2830    -0.0840 N.am  1 <1>  -0.7300 
 13 C        1.3440     7.4350    -0.5090 C.2   1 <1>   0.5690 
 14 O        0.4000     7.4210    -1.2620 O.2   1 <1>  -0.5700 
 15 C        1.9110     8.7640    -0.0100 C.3   1 <1>  -0.0190 
 16 C        0.8420     9.8740     0.0840 C.3   1 <1>  -0.1600 
 17 C        3.0980     9.2230    -0.8880 C.3   1 <1>  -0.1600 
 18 C        1.3940    11.1630     0.7290 C.3   1 <1>   0.2000 
 19 C        3.4140    10.7280    -0.7700 C.3   1 <1>  -0.1600 
 20 O        0.7610    12.2680     0.1310 O.3   1 <1>  -0.5600 
 21 C        2.9300    11.3080     0.5610 C.3   1 <1>   0.2000 
 22 C       -0.5400    12.5170     0.5670 C.3   1 <1>   0.0400 
 23 O        3.2670    12.6440     0.5950 O.3   1 <1>  -0.6800 
 24 H       -2.4940     1.1390     3.0250 H     1 <1>   0.1500 
 25 H       -4.5680     1.3030     1.6860 H     1 <1>   0.1500 
 26 H       -0.5800     5.1610    -0.0370 H     1 <1>   0.0800 
 27 H        0.3940     4.4950     1.2750 H     1 <1>   0.0800 
 28 H       -4.5180     2.3470    -0.5270 H     1 <1>   0.1500 
 29 H       -3.3400     3.2670    -2.3660 H     1 <1>   0.0800 
 30 H       -1.6160     3.0140    -2.4410 H     1 <1>   0.0800 
 31 H       -2.2520     4.4930    -1.7630 H     1 <1>   0.0800 
 32 H        1.3110     4.9450    -1.5810 H     1 <1>   0.0800 
 33 H        2.2950     4.2260    -0.3200 H     1 <1>   0.0800 
 34 H        2.7280     6.3190     0.5480 H     1 <1>   0.3700 
 35 H        2.2760     8.5930     0.9870 H     1 <1>   0.0800 
 36 H        0.0050     9.5180     0.6580 H     1 <1>   0.0800 
 37 H        0.4970    10.0910    -0.9130 H     1 <1>   0.0800 
 38 H        3.9690     8.6520    -0.6160 H     1 <1>   0.0800 
 39 H        2.8840     9.0060    -1.9220 H     1 <1>   0.0800 
 40 H        1.1780    11.1720     1.7840 H     1 <1>   0.0800 
 41 H        2.9130    11.2510    -1.5680 H     1 <1>   0.0800 
 42 H        4.4730    10.8870    -0.8770 H     1 <1>   0.0800 
 43 H        3.4430    10.8180     1.3710 H     1 <1>   0.0800 
 44 H       -0.9000    13.3940     0.0580 H     1 <1>   0.0800 
 45 H       -0.5320    12.6950     1.6290 H     1 <1>   0.0800 
 46 H       -1.1690    11.6790     0.3260 H     1 <1>   0.0800 
 47 H        2.4980    13.1220     0.2100 H     1 <1>   0.4000 
@<TRIPOS>BOND
  1   1   2  1   
  2   2   3  ar  
  3   2   4  ar  
  4   3   5  1   
  5   3   6  ar  
  6   4   7  ar  
  7   4  24  1   
  8   5   8  1   
  9   6   9  ar  
 10   6  10  1   
 11   7   9  ar  
 12   7  25  1   
 13   8  11  1   
 14   8  26  1   
 15   8  27  1   
 16   9  28  1   
 17  10  29  1   
 18  10  30  1   
 19  10  31  1   
 20  11  12  1   
 21  11  32  1   
 22  11  33  1   
 23  12  13  am  
 24  12  34  1   
 25  13  14  2   
 26  13  15  1   
 27  15  16  1   
 28  15  17  1   
 29  15  35  1   
 30  16  18  1   
 31  16  36  1   
 32  16  37  1   
 33  17  19  1   
 34  17  38  1   
 35  17  39  1   
 36  18  20  1   
 37  18  21  1   
 38  18  40  1   
 39  19  21  1   
 40  19  41  1   
 41  19  42  1   
 42  20  22  1   
 43  21  23  1   
 44  21  43  1   
 45  22  44  1   
 46  22  45  1   
 47  22  46  1   
 48  23  47  1   
@<TRIPOS>SUBSTRUCTURE
  1 ****  13 GROUP 4 **** **** 0

# MOE 2024.06 (io_trps.svl 2023.06)
