@<TRIPOS>MOLECULE
NONAME
44 46 1 0 0 
SMALL
USER_CHARGES


@<TRIPOS>ATOM
  1 S       -0.9490     0.5020     0.3330 S.o2  1 <1>   1.0900 
  2 O       -1.6360     1.4380     1.1880 O.2   1 <1>  -0.6500 
  3 O       -0.5760    -0.7950     0.8360 O.2   1 <1>  -0.6500 
  4 C       -2.1000     0.1750    -0.9780 C.3   1 <1>  -0.0550 
  5 C        0.4540     1.2900    -0.4360 C.3   1 <1>  -0.1350 
  6 C       -3.2460    -0.5960    -0.3340 C.3   1 <1>   0.3430 
  7 N       -4.4370    -0.7200    -1.2350 N.4   1 <1>  -0.9590 
  8 C       -5.1710     0.5880    -1.4350 C.3   1 <1>   0.3430 
  9 C       -5.3610    -1.7970    -0.7240 C.3   1 <1>   0.3430 
 10 C       -5.8090     1.1600    -0.1430 C.3   1 <1>   0.1430 
 11 C       -6.5610    -1.2580     0.0750 C.3   1 <1>  -0.1600 
 12 C       -7.0110     1.9840    -0.5570 C.ar  1 <1>   0.1670 
 13 C       -6.2500     0.0410     0.8330 C.3   1 <1>  -0.1600 
 14 C       -4.9230     2.2180     0.5730 C.3   1 <1>  -0.1600 
 15 N       -7.9240     1.5970    -1.4140 N.ar  1 <1>  -0.6200 
 16 C       -7.0310     3.1980     0.0630 C.ar  1 <1>  -0.1430 
 17 C       -5.8540     3.3730     0.9870 C.3   1 <1>  -0.0170 
 18 C       -8.8740     2.4980    -1.6280 C.ar  1 <1>   0.7200 
 19 C       -8.0710     4.0470    -0.2310 C.ar  1 <1>   0.1600 
 20 N       -9.0080     3.6990    -1.0850 N.ar  1 <1>  -0.6200 
 21 N       -9.8280     2.1480    -2.4900 N.pl3 1 <1>  -0.9000 
 22 H       -1.6400    -0.4220    -1.7410 H     1 <1>   0.0800 
 23 H       -2.4450     1.1020    -1.3920 H     1 <1>   0.0800 
 24 H        1.1940     1.5210     0.3070 H     1 <1>   0.0800 
 25 H        0.1650     2.2060    -0.9140 H     1 <1>   0.0800 
 26 H        0.9050     0.6420    -1.1630 H     1 <1>   0.0800 
 27 H       -3.5350    -0.1000     0.5790 H     1 <1>   0.0800 
 28 H       -2.8840    -1.5760    -0.0640 H     1 <1>   0.0800 
 29 H       -4.1100    -1.0390    -2.1580 H     1 <1>   0.4500 
 30 H       -5.9670     0.4170    -2.1410 H     1 <1>   0.0800 
 31 H       -4.5220     1.3280    -1.8700 H     1 <1>   0.0800 
 32 H       -4.8030    -2.4750    -0.0980 H     1 <1>   0.0800 
 33 H       -5.7420    -2.3700    -1.5540 H     1 <1>   0.0800 
 34 H       -6.8870    -2.0150     0.7670 H     1 <1>   0.0800 
 35 H       -7.3810    -1.0860    -0.6020 H     1 <1>   0.0800 
 36 H       -7.1190     0.3570     1.3870 H     1 <1>   0.0800 
 37 H       -5.4760    -0.1630     1.5520 H     1 <1>   0.0800 
 38 H       -4.2000     2.6150    -0.1170 H     1 <1>   0.0800 
 39 H       -4.3920     1.8290     1.4240 H     1 <1>   0.0800 
 40 H       -5.3810     4.3320     0.8610 H     1 <1>   0.0800 
 41 H       -6.1750     3.2580     2.0090 H     1 <1>   0.0800 
 42 H       -8.1380     5.0170     0.2330 H     1 <1>   0.1500 
 43 H      -10.6620     2.7300    -2.4620 H     1 <1>   0.4000 
 44 H       -9.9780     1.1520    -2.6180 H     1 <1>   0.4000 
@<TRIPOS>BOND
  1   1   2  2   
  2   1   3  2   
  3   1   4  1   
  4   1   5  1   
  5   4   6  1   
  6   4  22  1   
  7   4  23  1   
  8   5  24  1   
  9   5  25  1   
 10   5  26  1   
 11   6   7  1   
 12   6  27  1   
 13   6  28  1   
 14   7   8  1   
 15   7   9  1   
 16   7  29  1   
 17   8  10  1   
 18   8  30  1   
 19   8  31  1   
 20   9  11  1   
 21   9  32  1   
 22   9  33  1   
 23  10  12  1   
 24  10  13  1   
 25  10  14  1   
 26  11  13  1   
 27  11  34  1   
 28  11  35  1   
 29  12  15  ar  
 30  12  16  ar  
 31  13  36  1   
 32  13  37  1   
 33  14  17  1   
 34  14  38  1   
 35  14  39  1   
 36  15  18  ar  
 37  16  17  1   
 38  16  19  ar  
 39  17  40  1   
 40  17  41  1   
 41  18  20  ar  
 42  18  21  1   
 43  19  20  ar  
 44  19  42  1   
 45  21  43  1   
 46  21  44  1   
@<TRIPOS>SUBSTRUCTURE
  1 ****  10 GROUP 4 **** **** 0

# MOE 2024.06 (io_trps.svl 2023.06)
