@<TRIPOS>MOLECULE
NONAME
47 50 1 0 0 
SMALL
USER_CHARGES


@<TRIPOS>ATOM
  1 O       -0.0010    -1.4300     1.5450 O.3   1 <1>  -0.6800 
  2 C        0.6220    -2.4350     0.8300 C.3   1 <1>   0.2000 
  3 C        1.9100    -1.9600     0.1350 C.3   1 <1>   0.0000 
  4 C       -0.2820    -2.9540    -0.2840 C.3   1 <1>  -0.1600 
  5 C        3.0730    -1.9000     1.1450 C.3   1 <1>   0.2090 
  6 C        1.7560    -0.5720    -0.5520 C.3   1 <1>  -0.1600 
  7 C        2.0910    -3.0650    -0.9220 C.3   1 <1>  -0.1600 
  8 C        0.6750    -3.4370    -1.3850 C.3   1 <1>  -0.1600 
  9 N        4.3470    -1.4780     0.4580 N.pl3 1 <1>  -0.8380 
 10 C        3.0900    -0.0270    -1.0940 C.3   1 <1>  -0.1600 
 11 C        5.4160    -2.2850     0.2560 C.ar  1 <1>   0.4610 
 12 C        4.1890    -0.0670    -0.0280 C.3   1 <1>   0.2090 
 13 N        6.4970    -1.7990    -0.3580 N.ar  1 <1>  -0.1790 
 14 C        5.4870    -3.6500     0.6470 C.ar  1 <1>  -0.1500 
 15 C        7.6510    -2.5110    -0.6260 C.ar  1 <1>   0.3610 
 16 C        6.5870    -4.4220     0.4200 C.ar  1 <1>  -0.1440 
 17 C        7.7240    -3.8590    -0.2350 C.ar  1 <1>   0.0000 
 18 C        8.7340    -1.9060    -1.2740 C.ar  1 <1>  -0.1500 
 19 C        6.6040    -5.8810     0.8610 C.3   1 <1>  -0.0970 
 20 C        8.9080    -4.5610    -0.5170 C.ar  1 <1>  -0.1500 
 21 C        9.8790    -2.6190    -1.5350 C.ar  1 <1>  -0.1500 
 22 C        9.9630    -3.9540    -1.1530 C.ar  1 <1>  -0.1500 
 23 H       -0.8810    -1.7270     1.8480 H     1 <1>   0.4000 
 24 H        0.8440    -3.2410     1.5100 H     1 <1>   0.0800 
 25 H       -0.9070    -3.7560     0.0660 H     1 <1>   0.0800 
 26 H       -0.8950    -2.1580    -0.6710 H     1 <1>   0.0800 
 27 H        3.1700    -2.8410     1.6470 H     1 <1>   0.0800 
 28 H        2.8280    -1.1750     1.9050 H     1 <1>   0.0800 
 29 H        1.0340    -0.6180    -1.3480 H     1 <1>   0.0800 
 30 H        1.3860     0.1390     0.1670 H     1 <1>   0.0800 
 31 H        2.7110    -2.7670    -1.7480 H     1 <1>   0.0800 
 32 H        2.5370    -3.9320    -0.4650 H     1 <1>   0.0800 
 33 H        0.5910    -4.5000    -1.5380 H     1 <1>   0.0800 
 34 H        0.4430    -2.9370    -2.3100 H     1 <1>   0.0800 
 35 H        2.9460     0.9900    -1.4150 H     1 <1>   0.0800 
 36 H        3.4030    -0.5930    -1.9530 H     1 <1>   0.0800 
 37 H        3.9060     0.5640     0.7990 H     1 <1>   0.0800 
 38 H        5.0990     0.3290    -0.4380 H     1 <1>   0.0800 
 39 H        6.4550    -0.8310    -0.6430 H     1 <1>   0.4570 
 40 H        4.6410    -4.0890     1.1330 H     1 <1>   0.1500 
 41 H        8.6810    -0.8750    -1.5740 H     1 <1>   0.1500 
 42 H        5.6790    -6.1570     1.3360 H     1 <1>   0.0800 
 43 H        7.4010    -6.0480     1.5640 H     1 <1>   0.0800 
 44 H        6.7470    -6.5260     0.0120 H     1 <1>   0.0800 
 45 H        9.0020    -5.5950    -0.2330 H     1 <1>   0.1500 
 46 H       10.7190    -2.1600    -2.0340 H     1 <1>   0.1500 
 47 H       10.8660    -4.5070    -1.3620 H     1 <1>   0.1500 
@<TRIPOS>BOND
  1   1   2  1   
  2   1  23  1   
  3   2   3  1   
  4   2   4  1   
  5   2  24  1   
  6   3   5  1   
  7   3   6  1   
  8   3   7  1   
  9   4   8  1   
 10   4  25  1   
 11   4  26  1   
 12   5   9  1   
 13   5  27  1   
 14   5  28  1   
 15   6  10  1   
 16   6  29  1   
 17   6  30  1   
 18   7   8  1   
 19   7  31  1   
 20   7  32  1   
 21   8  33  1   
 22   8  34  1   
 23   9  11  1   
 24   9  12  1   
 25  10  12  1   
 26  10  35  1   
 27  10  36  1   
 28  11  13  ar  
 29  11  14  ar  
 30  12  37  1   
 31  12  38  1   
 32  13  15  ar  
 33  13  39  1   
 34  14  16  ar  
 35  14  40  1   
 36  15  17  ar  
 37  15  18  ar  
 38  16  17  ar  
 39  16  19  1   
 40  17  20  ar  
 41  18  21  ar  
 42  18  41  1   
 43  19  42  1   
 44  19  43  1   
 45  19  44  1   
 46  20  22  ar  
 47  20  45  1   
 48  21  22  ar  
 49  21  46  1   
 50  22  47  1   
@<TRIPOS>SUBSTRUCTURE
  1 ****  11 GROUP 4 **** **** 0

# MOE 2024.06 (io_trps.svl 2023.06)
