@<TRIPOS>MOLECULE
NONAME
46 49 1 0 0 
SMALL
USER_CHARGES


@<TRIPOS>ATOM
  1 O       -1.7500     1.0570     2.5670 O.2   1 <1>  -0.5700 
  2 C       -2.2800     1.5650     1.6060 C.2   1 <1>   0.5690 
  3 N       -2.6810     0.8070     0.5390 N.am  1 <1>  -0.6600 
  4 C       -2.5080     3.0650     1.6320 C.3   1 <1>   0.0820 
  5 C       -3.3140     1.2970    -0.7130 C.3   1 <1>   0.1400 
  6 C       -2.4680    -0.6600     0.4630 C.3   1 <1>   0.1400 
  7 C       -1.7700     3.7770     0.5160 C.2   1 <1>   0.1080 
  8 C       -3.9710     0.0530    -1.3060 C.3   1 <1>   0.2000 
  9 C       -3.0190    -1.0790    -0.9060 C.3   1 <1>  -0.0800 
 10 N       -2.3620     4.5290    -0.3540 N.2   1 <1>  -0.7070 
 11 C       -0.3790     3.7000     0.3170 C.ar  1 <1>   0.0000 
 12 O       -5.1940    -0.1250    -0.6730 O.3   1 <1>  -0.6800 
 13 C       -3.6270    -2.4930    -0.9260 C.3   1 <1>   0.0210 
 14 N       -1.3680     4.9850    -1.1510 N.pl3 1 <1>   0.3000 
 15 C       -0.1490     4.5030    -0.7800 C.ar  1 <1>  -0.1520 
 16 C        0.6980     3.0470     0.9340 C.ar  1 <1>  -0.1500 
 17 C       -2.5980    -3.5310    -0.5230 C.2   1 <1>   0.1080 
 18 C        1.1410     4.6880    -1.2900 C.ar  1 <1>  -0.1500 
 19 C        1.9670     3.2220     0.4360 C.ar  1 <1>  -0.1500 
 20 N       -1.6060    -3.8710    -1.2860 N.2   1 <1>  -0.7070 
 21 C       -2.5910    -4.2160     0.6870 C.2   1 <1>  -0.1500 
 22 C        2.1900     4.0450    -0.6770 C.ar  1 <1>  -0.1500 
 23 N       -0.9320    -4.7950    -0.5750 N.pl3 1 <1>   0.3000 
 24 C       -1.5080    -5.0200     0.6250 C.2   1 <1>  -0.3320 
 25 C       -0.9810    -6.0030     1.6540 C.3   1 <1>  -0.0600 
 26 H       -3.5610     3.2600     1.5540 H     1 <1>   0.0800 
 27 H       -2.1700     3.4570     2.5730 H     1 <1>   0.0800 
 28 H       -4.0300     2.0810    -0.5330 H     1 <1>   0.0800 
 29 H       -2.5450     1.6580    -1.3740 H     1 <1>   0.0800 
 30 H       -1.4210    -0.8990     0.5530 H     1 <1>   0.0800 
 31 H       -3.0100    -1.1360     1.2630 H     1 <1>   0.0800 
 32 H       -4.1370     0.1220    -2.3670 H     1 <1>   0.0800 
 33 H       -2.1910    -1.0680    -1.5950 H     1 <1>   0.0800 
 34 H       -5.0550    -0.0330     0.2910 H     1 <1>   0.4000 
 35 H       -3.9760    -2.7200    -1.9170 H     1 <1>   0.0800 
 36 H       -4.4660    -2.5560    -0.2570 H     1 <1>   0.0800 
 37 H       -1.5340     5.6300    -1.9310 H     1 <1>   0.2700 
 38 H        0.5150     2.4160     1.7860 H     1 <1>   0.1500 
 39 H        1.3020     5.3210    -2.1450 H     1 <1>   0.1500 
 40 H        2.8040     2.7270     0.8980 H     1 <1>   0.1500 
 41 H       -3.3060    -4.1080     1.4830 H     1 <1>   0.1500 
 42 H        3.1950     4.1650    -1.0440 H     1 <1>   0.1500 
 43 H       -0.0860    -5.2520    -0.9360 H     1 <1>   0.2700 
 44 H       -1.6130    -6.0010     2.5240 H     1 <1>   0.0800 
 45 H        0.0150    -5.7300     1.9540 H     1 <1>   0.0800 
 46 H       -0.9660    -6.9970     1.2440 H     1 <1>   0.0800 
@<TRIPOS>BOND
  1   1   2  2   
  2   2   3  am  
  3   2   4  1   
  4   3   5  1   
  5   3   6  1   
  6   4   7  1   
  7   4  26  1   
  8   4  27  1   
  9   5   8  1   
 10   5  28  1   
 11   5  29  1   
 12   6   9  1   
 13   6  30  1   
 14   6  31  1   
 15   7  10  2   
 16   7  11  1   
 17   8   9  1   
 18   8  12  1   
 19   8  32  1   
 20   9  13  1   
 21   9  33  1   
 22  10  14  1   
 23  11  15  ar  
 24  11  16  ar  
 25  12  34  1   
 26  13  17  1   
 27  13  35  1   
 28  13  36  1   
 29  14  15  1   
 30  14  37  1   
 31  15  18  ar  
 32  16  19  ar  
 33  16  38  1   
 34  17  20  2   
 35  17  21  1   
 36  18  22  ar  
 37  18  39  1   
 38  19  22  ar  
 39  19  40  1   
 40  20  23  1   
 41  21  24  2   
 42  21  41  1   
 43  22  42  1   
 44  23  24  1   
 45  23  43  1   
 46  24  25  1   
 47  25  44  1   
 48  25  45  1   
 49  25  46  1   
@<TRIPOS>SUBSTRUCTURE
  1 ****   3 GROUP 4 **** **** 0

# MOE 2024.06 (io_trps.svl 2023.06)
