@<TRIPOS>MOLECULE
NONAME
46 48 1 0 0 
SMALL
USER_CHARGES


@<TRIPOS>ATOM
  1 F       -1.4510     0.5180    -0.8780 F     1 <1>  -0.3400 
  2 C       -2.3300     1.0860    -0.0660 C.3   1 <1>   1.3000 
  3 F       -1.6980     2.0210     0.6320 F     1 <1>  -0.3400 
  4 F       -2.7660     0.1560     0.7770 F     1 <1>  -0.3400 
  5 O       -3.3990     1.6320    -0.8150 O.3   1 <1>  -0.3630 
  6 C       -4.3970     2.2270    -0.1310 C.ar  1 <1>   0.0830 
  7 C       -5.5140     1.4890     0.2300 C.ar  1 <1>  -0.1500 
  8 C       -4.3130     3.5720     0.1890 C.ar  1 <1>  -0.1500 
  9 C       -6.5520     2.0930     0.9240 C.ar  1 <1>  -0.1440 
 10 C       -5.3430     4.1740     0.8880 C.ar  1 <1>  -0.1500 
 11 C       -6.4570     3.4390     1.2570 C.ar  1 <1>  -0.1500 
 12 C       -7.7810     1.2930     1.3080 C.3   1 <1>   0.4870 
 13 N       -8.9060     1.6890     0.4230 N.4   1 <1>  -0.9590 
 14 C      -10.2180     1.1350     0.8970 C.3   1 <1>   0.3430 
 15 C       -8.6550     1.3880    -1.0130 C.3   1 <1>   0.3430 
 16 C      -11.3590     1.2850    -0.1350 C.3   1 <1>   0.0000 
 17 C       -9.6710     2.1510    -1.8710 C.3   1 <1>  -0.1600 
 18 C      -12.6770     1.5350     0.6150 C.3   1 <1>   0.2000 
 19 C      -11.0230     2.3950    -1.1710 C.3   1 <1>  -0.1600 
 20 C      -11.6960    -0.0290    -0.8650 C.3   1 <1>  -0.1600 
 21 O      -12.7760     2.8430     1.0450 O.3   1 <1>  -0.6800 
 22 C      -13.7860     1.1770    -0.3670 C.3   1 <1>  -0.1600 
 23 C      -13.1750     0.0910    -1.2660 C.3   1 <1>  -0.1600 
 24 H       -5.5530     0.4470    -0.0380 H     1 <1>   0.1500 
 25 H       -3.4490     4.1430    -0.1040 H     1 <1>   0.1500 
 26 H       -5.2740     5.2190     1.1450 H     1 <1>   0.1500 
 27 H       -7.2410     3.9320     1.8070 H     1 <1>   0.1500 
 28 H       -8.0290     1.4990     2.3370 H     1 <1>   0.0800 
 29 H       -7.5820     0.2380     1.2100 H     1 <1>   0.0800 
 30 H       -8.9790     2.7130     0.4740 H     1 <1>   0.4500 
 31 H      -10.1100     0.0920     1.1460 H     1 <1>   0.0800 
 32 H      -10.5060     1.6580     1.7950 H     1 <1>   0.0800 
 33 H       -7.6570     1.6810    -1.2990 H     1 <1>   0.0800 
 34 H       -8.7610     0.3290    -1.1810 H     1 <1>   0.0800 
 35 H       -9.2490     3.0970    -2.1630 H     1 <1>   0.0800 
 36 H       -9.8280     1.5930    -2.7780 H     1 <1>   0.0800 
 37 H      -12.7500     0.8920     1.4770 H     1 <1>   0.0800 
 38 H      -11.7990     2.4900    -1.9110 H     1 <1>   0.0800 
 39 H      -10.9680     3.3430    -0.6620 H     1 <1>   0.0800 
 40 H      -11.0760    -0.2200    -1.7230 H     1 <1>   0.0800 
 41 H      -11.5970    -0.8610    -0.1880 H     1 <1>   0.0800 
 42 H      -13.6930     3.0380     1.3280 H     1 <1>   0.4000 
 43 H      -14.6570     0.8110     0.1460 H     1 <1>   0.0800 
 44 H      -14.0510     2.0320    -0.9670 H     1 <1>   0.0800 
 45 H      -13.6820    -0.8510    -1.1380 H     1 <1>   0.0800 
 46 H      -13.2610     0.3860    -2.2990 H     1 <1>   0.0800 
@<TRIPOS>BOND
  1   1   2  1   
  2   2   3  1   
  3   2   4  1   
  4   2   5  1   
  5   5   6  1   
  6   6   7  ar  
  7   6   8  ar  
  8   7   9  ar  
  9   7  24  1   
 10   8  10  ar  
 11   8  25  1   
 12   9  11  ar  
 13   9  12  1   
 14  10  11  ar  
 15  10  26  1   
 16  11  27  1   
 17  12  13  1   
 18  12  28  1   
 19  12  29  1   
 20  13  14  1   
 21  13  15  1   
 22  13  30  1   
 23  14  16  1   
 24  14  31  1   
 25  14  32  1   
 26  15  17  1   
 27  15  33  1   
 28  15  34  1   
 29  16  18  1   
 30  16  19  1   
 31  16  20  1   
 32  17  19  1   
 33  17  35  1   
 34  17  36  1   
 35  18  21  1   
 36  18  22  1   
 37  18  37  1   
 38  19  38  1   
 39  19  39  1   
 40  20  23  1   
 41  20  40  1   
 42  20  41  1   
 43  21  42  1   
 44  22  23  1   
 45  22  43  1   
 46  22  44  1   
 47  23  45  1   
 48  23  46  1   
@<TRIPOS>SUBSTRUCTURE
  1 ****  13 GROUP 4 **** **** 0

# MOE 2024.06 (io_trps.svl 2023.06)
