@<TRIPOS>MOLECULE
NONAME
48 50 1 0 0 
SMALL
USER_CHARGES


@<TRIPOS>ATOM
  1 O       -2.5520     1.1450    -1.9420 O.2   1 <1>  -0.5700 
  2 C       -2.1900     1.0210    -0.7990 C.2   1 <1>   0.5690 
  3 N       -1.9660    -0.1940    -0.2480 N.am  1 <1>  -0.7300 
  4 C       -1.9860     2.2550     0.0450 C.3   1 <1>  -0.0990 
  5 C       -2.0940    -1.4880    -0.9610 C.3   1 <1>   0.2200 
  6 C       -1.1660     3.2980    -0.7210 C.3   1 <1>   0.0960 
  7 C       -3.3510    -2.2340    -0.5320 C.3   1 <1>  -0.0800 
  8 C       -1.0200    -2.4350    -0.4450 C.3   1 <1>   0.1200 
  9 N       -0.8280     4.4310     0.1640 N.pl3 1 <1>   0.0480 
 10 C       -2.9040    -2.9680     0.7390 C.3   1 <1>   0.1200 
 11 C       -4.6190    -1.3770    -0.3600 C.3   1 <1>  -0.0170 
 12 O       -1.5080    -2.8880     0.7800 O.3   1 <1>  -0.5600 
 13 C        0.3650     4.7750     0.7160 C.2   1 <1>   0.0060 
 14 C       -1.6930     5.3580     0.6150 C.2   1 <1>  -0.3020 
 15 C       -5.8200    -2.2480    -0.0270 C.ar  1 <1>  -0.1440 
 16 N        0.3020     5.8270     1.4670 N.2   1 <1>  -0.5650 
 17 C        1.6680     4.0240     0.4860 C.3   1 <1>   0.0200 
 18 C       -0.9890     6.1960     1.4050 C.2   1 <1>   0.0770 
 19 C       -6.2760    -2.4090     1.2660 C.ar  1 <1>  -0.1500 
 20 C       -6.5180    -2.9240    -1.0070 C.ar  1 <1>  -0.1500 
 21 C        1.7210     2.7120     1.2770 C.3   1 <1>  -0.2400 
 22 C       -7.3720    -3.2200     1.5090 C.ar  1 <1>   0.1600 
 23 C       -7.6020    -3.7110    -0.6570 C.ar  1 <1>   0.1600 
 24 N       -8.0440    -3.8780     0.5790 N.ar  1 <1>  -0.6200 
 25 H       -1.6940    -0.2970     0.7330 H     1 <1>   0.3700 
 26 H       -2.9500     2.6600     0.2900 H     1 <1>   0.0800 
 27 H       -1.4800     1.9890     0.9550 H     1 <1>   0.0800 
 28 H       -2.0370    -1.3440    -2.0270 H     1 <1>   0.0800 
 29 H       -1.7290     3.6680    -1.5590 H     1 <1>   0.0800 
 30 H       -0.2610     2.8550    -1.0930 H     1 <1>   0.0800 
 31 H       -3.5550    -2.9840    -1.2770 H     1 <1>   0.0800 
 32 H       -0.0680    -1.9550    -0.3050 H     1 <1>   0.0800 
 33 H       -0.9130    -3.2860    -1.0950 H     1 <1>   0.0800 
 34 H       -3.1960    -4.0040     0.7230 H     1 <1>   0.0800 
 35 H       -3.2840    -2.4970     1.6290 H     1 <1>   0.0800 
 36 H       -4.8110    -0.8370    -1.2710 H     1 <1>   0.0800 
 37 H       -4.4800    -0.6510     0.4210 H     1 <1>   0.0800 
 38 H       -2.7350     5.3750     0.3570 H     1 <1>   0.1500 
 39 H        1.8010     3.8350    -0.5640 H     1 <1>   0.0800 
 40 H        2.4810     4.6530     0.8050 H     1 <1>   0.0800 
 41 H       -1.3480     7.0600     1.9390 H     1 <1>   0.1500 
 42 H       -5.7920    -1.9120     2.0870 H     1 <1>   0.1500 
 43 H       -6.2290    -2.8470    -2.0400 H     1 <1>   0.1500 
 44 H        0.9660     2.0280     0.9380 H     1 <1>   0.0800 
 45 H        1.5630     2.9140     2.3230 H     1 <1>   0.0800 
 46 H        2.6840     2.2510     1.1580 H     1 <1>   0.0800 
 47 H       -7.7130    -3.3350     2.5240 H     1 <1>   0.1500 
 48 H       -8.1340    -4.2320    -1.4350 H     1 <1>   0.1500 
@<TRIPOS>BOND
  1   1   2  2   
  2   2   3  am  
  3   2   4  1   
  4   3   5  1   
  5   3  25  1   
  6   4   6  1   
  7   4  26  1   
  8   4  27  1   
  9   5   7  1   
 10   5   8  1   
 11   5  28  1   
 12   6   9  1   
 13   6  29  1   
 14   6  30  1   
 15   7  10  1   
 16   7  11  1   
 17   7  31  1   
 18   8  12  1   
 19   8  32  1   
 20   8  33  1   
 21   9  13  1   
 22   9  14  1   
 23  10  12  1   
 24  10  34  1   
 25  10  35  1   
 26  11  15  1   
 27  11  36  1   
 28  11  37  1   
 29  13  16  2   
 30  13  17  1   
 31  14  18  2   
 32  14  38  1   
 33  15  19  ar  
 34  15  20  ar  
 35  16  18  1   
 36  17  21  1   
 37  17  39  1   
 38  17  40  1   
 39  18  41  1   
 40  19  22  ar  
 41  19  42  1   
 42  20  23  ar  
 43  20  43  1   
 44  21  44  1   
 45  21  45  1   
 46  21  46  1   
 47  22  24  ar  
 48  22  47  1   
 49  23  24  ar  
 50  23  48  1   
@<TRIPOS>SUBSTRUCTURE
  1 ****   3 GROUP 4 **** **** 0

# MOE 2024.06 (io_trps.svl 2023.06)
