@<TRIPOS>MOLECULE
NONAME
46 49 1 0 0 
SMALL
USER_CHARGES


@<TRIPOS>ATOM
  1 O       -0.1320     1.1840    -0.8840 O.2   1 <1>  -0.5700 
  2 C       -0.2440     2.3800    -0.7430 C.2   1 <1>   0.5690 
  3 N       -1.1270     2.9630     0.1280 N.am  1 <1>  -0.5090 
  4 C        0.6560     3.2900    -1.5680 C.3   1 <1>   0.1810 
  5 C       -1.1990     4.4550     0.2670 C.3   1 <1>   0.3640 
  6 C       -1.8470     2.1730     1.1590 C.3   1 <1>   0.0490 
  7 O        1.0550     4.4050    -0.8150 O.3   1 <1>  -0.5600 
  8 C       -2.5050     4.9780    -0.3300 C.ar  1 <1>  -0.1440 
  9 C       -0.0120     5.2330    -0.3740 C.3   1 <1>   0.2610 
 10 C       -2.7410     1.0580     0.7150 C.3   1 <1>  -0.2000 
 11 C       -3.3330     2.2890     1.3200 C.3   1 <1>  -0.2000 
 12 C       -3.0300     4.4540    -1.5060 C.ar  1 <1>   0.1600 
 13 C       -3.1880     6.0060     0.2920 C.ar  1 <1>  -0.1500 
 14 C        0.5060     6.2830     0.6160 C.2   1 <1>   0.5690 
 15 N       -4.1380     4.8700    -2.0960 N.ar  1 <1>  -0.6200 
 16 C       -4.3500     6.4460    -0.3050 C.ar  1 <1>  -0.1500 
 17 O       -0.2650     7.0840     1.0900 O.2   1 <1>  -0.5700 
 18 N        1.8220     6.3010     0.9420 N.am  1 <1>  -0.7300 
 19 C       -4.7730     5.8540    -1.4820 C.ar  1 <1>   0.1600 
 20 C        2.4850     7.3240     1.7810 C.3   1 <1>   0.3210 
 21 C        3.2390     8.3020     0.8990 C.2   1 <1>   0.1080 
 22 N        4.5190     8.3330     0.7710 N.2   1 <1>  -0.4100 
 23 C        2.6400     9.2840     0.1140 C.2   1 <1>  -0.1500 
 24 O        4.7740     9.2980    -0.0660 O.3   1 <1>  -0.0190 
 25 C        3.6820     9.8860    -0.4780 C.2   1 <1>  -0.0400 
 26 C        3.7650    11.0360    -1.4590 C.3   1 <1>  -0.0600 
 27 H        0.1430     3.6250    -2.4520 H     1 <1>   0.0800 
 28 H        1.5420     2.7530    -1.8560 H     1 <1>   0.0800 
 29 H       -1.2100     4.6710     1.3220 H     1 <1>   0.0800 
 30 H       -1.2460     2.0070     2.0380 H     1 <1>   0.1000 
 31 H       -0.3660     5.7650    -1.2380 H     1 <1>   0.0800 
 32 H       -2.8600     0.8840    -0.3400 H     1 <1>   0.1000 
 33 H       -2.7480     0.1470     1.2860 H     1 <1>   0.1000 
 34 H       -3.7560     2.2090     2.3050 H     1 <1>   0.1000 
 35 H       -3.9230     2.9120     0.6720 H     1 <1>   0.1000 
 36 H       -2.5170     3.6440    -1.9950 H     1 <1>   0.1500 
 37 H       -2.8360     6.4580     1.2050 H     1 <1>   0.1500 
 38 H       -4.9220     7.2420     0.1340 H     1 <1>   0.1500 
 39 H        2.4480     5.6630     0.4380 H     1 <1>   0.3700 
 40 H       -5.6810     6.2070    -1.9410 H     1 <1>   0.1500 
 41 H        1.7550     7.8580     2.3640 H     1 <1>   0.0800 
 42 H        3.1720     6.8420     2.4550 H     1 <1>   0.0800 
 43 H        1.5860     9.4760     0.0310 H     1 <1>   0.1500 
 44 H        2.7810    11.3990    -1.6900 H     1 <1>   0.0800 
 45 H        4.2400    10.7070    -2.3650 H     1 <1>   0.0800 
 46 H        4.3430    11.8350    -1.0320 H     1 <1>   0.0800 
@<TRIPOS>BOND
  1   1   2  2   
  2   2   3  am  
  3   2   4  1   
  4   3   5  1   
  5   3   6  1   
  6   4   7  1   
  7   4  27  1   
  8   4  28  1   
  9   5   8  1   
 10   5   9  1   
 11   5  29  1   
 12   6  10  1   
 13   6  11  1   
 14   6  30  1   
 15   7   9  1   
 16   8  12  ar  
 17   8  13  ar  
 18   9  14  1   
 19   9  31  1   
 20  10  11  1   
 21  10  32  1   
 22  10  33  1   
 23  11  34  1   
 24  11  35  1   
 25  12  15  ar  
 26  12  36  1   
 27  13  16  ar  
 28  13  37  1   
 29  14  17  2   
 30  14  18  am  
 31  15  19  ar  
 32  16  19  ar  
 33  16  38  1   
 34  18  20  1   
 35  18  39  1   
 36  19  40  1   
 37  20  21  1   
 38  20  41  1   
 39  20  42  1   
 40  21  22  2   
 41  21  23  1   
 42  22  24  1   
 43  23  25  2   
 44  23  43  1   
 45  24  25  1   
 46  25  26  1   
 47  26  44  1   
 48  26  45  1   
 49  26  46  1   
@<TRIPOS>SUBSTRUCTURE
  1 ****   9 GROUP 4 **** **** 0

# MOE 2024.06 (io_trps.svl 2023.06)
