@<TRIPOS>MOLECULE
NONAME
52 56 1 0 0 
SMALL
USER_CHARGES


@<TRIPOS>ATOM
  1 S       -2.3420    -1.0930    -3.5420 S.3   1 <1>  -0.0800 
  2 C       -1.8250    -0.2240    -2.0770 C.2   1 <1>  -0.0450 
  3 C       -2.5940    -2.5960    -2.6660 C.2   1 <1>  -0.1100 
  4 C       -1.8440    -1.1000    -1.0370 C.2   1 <1>   0.0620 
  5 C       -1.4930     1.1670    -2.1950 C.2   1 <1>   0.7150 
  6 C       -2.2920    -2.4220    -1.3680 C.2   1 <1>   0.0620 
  7 O       -1.4700    -0.8060     0.2280 O.3   1 <1>  -0.3420 
  8 O       -0.8630     1.5530    -3.1670 O.2   1 <1>  -0.5700 
  9 N       -1.8610     2.1050    -1.2530 N.am  1 <1>  -0.6600 
 10 O       -2.3930    -3.3890    -0.4180 O.3   1 <1>  -0.3420 
 11 C       -1.2980    -1.8820     1.1310 C.3   1 <1>   0.1200 
 12 C       -3.0780     1.9710    -0.3770 C.3   1 <1>   0.2200 
 13 C       -1.0010     3.3090    -1.0450 C.3   1 <1>   0.1400 
 14 C       -2.3950    -2.9370     0.9240 C.3   1 <1>   0.1200 
 15 C       -3.3650     3.2230     0.5110 C.3   1 <1>   0.1380 
 16 C       -4.3270     1.4690    -1.1310 C.3   1 <1>  -0.1600 
 17 C       -0.8250     3.6560     0.4440 C.3   1 <1>  -0.1600 
 18 C       -3.7280     4.5440    -0.2360 C.2   1 <1>  -0.2760 
 19 C       -4.5410     2.8430     1.4630 C.3   1 <1>   0.1200 
 20 C       -2.0700     3.4290     1.3300 C.3   1 <1>  -0.1600 
 21 C       -5.6090     1.8450    -0.3840 C.3   1 <1>   0.1200 
 22 C       -3.9290     4.6920    -1.5540 C.2   1 <1>  -0.2880 
 23 C       -3.8350     5.8060     0.6300 C.3   1 <1>  -0.0220 
 24 O       -5.3440     1.7950     0.9810 O.3   1 <1>  -0.5600 
 25 C       -4.2560     6.0120    -2.2400 C.3   1 <1>   0.2580 
 26 C       -4.5830     6.9260    -0.1040 C.3   1 <1>   0.1200 
 27 O       -4.0400     7.0890    -1.3760 O.3   1 <1>  -0.5600 
 28 H       -2.9430    -3.4530    -3.2110 H     1 <1>   0.1500 
 29 H       -0.3280    -2.3120     0.9570 H     1 <1>   0.0800 
 30 H       -1.3350    -1.4840     2.1290 H     1 <1>   0.0800 
 31 H       -2.8500     1.1910     0.3270 H     1 <1>   0.0800 
 32 H       -0.0290     3.1470    -1.4810 H     1 <1>   0.0800 
 33 H       -1.4390     4.1420    -1.5630 H     1 <1>   0.0800 
 34 H       -3.3640    -2.5190     1.1360 H     1 <1>   0.0800 
 35 H       -2.2310    -3.7880     1.5590 H     1 <1>   0.0800 
 36 H       -4.2940     0.3970    -1.1900 H     1 <1>   0.0800 
 37 H       -4.3730     1.8440    -2.1350 H     1 <1>   0.0800 
 38 H       -0.0070     3.0770     0.8350 H     1 <1>   0.0800 
 39 H       -0.5320     4.6900     0.5040 H     1 <1>   0.0800 
 40 H       -5.1930     3.6780     1.6350 H     1 <1>   0.0800 
 41 H       -4.1630     2.5180     2.4160 H     1 <1>   0.0800 
 42 H       -2.1720     4.2340     2.0340 H     1 <1>   0.0800 
 43 H       -1.8930     2.5400     1.9110 H     1 <1>   0.0800 
 44 H       -6.3980     1.1460    -0.6010 H     1 <1>   0.0800 
 45 H       -5.9410     2.8390    -0.6360 H     1 <1>   0.0800 
 46 H       -3.8630     3.8980    -2.2700 H     1 <1>   0.1500 
 47 H       -2.8490     6.1610     0.8690 H     1 <1>   0.0800 
 48 H       -4.3470     5.6190     1.5540 H     1 <1>   0.0800 
 49 H       -5.2830     6.0320    -2.5620 H     1 <1>   0.0800 
 50 H       -3.6170     6.1570    -3.0940 H     1 <1>   0.0800 
 51 H       -4.4800     7.8590     0.4220 H     1 <1>   0.0800 
 52 H       -5.6290     6.6900    -0.2060 H     1 <1>   0.0800 
@<TRIPOS>BOND
  1   1   2  1   
  2   1   3  1   
  3   2   4  2   
  4   2   5  1   
  5   3   6  2   
  6   3  28  1   
  7   4   6  1   
  8   4   7  1   
  9   5   8  2   
 10   5   9  am  
 11   6  10  1   
 12   7  11  1   
 13   9  12  1   
 14   9  13  1   
 15  10  14  1   
 16  11  14  1   
 17  11  29  1   
 18  11  30  1   
 19  12  15  1   
 20  12  16  1   
 21  12  31  1   
 22  13  17  1   
 23  13  32  1   
 24  13  33  1   
 25  14  34  1   
 26  14  35  1   
 27  15  18  1   
 28  15  19  1   
 29  15  20  1   
 30  16  21  1   
 31  16  36  1   
 32  16  37  1   
 33  17  20  1   
 34  17  38  1   
 35  17  39  1   
 36  18  22  2   
 37  18  23  1   
 38  19  24  1   
 39  19  40  1   
 40  19  41  1   
 41  20  42  1   
 42  20  43  1   
 43  21  24  1   
 44  21  44  1   
 45  21  45  1   
 46  22  25  1   
 47  22  46  1   
 48  23  26  1   
 49  23  47  1   
 50  23  48  1   
 51  25  27  1   
 52  25  49  1   
 53  25  50  1   
 54  26  27  1   
 55  26  51  1   
 56  26  52  1   
@<TRIPOS>SUBSTRUCTURE
  1 ****  12 GROUP 4 **** **** 0

# MOE 2024.06 (io_trps.svl 2023.06)
