@<TRIPOS>MOLECULE
NONAME
45 46 1 0 0 
SMALL
USER_CHARGES


@<TRIPOS>ATOM
  1 S       -0.1620     0.1530    -0.1870 S.o2  1 <1>   1.3330 
  2 O        0.4840     0.0800    -1.4760 O.2   1 <1>  -0.6500 
  3 O       -1.5680    -0.1550    -0.0590 O.2   1 <1>  -0.6500 
  4 N        0.0920     1.7050     0.4390 N.am  1 <1>  -0.8490 
  5 C        0.7250    -0.8740     0.9650 C.3   1 <1>  -0.1350 
  6 C        1.3440     2.3210    -0.0410 C.3   1 <1>   0.1960 
  7 C       -1.0330     2.6070     0.1430 C.3   1 <1>   0.1960 
  8 C        1.5400     3.7330     0.5470 C.3   1 <1>   0.2000 
  9 C       -0.7870     4.0150     0.7170 C.3   1 <1>   0.1200 
 10 O        0.4240     4.5390     0.2510 O.3   1 <1>  -0.5600 
 11 C        2.8090     4.3920    -0.0110 C.3   1 <1>   0.2090 
 12 N        2.9320     5.7910     0.4680 N.pl3 1 <1>  -0.8690 
 13 C        3.9770     6.5910     0.0740 C.ar  1 <1>   0.4100 
 14 N        5.0330     5.9920    -0.4590 N.ar  1 <1>  -0.6200 
 15 C        3.8880     7.9640     0.2510 C.ar  1 <1>  -0.1500 
 16 C        6.0180     6.7880    -0.8320 C.ar  1 <1>   0.1600 
 17 C        4.9200     8.8040    -0.1260 C.ar  1 <1>   0.0860 
 18 C        6.0150     8.1610    -0.6940 C.ar  1 <1>  -0.1500 
 19 C        4.8530    10.2420     0.0600 C.2   1 <1>   0.5440 
 20 O        3.7800    10.8100     0.0950 O.2   1 <1>  -0.5700 
 21 N        5.9940    10.9800     0.2170 N.am  1 <1>  -0.7300 
 22 C        6.0390    12.4450     0.3860 C.3   1 <1>   0.1400 
 23 C        7.2680    12.9810    -0.3390 C.3   1 <1>  -0.2400 
 24 H        0.6200    -1.9050     0.6910 H     1 <1>   0.0800 
 25 H        0.3320    -0.7390     1.9540 H     1 <1>   0.0800 
 26 H        1.7660    -0.6210     0.9670 H     1 <1>   0.0800 
 27 H        1.3300     2.3940    -1.1170 H     1 <1>   0.0800 
 28 H        2.1780     1.7020     0.2380 H     1 <1>   0.0800 
 29 H       -1.9370     2.2140     0.5780 H     1 <1>   0.0800 
 30 H       -1.1820     2.6760    -0.9220 H     1 <1>   0.0800 
 31 H        1.6310     3.6640     1.6170 H     1 <1>   0.0800 
 32 H       -0.7570     3.9820     1.7930 H     1 <1>   0.0800 
 33 H       -1.5730     4.6820     0.4130 H     1 <1>   0.0800 
 34 H        2.7790     4.3880    -1.0870 H     1 <1>   0.0800 
 35 H        3.6750     3.8350     0.3030 H     1 <1>   0.0800 
 36 H        2.0110     6.2420     0.4980 H     1 <1>   0.4000 
 37 H        3.0020     8.3780     0.6930 H     1 <1>   0.1500 
 38 H        6.8770     6.3130    -1.2740 H     1 <1>   0.1500 
 39 H        6.8580     8.7300    -1.0360 H     1 <1>   0.1500 
 40 H        6.8830    10.5000     0.3490 H     1 <1>   0.3700 
 41 H        6.0890    12.6820     1.4350 H     1 <1>   0.0800 
 42 H        5.1460    12.8900    -0.0230 H     1 <1>   0.0800 
 43 H        8.1660    12.5650     0.0800 H     1 <1>   0.0800 
 44 H        7.3070    14.0500    -0.2350 H     1 <1>   0.0800 
 45 H        7.2120    12.7440    -1.3870 H     1 <1>   0.0800 
@<TRIPOS>BOND
  1   1   2  2   
  2   1   3  2   
  3   1   4  am  
  4   1   5  1   
  5   4   6  1   
  6   4   7  1   
  7   5  24  1   
  8   5  25  1   
  9   5  26  1   
 10   6   8  1   
 11   6  27  1   
 12   6  28  1   
 13   7   9  1   
 14   7  29  1   
 15   7  30  1   
 16   8  10  1   
 17   8  11  1   
 18   8  31  1   
 19   9  10  1   
 20   9  32  1   
 21   9  33  1   
 22  11  12  1   
 23  11  34  1   
 24  11  35  1   
 25  12  13  1   
 26  12  36  1   
 27  13  14  ar  
 28  13  15  ar  
 29  14  16  ar  
 30  15  17  ar  
 31  15  37  1   
 32  16  18  ar  
 33  16  38  1   
 34  17  18  ar  
 35  17  19  1   
 36  18  39  1   
 37  19  20  2   
 38  19  21  am  
 39  21  22  1   
 40  21  40  1   
 41  22  23  1   
 42  22  41  1   
 43  22  42  1   
 44  23  43  1   
 45  23  44  1   
 46  23  45  1   
@<TRIPOS>SUBSTRUCTURE
  1 ****  12 GROUP 4 **** **** 0

# MOE 2024.06 (io_trps.svl 2023.06)
