@<TRIPOS>MOLECULE
NONAME
39 41 1 0 0 
SMALL
USER_CHARGES


@<TRIPOS>ATOM
  1 O       -0.5610    -0.5650     0.8360 O.co2 1 <1>  -0.9000 
  2 C       -0.5410    -1.8010     0.7300 C.2   1 <1>   1.0330 
  3 O       -1.6330    -2.4020     0.6720 O.co2 1 <1>  -0.9000 
  4 C        0.6930    -2.5280     0.6650 C.2   1 <1>  -0.2330 
  5 C        0.7990    -3.8980     0.8970 C.2   1 <1>   0.3720 
  6 C        1.9760    -2.1610     0.3930 C.2   1 <1>   0.0870 
  7 N        2.0100    -4.3130     0.7790 N.2   1 <1>  -0.4100 
  8 N       -0.2740    -4.7190     1.2030 N.pl3 1 <1>  -0.8520 
  9 O        2.7070    -3.2500     0.4810 O.3   1 <1>  -0.0190 
 10 C        2.6260    -0.9200     0.0360 C.ar  1 <1>   0.0530 
 11 C       -0.4380    -5.8870     0.3030 C.3   1 <1>   0.2090 
 12 C        3.9520    -0.6830     0.4040 C.ar  1 <1>  -0.1500 
 13 C        1.9860     0.0750    -0.7000 C.ar  1 <1>  -0.1500 
 14 C       -1.8470    -6.4880     0.4130 C.3   1 <1>   0.2000 
 15 C        4.6070     0.4840     0.0550 C.ar  1 <1>  -0.1500 
 16 C        2.6310     1.2470    -1.0520 C.ar  1 <1>  -0.1500 
 17 O       -1.8920    -7.6460    -0.3780 O.3   1 <1>  -0.5600 
 18 C       -2.9510    -5.5200    -0.0530 C.3   1 <1>  -0.1600 
 19 C        3.9450     1.4540    -0.6760 C.ar  1 <1>  -0.1500 
 20 C       -3.0750    -8.3770    -0.2810 C.3   1 <1>   0.1200 
 21 C       -4.3250    -6.2000    -0.0600 C.3   1 <1>  -0.1600 
 22 C       -4.2400    -7.5330    -0.8090 C.3   1 <1>  -0.1600 
 23 H       -1.1110    -4.1000     1.1240 H     1 <1>   0.4000 
 24 H        0.2880    -6.6330     0.5740 H     1 <1>   0.0800 
 25 H       -0.2590    -5.5810    -0.7140 H     1 <1>   0.0800 
 26 H        4.4740    -1.4290     0.9760 H     1 <1>   0.1500 
 27 H        0.9620    -0.0710    -0.9990 H     1 <1>   0.1500 
 28 H       -2.0130    -6.7820     1.4360 H     1 <1>   0.0800 
 29 H        5.6280     0.6380     0.3530 H     1 <1>   0.1500 
 30 H        2.1020     1.9950    -1.6140 H     1 <1>   0.1500 
 31 H       -2.7120    -5.1630    -1.0390 H     1 <1>   0.0800 
 32 H       -2.9840    -4.6640     0.5980 H     1 <1>   0.0800 
 33 H        4.4470     2.3660    -0.9490 H     1 <1>   0.1500 
 34 H       -3.2260    -8.6520     0.7490 H     1 <1>   0.0800 
 35 H       -2.9570    -9.2700    -0.8700 H     1 <1>   0.0800 
 36 H       -5.0520    -5.5550    -0.5230 H     1 <1>   0.0800 
 37 H       -4.6340    -6.3790     0.9560 H     1 <1>   0.0800 
 38 H       -5.1610    -8.0770    -0.6970 H     1 <1>   0.0800 
 39 H       -4.0870    -7.3530    -1.8590 H     1 <1>   0.0800 
@<TRIPOS>BOND
  1   1   2  ar  
  2   2   3  ar  
  3   2   4  1   
  4   4   5  1   
  5   4   6  2   
  6   5   7  2   
  7   5   8  1   
  8   6   9  1   
  9   6  10  1   
 10   7   9  1   
 11   8  11  1   
 12   8  23  1   
 13  10  12  ar  
 14  10  13  ar  
 15  11  14  1   
 16  11  24  1   
 17  11  25  1   
 18  12  15  ar  
 19  12  26  1   
 20  13  16  ar  
 21  13  27  1   
 22  14  17  1   
 23  14  18  1   
 24  14  28  1   
 25  15  19  ar  
 26  15  29  1   
 27  16  19  ar  
 28  16  30  1   
 29  17  20  1   
 30  18  21  1   
 31  18  31  1   
 32  18  32  1   
 33  19  33  1   
 34  20  22  1   
 35  20  34  1   
 36  20  35  1   
 37  21  22  1   
 38  21  36  1   
 39  21  37  1   
 40  22  38  1   
 41  22  39  1   
@<TRIPOS>SUBSTRUCTURE
  1 ****   4 GROUP 4 **** **** 0

# MOE 2024.06 (io_trps.svl 2023.06)
