@<TRIPOS>MOLECULE
NONAME
51 54 1 0 0 
SMALL
USER_CHARGES


@<TRIPOS>ATOM
  1 O       -3.6650     0.2140     2.4180 O.2   1 <1>  -0.5700 
  2 C       -3.1030     1.1610     1.9280 C.2   1 <1>   0.4950 
  3 C       -3.5570     2.0440     0.9110 C.2   1 <1>  -0.1240 
  4 C       -1.7240     1.5950     2.3670 C.3   1 <1>  -0.0990 
  5 C       -2.6580     3.0100     0.6380 C.2   1 <1>  -0.1670 
  6 C       -4.9190     1.8560     0.2450 C.3   1 <1>   0.0390 
  7 C       -1.4350     2.8570     1.5290 C.3   1 <1>  -0.0220 
  8 C       -2.6960     4.0710    -0.3310 C.ar  1 <1>   0.0280 
  9 C       -4.9800     0.5470    -0.5300 C.2   1 <1>   0.5690 
 10 C       -2.9260     3.7980    -1.6780 C.ar  1 <1>  -0.1500 
 11 C       -2.5010     5.4010     0.0380 C.ar  1 <1>  -0.1500 
 12 O       -4.3800     0.5050    -1.5790 O.2   1 <1>  -0.5700 
 13 N       -5.6740    -0.5410    -0.0650 N.am  1 <1>  -0.6600 
 14 C       -2.9670     4.8100    -2.6190 C.ar  1 <1>  -0.1500 
 15 C       -2.5400     6.4170    -0.8990 C.ar  1 <1>  -0.1500 
 16 C       -6.4080    -0.6780     1.2190 C.3   1 <1>   0.1400 
 17 C       -5.4360    -1.9000    -0.5990 C.3   1 <1>   0.1400 
 18 C       -2.7740     6.1230    -2.2310 C.ar  1 <1>  -0.1500 
 19 C       -6.0450    -2.0690     1.7480 C.3   1 <1>   0.2000 
 20 C       -5.2200    -2.7530     0.6510 C.3   1 <1>  -0.0800 
 21 O       -5.2710    -1.9580     2.8900 O.3   1 <1>  -0.6800 
 22 C       -5.5900    -4.2350     0.4760 C.3   1 <1>  -0.0170 
 23 C       -4.7820    -4.8930    -0.6290 C.ar  1 <1>   0.1670 
 24 N       -5.2940    -4.8390    -1.8490 N.ar  1 <1>  -0.6200 
 25 C       -3.5680    -5.5090    -0.3300 C.ar  1 <1>   0.1600 
 26 C       -4.5170    -5.4320    -2.7400 C.ar  1 <1>   0.1600 
 27 N       -2.7900    -6.1050    -1.2200 N.ar  1 <1>  -0.6200 
 28 C       -3.3070    -6.0440    -2.4350 C.ar  1 <1>   0.1600 
 29 H       -1.7250     1.8130     3.4190 H     1 <1>   0.0800 
 30 H       -1.0160     0.8150     2.1530 H     1 <1>   0.0800 
 31 H       -5.0990     2.6550    -0.4500 H     1 <1>   0.0800 
 32 H       -5.6930     1.9130     0.9810 H     1 <1>   0.0800 
 33 H       -0.5500     2.7260     0.9300 H     1 <1>   0.0800 
 34 H       -1.3150     3.7160     2.1650 H     1 <1>   0.0800 
 35 H       -3.0690     2.7770    -1.9900 H     1 <1>   0.1500 
 36 H       -2.3240     5.6410     1.0700 H     1 <1>   0.1500 
 37 H       -3.1480     4.5740    -3.6530 H     1 <1>   0.1500 
 38 H       -2.3890     7.4380    -0.5940 H     1 <1>   0.1500 
 39 H       -6.1500     0.0820     1.9330 H     1 <1>   0.0800 
 40 H       -7.4640    -0.6340     1.0160 H     1 <1>   0.0800 
 41 H       -6.3070    -2.2230    -1.1450 H     1 <1>   0.0800 
 42 H       -4.5780    -1.9340    -1.2500 H     1 <1>   0.0800 
 43 H       -2.8060     6.9120    -2.9620 H     1 <1>   0.1500 
 44 H       -6.9340    -2.6220     2.0010 H     1 <1>   0.0800 
 45 H       -4.1730    -2.6830     0.8960 H     1 <1>   0.0800 
 46 H       -4.5870    -1.2490     2.7540 H     1 <1>   0.4000 
 47 H       -6.6380    -4.3270     0.2460 H     1 <1>   0.0800 
 48 H       -5.4150    -4.7520     1.4030 H     1 <1>   0.0800 
 49 H       -3.2230    -5.5050     0.6890 H     1 <1>   0.1500 
 50 H       -4.8530    -5.4340    -3.7610 H     1 <1>   0.1500 
 51 H       -2.7450    -6.5000    -3.2310 H     1 <1>   0.1500 
@<TRIPOS>BOND
  1   1   2  2   
  2   2   3  1   
  3   2   4  1   
  4   3   5  2   
  5   3   6  1   
  6   4   7  1   
  7   4  29  1   
  8   4  30  1   
  9   5   7  1   
 10   5   8  1   
 11   6   9  1   
 12   6  31  1   
 13   6  32  1   
 14   7  33  1   
 15   7  34  1   
 16   8  10  ar  
 17   8  11  ar  
 18   9  12  2   
 19   9  13  am  
 20  10  14  ar  
 21  10  35  1   
 22  11  15  ar  
 23  11  36  1   
 24  13  16  1   
 25  13  17  1   
 26  14  18  ar  
 27  14  37  1   
 28  15  18  ar  
 29  15  38  1   
 30  16  19  1   
 31  16  39  1   
 32  16  40  1   
 33  17  20  1   
 34  17  41  1   
 35  17  42  1   
 36  18  43  1   
 37  19  20  1   
 38  19  21  1   
 39  19  44  1   
 40  20  22  1   
 41  20  45  1   
 42  21  46  1   
 43  22  23  1   
 44  22  47  1   
 45  22  48  1   
 46  23  24  ar  
 47  23  25  ar  
 48  24  26  ar  
 49  25  27  ar  
 50  25  49  1   
 51  26  28  ar  
 52  26  50  1   
 53  27  28  ar  
 54  28  51  1   
@<TRIPOS>SUBSTRUCTURE
  1 ****   9 GROUP 4 **** **** 0

# MOE 2024.06 (io_trps.svl 2023.06)
