@<TRIPOS>MOLECULE
NONAME
53 55 1 0 0 
SMALL
USER_CHARGES


@<TRIPOS>ATOM
  1 O        1.1660     0.7750    -0.3530 O.2   1 <1>  -0.5700 
  2 C        0.0690     1.1600    -0.0320 C.2   1 <1>   0.5690 
  3 N       -0.9530     0.3150     0.2420 N.am  1 <1>  -0.7300 
  4 C       -0.1810     2.6490     0.0480 C.3   1 <1>  -0.0990 
  5 C       -0.8770    -1.1550     0.1970 C.3   1 <1>   0.2200 
  6 C       -0.4320     3.2380    -1.3470 C.3   1 <1>  -0.0990 
  7 C       -1.9370    -1.6710    -0.7690 C.3   1 <1>  -0.1600 
  8 C       -1.3270    -1.7110     1.5420 C.3   1 <1>  -0.1600 
  9 C       -0.6850     4.7270    -1.2750 C.2   1 <1>   0.5690 
 10 C       -3.2510    -1.6820     0.0200 C.3   1 <1>  -0.1600 
 11 C       -2.8600    -1.7120     1.5040 C.3   1 <1>  -0.1600 
 12 O       -1.7940     5.1190    -1.0140 O.2   1 <1>  -0.5700 
 13 N        0.3430     5.5780    -1.4950 N.am  1 <1>  -0.7300 
 14 C        0.2360     7.0580    -1.4020 C.3   1 <1>   0.3200 
 15 C        1.3770     7.6470    -0.5880 C.2   1 <1>   0.2980 
 16 O        1.3890     7.4520     0.7060 O.3   1 <1>  -0.0190 
 17 N        2.3520     8.3250    -1.0500 N.2   1 <1>  -0.5650 
 18 N        2.4630     8.0610     1.1040 N.2   1 <1>  -0.4100 
 19 C        3.0180     8.5670     0.0730 C.2   1 <1>   0.3350 
 20 C        4.3100     9.3840     0.0530 C.3   1 <1>   0.1010 
 21 C        5.2300     9.0670     1.2500 C.3   1 <1>  -0.1600 
 22 C        3.9970    10.8910     0.0010 C.3   1 <1>  -0.1600 
 23 C        6.5130     9.9100     1.2170 C.3   1 <1>  -0.1600 
 24 C        5.2770    11.7390    -0.0260 C.3   1 <1>  -0.1600 
 25 C        6.1880    11.4090     1.1640 C.3   1 <1>  -0.1600 
 26 H       -1.8690     0.6780     0.4990 H     1 <1>   0.3700 
 27 H        0.6800     3.1160     0.4920 H     1 <1>   0.0800 
 28 H       -1.0270     2.8410     0.6840 H     1 <1>   0.0800 
 29 H        0.1160    -1.4790    -0.0710 H     1 <1>   0.0800 
 30 H       -1.2920     2.7670    -1.7890 H     1 <1>   0.0800 
 31 H        0.4140     3.0440    -1.9820 H     1 <1>   0.0800 
 32 H       -1.6840    -2.6810    -1.0400 H     1 <1>   0.0800 
 33 H       -1.9920    -1.0790    -1.6660 H     1 <1>   0.0800 
 34 H       -0.9290    -1.1490     2.3680 H     1 <1>   0.0800 
 35 H       -0.9800    -2.7270     1.6200 H     1 <1>   0.0800 
 36 H       -3.8500    -2.5370    -0.2460 H     1 <1>   0.0800 
 37 H       -3.8130    -0.7880    -0.1890 H     1 <1>   0.0800 
 38 H       -3.2390    -0.8330     1.9970 H     1 <1>   0.0800 
 39 H       -3.2540    -2.5830     1.9970 H     1 <1>   0.0800 
 40 H        1.2810     5.2190    -1.6870 H     1 <1>   0.3700 
 41 H       -0.6990     7.3380    -0.9480 H     1 <1>   0.0800 
 42 H        0.2640     7.4730    -2.3940 H     1 <1>   0.0800 
 43 H        4.8380     9.1200    -0.8460 H     1 <1>   0.0800 
 44 H        5.4850     8.0220     1.2380 H     1 <1>   0.0800 
 45 H        4.7030     9.2660     2.1670 H     1 <1>   0.0800 
 46 H        3.4090    11.1580     0.8620 H     1 <1>   0.0800 
 47 H        3.4090    11.1020    -0.8760 H     1 <1>   0.0800 
 48 H        7.0980     9.6410     0.3550 H     1 <1>   0.0800 
 49 H        7.1030     9.7020     2.0940 H     1 <1>   0.0800 
 50 H        5.0170    12.7840    -0.0010 H     1 <1>   0.0800 
 51 H        5.8090    11.5540    -0.9440 H     1 <1>   0.0800 
 52 H        7.1010    11.9740     1.0870 H     1 <1>   0.0800 
 53 H        5.6980    11.6990     2.0780 H     1 <1>   0.0800 
@<TRIPOS>BOND
  1   1   2  2   
  2   2   3  am  
  3   2   4  1   
  4   3   5  1   
  5   3  26  1   
  6   4   6  1   
  7   4  27  1   
  8   4  28  1   
  9   5   7  1   
 10   5   8  1   
 11   5  29  1   
 12   6   9  1   
 13   6  30  1   
 14   6  31  1   
 15   7  10  1   
 16   7  32  1   
 17   7  33  1   
 18   8  11  1   
 19   8  34  1   
 20   8  35  1   
 21   9  12  2   
 22   9  13  am  
 23  10  11  1   
 24  10  36  1   
 25  10  37  1   
 26  11  38  1   
 27  11  39  1   
 28  13  14  1   
 29  13  40  1   
 30  14  15  1   
 31  14  41  1   
 32  14  42  1   
 33  15  16  1   
 34  15  17  2   
 35  16  18  1   
 36  17  19  1   
 37  18  19  2   
 38  19  20  1   
 39  20  21  1   
 40  20  22  1   
 41  20  43  1   
 42  21  23  1   
 43  21  44  1   
 44  21  45  1   
 45  22  24  1   
 46  22  46  1   
 47  22  47  1   
 48  23  25  1   
 49  23  48  1   
 50  23  49  1   
 51  24  25  1   
 52  24  50  1   
 53  24  51  1   
 54  25  52  1   
 55  25  53  1   
@<TRIPOS>SUBSTRUCTURE
  1 ****  13 GROUP 4 **** **** 0

# MOE 2024.06 (io_trps.svl 2023.06)
