@<TRIPOS>MOLECULE
NONAME
51 53 1 0 0 
SMALL
USER_CHARGES


@<TRIPOS>ATOM
  1 O       -0.0090     1.0560    -0.6440 O.co2 1 <1>  -0.9000 
  2 C       -1.0050     1.4690    -0.0470 C.2   1 <1>   0.9060 
  3 O       -1.8860     0.7490     0.4180 O.co2 1 <1>  -0.9000 
  4 C       -1.1620     2.9460     0.1200 C.3   1 <1>  -0.1860 
  5 C       -2.5020     3.3860    -0.4720 C.3   1 <1>   0.2000 
  6 C       -0.0120     3.6460    -0.5750 C.3   1 <1>   0.3430 
  7 O       -3.4080     3.3460     0.5590 O.3   1 <1>  -0.6800 
  8 C       -2.4750     4.8120    -1.0290 C.3   1 <1>  -0.1600 
  9 N       -0.0980     5.1330    -0.3570 N.4   1 <1>  -0.9590 
 10 C       -1.5020     5.6600    -0.2200 C.3   1 <1>   0.3430 
 11 C        0.7210     5.5180     0.8200 C.3   1 <1>   0.4860 
 12 C        0.8620     7.0280     0.8370 C.ar  1 <1>  -0.1430 
 13 C        1.7310     7.6580    -0.0440 C.ar  1 <1>  -0.1500 
 14 C        0.1200     7.7930     1.7280 C.ar  1 <1>  -0.1500 
 15 C        1.8480     9.0360    -0.0430 C.ar  1 <1>  -0.1500 
 16 C        0.2380     9.1710     1.7300 C.ar  1 <1>  -0.1500 
 17 C        1.1020     9.7980     0.8480 C.ar  1 <1>   0.0820 
 18 O        1.1740    11.1530     0.8790 O.3   1 <1>  -0.1650 
 19 C        2.3220    11.8080     0.5760 C.ar  1 <1>   0.0820 
 20 C        2.2560    12.9090    -0.2600 C.ar  1 <1>  -0.1500 
 21 C        3.5450    11.4060     1.0930 C.ar  1 <1>  -0.1500 
 22 C        3.4040    13.6060    -0.6030 C.ar  1 <1>  -0.1430 
 23 C        4.6930    12.0980     0.7540 C.ar  1 <1>  -0.1500 
 24 C        4.6330    13.1950    -0.0940 C.ar  1 <1>  -0.1430 
 25 C        3.2880    14.8080    -1.5300 C.3   1 <1>  -0.0970 
 26 C        5.9210    13.9280    -0.4430 C.3   1 <1>  -0.0970 
 27 H       -1.1080     3.1500     1.1720 H     1 <1>   0.0800 
 28 H       -2.8420     2.6980    -1.2330 H     1 <1>   0.0800 
 29 H       -0.0700     3.4200    -1.6280 H     1 <1>   0.0800 
 30 H        0.9250     3.2530    -0.2130 H     1 <1>   0.0800 
 31 H       -3.4320     2.4090     0.8780 H     1 <1>   0.4000 
 32 H       -2.1630     4.7980    -2.0580 H     1 <1>   0.0800 
 33 H       -3.4630     5.2370    -0.9950 H     1 <1>   0.0800 
 34 H        0.3260     5.5900    -1.1710 H     1 <1>   0.4500 
 35 H       -1.8070     5.6140     0.8140 H     1 <1>   0.0800 
 36 H       -1.5430     6.6890    -0.5390 H     1 <1>   0.0800 
 37 H        0.2500     5.1740     1.7260 H     1 <1>   0.0800 
 38 H        1.6980     5.0690     0.7530 H     1 <1>   0.0800 
 39 H        2.3270     7.0880    -0.7380 H     1 <1>   0.1500 
 40 H       -0.5550     7.3280     2.4280 H     1 <1>   0.1500 
 41 H        2.5150     9.5200    -0.7370 H     1 <1>   0.1500 
 42 H       -0.3360     9.7710     2.4160 H     1 <1>   0.1500 
 43 H        1.2970    13.2110    -0.6390 H     1 <1>   0.1500 
 44 H        3.6000    10.5630     1.7570 H     1 <1>   0.1500 
 45 H        5.6370    11.7760     1.1580 H     1 <1>   0.1500 
 46 H        2.2660    14.9760    -1.8170 H     1 <1>   0.0800 
 47 H        3.8650    14.6420    -2.4210 H     1 <1>   0.0800 
 48 H        3.6490    15.6910    -1.0350 H     1 <1>   0.0800 
 49 H        6.7680    13.4690     0.0340 H     1 <1>   0.0800 
 50 H        5.8630    14.9500    -0.1160 H     1 <1>   0.0800 
 51 H        6.0800    13.9070    -1.5060 H     1 <1>   0.0800 
@<TRIPOS>BOND
  1   1   2  ar  
  2   2   3  ar  
  3   2   4  1   
  4   4   5  1   
  5   4   6  1   
  6   4  27  1   
  7   5   7  1   
  8   5   8  1   
  9   5  28  1   
 10   6   9  1   
 11   6  29  1   
 12   6  30  1   
 13   7  31  1   
 14   8  10  1   
 15   8  32  1   
 16   8  33  1   
 17   9  10  1   
 18   9  11  1   
 19   9  34  1   
 20  10  35  1   
 21  10  36  1   
 22  11  12  1   
 23  11  37  1   
 24  11  38  1   
 25  12  13  ar  
 26  12  14  ar  
 27  13  15  ar  
 28  13  39  1   
 29  14  16  ar  
 30  14  40  1   
 31  15  17  ar  
 32  15  41  1   
 33  16  17  ar  
 34  16  42  1   
 35  17  18  1   
 36  18  19  1   
 37  19  20  ar  
 38  19  21  ar  
 39  20  22  ar  
 40  20  43  1   
 41  21  23  ar  
 42  21  44  1   
 43  22  24  ar  
 44  22  25  1   
 45  23  24  ar  
 46  23  45  1   
 47  24  26  1   
 48  25  46  1   
 49  25  47  1   
 50  25  48  1   
 51  26  49  1   
 52  26  50  1   
 53  26  51  1   
@<TRIPOS>SUBSTRUCTURE
  1 ****  13 GROUP 4 **** **** 0

# MOE 2024.06 (io_trps.svl 2023.06)
