@<TRIPOS>MOLECULE
NONAME
59 62 1 0 0 
SMALL
USER_CHARGES


@<TRIPOS>ATOM
  1 O       -1.1440     0.8260     2.5750 O.2   1 <1>  -0.5700 
  2 C       -1.8760     1.3540     1.7580 C.2   1 <1>   0.5440 
  3 N       -2.9610     0.6480     1.3020 N.am  1 <1>  -0.6600 
  4 C       -1.5730     2.6830     1.2790 C.ar  1 <1>   0.0860 
  5 C       -4.0370     1.1870     0.4330 C.3   1 <1>   0.1400 
  6 C       -3.0740    -0.8240     1.4230 C.3   1 <1>   0.1400 
  7 C       -1.1720     2.9090    -0.0430 C.ar  1 <1>   0.0830 
  8 C       -1.6450     3.7830     2.1330 C.ar  1 <1>  -0.1500 
  9 C       -5.0230     0.0260     0.2880 C.3   1 <1>   0.2000 
 10 C       -4.1530    -1.2300     0.4080 C.3   1 <1>  -0.0800 
 11 O       -1.0840     1.8820    -0.9130 O.3   1 <1>  -0.3630 
 12 C       -0.8790     4.1880    -0.4910 C.ar  1 <1>  -0.1500 
 13 C       -1.3480     5.0590     1.6890 C.ar  1 <1>  -0.1500 
 14 O       -5.8920     0.0500     1.3670 O.3   1 <1>  -0.6800 
 15 C       -3.5670    -1.6090    -0.9710 C.3   1 <1>  -0.0170 
 16 C        0.1980     1.3560    -1.2030 C.3   1 <1>   0.1200 
 17 C       -0.9660     5.2630     0.3730 C.ar  1 <1>  -0.1500 
 18 C       -2.5670    -2.7610    -0.9020 C.ar  1 <1>  -0.1430 
 19 C        0.6880     0.4960    -0.0360 C.3   1 <1>   0.1200 
 20 C       -2.9460    -4.0990    -0.6430 C.ar  1 <1>   0.0000 
 21 C       -1.2400    -2.5120    -1.0980 C.ar  1 <1>  -0.1500 
 22 O        1.7300    -0.3110    -0.4840 O.3   1 <1>  -0.5600 
 23 C       -1.9160    -5.0690    -0.5540 C.ar  1 <1>   0.3100 
 24 C       -4.2810    -4.5360    -0.4790 C.ar  1 <1>  -0.1500 
 25 C       -0.3030    -3.5460    -1.0060 C.ar  1 <1>   0.1600 
 26 C        2.2500    -1.1310     0.5090 C.3   1 <1>   0.1200 
 27 N       -0.6030    -4.7770    -0.7370 N.ar  1 <1>  -0.6200 
 28 C       -2.2600    -6.4010    -0.2710 C.ar  1 <1>  -0.1500 
 29 C       -4.5830    -5.8430    -0.2100 C.ar  1 <1>  -0.1500 
 30 C        3.3990    -1.9230    -0.1030 C.3   1 <1>  -0.2400 
 31 C       -3.5610    -6.7890    -0.0990 C.ar  1 <1>  -0.1500 
 32 H       -4.5010     2.0560     0.8660 H     1 <1>   0.0800 
 33 H       -3.6250     1.4390    -0.5280 H     1 <1>   0.0800 
 34 H       -2.1260    -1.2990     1.2390 H     1 <1>   0.0800 
 35 H       -3.3920    -1.0660     2.4230 H     1 <1>   0.0800 
 36 H       -1.9350     3.6250     3.1570 H     1 <1>   0.1500 
 37 H       -5.6050     0.0710    -0.6160 H     1 <1>   0.0800 
 38 H       -4.7240    -2.0560     0.7890 H     1 <1>   0.0800 
 39 H       -0.5860     4.3390    -1.5150 H     1 <1>   0.1500 
 40 H       -1.4120     5.8940     2.3650 H     1 <1>   0.1500 
 41 H       -5.3690     0.1540     2.1880 H     1 <1>   0.4000 
 42 H       -3.0760    -0.7510    -1.3960 H     1 <1>   0.0800 
 43 H       -4.3630    -1.8750    -1.6430 H     1 <1>   0.0800 
 44 H        0.0990     0.7510    -2.0860 H     1 <1>   0.0800 
 45 H        0.8770     2.1680    -1.3940 H     1 <1>   0.0800 
 46 H       -0.7370     6.2570     0.0270 H     1 <1>   0.1500 
 47 H       -0.1020    -0.1440     0.3160 H     1 <1>   0.0800 
 48 H        1.0460     1.1180     0.7670 H     1 <1>   0.0800 
 49 H       -0.8750    -1.5280    -1.3230 H     1 <1>   0.1500 
 50 H       -5.0830    -3.8290    -0.5730 H     1 <1>   0.1500 
 51 H        0.7330    -3.2980    -1.1670 H     1 <1>   0.1500 
 52 H        2.6040    -0.5170     1.3210 H     1 <1>   0.0800 
 53 H        1.4740    -1.7910     0.8610 H     1 <1>   0.0800 
 54 H       -1.4580    -7.1110    -0.1970 H     1 <1>   0.1500 
 55 H       -5.6040    -6.1600    -0.0820 H     1 <1>   0.1500 
 56 H        4.1660    -1.2520    -0.4450 H     1 <1>   0.0800 
 57 H        3.0470    -2.5140    -0.9290 H     1 <1>   0.0800 
 58 H        3.8200    -2.5800     0.6350 H     1 <1>   0.0800 
 59 H       -3.8090    -7.8140     0.1170 H     1 <1>   0.1500 
@<TRIPOS>BOND
  1   1   2  2   
  2   2   3  am  
  3   2   4  1   
  4   3   5  1   
  5   3   6  1   
  6   4   7  ar  
  7   4   8  ar  
  8   5   9  1   
  9   5  32  1   
 10   5  33  1   
 11   6  10  1   
 12   6  34  1   
 13   6  35  1   
 14   7  11  1   
 15   7  12  ar  
 16   8  13  ar  
 17   8  36  1   
 18   9  10  1   
 19   9  14  1   
 20   9  37  1   
 21  10  15  1   
 22  10  38  1   
 23  11  16  1   
 24  12  17  ar  
 25  12  39  1   
 26  13  17  ar  
 27  13  40  1   
 28  14  41  1   
 29  15  18  1   
 30  15  42  1   
 31  15  43  1   
 32  16  19  1   
 33  16  44  1   
 34  16  45  1   
 35  17  46  1   
 36  18  20  ar  
 37  18  21  ar  
 38  19  22  1   
 39  19  47  1   
 40  19  48  1   
 41  20  23  ar  
 42  20  24  ar  
 43  21  25  ar  
 44  21  49  1   
 45  22  26  1   
 46  23  27  ar  
 47  23  28  ar  
 48  24  29  ar  
 49  24  50  1   
 50  25  27  ar  
 51  25  51  1   
 52  26  30  1   
 53  26  52  1   
 54  26  53  1   
 55  28  31  ar  
 56  28  54  1   
 57  29  31  ar  
 58  29  55  1   
 59  30  56  1   
 60  30  57  1   
 61  30  58  1   
 62  31  59  1   
@<TRIPOS>SUBSTRUCTURE
  1 ****   6 GROUP 4 **** **** 0

# MOE 2024.06 (io_trps.svl 2023.06)
