@<TRIPOS>MOLECULE
NONAME
59 62 1 0 0 
SMALL
USER_CHARGES


@<TRIPOS>ATOM
  1 S       -0.0670    -0.6050     0.6650 S.o2  1 <1>   1.4470 
  2 O        0.6380    -1.8110     1.0390 O.2   1 <1>  -0.6500 
  3 O       -0.9300    -0.0190     1.6660 O.2   1 <1>  -0.6500 
  4 N       -1.0760    -1.0380    -0.6380 N.am  1 <1>  -0.8490 
  5 C        1.0690     0.6230    -0.0310 C.ar  1 <1>  -0.0090 
  6 C       -1.6380    -2.3850    -0.5190 C.3   1 <1>   0.1960 
  7 C       -2.1420    -0.0640    -0.9490 C.3   1 <1>   0.1960 
  8 C        1.4010     1.7720     0.6780 C.ar  1 <1>  -0.1500 
  9 C        1.6490     0.4340    -1.2800 C.ar  1 <1>  -0.1500 
 10 C       -2.8080    -2.3060     0.4820 C.3   1 <1>   0.4230 
 11 C       -3.4610    -0.2760    -0.1410 C.3   1 <1>  -0.1600 
 12 C        2.2600     2.7370     0.1640 C.ar  1 <1>   0.1170 
 13 C        2.5320     1.3610    -1.8030 C.ar  1 <1>  -0.1500 
 14 N       -2.9370    -3.4300     1.4790 N.4   1 <1>  -0.9590 
 15 C       -4.1040    -1.7610    -0.2720 C.3   1 <1>   0.0000 
 16 N        2.5870     3.9150     0.8740 N.am  1 <1>  -0.4770 
 17 C        2.8470     2.4990    -1.0860 C.ar  1 <1>   0.0830 
 18 C       -3.1230    -4.7510     0.8630 C.3   1 <1>   0.3430 
 19 C       -1.7970    -3.4240     2.4520 C.3   1 <1>   0.2630 
 20 C       -4.7250    -3.2390    -0.4800 C.3   1 <1>  -0.1600 
 21 C       -5.4120    -1.1400    -0.9600 C.3   1 <1>   0.1200 
 22 C        1.7420     4.7360     1.5940 C.2   1 <1>   0.5690 
 23 C        3.9570     4.4060     0.5650 C.3   1 <1>   0.1400 
 24 O        3.7640     3.3470    -1.6260 O.3   1 <1>  -0.3630 
 25 C       -3.9140    -4.5600    -0.4150 C.3   1 <1>  -0.1600 
 26 O       -6.1810    -0.5550     0.0430 O.3   1 <1>  -0.6800 
 27 O        2.1510     5.6690     2.2410 O.2   1 <1>  -0.5700 
 28 C        0.2430     4.5340     1.5720 C.3   1 <1>  -0.1790 
 29 C        4.0880     4.5560    -0.9550 C.3   1 <1>   0.1200 
 30 H       -1.9980    -2.6930    -1.4850 H     1 <1>   0.0800 
 31 H       -0.8900    -3.0920    -0.2070 H     1 <1>   0.0800 
 32 H       -1.7760     0.9380    -0.7910 H     1 <1>   0.0800 
 33 H       -2.3740    -0.1490    -1.9980 H     1 <1>   0.0800 
 34 H        0.9870     1.9090     1.6600 H     1 <1>   0.1500 
 35 H        1.4150    -0.4510    -1.8490 H     1 <1>   0.1500 
 36 H       -2.4820    -1.5400     1.1560 H     1 <1>   0.0800 
 37 H       -3.3270     0.0040     0.8920 H     1 <1>   0.0800 
 38 H       -4.0510     0.5690    -0.4570 H     1 <1>   0.0800 
 39 H        2.9890     1.2010    -2.7640 H     1 <1>   0.1500 
 40 H       -3.8010    -3.2150     1.9990 H     1 <1>   0.4500 
 41 H       -2.1710    -5.2050     0.6360 H     1 <1>   0.0800 
 42 H       -3.6600    -5.3960     1.5410 H     1 <1>   0.0800 
 43 H       -0.8660    -3.6330     1.9480 H     1 <1>   0.0800 
 44 H       -1.9500    -4.1660     3.2180 H     1 <1>   0.0800 
 45 H       -1.7130    -2.4560     2.9230 H     1 <1>   0.0800 
 46 H       -5.5610    -3.3480     0.1960 H     1 <1>   0.0800 
 47 H       -5.1030    -3.3640    -1.4830 H     1 <1>   0.0800 
 48 H       -6.1150    -1.7770    -1.4700 H     1 <1>   0.0800 
 49 H       -5.1910    -0.4020    -1.7160 H     1 <1>   0.0800 
 50 H        4.1530     5.3530     1.0360 H     1 <1>   0.0800 
 51 H        4.6820     3.6970     0.9270 H     1 <1>   0.0800 
 52 H       -3.2350    -4.6110    -1.2490 H     1 <1>   0.0800 
 53 H       -4.5820    -5.3980    -0.5270 H     1 <1>   0.0800 
 54 H       -6.9920    -0.1450    -0.3220 H     1 <1>   0.4000 
 55 H       -0.0780     4.1640     0.6170 H     1 <1>   0.0800 
 56 H       -0.2440     5.4750     1.7510 H     1 <1>   0.0800 
 57 H       -0.0440     3.8510     2.3490 H     1 <1>   0.0800 
 58 H        5.0930     4.8230    -1.2250 H     1 <1>   0.0800 
 59 H        3.4170     5.3190    -1.3080 H     1 <1>   0.0800 
@<TRIPOS>BOND
  1   1   2  2   
  2   1   3  2   
  3   1   4  am  
  4   1   5  1   
  5   4   6  1   
  6   4   7  1   
  7   5   8  ar  
  8   5   9  ar  
  9   6  10  1   
 10   6  30  1   
 11   6  31  1   
 12   7  11  1   
 13   7  32  1   
 14   7  33  1   
 15   8  12  ar  
 16   8  34  1   
 17   9  13  ar  
 18   9  35  1   
 19  10  14  1   
 20  10  15  1   
 21  10  36  1   
 22  11  15  1   
 23  11  37  1   
 24  11  38  1   
 25  12  16  1   
 26  12  17  ar  
 27  13  17  ar  
 28  13  39  1   
 29  14  18  1   
 30  14  19  1   
 31  14  40  1   
 32  15  20  1   
 33  15  21  1   
 34  16  22  am  
 35  16  23  1   
 36  17  24  1   
 37  18  25  1   
 38  18  41  1   
 39  18  42  1   
 40  19  43  1   
 41  19  44  1   
 42  19  45  1   
 43  20  25  1   
 44  20  46  1   
 45  20  47  1   
 46  21  26  1   
 47  21  48  1   
 48  21  49  1   
 49  22  27  2   
 50  22  28  1   
 51  23  29  1   
 52  23  50  1   
 53  23  51  1   
 54  24  29  1   
 55  25  52  1   
 56  25  53  1   
 57  26  54  1   
 58  28  55  1   
 59  28  56  1   
 60  28  57  1   
 61  29  58  1   
 62  29  59  1   
@<TRIPOS>SUBSTRUCTURE
  1 ****   1 GROUP 4 **** **** 0

# MOE 2024.06 (io_trps.svl 2023.06)
