@<TRIPOS>MOLECULE
NONAME
56 59 1 0 0 
SMALL
USER_CHARGES


@<TRIPOS>ATOM
  1 O       -5.1150     1.8210    -1.7450 O.2   1 <1>  -0.5700 
  2 C       -4.2550     1.2630    -1.0880 C.2   1 <1>   0.5440 
  3 N       -4.3310    -0.1120    -0.9310 N.am  1 <1>  -0.6600 
  4 C       -3.1920     2.0760    -0.5340 C.ar  1 <1>   0.0860 
  5 C       -3.4100    -0.9150    -0.0320 C.3   1 <1>   0.3640 
  6 C       -5.5350    -0.8190    -1.4710 C.3   1 <1>   0.1400 
  7 C       -3.0610     2.3100     0.8350 C.ar  1 <1>  -0.1500 
  8 C       -2.2390     2.6400    -1.3780 C.ar  1 <1>  -0.1500 
  9 C       -1.9440    -0.5740    -0.3290 C.ar  1 <1>  -0.1430 
 10 C       -3.5770    -2.4690    -0.1090 C.3   1 <1>   0.2000 
 11 C       -5.2780    -2.3030    -1.7110 C.3   1 <1>   0.1200 
 12 C       -1.9850     3.0170     1.3410 C.ar  1 <1>  -0.1500 
 13 C       -1.1660     3.3520    -0.8800 C.ar  1 <1>  -0.1500 
 14 C       -1.0990    -0.2010     0.7070 C.ar  1 <1>  -0.1500 
 15 C       -1.4390    -0.6150    -1.6230 C.ar  1 <1>  -0.1500 
 16 O       -4.8500    -2.8800    -0.5230 O.3   1 <1>  -0.5600 
 17 C       -3.3420    -3.1740     1.2380 C.3   1 <1>   0.1200 
 18 C       -1.0110     3.5290     0.4890 C.ar  1 <1>  -0.0230 
 19 C        0.2190     0.1430     0.4670 C.ar  1 <1>   0.0830 
 20 C       -0.1210    -0.2660    -1.8740 C.ar  1 <1>  -0.1500 
 21 O       -2.1080    -2.8530     1.7930 O.3   1 <1>  -0.6800 
 22 N        0.1260     4.1990     0.9970 N.pl3 1 <1>   0.3260 
 23 O        0.9760     0.4750     1.5400 O.3   1 <1>  -0.3620 
 24 C        0.7110     0.1340    -0.8420 C.ar  1 <1>   0.0830 
 25 C        1.0070     3.7720     1.9410 C.2   1 <1>   0.0360 
 26 C        0.6570     5.3730     0.5840 C.2   1 <1>  -0.3020 
 27 C        1.9890    -0.4410     1.8910 C.3   1 <1>   0.0400 
 28 O        1.9760     0.5010    -1.1700 O.3   1 <1>  -0.3630 
 29 N        2.0110     4.5620     2.1460 N.2   1 <1>  -0.5650 
 30 C        1.7890     5.5770     1.2890 C.2   1 <1>   0.0770 
 31 C        2.3960     1.8020    -0.8120 C.3   1 <1>   0.0400 
 32 H       -3.6280    -0.6220     0.9800 H     1 <1>   0.0800 
 33 H       -6.3490    -0.7070    -0.7770 H     1 <1>   0.0800 
 34 H       -5.8340    -0.3720    -2.4040 H     1 <1>   0.0800 
 35 H       -3.8070     1.9170     1.5030 H     1 <1>   0.1500 
 36 H       -2.3430     2.4980    -2.4400 H     1 <1>   0.1500 
 37 H       -2.8800    -2.8660    -0.8260 H     1 <1>   0.0800 
 38 H       -4.5340    -2.4540    -2.4750 H     1 <1>   0.0800 
 39 H       -6.1890    -2.7930    -2.0060 H     1 <1>   0.0800 
 40 H       -1.8980     3.1660     2.4040 H     1 <1>   0.1500 
 41 H       -0.4390     3.7580    -1.5620 H     1 <1>   0.1500 
 42 H       -1.4570    -0.1730     1.7210 H     1 <1>   0.1500 
 43 H       -2.0750    -0.9040    -2.4410 H     1 <1>   0.1500 
 44 H       -3.3800    -4.2410     1.1090 H     1 <1>   0.0800 
 45 H       -4.0990    -2.8770     1.9440 H     1 <1>   0.0800 
 46 H        0.2650    -0.2920    -2.8770 H     1 <1>   0.1500 
 47 H       -1.3750    -3.1130     1.1990 H     1 <1>   0.4000 
 48 H        0.8540     2.8380     2.4530 H     1 <1>   0.1500 
 49 H        0.1960     5.9800    -0.1730 H     1 <1>   0.1500 
 50 H        2.4960    -0.0640     2.7610 H     1 <1>   0.0800 
 51 H        2.6820    -0.5360     1.0750 H     1 <1>   0.0800 
 52 H        1.5350    -1.3910     2.1100 H     1 <1>   0.0800 
 53 H        2.4690     6.4120     1.2280 H     1 <1>   0.1500 
 54 H        3.3120     2.0130    -1.3310 H     1 <1>   0.0800 
 55 H        2.5630     1.8490     0.2490 H     1 <1>   0.0800 
 56 H        1.6380     2.5060    -1.1030 H     1 <1>   0.0800 
@<TRIPOS>BOND
  1   1   2  2   
  2   2   3  am  
  3   2   4  1   
  4   3   5  1   
  5   3   6  1   
  6   4   7  ar  
  7   4   8  ar  
  8   5   9  1   
  9   5  10  1   
 10   5  32  1   
 11   6  11  1   
 12   6  33  1   
 13   6  34  1   
 14   7  12  ar  
 15   7  35  1   
 16   8  13  ar  
 17   8  36  1   
 18   9  14  ar  
 19   9  15  ar  
 20  10  16  1   
 21  10  17  1   
 22  10  37  1   
 23  11  16  1   
 24  11  38  1   
 25  11  39  1   
 26  12  18  ar  
 27  12  40  1   
 28  13  18  ar  
 29  13  41  1   
 30  14  19  ar  
 31  14  42  1   
 32  15  20  ar  
 33  15  43  1   
 34  17  21  1   
 35  17  44  1   
 36  17  45  1   
 37  18  22  1   
 38  19  23  1   
 39  19  24  ar  
 40  20  24  ar  
 41  20  46  1   
 42  21  47  1   
 43  22  25  1   
 44  22  26  1   
 45  23  27  1   
 46  24  28  1   
 47  25  29  2   
 48  25  48  1   
 49  26  30  2   
 50  26  49  1   
 51  27  50  1   
 52  27  51  1   
 53  27  52  1   
 54  28  31  1   
 55  29  30  1   
 56  30  53  1   
 57  31  54  1   
 58  31  55  1   
 59  31  56  1   
@<TRIPOS>SUBSTRUCTURE
  1 ****  14 GROUP 4 **** **** 0

# MOE 2024.06 (io_trps.svl 2023.06)
