@<TRIPOS>MOLECULE
NONAME
48 50 1 0 0 
SMALL
USER_CHARGES


@<TRIPOS>ATOM
  1 S        0.0930    -0.0840     0.8630 S.o2  1 <1>   1.3330 
  2 O        1.0030     0.2850     1.9230 O.2   1 <1>  -0.6500 
  3 O       -0.8520    -1.1570     1.0750 O.2   1 <1>  -0.6500 
  4 N        1.0140    -0.4730    -0.5120 N.am  1 <1>  -0.8490 
  5 C       -0.7980     1.3870     0.3550 C.3   1 <1>  -0.0550 
  6 C        2.2660    -1.1540    -0.1660 C.3   1 <1>   0.1160 
  7 C        0.2740    -1.2640    -1.5010 C.3   1 <1>   0.1160 
  8 C        0.1010     2.5440    -0.1350 C.3   1 <1>  -0.0800 
  9 C       -0.6710     3.7270    -0.7240 C.3   1 <1>   0.2000 
 10 C        0.9850     3.1700     0.9540 C.3   1 <1>   0.1400 
 11 O       -1.7460     4.0250     0.1000 O.3   1 <1>  -0.6800 
 12 C        0.3200     4.8850    -0.6450 C.3   1 <1>   0.1400 
 13 N        1.1130     4.6050     0.5780 N.am  1 <1>  -0.6600 
 14 C        2.1080     5.4150     1.0790 C.2   1 <1>   0.5440 
 15 O        2.9020     4.9420     1.8670 O.2   1 <1>  -0.5700 
 16 C        2.2370     6.8030     0.6790 C.ar  1 <1>   0.0860 
 17 C        1.1800     7.7060     0.7930 C.ar  1 <1>  -0.1500 
 18 C        3.4400     7.2890     0.1700 C.ar  1 <1>  -0.1500 
 19 C        1.3120     9.0250     0.4020 C.ar  1 <1>  -0.1500 
 20 C        3.5800     8.6060    -0.2230 C.ar  1 <1>  -0.1500 
 21 C        2.5150     9.4960    -0.1150 C.ar  1 <1>  -0.0230 
 22 N        2.6550    10.8480    -0.5140 N.pl3 1 <1>   0.3260 
 23 C        3.6930    11.6970    -0.2840 C.2   1 <1>   0.0360 
 24 C        1.7850    11.6050    -1.2230 C.2   1 <1>  -0.3020 
 25 N        3.5460    12.8830    -0.7800 N.2   1 <1>  -0.5650 
 26 C        2.3390    12.8260    -1.3740 C.2   1 <1>   0.0770 
 27 H       -1.4700     1.1230    -0.4380 H     1 <1>   0.0800 
 28 H       -1.3980     1.7250     1.1770 H     1 <1>   0.0800 
 29 H        2.8290    -1.3780    -1.0560 H     1 <1>   0.0800 
 30 H        2.0600    -2.0690     0.3650 H     1 <1>   0.0800 
 31 H        2.8700    -0.5200     0.4620 H     1 <1>   0.0800 
 32 H        0.8710    -1.4030    -2.3860 H     1 <1>   0.0800 
 33 H       -0.6340    -0.7570    -1.7790 H     1 <1>   0.0800 
 34 H        0.0180    -2.2300    -1.0960 H     1 <1>   0.0800 
 35 H        0.7560     2.1720    -0.9040 H     1 <1>   0.0800 
 36 H       -1.0390     3.5500    -1.7200 H     1 <1>   0.0800 
 37 H        1.9510     2.6950     0.9960 H     1 <1>   0.0800 
 38 H        0.5200     3.1020     1.9230 H     1 <1>   0.0800 
 39 H       -1.4010     4.3250     0.9660 H     1 <1>   0.4000 
 40 H       -0.1870     5.8330    -0.5980 H     1 <1>   0.0800 
 41 H        0.9750     4.8670    -1.4980 H     1 <1>   0.0800 
 42 H        0.2470     7.3620     1.2040 H     1 <1>   0.1500 
 43 H        4.2750     6.6120     0.0900 H     1 <1>   0.1500 
 44 H        0.4770     9.6960     0.5070 H     1 <1>   0.1500 
 45 H        4.5240     8.9420    -0.6180 H     1 <1>   0.1500 
 46 H        4.5550    11.3790     0.2740 H     1 <1>   0.1500 
 47 H        0.8430    11.2300    -1.5750 H     1 <1>   0.1500 
 48 H        1.9320    13.6830    -1.8860 H     1 <1>   0.1500 
@<TRIPOS>BOND
  1   1   2  2   
  2   1   3  2   
  3   1   4  am  
  4   1   5  1   
  5   4   6  1   
  6   4   7  1   
  7   5   8  1   
  8   5  27  1   
  9   5  28  1   
 10   6  29  1   
 11   6  30  1   
 12   6  31  1   
 13   7  32  1   
 14   7  33  1   
 15   7  34  1   
 16   8   9  1   
 17   8  10  1   
 18   8  35  1   
 19   9  11  1   
 20   9  12  1   
 21   9  36  1   
 22  10  13  1   
 23  10  37  1   
 24  10  38  1   
 25  11  39  1   
 26  12  13  1   
 27  12  40  1   
 28  12  41  1   
 29  13  14  am  
 30  14  15  2   
 31  14  16  1   
 32  16  17  ar  
 33  16  18  ar  
 34  17  19  ar  
 35  17  42  1   
 36  18  20  ar  
 37  18  43  1   
 38  19  21  ar  
 39  19  44  1   
 40  20  21  ar  
 41  20  45  1   
 42  21  22  1   
 43  22  23  1   
 44  22  24  1   
 45  23  25  2   
 46  23  46  1   
 47  24  26  2   
 48  24  47  1   
 49  25  26  1   
 50  26  48  1   
@<TRIPOS>SUBSTRUCTURE
  1 ****  13 GROUP 4 **** **** 0

# MOE 2024.06 (io_trps.svl 2023.06)
