@<TRIPOS>MOLECULE
NONAME
56 59 1 0 0 
SMALL
USER_CHARGES


@<TRIPOS>ATOM
  1 S        0.2430     0.6360     0.6540 S.o2  1 <1>   1.5010 
  2 O       -0.7700     1.6270     0.9500 O.2   1 <1>  -0.6500 
  3 O        1.2040     0.2660     1.6710 O.2   1 <1>  -0.6500 
  4 N       -0.5320    -0.7750     0.1220 N.am  1 <1>  -0.8490 
  5 C        1.1410     1.1140    -0.8270 C.2   1 <1>  -0.0630 
  6 C       -0.3220    -2.0050     0.8630 C.3   1 <1>   0.2760 
  7 C       -1.9710    -0.8110     0.1160 C.3   1 <1>   0.2760 
  8 C        2.1920     0.5340    -1.4310 C.2   1 <1>  -0.0400 
  9 C        0.8910     2.1830    -1.6670 C.2   1 <1>   0.1080 
 10 C       -0.9750    -3.0200    -0.1210 C.3   1 <1>   0.0610 
 11 C       -1.1720    -1.7690     2.1330 C.3   1 <1>  -0.1600 
 12 C       -2.2020    -2.1670    -0.5660 C.3   1 <1>  -0.1600 
 13 C       -2.3450    -0.9510     1.5960 C.3   1 <1>  -0.1600 
 14 O        2.5520     1.1750    -2.5210 O.3   1 <1>  -0.0190 
 15 C        2.9830    -0.7020    -1.0490 C.3   1 <1>  -0.0600 
 16 N        1.7260     2.1890    -2.6380 N.2   1 <1>  -0.4100 
 17 C       -0.1950     3.2290    -1.5170 C.3   1 <1>  -0.0590 
 18 C       -1.3150    -4.3650     0.5670 C.2   1 <1>   0.5690 
 19 C       -0.0380    -3.2740    -1.3460 C.3   1 <1>  -0.1600 
 20 O       -0.6340    -4.6820     1.5180 O.2   1 <1>  -0.5700 
 21 N       -2.3130    -5.2120     0.1250 N.am  1 <1>  -0.6600 
 22 C        1.2370    -4.0750    -1.0330 C.3   1 <1>  -0.2400 
 23 C       -2.6980    -6.4060     0.9340 C.3   1 <1>   0.1400 
 24 C       -2.9460    -5.2120    -1.2250 C.3   1 <1>   0.1400 
 25 C       -2.2610    -7.6810     0.2060 C.3   1 <1>  -0.1600 
 26 C       -2.5170    -6.4680    -1.9910 C.3   1 <1>  -0.1600 
 27 C       -2.8470    -7.7480    -1.2110 C.3   1 <1>  -0.1600 
 28 H        0.7110    -2.2160     1.0780 H     1 <1>   0.0800 
 29 H       -2.4340     0.0220    -0.3880 H     1 <1>   0.0800 
 30 H       -1.5010    -2.6710     2.6120 H     1 <1>   0.0800 
 31 H       -0.6110    -1.2030     2.8560 H     1 <1>   0.0800 
 32 H       -3.1390    -2.5900    -0.2540 H     1 <1>   0.0800 
 33 H       -2.2250    -2.0280    -1.6310 H     1 <1>   0.0800 
 34 H       -2.4010     0.0100     2.0760 H     1 <1>   0.0800 
 35 H       -3.2860    -1.4540     1.7280 H     1 <1>   0.0800 
 36 H        2.6120    -1.1310    -0.1360 H     1 <1>   0.0800 
 37 H        4.0160    -0.4420    -0.9100 H     1 <1>   0.0800 
 38 H        2.9110    -1.4350    -1.8310 H     1 <1>   0.0800 
 39 H       -1.1620     2.7610    -1.5190 H     1 <1>   0.0800 
 40 H       -0.1480     3.9290    -2.3320 H     1 <1>   0.0800 
 41 H       -0.0640     3.7670    -0.5950 H     1 <1>   0.0800 
 42 H       -0.5780    -3.8120    -2.1030 H     1 <1>   0.0800 
 43 H        0.2520    -2.3360    -1.7860 H     1 <1>   0.0800 
 44 H        0.9940    -5.0660    -0.6910 H     1 <1>   0.0800 
 45 H        1.8280    -3.5910    -0.2770 H     1 <1>   0.0800 
 46 H        1.8360    -4.1670    -1.9210 H     1 <1>   0.0800 
 47 H       -2.2450    -6.3740     1.9100 H     1 <1>   0.0800 
 48 H       -3.7650    -6.4090     1.0690 H     1 <1>   0.0800 
 49 H       -4.0160    -5.2040    -1.1090 H     1 <1>   0.0800 
 50 H       -2.6690    -4.3480    -1.7950 H     1 <1>   0.0800 
 51 H       -1.1850    -7.6990     0.1590 H     1 <1>   0.0800 
 52 H       -2.5780    -8.5390     0.7710 H     1 <1>   0.0800 
 53 H       -3.0130    -6.4910    -2.9460 H     1 <1>   0.0800 
 54 H       -1.4570    -6.4190    -2.1730 H     1 <1>   0.0800 
 55 H       -3.9150    -7.8630    -1.1490 H     1 <1>   0.0800 
 56 H       -2.4490    -8.6040    -1.7290 H     1 <1>   0.0800 
@<TRIPOS>BOND
  1   1   2  2   
  2   1   3  2   
  3   1   4  am  
  4   1   5  1   
  5   4   6  1   
  6   4   7  1   
  7   5   8  2   
  8   5   9  1   
  9   6  10  1   
 10   6  11  1   
 11   6  28  1   
 12   7  12  1   
 13   7  13  1   
 14   7  29  1   
 15   8  14  1   
 16   8  15  1   
 17   9  16  2   
 18   9  17  1   
 19  10  12  1   
 20  10  18  1   
 21  10  19  1   
 22  11  13  1   
 23  11  30  1   
 24  11  31  1   
 25  12  32  1   
 26  12  33  1   
 27  13  34  1   
 28  13  35  1   
 29  14  16  1   
 30  15  36  1   
 31  15  37  1   
 32  15  38  1   
 33  17  39  1   
 34  17  40  1   
 35  17  41  1   
 36  18  20  2   
 37  18  21  am  
 38  19  22  1   
 39  19  42  1   
 40  19  43  1   
 41  21  23  1   
 42  21  24  1   
 43  22  44  1   
 44  22  45  1   
 45  22  46  1   
 46  23  25  1   
 47  23  47  1   
 48  23  48  1   
 49  24  26  1   
 50  24  49  1   
 51  24  50  1   
 52  25  27  1   
 53  25  51  1   
 54  25  52  1   
 55  26  27  1   
 56  26  53  1   
 57  26  54  1   
 58  27  55  1   
 59  27  56  1   
@<TRIPOS>SUBSTRUCTURE
  1 ****  10 GROUP 4 **** **** 0

# MOE 2024.06 (io_trps.svl 2023.06)
