@<TRIPOS>MOLECULE
NONAME
50 54 1 0 0 
SMALL
USER_CHARGES


@<TRIPOS>ATOM
  1 S        1.4620    -0.5860    -2.0580 S.3   1 <1>  -0.0800 
  2 C        0.6200    -1.4410    -0.7760 C.2   1 <1>   0.3250 
  3 C        0.7560    -1.6430    -3.2290 C.2   1 <1>  -0.1100 
  4 N       -0.1020    -2.4120    -1.2170 N.2   1 <1>  -0.5650 
  5 C        0.8020    -1.0060     0.5880 C.ar  1 <1>   0.0530 
  6 C       -0.0540    -2.5320    -2.6180 C.2   1 <1>   0.1410 
  7 C        0.8810    -1.9360     1.6250 C.ar  1 <1>  -0.1500 
  8 C        0.8900     0.3450     0.9280 C.ar  1 <1>  -0.1500 
  9 C       -0.8260    -3.5660    -3.2980 C.2   1 <1>   0.7160 
 10 C        1.0320    -1.5400     2.9410 C.ar  1 <1>  -0.1500 
 11 C        1.0400     0.7470     2.2420 C.ar  1 <1>  -0.1500 
 12 O       -0.3490    -4.1740    -4.2340 O.2   1 <1>  -0.5700 
 13 N       -2.0810    -3.9390    -2.8570 N.am  1 <1>  -0.6600 
 14 C        1.1100    -0.1950     3.2520 C.ar  1 <1>  -0.1500 
 15 C       -2.9770    -3.0330    -2.0690 C.3   1 <1>   0.1400 
 16 C       -2.3740    -5.3860    -2.6460 C.3   1 <1>   0.1400 
 17 C       -2.9540    -3.3700    -0.5540 C.3   1 <1>   0.4230 
 18 C       -2.3290    -5.7410    -1.1400 C.3   1 <1>   0.3430 
 19 N       -2.0520    -4.5450    -0.2550 N.4   1 <1>  -0.9590 
 20 C       -4.3690    -3.6050     0.0210 C.3   1 <1>   0.1200 
 21 C       -2.0580    -4.8260     1.2100 C.3   1 <1>   0.5180 
 22 O       -4.2970    -3.8840     1.3920 O.3   1 <1>  -0.5600 
 23 C       -1.1910    -6.0570     1.5050 C.3   1 <1>  -0.1950 
 24 C       -3.5000    -4.9840     1.7480 C.3   1 <1>   0.1200 
 25 C       -0.2060    -6.0090     2.6330 C.3   1 <1>  -0.2000 
 26 C        0.2810    -6.0910     1.2180 C.3   1 <1>  -0.2000 
 27 H        1.0080    -1.5030    -4.2660 H     1 <1>   0.1500 
 28 H        0.8360    -2.9820     1.3930 H     1 <1>   0.1500 
 29 H        0.8350     1.0960     0.1590 H     1 <1>   0.1500 
 30 H        1.0970    -2.2730     3.7270 H     1 <1>   0.1500 
 31 H        1.1040     1.7950     2.4830 H     1 <1>   0.1500 
 32 H        1.2290     0.1190     4.2760 H     1 <1>   0.1500 
 33 H       -2.6790    -2.0080    -2.2060 H     1 <1>   0.0800 
 34 H       -3.9800    -3.1180    -2.4530 H     1 <1>   0.0800 
 35 H       -3.3460    -5.6150    -3.0470 H     1 <1>   0.0800 
 36 H       -1.6600    -5.9950    -3.1760 H     1 <1>   0.0800 
 37 H       -2.5590    -2.5030    -0.0490 H     1 <1>   0.0800 
 38 H       -1.5630    -6.4850    -0.9900 H     1 <1>   0.0800 
 39 H       -3.2690    -6.1900    -0.8630 H     1 <1>   0.0800 
 40 H       -1.1070    -4.2040    -0.5020 H     1 <1>   0.4500 
 41 H       -4.8650    -4.4230    -0.4730 H     1 <1>   0.0800 
 42 H       -4.9690    -2.7200    -0.0960 H     1 <1>   0.0800 
 43 H       -1.6160    -3.9830     1.7170 H     1 <1>   0.0800 
 44 H       -1.7330    -6.9820     1.3990 H     1 <1>   0.1000 
 45 H       -3.4840    -5.0410     2.8230 H     1 <1>   0.0800 
 46 H       -3.9610    -5.8790     1.3680 H     1 <1>   0.0800 
 47 H       -0.0380    -5.0910     3.1730 H     1 <1>   0.1000 
 48 H       -0.0880    -6.8760     3.2640 H     1 <1>   0.1000 
 49 H        0.7350    -7.0140     0.8960 H     1 <1>   0.1000 
 50 H        0.7780    -5.2330     0.7980 H     1 <1>   0.1000 
@<TRIPOS>BOND
  1   1   2  1   
  2   1   3  1   
  3   2   4  2   
  4   2   5  1   
  5   3   6  2   
  6   3  27  1   
  7   4   6  1   
  8   5   7  ar  
  9   5   8  ar  
 10   6   9  1   
 11   7  10  ar  
 12   7  28  1   
 13   8  11  ar  
 14   8  29  1   
 15   9  12  2   
 16   9  13  am  
 17  10  14  ar  
 18  10  30  1   
 19  11  14  ar  
 20  11  31  1   
 21  13  15  1   
 22  13  16  1   
 23  14  32  1   
 24  15  17  1   
 25  15  33  1   
 26  15  34  1   
 27  16  18  1   
 28  16  35  1   
 29  16  36  1   
 30  17  19  1   
 31  17  20  1   
 32  17  37  1   
 33  18  19  1   
 34  18  38  1   
 35  18  39  1   
 36  19  21  1   
 37  19  40  1   
 38  20  22  1   
 39  20  41  1   
 40  20  42  1   
 41  21  23  1   
 42  21  24  1   
 43  21  43  1   
 44  22  24  1   
 45  23  25  1   
 46  23  26  1   
 47  23  44  1   
 48  24  45  1   
 49  24  46  1   
 50  25  26  1   
 51  25  47  1   
 52  25  48  1   
 53  26  49  1   
 54  26  50  1   
@<TRIPOS>SUBSTRUCTURE
  1 ****   4 GROUP 4 **** **** 0

# MOE 2024.06 (io_trps.svl 2023.06)
