@<TRIPOS>MOLECULE
NONAME
52 55 1 0 0 
SMALL
USER_CHARGES


@<TRIPOS>ATOM
  1 S       -0.5550    -0.9080    -2.2490 S.3   1 <1>  -0.0800 
  2 C        0.3810    -2.2390    -1.5820 C.2   1 <1>  -0.1400 
  3 C        0.8610     0.1270    -2.2930 C.2   1 <1>  -0.1100 
  4 C        1.6700    -1.8760    -1.4300 C.2   1 <1>  -0.1500 
  5 C       -0.3470    -3.5370    -1.3080 C.3   1 <1>   0.5230 
  6 C        1.9410    -0.5290    -1.8310 C.2   1 <1>  -0.1500 
  7 N       -0.8480    -3.5280     0.0940 N.4   1 <1>  -0.9590 
  8 C       -1.2030    -4.9290     0.5150 C.3   1 <1>   0.3430 
  9 C       -2.0060    -2.5990     0.2540 C.3   1 <1>   0.3430 
 10 C       -1.7820    -5.0150     1.9520 C.3   1 <1>   0.2890 
 11 C       -2.4740    -2.5910     1.7110 C.3   1 <1>  -0.1600 
 12 N       -2.2770    -6.3780     2.2820 N.pl3 1 <1>  -0.8690 
 13 C       -2.9000    -3.9900     2.1840 C.3   1 <1>  -0.1600 
 14 C       -3.1980    -7.1170     1.5570 C.ar  1 <1>   0.4100 
 15 N       -3.6260    -6.6450     0.3820 N.ar  1 <1>  -0.3100 
 16 C       -3.6520    -8.3220     2.0580 C.ar  1 <1>  -0.1500 
 17 N       -4.4830    -7.3210    -0.3390 N.ar  1 <1>  -0.3100 
 18 C       -4.5540    -9.0290     1.3050 C.ar  1 <1>  -0.1500 
 19 C       -4.9550    -8.5030     0.0860 C.ar  1 <1>   0.3100 
 20 C       -5.9090    -9.1980    -0.7480 C.ar  1 <1>   0.0000 
 21 C       -5.7170   -10.5230    -1.1630 C.ar  1 <1>   0.0830 
 22 C       -7.0680    -8.5430    -1.1670 C.ar  1 <1>  -0.1500 
 23 O       -4.5770   -11.1500    -0.7690 O.3   1 <1>  -0.3630 
 24 C       -6.6700   -11.1540    -1.9590 C.ar  1 <1>  -0.1500 
 25 C       -8.0090    -9.1720    -1.9570 C.ar  1 <1>  -0.1500 
 26 C       -4.2140   -12.4260    -1.2490 C.3   1 <1>   0.0400 
 27 C       -7.8120   -10.4820    -2.3530 C.ar  1 <1>  -0.1500 
 28 H        0.7350     1.1290    -2.6660 H     1 <1>   0.1500 
 29 H        2.4690    -2.4940    -1.0540 H     1 <1>   0.1500 
 30 H        0.3460    -4.3520    -1.4380 H     1 <1>   0.0800 
 31 H       -1.1590    -3.6670    -2.0050 H     1 <1>   0.0800 
 32 H        2.9330    -0.1160    -1.7570 H     1 <1>   0.1500 
 33 H       -0.0790    -3.1750     0.6770 H     1 <1>   0.4500 
 34 H       -0.3340    -5.5630     0.4600 H     1 <1>   0.0800 
 35 H       -1.9320    -5.3080    -0.1780 H     1 <1>   0.0800 
 36 H       -2.8190    -2.9140    -0.3820 H     1 <1>   0.0800 
 37 H       -1.7220    -1.5980    -0.0300 H     1 <1>   0.0800 
 38 H       -0.9770    -4.7940     2.6320 H     1 <1>   0.0800 
 39 H       -3.3130    -1.9220     1.8010 H     1 <1>   0.0800 
 40 H       -1.6900    -2.2060     2.3400 H     1 <1>   0.0800 
 41 H       -2.1970    -6.6310     3.2720 H     1 <1>   0.4000 
 42 H       -3.1500    -3.9590     3.2300 H     1 <1>   0.0800 
 43 H       -3.7820    -4.2830     1.6400 H     1 <1>   0.0800 
 44 H       -3.3050    -8.6920     3.0040 H     1 <1>   0.1500 
 45 H       -4.9440    -9.9740     1.6370 H     1 <1>   0.1500 
 46 H       -7.2290    -7.5230    -0.8650 H     1 <1>   0.1500 
 47 H       -6.5440   -12.1690    -2.2820 H     1 <1>   0.1500 
 48 H       -8.8950    -8.6440    -2.2660 H     1 <1>   0.1500 
 49 H       -3.2500   -12.6730    -0.8430 H     1 <1>   0.0800 
 50 H       -4.1600   -12.3930    -2.3230 H     1 <1>   0.0800 
 51 H       -4.9440   -13.1450    -0.9200 H     1 <1>   0.0800 
 52 H       -8.5450   -10.9740    -2.9690 H     1 <1>   0.1500 
@<TRIPOS>BOND
  1   1   2  1   
  2   1   3  1   
  3   2   4  2   
  4   2   5  1   
  5   3   6  2   
  6   3  28  1   
  7   4   6  1   
  8   4  29  1   
  9   5   7  1   
 10   5  30  1   
 11   5  31  1   
 12   6  32  1   
 13   7   8  1   
 14   7   9  1   
 15   7  33  1   
 16   8  10  1   
 17   8  34  1   
 18   8  35  1   
 19   9  11  1   
 20   9  36  1   
 21   9  37  1   
 22  10  12  1   
 23  10  13  1   
 24  10  38  1   
 25  11  13  1   
 26  11  39  1   
 27  11  40  1   
 28  12  14  1   
 29  12  41  1   
 30  13  42  1   
 31  13  43  1   
 32  14  15  ar  
 33  14  16  ar  
 34  15  17  ar  
 35  16  18  ar  
 36  16  44  1   
 37  17  19  ar  
 38  18  19  ar  
 39  18  45  1   
 40  19  20  1   
 41  20  21  ar  
 42  20  22  ar  
 43  21  23  1   
 44  21  24  ar  
 45  22  25  ar  
 46  22  46  1   
 47  23  26  1   
 48  24  27  ar  
 49  24  47  1   
 50  25  27  ar  
 51  25  48  1   
 52  26  49  1   
 53  26  50  1   
 54  26  51  1   
 55  27  52  1   
@<TRIPOS>SUBSTRUCTURE
  1 ****  15 GROUP 4 **** **** 0

# MOE 2024.06 (io_trps.svl 2023.06)
