@<TRIPOS>MOLECULE
NONAME
43 45 1 0 0 
SMALL
USER_CHARGES


@<TRIPOS>ATOM
  1 O        1.7790    -2.3010    -0.0260 O.3   1 <1>  -0.0190 
  2 N        2.3490    -1.3060    -0.6270 N.2   1 <1>  -0.4100 
  3 C        1.2190    -1.7600     1.0250 C.2   1 <1>   0.2980 
  4 C        2.1130    -0.2420     0.0560 C.2   1 <1>   0.4620 
  5 N        1.3830    -0.5060     1.1450 N.2   1 <1>  -0.5650 
  6 C        0.4550    -2.6680     1.9830 C.3   1 <1>   0.2900 
  7 C        2.5650     1.0930    -0.2790 C.ar  1 <1>   0.0540 
  8 N       -0.7410    -3.2720     1.3500 N.3   1 <1>  -0.8100 
  9 C        2.2800     2.1870     0.5400 C.ar  1 <1>   0.1600 
 10 C        3.3030     1.3510    -1.4290 C.ar  1 <1>  -0.1500 
 11 C       -1.2220    -4.4460     2.1060 C.3   1 <1>   0.2900 
 12 C       -1.8090    -2.2710     1.1760 C.3   1 <1>   0.0300 
 13 N        2.6470     3.4410     0.3220 N.ar  1 <1>  -0.6200 
 14 C        3.6950     2.6480    -1.6760 C.ar  1 <1>  -0.1500 
 15 C       -2.2400    -5.2710     1.3280 C.2   1 <1>   0.0060 
 16 C        3.3460     3.6440    -0.7820 C.ar  1 <1>   0.1600 
 17 N       -3.2630    -5.8170     1.8950 N.2   1 <1>  -0.3380 
 18 N       -2.2040    -5.5440     0.0140 N.pl3 1 <1>   0.0480 
 19 N       -3.9350    -6.4720     0.9500 N.2   1 <1>  -0.3380 
 20 C       -3.2940    -6.2960    -0.1510 C.2   1 <1>   0.0370 
 21 C       -1.2670    -5.1360    -1.0570 C.3   1 <1>   0.0960 
 22 C        0.1330    -5.6950    -0.8160 C.3   1 <1>   0.1200 
 23 O        0.8890    -5.4380    -1.9530 O.3   1 <1>  -0.5600 
 24 C        2.2510    -5.6770    -1.7990 C.3   1 <1>   0.0400 
 25 H        0.1670    -2.1060     2.8540 H     1 <1>   0.0800 
 26 H        1.1310    -3.4440     2.2950 H     1 <1>   0.0800 
 27 H        1.7100     2.0120     1.4370 H     1 <1>   0.1500 
 28 H        3.5600     0.5570    -2.1090 H     1 <1>   0.1500 
 29 H       -1.6620    -4.1290     3.0370 H     1 <1>   0.0800 
 30 H       -0.3930    -5.0920     2.3360 H     1 <1>   0.0800 
 31 H       -1.4570    -1.4520     0.5720 H     1 <1>   0.0800 
 32 H       -2.1310    -1.8880     2.1300 H     1 <1>   0.0800 
 33 H       -2.6580    -2.7100     0.6790 H     1 <1>   0.0800 
 34 H        4.2660     2.8900    -2.5550 H     1 <1>   0.1500 
 35 H        3.6570     4.6560    -0.9820 H     1 <1>   0.1500 
 36 H       -3.5910    -6.7010    -1.1020 H     1 <1>   0.1500 
 37 H       -1.2270    -4.0640    -1.1000 H     1 <1>   0.0800 
 38 H       -1.6360    -5.5060    -1.9960 H     1 <1>   0.0800 
 39 H        0.1020    -6.7600    -0.6640 H     1 <1>   0.0800 
 40 H        0.5940    -5.2050     0.0240 H     1 <1>   0.0800 
 41 H        2.7320    -5.4860    -2.7430 H     1 <1>   0.0800 
 42 H        2.4050    -6.7030    -1.5140 H     1 <1>   0.0800 
 43 H        2.6460    -5.0080    -1.0530 H     1 <1>   0.0800 
@<TRIPOS>BOND
  1   1   2  1   
  2   1   3  1   
  3   2   4  2   
  4   3   5  2   
  5   3   6  1   
  6   4   5  1   
  7   4   7  1   
  8   6   8  1   
  9   6  25  1   
 10   6  26  1   
 11   7   9  ar  
 12   7  10  ar  
 13   8  11  1   
 14   8  12  1   
 15   9  13  ar  
 16   9  27  1   
 17  10  14  ar  
 18  10  28  1   
 19  11  15  1   
 20  11  29  1   
 21  11  30  1   
 22  12  31  1   
 23  12  32  1   
 24  12  33  1   
 25  13  16  ar  
 26  14  16  ar  
 27  14  34  1   
 28  15  17  2   
 29  15  18  1   
 30  16  35  1   
 31  17  19  1   
 32  18  20  1   
 33  18  21  1   
 34  19  20  2   
 35  20  36  1   
 36  21  22  1   
 37  21  37  1   
 38  21  38  1   
 39  22  23  1   
 40  22  39  1   
 41  22  40  1   
 42  23  24  1   
 43  24  41  1   
 44  24  42  1   
 45  24  43  1   
@<TRIPOS>SUBSTRUCTURE
  1 ****   3 GROUP 4 **** **** 0

# MOE 2024.06 (io_trps.svl 2023.06)
