@<TRIPOS>MOLECULE
NONAME
56 59 1 0 0 
SMALL
USER_CHARGES


@<TRIPOS>ATOM
  1 O        1.8560    -0.0820    -0.6450 O.2   1 <1>  -0.5700 
  2 C        2.3910    -1.1710    -0.5640 C.2   1 <1>   0.5440 
  3 N        3.7360    -1.2330    -0.2840 N.am  1 <1>  -0.6600 
  4 C        1.6050    -2.3720    -0.7600 C.ar  1 <1>   0.0860 
  5 C        4.4450    -2.4350     0.2090 C.3   1 <1>   0.1400 
  6 C        4.5520    -0.0160    -0.0770 C.3   1 <1>   0.1400 
  7 C        0.4370    -2.6090    -0.0630 C.ar  1 <1>  -0.1500 
  8 C        1.9600    -3.3660    -1.6640 C.ar  1 <1>  -0.1500 
  9 C        5.6210    -1.8900     1.0080 C.3   1 <1>  -0.1600 
 10 C        5.9130    -0.5290     0.3820 C.3   1 <1>  -0.1600 
 11 C       -0.2890    -3.7730    -0.2620 C.ar  1 <1>   0.4100 
 12 C        1.1720    -4.4910    -1.8010 C.ar  1 <1>   0.1600 
 13 N        0.0630    -4.7190    -1.1220 N.ar  1 <1>  -0.6200 
 14 N       -1.4520    -3.9710     0.4410 N.pl3 1 <1>  -0.8380 
 15 C       -1.6650    -5.2810     1.1650 C.3   1 <1>   0.2090 
 16 C       -2.6860    -3.3640    -0.1470 C.3   1 <1>   0.2090 
 17 C       -2.7580    -6.1160     0.4710 C.3   1 <1>   0.2000 
 18 C       -3.9380    -3.8360     0.5960 C.3   1 <1>  -0.1600 
 19 O       -2.3450    -6.2840    -0.8520 O.3   1 <1>  -0.6800 
 20 C       -4.1340    -5.3970     0.5820 C.3   1 <1>  -0.1060 
 21 C       -4.6770    -5.9220     1.9270 C.2   1 <1>   0.9060 
 22 C       -5.0870    -5.8200    -0.5820 C.3   1 <1>  -0.0160 
 23 O       -4.5350    -5.2610     2.9630 O.co2 1 <1>  -0.9000 
 24 O       -5.1520    -7.0640     1.9820 O.co2 1 <1>  -0.9000 
 25 C       -6.4450    -5.1150    -0.6300 C.ar  1 <1>  -0.1430 
 26 C       -6.6990    -4.1580    -1.6040 C.ar  1 <1>  -0.1500 
 27 C       -7.4430    -5.4230     0.2810 C.ar  1 <1>  -0.1500 
 28 C       -7.9240    -3.5160    -1.6610 C.ar  1 <1>  -0.1500 
 29 C       -8.6690    -4.7830     0.2290 C.ar  1 <1>  -0.1500 
 30 C       -8.9110    -3.8280    -0.7430 C.ar  1 <1>  -0.1500 
 31 H        3.8030    -3.0460     0.8210 H     1 <1>   0.0800 
 32 H        4.8000    -3.0040    -0.6330 H     1 <1>   0.0800 
 33 H        4.6240     0.5540    -0.9870 H     1 <1>   0.0800 
 34 H        4.0960     0.5880     0.6900 H     1 <1>   0.0800 
 35 H        0.0760    -1.8900     0.6480 H     1 <1>   0.1500 
 36 H        2.8480    -3.2490    -2.2590 H     1 <1>   0.1500 
 37 H        5.3180    -1.7610     2.0330 H     1 <1>   0.0800 
 38 H        6.4710    -2.5490     0.9740 H     1 <1>   0.0800 
 39 H        6.5480    -0.6500    -0.4790 H     1 <1>   0.0800 
 40 H        6.3830     0.1500     1.0710 H     1 <1>   0.0800 
 41 H        1.4670    -5.2470    -2.5080 H     1 <1>   0.1500 
 42 H       -0.7490    -5.8440     1.1980 H     1 <1>   0.0800 
 43 H       -1.9620    -5.0800     2.1810 H     1 <1>   0.0800 
 44 H       -2.6140    -2.2920    -0.0820 H     1 <1>   0.0800 
 45 H       -2.7610    -3.6360    -1.1860 H     1 <1>   0.0800 
 46 H       -2.8130    -7.0990     0.9080 H     1 <1>   0.0800 
 47 H       -3.8350    -3.4720     1.6020 H     1 <1>   0.0800 
 48 H       -4.7970    -3.3340     0.1990 H     1 <1>   0.0800 
 49 H       -1.6260    -5.6160    -1.0020 H     1 <1>   0.4000 
 50 H       -4.6020    -5.6370    -1.5220 H     1 <1>   0.0800 
 51 H       -5.2540    -6.8830    -0.5320 H     1 <1>   0.0800 
 52 H       -5.9370    -3.9100    -2.3210 H     1 <1>   0.1500 
 53 H       -7.2650    -6.1670     1.0410 H     1 <1>   0.1500 
 54 H       -8.1070    -2.7760    -2.4190 H     1 <1>   0.1500 
 55 H       -9.4260    -5.0320     0.9490 H     1 <1>   0.1500 
 56 H       -9.8630    -3.3300    -0.7810 H     1 <1>   0.1500 
@<TRIPOS>BOND
  1   1   2  2   
  2   2   3  am  
  3   2   4  1   
  4   3   5  1   
  5   3   6  1   
  6   4   7  ar  
  7   4   8  ar  
  8   5   9  1   
  9   5  31  1   
 10   5  32  1   
 11   6  10  1   
 12   6  33  1   
 13   6  34  1   
 14   7  11  ar  
 15   7  35  1   
 16   8  12  ar  
 17   8  36  1   
 18   9  10  1   
 19   9  37  1   
 20   9  38  1   
 21  10  39  1   
 22  10  40  1   
 23  11  13  ar  
 24  11  14  1   
 25  12  13  ar  
 26  12  41  1   
 27  14  15  1   
 28  14  16  1   
 29  15  17  1   
 30  15  42  1   
 31  15  43  1   
 32  16  18  1   
 33  16  44  1   
 34  16  45  1   
 35  17  19  1   
 36  17  20  1   
 37  17  46  1   
 38  18  20  1   
 39  18  47  1   
 40  18  48  1   
 41  19  49  1   
 42  20  21  1   
 43  20  22  1   
 44  21  23  ar  
 45  21  24  ar  
 46  22  25  1   
 47  22  50  1   
 48  22  51  1   
 49  25  26  ar  
 50  25  27  ar  
 51  26  28  ar  
 52  26  52  1   
 53  27  29  ar  
 54  27  53  1   
 55  28  30  ar  
 56  28  54  1   
 57  29  30  ar  
 58  29  55  1   
 59  30  56  1   
@<TRIPOS>SUBSTRUCTURE
  1 ****  14 GROUP 4 **** **** 0

# MOE 2024.06 (io_trps.svl 2023.06)
