@<TRIPOS>MOLECULE
NONAME
45 47 1 0 0 
SMALL
USER_CHARGES


@<TRIPOS>ATOM
  1 O        2.6550    -0.6730     2.6790 O.2   1 <1>  -0.5700 
  2 C        2.5070    -0.9800     1.5120 C.2   1 <1>   0.5440 
  3 N        2.8490    -0.0440     0.5520 N.am  1 <1>  -0.6600 
  4 C        2.0210    -2.3040     1.1720 C.ar  1 <1>   0.0860 
  5 C        2.9790     1.4010     0.9320 C.3   1 <1>   0.1400 
  6 C        3.2090    -0.4230    -0.8400 C.3   1 <1>   0.1400 
  7 C        0.9680    -2.4860     0.2770 C.ar  1 <1>  -0.1500 
  8 C        2.5970    -3.4430     1.7290 C.ar  1 <1>  -0.1500 
  9 C        4.4420     1.9000     1.0120 C.3   1 <1>   0.4230 
 10 C        4.6190     0.0400    -1.2440 C.3   1 <1>  -0.0800 
 11 C        0.5160    -3.7480    -0.0720 C.ar  1 <1>   0.0830 
 12 C        2.1510    -4.7050     1.3860 C.ar  1 <1>   0.0820 
 13 N        4.9900     2.3900    -0.3040 N.4   1 <1>  -0.9590 
 14 C        5.4370     0.8480     1.5660 C.3   1 <1>   0.1200 
 15 C        5.7390    -0.5450    -0.3430 C.3   1 <1>   0.1200 
 16 C        4.6550     1.5580    -1.5010 C.3   1 <1>   0.3430 
 17 O       -0.5060    -3.7990    -0.9620 O.3   1 <1>  -0.3630 
 18 C        1.1130    -4.8720     0.4860 C.ar  1 <1>  -0.1500 
 19 O        2.7440    -5.7730     1.9400 O.3   1 <1>  -0.5330 
 20 C        4.7840     3.8500    -0.5340 C.3   1 <1>   0.2630 
 21 O        6.2920     0.3880     0.5440 O.3   1 <1>  -0.5600 
 22 C       -1.1240    -5.0200    -1.3040 C.3   1 <1>   0.0400 
 23 H        2.4180     2.0070     0.2440 H     1 <1>   0.0800 
 24 H        2.5320     1.5480     1.9000 H     1 <1>   0.0800 
 25 H        3.1690    -1.4940    -0.9480 H     1 <1>   0.0800 
 26 H        2.4750    -0.0110    -1.5130 H     1 <1>   0.0800 
 27 H        0.4840    -1.6290    -0.1540 H     1 <1>   0.1500 
 28 H        3.3980    -3.3430     2.4400 H     1 <1>   0.1500 
 29 H        4.4420     2.7240     1.7060 H     1 <1>   0.0800 
 30 H        4.7650    -0.4120    -2.2090 H     1 <1>   0.0800 
 31 H        6.0010     2.1950    -0.1690 H     1 <1>   0.4500 
 32 H        4.9590     0.0130     2.0440 H     1 <1>   0.0800 
 33 H        6.0610     1.3190     2.3050 H     1 <1>   0.0800 
 34 H        6.5510    -0.8860    -0.9630 H     1 <1>   0.0800 
 35 H        5.3870    -1.3910     0.2240 H     1 <1>   0.0800 
 36 H        3.6990     1.8620    -1.8940 H     1 <1>   0.0800 
 37 H        5.3920     1.7530    -2.2640 H     1 <1>   0.0800 
 38 H        0.7860    -5.8610     0.2340 H     1 <1>   0.1500 
 39 H        2.3460    -6.6230     1.6790 H     1 <1>   0.4500 
 40 H        3.7360     4.0660    -0.6610 H     1 <1>   0.0800 
 41 H        5.3120     4.1660    -1.4200 H     1 <1>   0.0800 
 42 H        5.1560     4.4170     0.3040 H     1 <1>   0.0800 
 43 H       -1.9300    -4.8070    -1.9830 H     1 <1>   0.0800 
 44 H       -1.5130    -5.4770    -0.4110 H     1 <1>   0.0800 
 45 H       -0.4030    -5.6570    -1.7830 H     1 <1>   0.0800 
@<TRIPOS>BOND
  1   1   2  2   
  2   2   3  am  
  3   2   4  1   
  4   3   5  1   
  5   3   6  1   
  6   4   7  ar  
  7   4   8  ar  
  8   5   9  1   
  9   5  23  1   
 10   5  24  1   
 11   6  10  1   
 12   6  25  1   
 13   6  26  1   
 14   7  11  ar  
 15   7  27  1   
 16   8  12  ar  
 17   8  28  1   
 18   9  13  1   
 19   9  14  1   
 20   9  29  1   
 21  10  15  1   
 22  10  16  1   
 23  10  30  1   
 24  11  17  1   
 25  11  18  ar  
 26  12  18  ar  
 27  12  19  1   
 28  13  16  1   
 29  13  20  1   
 30  13  31  1   
 31  14  21  1   
 32  14  32  1   
 33  14  33  1   
 34  15  21  1   
 35  15  34  1   
 36  15  35  1   
 37  16  36  1   
 38  16  37  1   
 39  17  22  1   
 40  18  38  1   
 41  19  39  1   
 42  20  40  1   
 43  20  41  1   
 44  20  42  1   
 45  22  43  1   
 46  22  44  1   
 47  22  45  1   
@<TRIPOS>SUBSTRUCTURE
  1 ****   3 GROUP 4 **** **** 0

# MOE 2024.06 (io_trps.svl 2023.06)
