@<TRIPOS>MOLECULE
NONAME
40 41 1 0 0 
SMALL
USER_CHARGES


@<TRIPOS>ATOM
  1 S       -0.2370    -0.0350     0.3100 S.o2  1 <1>   1.3330 
  2 O        0.0480    -0.9620     1.3830 O.2   1 <1>  -0.6500 
  3 O       -0.8950     1.2180     0.6050 O.2   1 <1>  -0.6500 
  4 N       -1.1450    -0.8570    -0.8650 N.am  1 <1>  -0.8490 
  5 C        1.2810     0.3450    -0.5630 C.3   1 <1>  -0.0550 
  6 C       -0.8510    -2.2930    -0.9310 C.3   1 <1>   0.1160 
  7 C       -2.5880    -0.6520    -0.7000 C.3   1 <1>   0.1160 
  8 C        2.2610     1.1960     0.2680 C.3   1 <1>  -0.0800 
  9 C        3.4430     1.6580    -0.5720 C.3   1 <1>   0.2200 
 10 C        2.9230     0.3870     1.3970 C.3   1 <1>   0.1200 
 11 N        3.9080     2.9620    -0.0530 N.am  1 <1>  -0.7300 
 12 C        4.4870     0.5990    -0.2520 C.3   1 <1>   0.1200 
 13 O        4.2840     0.3070     1.0930 O.3   1 <1>  -0.5600 
 14 C        4.2090     4.0430    -0.8200 C.2   1 <1>   0.7150 
 15 O        4.1060     3.9610    -2.0270 O.2   1 <1>  -0.5700 
 16 C        4.6550     5.2540    -0.1930 C.2   1 <1>  -0.2370 
 17 N        4.3610     5.5940     1.0990 N.pl3 1 <1>   0.0330 
 18 C        5.4070     6.2720    -0.7190 C.2   1 <1>  -0.1500 
 19 C        4.9290     6.7910     1.3680 C.2   1 <1>  -0.3020 
 20 C        5.5920     7.2500     0.2640 C.2   1 <1>   0.0190 
 21 C        6.3320     8.4700     0.1030 C.1   1 <1>   0.5380 
 22 N        6.9220     9.4390    -0.0210 N.1   1 <1>  -0.5570 
 23 H        1.7600    -0.5650    -0.8690 H     1 <1>   0.0800 
 24 H        1.0220     0.8930    -1.4500 H     1 <1>   0.0800 
 25 H       -1.3840    -2.7420    -1.7520 H     1 <1>   0.0800 
 26 H       -1.1440    -2.7800    -0.0150 H     1 <1>   0.0800 
 27 H        0.2020    -2.4510    -1.0840 H     1 <1>   0.0800 
 28 H       -3.1300    -1.1720    -1.4700 H     1 <1>   0.0800 
 29 H       -2.8230     0.3970    -0.7750 H     1 <1>   0.0800 
 30 H       -2.9090    -1.0090     0.2650 H     1 <1>   0.0800 
 31 H        1.7220     2.0390     0.6670 H     1 <1>   0.0800 
 32 H        3.2270     1.7160    -1.6260 H     1 <1>   0.0800 
 33 H        2.5420    -0.6170     1.4710 H     1 <1>   0.0800 
 34 H        2.8210     0.8770     2.3500 H     1 <1>   0.0800 
 35 H        4.3210     2.8920     0.8770 H     1 <1>   0.3700 
 36 H        5.4940     0.9460    -0.4040 H     1 <1>   0.0800 
 37 H        4.3160    -0.2990    -0.8190 H     1 <1>   0.0800 
 38 H        3.7780     5.0400     1.7390 H     1 <1>   0.2700 
 39 H        5.7950     6.3220    -1.7230 H     1 <1>   0.1500 
 40 H        4.8380     7.2740     2.3250 H     1 <1>   0.1500 
@<TRIPOS>BOND
  1   1   2  2   
  2   1   3  2   
  3   1   4  am  
  4   1   5  1   
  5   4   6  1   
  6   4   7  1   
  7   5   8  1   
  8   5  23  1   
  9   5  24  1   
 10   6  25  1   
 11   6  26  1   
 12   6  27  1   
 13   7  28  1   
 14   7  29  1   
 15   7  30  1   
 16   8   9  1   
 17   8  10  1   
 18   8  31  1   
 19   9  11  1   
 20   9  12  1   
 21   9  32  1   
 22  10  13  1   
 23  10  33  1   
 24  10  34  1   
 25  11  14  am  
 26  11  35  1   
 27  12  13  1   
 28  12  36  1   
 29  12  37  1   
 30  14  15  2   
 31  14  16  1   
 32  16  17  1   
 33  16  18  2   
 34  17  19  1   
 35  17  38  1   
 36  18  20  1   
 37  18  39  1   
 38  19  20  2   
 39  19  40  1   
 40  20  21  1   
 41  21  22  3   
@<TRIPOS>SUBSTRUCTURE
  1 ****  11 GROUP 4 **** **** 0

# MOE 2024.06 (io_trps.svl 2023.06)
