@<TRIPOS>MOLECULE
NONAME
47 49 1 0 0 
SMALL
USER_CHARGES


@<TRIPOS>ATOM
  1 S        0.1750    -0.8790    -0.5440 S.o2  1 <1>   1.5010 
  2 O       -0.1150    -2.2940    -0.4540 O.2   1 <1>  -0.6500 
  3 O        0.4290    -0.2970    -1.8460 O.2   1 <1>  -0.6500 
  4 N       -1.1790    -0.0660     0.0720 N.am  1 <1>  -0.8490 
  5 C        1.4880    -0.4490     0.6250 C.2   1 <1>  -0.0630 
  6 C       -2.4530    -0.5540    -0.5220 C.3   1 <1>   0.1960 
  7 C       -1.1080     1.3740    -0.0940 C.3   1 <1>   0.1960 
  8 C        1.3870    -0.5950     2.0090 C.2   1 <1>   0.1080 
  9 C        2.7420     0.0540     0.4470 C.2   1 <1>  -0.3320 
 10 C       -3.8570     0.2290    -0.3320 C.3   1 <1>   0.0000 
 11 C       -2.2350     1.9820     0.7360 C.3   1 <1>  -0.1600 
 12 N        2.4540    -0.2100     2.6360 N.2   1 <1>  -0.7070 
 13 C        0.1910    -1.1370     2.7640 C.3   1 <1>  -0.0590 
 14 N        3.2920     0.1860     1.6690 N.pl3 1 <1>   0.3000 
 15 C        3.4870     0.4270    -0.8260 C.3   1 <1>  -0.0600 
 16 C       -5.2470     1.0220    -0.2390 C.3   1 <1>   0.2000 
 17 C       -3.3510     0.9540     1.0000 C.3   1 <1>  -0.1600 
 18 C       -4.4420    -0.5230    -1.6150 C.3   1 <1>  -0.1600 
 19 O       -6.1190     0.3050     0.5980 O.3   1 <1>  -0.5600 
 20 C       -5.9350     1.2460    -1.5910 C.3   1 <1>  -0.1600 
 21 C       -5.0970     0.4660    -2.5510 C.3   1 <1>  -0.1600 
 22 C       -7.0900     1.0630     1.2490 C.3   1 <1>   0.0400 
 23 H       -2.1850    -0.5750    -1.5660 H     1 <1>   0.0800 
 24 H       -2.5950    -1.5750    -0.2040 H     1 <1>   0.0800 
 25 H       -0.1580     1.7520     0.2470 H     1 <1>   0.0800 
 26 H       -1.2270     1.6290    -1.1360 H     1 <1>   0.0800 
 27 H       -1.8320     2.3100     1.6780 H     1 <1>   0.0800 
 28 H       -2.6260     2.8450     0.2280 H     1 <1>   0.0800 
 29 H       -0.1960    -2.0130     2.2780 H     1 <1>   0.0800 
 30 H       -0.5790    -0.3890     2.8120 H     1 <1>   0.0800 
 31 H        0.4790    -1.4000     3.7650 H     1 <1>   0.0800 
 32 H        4.2350     0.5380     1.8780 H     1 <1>   0.2700 
 33 H        2.9120     0.1810    -1.7000 H     1 <1>   0.0800 
 34 H        4.4190    -0.1090    -0.8800 H     1 <1>   0.0800 
 35 H        3.6920     1.4820    -0.8420 H     1 <1>   0.0800 
 36 H       -5.1480     2.0260     0.1450 H     1 <1>   0.0800 
 37 H       -4.0690     1.4290     1.6490 H     1 <1>   0.0800 
 38 H       -2.9850     0.1980     1.6790 H     1 <1>   0.0800 
 39 H       -3.8450    -1.1660    -2.2410 H     1 <1>   0.0800 
 40 H       -5.2030    -1.2020    -1.2600 H     1 <1>   0.0800 
 41 H       -6.9430     0.8700    -1.5840 H     1 <1>   0.0800 
 42 H       -5.9380     2.2860    -1.8630 H     1 <1>   0.0800 
 43 H       -5.6930    -0.0180    -3.3070 H     1 <1>   0.0800 
 44 H       -4.3510     1.0920    -3.0110 H     1 <1>   0.0800 
 45 H       -7.6980     0.3950     1.8340 H     1 <1>   0.0800 
 46 H       -7.7040     1.5660     0.5220 H     1 <1>   0.0800 
 47 H       -6.6100     1.7750     1.8970 H     1 <1>   0.0800 
@<TRIPOS>BOND
  1   1   2  2   
  2   1   3  2   
  3   1   4  am  
  4   1   5  1   
  5   4   6  1   
  6   4   7  1   
  7   5   8  1   
  8   5   9  2   
  9   6  10  1   
 10   6  23  1   
 11   6  24  1   
 12   7  11  1   
 13   7  25  1   
 14   7  26  1   
 15   8  12  2   
 16   8  13  1   
 17   9  14  1   
 18   9  15  1   
 19  10  16  1   
 20  10  17  1   
 21  10  18  1   
 22  11  17  1   
 23  11  27  1   
 24  11  28  1   
 25  12  14  1   
 26  13  29  1   
 27  13  30  1   
 28  13  31  1   
 29  14  32  1   
 30  15  33  1   
 31  15  34  1   
 32  15  35  1   
 33  16  19  1   
 34  16  20  1   
 35  16  36  1   
 36  17  37  1   
 37  17  38  1   
 38  18  21  1   
 39  18  39  1   
 40  18  40  1   
 41  19  22  1   
 42  20  21  1   
 43  20  41  1   
 44  20  42  1   
 45  21  43  1   
 46  21  44  1   
 47  22  45  1   
 48  22  46  1   
 49  22  47  1   
@<TRIPOS>SUBSTRUCTURE
  1 ****   4 GROUP 4 **** **** 0

# MOE 2024.06 (io_trps.svl 2023.06)
