@<TRIPOS>MOLECULE
NONAME
46 47 1 0 0 
SMALL
USER_CHARGES


@<TRIPOS>ATOM
  1 CL       0.1660    -1.0250     1.4870 Cl    1 <1>  -0.1770 
  2 C       -1.3310    -1.3950     0.6640 C.ar  1 <1>   0.1770 
  3 C       -2.2340    -0.3820     0.3700 C.ar  1 <1>  -0.1440 
  4 C       -1.5820    -2.7090     0.3240 C.ar  1 <1>  -0.1500 
  5 C       -3.4070    -0.7200    -0.2850 C.ar  1 <1>  -0.1500 
  6 C       -1.9480     1.0640     0.7480 C.3   1 <1>  -0.0960 
  7 C       -2.7630    -3.0600    -0.3220 C.ar  1 <1>   0.0860 
  8 C       -3.6630    -2.0370    -0.6260 C.ar  1 <1>  -0.1500 
  9 C       -3.0390    -4.4410    -0.6680 C.2   1 <1>   0.5440 
 10 O       -2.2260    -5.0570    -1.3290 O.2   1 <1>  -0.5700 
 11 N       -4.1920    -5.0830    -0.2610 N.am  1 <1>  -0.6600 
 12 C       -4.5990    -6.3880    -0.8710 C.3   1 <1>   0.1400 
 13 C       -5.0150    -4.6310     0.8950 C.3   1 <1>   0.1400 
 14 C       -6.0990    -6.3840    -1.2180 C.3   1 <1>   0.2000 
 15 C       -6.4950    -4.6020     0.4950 C.3   1 <1>  -0.1600 
 16 O       -6.4560    -7.6360    -1.7120 O.3   1 <1>  -0.6800 
 17 C       -7.0110    -5.9700    -0.0260 C.3   1 <1>   0.0000 
 18 C       -6.9210    -7.0470     1.0940 C.3   1 <1>   0.1200 
 19 C       -8.5020    -5.8520    -0.4610 C.3   1 <1>  -0.1600 
 20 O       -7.6410    -6.6820     2.2230 O.3   1 <1>  -0.6800 
 21 C       -8.8090    -4.9220    -1.6510 C.3   1 <1>  -0.1600 
 22 C      -10.3140    -4.8830    -1.9320 C.3   1 <1>  -0.2400 
 23 H       -0.8580    -3.4690     0.5580 H     1 <1>   0.1500 
 24 H       -4.1260     0.0420    -0.5350 H     1 <1>   0.1500 
 25 H       -2.7540     1.7100     0.4470 H     1 <1>   0.0800 
 26 H       -1.0470     1.3970     0.2650 H     1 <1>   0.0800 
 27 H       -1.8220     1.1490     1.8120 H     1 <1>   0.0800 
 28 H       -4.5740    -2.2850    -1.1420 H     1 <1>   0.1500 
 29 H       -4.0430    -6.5590    -1.7780 H     1 <1>   0.0800 
 30 H       -4.3690    -7.1790    -0.1820 H     1 <1>   0.0800 
 31 H       -4.8590    -5.3060     1.7190 H     1 <1>   0.0800 
 32 H       -4.7140    -3.6530     1.2240 H     1 <1>   0.0800 
 33 H       -6.2280    -5.6890    -2.0280 H     1 <1>   0.0800 
 34 H       -7.0830    -4.2730     1.3330 H     1 <1>   0.0800 
 35 H       -6.6010    -3.8540    -0.2690 H     1 <1>   0.0800 
 36 H       -6.3590    -8.3260    -1.0310 H     1 <1>   0.4000 
 37 H       -5.9060    -7.2210     1.4030 H     1 <1>   0.0800 
 38 H       -7.3320    -7.9810     0.7500 H     1 <1>   0.0800 
 39 H       -8.8620    -6.8350    -0.7140 H     1 <1>   0.0800 
 40 H       -9.0840    -5.5190     0.3810 H     1 <1>   0.0800 
 41 H       -7.3560    -5.8100     2.5540 H     1 <1>   0.4000 
 42 H       -8.4750    -3.9200    -1.4500 H     1 <1>   0.0800 
 43 H       -8.3110    -5.2750    -2.5370 H     1 <1>   0.0800 
 44 H      -10.8480    -4.5110    -1.0750 H     1 <1>   0.0800 
 45 H      -10.6770    -5.8680    -2.1670 H     1 <1>   0.0800 
 46 H      -10.5160    -4.2370    -2.7680 H     1 <1>   0.0800 
@<TRIPOS>BOND
  1   1   2  1   
  2   2   3  ar  
  3   2   4  ar  
  4   3   5  ar  
  5   3   6  1   
  6   4   7  ar  
  7   4  23  1   
  8   5   8  ar  
  9   5  24  1   
 10   6  25  1   
 11   6  26  1   
 12   6  27  1   
 13   7   8  ar  
 14   7   9  1   
 15   8  28  1   
 16   9  10  2   
 17   9  11  am  
 18  11  12  1   
 19  11  13  1   
 20  12  14  1   
 21  12  29  1   
 22  12  30  1   
 23  13  15  1   
 24  13  31  1   
 25  13  32  1   
 26  14  16  1   
 27  14  17  1   
 28  14  33  1   
 29  15  17  1   
 30  15  34  1   
 31  15  35  1   
 32  16  36  1   
 33  17  18  1   
 34  17  19  1   
 35  18  20  1   
 36  18  37  1   
 37  18  38  1   
 38  19  21  1   
 39  19  39  1   
 40  19  40  1   
 41  20  41  1   
 42  21  22  1   
 43  21  42  1   
 44  21  43  1   
 45  22  44  1   
 46  22  45  1   
 47  22  46  1   
@<TRIPOS>SUBSTRUCTURE
  1 ****  11 GROUP 4 **** **** 0

# MOE 2024.06 (io_trps.svl 2023.06)
