@<TRIPOS>MOLECULE
NONAME
54 57 1 0 0 
SMALL
USER_CHARGES


@<TRIPOS>ATOM
  1 O       -0.4510    -0.6650     0.6950 O.2   1 <1>  -0.5700 
  2 C       -0.9130    -1.7690     0.5460 C.2   1 <1>   0.6300 
  3 N       -2.2320    -2.0300     0.3140 N.am  1 <1>  -0.5470 
  4 C        0.0210    -2.9670     0.6180 C.3   1 <1>  -0.1000 
  5 C       -3.3470    -1.1860     0.2120 C.ar  1 <1>   0.1170 
  6 C        1.1510    -3.1130    -0.3590 C.3   1 <1>  -0.2000 
  7 C       -0.0070    -4.0590    -0.4160 C.3   1 <1>  -0.2000 
  8 C       -3.3720     0.1090     0.7200 C.ar  1 <1>  -0.1500 
  9 C       -4.4920    -1.6680    -0.4090 C.ar  1 <1>  -0.1500 
 10 C       -4.5040     0.8960     0.6060 C.ar  1 <1>  -0.1500 
 11 C       -5.6240    -0.8830    -0.5260 C.ar  1 <1>  -0.1500 
 12 C       -5.6400     0.4070    -0.0200 C.ar  1 <1>  -0.1430 
 13 C       -6.8880     1.2760    -0.1640 C.3   1 <1>   0.0440 
 14 C       -8.1310     0.7890     0.5820 C.2   1 <1>   0.5690 
 15 O       -8.0520    -0.2020     1.2720 O.2   1 <1>  -0.5700 
 16 N       -9.3200     1.4680     0.4530 N.am  1 <1>  -0.6600 
 17 C      -10.5650     0.9730     1.1170 C.3   1 <1>   0.1400 
 18 C       -9.5500     2.6860    -0.3740 C.3   1 <1>   0.1400 
 19 C      -11.6440     0.6100     0.0660 C.3   1 <1>   0.0000 
 20 C      -10.5990     2.3830    -1.4500 C.3   1 <1>  -0.1600 
 21 C      -12.9480     0.1090     0.7210 C.3   1 <1>   0.2000 
 22 C      -11.9010     1.8340    -0.8410 C.3   1 <1>  -0.1600 
 23 C      -11.2110    -0.6280    -0.7410 C.3   1 <1>  -0.1600 
 24 O      -13.2510     0.7670     1.9010 O.3   1 <1>  -0.6800 
 25 C      -12.7680    -1.3880     0.9850 C.3   1 <1>  -0.1600 
 26 C      -11.5680    -1.8290     0.1370 C.3   1 <1>  -0.1600 
 27 H       -2.4340    -3.0150     0.1620 H     1 <1>   0.3700 
 28 H        0.2280    -3.2380     1.6380 H     1 <1>   0.1000 
 29 H        1.2580    -2.3630    -1.1240 H     1 <1>   0.1000 
 30 H        2.1010    -3.4660     0.0060 H     1 <1>   0.1000 
 31 H        0.1460    -5.0770    -0.1010 H     1 <1>   0.1000 
 32 H       -0.6670    -3.9830    -1.2630 H     1 <1>   0.1000 
 33 H       -2.5070     0.5100     1.2140 H     1 <1>   0.1500 
 34 H       -4.5050    -2.6660    -0.8070 H     1 <1>   0.1500 
 35 H       -4.4900     1.8920     1.0110 H     1 <1>   0.1500 
 36 H       -6.5020    -1.2820    -1.0040 H     1 <1>   0.1500 
 37 H       -7.1280     1.3340    -1.2080 H     1 <1>   0.0800 
 38 H       -6.6670     2.2690     0.1800 H     1 <1>   0.0800 
 39 H      -10.3520     0.1210     1.7370 H     1 <1>   0.0800 
 40 H      -10.9310     1.7560     1.7580 H     1 <1>   0.0800 
 41 H       -9.9090     3.4750     0.2660 H     1 <1>   0.0800 
 42 H       -8.6440     3.0270    -0.8390 H     1 <1>   0.0800 
 43 H      -10.8140     3.2850    -1.9960 H     1 <1>   0.0800 
 44 H      -10.1900     1.6720    -2.1470 H     1 <1>   0.0800 
 45 H      -13.7730     0.2550     0.0430 H     1 <1>   0.0800 
 46 H      -12.5870     1.5760    -1.6300 H     1 <1>   0.0800 
 47 H      -12.3630     2.6070    -0.2520 H     1 <1>   0.0800 
 48 H      -11.7820    -0.6850    -1.6520 H     1 <1>   0.0800 
 49 H      -10.1660    -0.6230    -0.9950 H     1 <1>   0.0800 
 50 H      -12.6450     0.4750     2.6070 H     1 <1>   0.4000 
 51 H      -12.5750    -1.5930     2.0230 H     1 <1>   0.0800 
 52 H      -13.6540    -1.9160     0.6790 H     1 <1>   0.0800 
 53 H      -10.7350    -2.0590     0.7810 H     1 <1>   0.0800 
 54 H      -11.7940    -2.6980    -0.4580 H     1 <1>   0.0800 
@<TRIPOS>BOND
  1   1   2  2   
  2   2   3  am  
  3   2   4  1   
  4   3   5  1   
  5   3  27  1   
  6   4   6  1   
  7   4   7  1   
  8   4  28  1   
  9   5   8  ar  
 10   5   9  ar  
 11   6   7  1   
 12   6  29  1   
 13   6  30  1   
 14   7  31  1   
 15   7  32  1   
 16   8  10  ar  
 17   8  33  1   
 18   9  11  ar  
 19   9  34  1   
 20  10  12  ar  
 21  10  35  1   
 22  11  12  ar  
 23  11  36  1   
 24  12  13  1   
 25  13  14  1   
 26  13  37  1   
 27  13  38  1   
 28  14  15  2   
 29  14  16  am  
 30  16  17  1   
 31  16  18  1   
 32  17  19  1   
 33  17  39  1   
 34  17  40  1   
 35  18  20  1   
 36  18  41  1   
 37  18  42  1   
 38  19  21  1   
 39  19  22  1   
 40  19  23  1   
 41  20  22  1   
 42  20  43  1   
 43  20  44  1   
 44  21  24  1   
 45  21  25  1   
 46  21  45  1   
 47  22  46  1   
 48  22  47  1   
 49  23  26  1   
 50  23  48  1   
 51  23  49  1   
 52  24  50  1   
 53  25  26  1   
 54  25  51  1   
 55  25  52  1   
 56  26  53  1   
 57  26  54  1   
@<TRIPOS>SUBSTRUCTURE
  1 ****  12 GROUP 4 **** **** 0

# MOE 2024.06 (io_trps.svl 2023.06)
