@<TRIPOS>MOLECULE
NONAME
26 26 1 0 0 
SMALL
USER_CHARGES


@<TRIPOS>ATOM
  1 O       -7.0100     1.7300     1.6060 O.2   1 <1>  -0.5700 
  2 C       -6.2910     1.0920     0.8850 C.2   1 <1>   0.6590 
  3 O       -5.2830     1.6540     0.2200 O.3   1 <1>  -0.4300 
  4 C       -6.4790    -0.4260     0.7320 C.3   1 <1>   0.2510 
  5 C       -5.0660     3.0490     0.2660 C.3   1 <1>   0.1200 
  6 N       -6.8850    -0.9560    -0.5950 N.3   1 <1>  -0.9000 
  7 C       -5.1970    -1.2260     0.9800 C.3   1 <1>   0.4230 
  8 C       -3.8220     3.3630    -0.5590 C.3   1 <1>  -0.2400 
  9 C       -6.7330    -2.4100    -0.4880 C.3   1 <1>   0.1100 
 10 N       -4.1720    -0.8630    -0.0320 N.4   1 <1>  -0.8530 
 11 C       -5.6770    -2.6270     0.6090 C.3   1 <1>  -0.1600 
 12 H       -7.2170    -0.7220     1.4600 H     1 <1>   0.0800 
 13 H       -5.9340     3.5440    -0.1420 H     1 <1>   0.0800 
 14 H       -4.9350     3.3480     1.2930 H     1 <1>   0.0800 
 15 H       -7.8740    -0.7150    -0.7870 H     1 <1>   0.3600 
 16 H       -4.8270    -1.1460     1.9900 H     1 <1>   0.0800 
 17 H       -3.9600     3.0530    -1.5800 H     1 <1>   0.0800 
 18 H       -2.9570     2.8820    -0.1410 H     1 <1>   0.0800 
 19 H       -3.6500     4.4250    -0.5530 H     1 <1>   0.0800 
 20 H       -7.6700    -2.8640    -0.2040 H     1 <1>   0.0800 
 21 H       -6.4200    -2.8210    -1.4350 H     1 <1>   0.0800 
 22 H       -4.6630    -0.9440    -0.9370 H     1 <1>   0.4500 
 23 H       -3.3460    -1.4660    -0.0230 H     1 <1>   0.4500 
 24 H       -3.9110     0.1290     0.0500 H     1 <1>   0.4500 
 25 H       -4.8860    -3.2830     0.2900 H     1 <1>   0.0800 
 26 H       -6.1570    -3.0800     1.4600 H     1 <1>   0.0800 
@<TRIPOS>BOND
  1   1   2  2   
  2   2   3  1   
  3   2   4  1   
  4   3   5  1   
  5   4   6  1   
  6   4   7  1   
  7   4  12  1   
  8   5   8  1   
  9   5  13  1   
 10   5  14  1   
 11   6   9  1   
 12   6  15  1   
 13   7  10  1   
 14   7  11  1   
 15   7  16  1   
 16   8  17  1   
 17   8  18  1   
 18   8  19  1   
 19   9  11  1   
 20   9  20  1   
 21   9  21  1   
 22  10  22  1   
 23  10  23  1   
 24  10  24  1   
 25  11  25  1   
 26  11  26  1   
@<TRIPOS>SUBSTRUCTURE
  1 ****   4 GROUP 4 **** **** 0

# MOE 2024.06 (io_trps.svl 2023.06)
