@<TRIPOS>MOLECULE
NONAME
53 55 1 0 0 
SMALL
USER_CHARGES


@<TRIPOS>ATOM
  1 O        0.1450    -0.1980     1.8600 O.2   1 <1>  -0.5700 
  2 C        1.2640    -0.6560     1.7180 C.2   1 <1>   0.7150 
  3 N        2.3290     0.1730     1.9000 N.am  1 <1>  -0.7300 
  4 C        1.4640    -2.0430     1.3560 C.2   1 <1>   0.0550 
  5 C        2.2370     1.6160     2.1940 C.3   1 <1>   0.3200 
  6 O        0.4340    -2.8820     1.3230 O.3   1 <1>  -0.2800 
  7 C        2.5820    -2.7390     1.0050 C.2   1 <1>  -0.1500 
  8 C        3.4000     2.3180     1.5260 C.2   1 <1>  -0.0400 
  9 C        0.8470    -4.0740     0.9590 C.2   1 <1>  -0.0400 
 10 C        2.1810    -4.0520     0.7460 C.2   1 <1>  -0.1500 
 11 O        4.6220     2.0340     1.8880 O.3   1 <1>  -0.0190 
 12 C        3.4610     3.2420     0.5550 C.2   1 <1>  -0.1500 
 13 C       -0.1690    -5.1980     0.8400 C.3   1 <1>   0.5230 
 14 N        5.4990     2.7130     1.2090 N.2   1 <1>  -0.4100 
 15 C        4.8290     3.4520     0.3960 C.2   1 <1>   0.1080 
 16 N       -1.2470    -4.7970    -0.1090 N.4   1 <1>  -0.9590 
 17 C        5.4530     4.4120    -0.5980 C.3   1 <1>   0.0210 
 18 C       -2.2610    -3.9180     0.5520 C.3   1 <1>   0.3430 
 19 C       -1.8740    -5.9730    -0.7720 C.3   1 <1>   0.3430 
 20 C        5.4480     3.8190    -2.0130 C.3   1 <1>  -0.1600 
 21 C       -3.2570    -3.4100    -0.4900 C.3   1 <1>  -0.1600 
 22 C       -2.8620    -5.4980    -1.8380 C.3   1 <1>  -0.1600 
 23 C        6.0780     4.7760    -3.0300 C.3   1 <1>  -0.2400 
 24 C       -3.9290    -4.5650    -1.2470 C.3   1 <1>  -0.0800 
 25 C       -4.8470    -4.0270    -2.3490 C.3   1 <1>  -0.2400 
 26 H        3.2810    -0.1730     1.7840 H     1 <1>   0.3700 
 27 H        2.2810     1.7710     3.2580 H     1 <1>   0.0800 
 28 H        1.3070     2.0140     1.8240 H     1 <1>   0.0800 
 29 H        3.5930    -2.3760     0.9270 H     1 <1>   0.1500 
 30 H        2.8400    -4.8480     0.4410 H     1 <1>   0.1500 
 31 H        2.6730     3.7230     0.0050 H     1 <1>   0.1500 
 32 H       -0.5870    -5.4180     1.8080 H     1 <1>   0.0800 
 33 H        0.3350    -6.0790     0.4760 H     1 <1>   0.0800 
 34 H       -0.7920    -4.2190    -0.8280 H     1 <1>   0.4500 
 35 H        6.4640     4.6190    -0.2950 H     1 <1>   0.0800 
 36 H        4.9050     5.3370    -0.5840 H     1 <1>   0.0800 
 37 H       -1.7830    -3.0720     1.0200 H     1 <1>   0.0800 
 38 H       -2.7870    -4.4710     1.3120 H     1 <1>   0.0800 
 39 H       -2.3950    -6.5700    -0.0420 H     1 <1>   0.0800 
 40 H       -1.1170    -6.5850    -1.2360 H     1 <1>   0.0800 
 41 H        4.4360     3.6010    -2.3080 H     1 <1>   0.0800 
 42 H        5.9970     2.8920    -2.0070 H     1 <1>   0.0800 
 43 H       -2.7470    -2.7580    -1.1770 H     1 <1>   0.0800 
 44 H       -4.0090    -2.8230     0.0090 H     1 <1>   0.0800 
 45 H       -3.3410    -6.3570    -2.2750 H     1 <1>   0.0800 
 46 H       -2.3230    -4.9960    -2.6230 H     1 <1>   0.0800 
 47 H        5.5320     5.7030    -3.0680 H     1 <1>   0.0800 
 48 H        6.0640     4.3320    -4.0100 H     1 <1>   0.0800 
 49 H        7.1000     4.9860    -2.7670 H     1 <1>   0.0800 
 50 H       -4.5330    -5.1270    -0.5520 H     1 <1>   0.0800 
 51 H       -4.2900    -3.4530    -3.0700 H     1 <1>   0.0800 
 52 H       -5.6090    -3.3940    -1.9270 H     1 <1>   0.0800 
 53 H       -5.3340    -4.8380    -2.8620 H     1 <1>   0.0800 
@<TRIPOS>BOND
  1   1   2  2   
  2   2   3  am  
  3   2   4  1   
  4   3   5  1   
  5   3  26  1   
  6   4   6  1   
  7   4   7  2   
  8   5   8  1   
  9   5  27  1   
 10   5  28  1   
 11   6   9  1   
 12   7  10  1   
 13   7  29  1   
 14   8  11  1   
 15   8  12  2   
 16   9  10  2   
 17   9  13  1   
 18  10  30  1   
 19  11  14  1   
 20  12  15  1   
 21  12  31  1   
 22  13  16  1   
 23  13  32  1   
 24  13  33  1   
 25  14  15  2   
 26  15  17  1   
 27  16  18  1   
 28  16  19  1   
 29  16  34  1   
 30  17  20  1   
 31  17  35  1   
 32  17  36  1   
 33  18  21  1   
 34  18  37  1   
 35  18  38  1   
 36  19  22  1   
 37  19  39  1   
 38  19  40  1   
 39  20  23  1   
 40  20  41  1   
 41  20  42  1   
 42  21  24  1   
 43  21  43  1   
 44  21  44  1   
 45  22  24  1   
 46  22  45  1   
 47  22  46  1   
 48  23  47  1   
 49  23  48  1   
 50  23  49  1   
 51  24  25  1   
 52  24  50  1   
 53  25  51  1   
 54  25  52  1   
 55  25  53  1   
@<TRIPOS>SUBSTRUCTURE
  1 ****   2 GROUP 4 **** **** 0

# MOE 2024.06 (io_trps.svl 2023.06)
