@<TRIPOS>MOLECULE
NONAME
46 47 1 0 0 
SMALL
USER_CHARGES


@<TRIPOS>ATOM
  1 O        2.8020     2.0920     1.8860 O.co2 1 <1>  -0.9000 
  2 C        2.2570     1.0330     1.5390 C.2   1 <1>   0.9060 
  3 O        1.9570     0.1700     2.3630 O.co2 1 <1>  -0.9000 
  4 C        2.2370     0.6540     0.0460 C.3   1 <1>  -0.1060 
  5 C        3.2140    -0.5410    -0.0290 C.3   1 <1>   0.2000 
  6 C        2.8010     1.8000    -0.8580 C.3   1 <1>  -0.1600 
  7 C        0.8070     0.2490    -0.4070 C.3   1 <1>  -0.1600 
  8 O        3.3730    -0.9430    -1.3570 O.3   1 <1>  -0.6800 
  9 C        4.6000    -0.1410     0.5430 C.3   1 <1>   0.3430 
 10 C        4.3390     1.8740    -0.9000 C.3   1 <1>   0.3430 
 11 C       -0.2270     1.3780    -0.2610 C.3   1 <1>  -0.1600 
 12 N        4.9000     1.3230     0.3590 N.4   1 <1>  -0.9590 
 13 C       -1.6160     0.9080    -0.7000 C.3   1 <1>  -0.2400 
 14 C        6.2920     1.7070     0.6430 C.3   1 <1>   0.5240 
 15 C        6.3610     3.2150     0.7280 C.2   1 <1>  -0.1810 
 16 C        7.2980     4.0520     0.1300 C.2   1 <1>   0.1080 
 17 C        5.5250     4.0530     1.3810 C.2   1 <1>  -0.3020 
 18 N        7.0610     5.2990     0.3820 N.2   1 <1>  -0.7070 
 19 C        8.4690     3.6200    -0.7240 C.3   1 <1>  -0.0590 
 20 N        5.9660     5.3020     1.1600 N.pl3 1 <1>   0.3140 
 21 C        5.3750     6.5460     1.6640 C.3   1 <1>   0.0160 
 22 H        2.8320    -1.3850     0.5220 H     1 <1>   0.0800 
 23 H        2.4180     2.7490    -0.5220 H     1 <1>   0.0800 
 24 H        2.4600     1.6730    -1.8700 H     1 <1>   0.0800 
 25 H        0.8220    -0.0740    -1.4320 H     1 <1>   0.0800 
 26 H        0.4820    -0.5850     0.1950 H     1 <1>   0.0800 
 27 H        2.5040    -1.2200    -1.7120 H     1 <1>   0.4000 
 28 H        5.3550    -0.7490     0.0750 H     1 <1>   0.0800 
 29 H        4.5950    -0.3540     1.6000 H     1 <1>   0.0800 
 30 H        4.6430     2.9000    -1.0340 H     1 <1>   0.0800 
 31 H        4.7020     1.2930    -1.7310 H     1 <1>   0.0800 
 32 H       -0.2760     1.6950     0.7680 H     1 <1>   0.0800 
 33 H        0.0580     2.2270    -0.8570 H     1 <1>   0.0800 
 34 H        4.3190     1.8070     1.0950 H     1 <1>   0.4500 
 35 H       -1.9370     0.0780    -0.0950 H     1 <1>   0.0800 
 36 H       -1.6050     0.6040    -1.7320 H     1 <1>   0.0800 
 37 H       -2.3270     1.7070    -0.5850 H     1 <1>   0.0800 
 38 H        6.6040     1.2860     1.5840 H     1 <1>   0.0800 
 39 H        6.9400     1.3470    -0.1370 H     1 <1>   0.0800 
 40 H        4.6520     3.8370     1.9780 H     1 <1>   0.1500 
 41 H        9.0540     2.8820    -0.2080 H     1 <1>   0.0800 
 42 H        9.0960     4.4690    -0.9320 H     1 <1>   0.0800 
 43 H        8.1160     3.2180    -1.6560 H     1 <1>   0.0800 
 44 H        4.4540     6.3270     2.1710 H     1 <1>   0.0800 
 45 H        5.1890     7.2030     0.8360 H     1 <1>   0.0800 
 46 H        6.0660     7.0080     2.3430 H     1 <1>   0.0800 
@<TRIPOS>BOND
  1   1   2  ar  
  2   2   3  ar  
  3   2   4  1   
  4   4   5  1   
  5   4   6  1   
  6   4   7  1   
  7   5   8  1   
  8   5   9  1   
  9   5  22  1   
 10   6  10  1   
 11   6  23  1   
 12   6  24  1   
 13   7  11  1   
 14   7  25  1   
 15   7  26  1   
 16   8  27  1   
 17   9  12  1   
 18   9  28  1   
 19   9  29  1   
 20  10  12  1   
 21  10  30  1   
 22  10  31  1   
 23  11  13  1   
 24  11  32  1   
 25  11  33  1   
 26  12  14  1   
 27  12  34  1   
 28  13  35  1   
 29  13  36  1   
 30  13  37  1   
 31  14  15  1   
 32  14  38  1   
 33  14  39  1   
 34  15  16  1   
 35  15  17  2   
 36  16  18  2   
 37  16  19  1   
 38  17  20  1   
 39  17  40  1   
 40  18  20  1   
 41  19  41  1   
 42  19  42  1   
 43  19  43  1   
 44  20  21  1   
 45  21  44  1   
 46  21  45  1   
 47  21  46  1   
@<TRIPOS>SUBSTRUCTURE
  1 ****  12 GROUP 4 **** **** 0

# MOE 2024.06 (io_trps.svl 2023.06)
