@<TRIPOS>MOLECULE
NONAME
46 48 1 0 0 
SMALL
USER_CHARGES


@<TRIPOS>ATOM
  1 O       -1.2890     0.9250     1.8060 O.2   1 <1>  -0.5700 
  2 C       -1.5810     1.5020     0.7700 C.2   1 <1>   0.7160 
  3 N       -2.7260     1.0840     0.1080 N.am  1 <1>  -0.6600 
  4 C       -0.7200     2.5860     0.3160 C.2   1 <1>   0.1410 
  5 C       -3.2800    -0.2800     0.3790 C.3   1 <1>   0.1400 
  6 C       -3.4660     1.9550    -0.8530 C.3   1 <1>   0.1400 
  7 N       -0.6680     3.0680    -0.9500 N.2   1 <1>  -0.2270 
  8 C        0.1860     3.2830     1.0430 C.2   1 <1>  -0.3020 
  9 C       -4.2960    -0.2390     1.5280 C.3   1 <1>   0.1400 
 10 C       -4.9960     1.8590    -0.7580 C.3   1 <1>  -0.1600 
 11 N        0.2020     4.0110    -1.0060 N.2   1 <1>  -0.4180 
 12 N        0.7380     4.1510     0.2060 N.pl3 1 <1>   0.3000 
 13 N       -5.6040     0.3350     1.0790 N.am  1 <1>  -0.6600 
 14 C       -5.5440     1.7650     0.6710 C.3   1 <1>   0.1400 
 15 C       -6.7600    -0.3970     0.8970 C.2   1 <1>   0.5690 
 16 O       -7.7940     0.1550     0.5890 O.2   1 <1>  -0.5700 
 17 C       -6.7930    -1.9240     1.1010 C.3   1 <1>   0.2610 
 18 O       -5.7750    -2.5730     0.3470 O.3   1 <1>  -0.2170 
 19 C       -8.0680    -2.6550     0.6630 C.3   1 <1>  -0.0990 
 20 N       -6.2150    -3.6620    -0.2520 N.2   1 <1>  -0.5130 
 21 C       -7.4590    -3.7750    -0.1260 C.2   1 <1>   0.3280 
 22 C       -8.3600    -4.8880    -0.6690 C.3   1 <1>  -0.0190 
 23 C       -7.5530    -6.0890    -1.1890 C.3   1 <1>  -0.2400 
 24 C       -9.2760    -4.3660    -1.7860 C.3   1 <1>  -0.2400 
 25 H       -2.4740    -0.9360     0.6580 H     1 <1>   0.0800 
 26 H       -3.7340    -0.6890    -0.5070 H     1 <1>   0.0800 
 27 H       -3.1530     1.7160    -1.8560 H     1 <1>   0.0800 
 28 H       -3.2010     2.9810    -0.6650 H     1 <1>   0.0800 
 29 H        0.4450     3.1850     2.0820 H     1 <1>   0.1500 
 30 H       -3.8990     0.3530     2.3340 H     1 <1>   0.0800 
 31 H       -4.4290    -1.2340     1.9080 H     1 <1>   0.0800 
 32 H       -5.3530     1.0290    -1.3410 H     1 <1>   0.0800 
 33 H       -5.3990     2.7460    -1.2130 H     1 <1>   0.0800 
 34 H        1.4700     4.8420     0.4090 H     1 <1>   0.2700 
 35 H       -6.5330     2.1900     0.7010 H     1 <1>   0.0800 
 36 H       -4.9290     2.3230     1.3570 H     1 <1>   0.0800 
 37 H       -6.5950    -2.1400     2.1330 H     1 <1>   0.0800 
 38 H       -8.6940    -2.0540     0.0310 H     1 <1>   0.0800 
 39 H       -8.6230    -3.0090     1.5100 H     1 <1>   0.0800 
 40 H       -8.9750    -5.2360     0.1430 H     1 <1>   0.0800 
 41 H       -6.9280    -5.7930    -2.0140 H     1 <1>   0.0800 
 42 H       -8.2090    -6.8750    -1.5160 H     1 <1>   0.0800 
 43 H       -6.9200    -6.4740    -0.4090 H     1 <1>   0.0800 
 44 H       -8.6860    -3.9790    -2.5990 H     1 <1>   0.0800 
 45 H       -9.9130    -3.5810    -1.4210 H     1 <1>   0.0800 
 46 H       -9.9000    -5.1580    -2.1610 H     1 <1>   0.0800 
@<TRIPOS>BOND
  1   1   2  2   
  2   2   3  am  
  3   2   4  1   
  4   3   5  1   
  5   3   6  1   
  6   4   7  1   
  7   4   8  2   
  8   5   9  1   
  9   5  25  1   
 10   5  26  1   
 11   6  10  1   
 12   6  27  1   
 13   6  28  1   
 14   7  11  2   
 15   8  12  1   
 16   8  29  1   
 17   9  13  1   
 18   9  30  1   
 19   9  31  1   
 20  10  14  1   
 21  10  32  1   
 22  10  33  1   
 23  11  12  1   
 24  12  34  1   
 25  13  14  1   
 26  13  15  am  
 27  14  35  1   
 28  14  36  1   
 29  15  16  2   
 30  15  17  1   
 31  17  18  1   
 32  17  19  1   
 33  17  37  1   
 34  18  20  1   
 35  19  21  1   
 36  19  38  1   
 37  19  39  1   
 38  20  21  2   
 39  21  22  1   
 40  22  23  1   
 41  22  24  1   
 42  22  40  1   
 43  23  41  1   
 44  23  42  1   
 45  23  43  1   
 46  24  44  1   
 47  24  45  1   
 48  24  46  1   
@<TRIPOS>SUBSTRUCTURE
  1 ****   5 GROUP 4 **** **** 0

# MOE 2024.06 (io_trps.svl 2023.06)
