@<TRIPOS>MOLECULE
NONAME
54 56 1 0 0 
SMALL
USER_CHARGES


@<TRIPOS>ATOM
  1 F       -0.3640     0.5070     0.4890 F     1 <1>  -0.1900 
  2 C       -1.6300     0.7530     0.2620 C.ar  1 <1>   0.1900 
  3 C       -2.3480     1.6940     1.0080 C.ar  1 <1>   0.0830 
  4 C       -2.2210     0.0360    -0.7600 C.ar  1 <1>  -0.1500 
  5 O       -1.8790     2.4600     2.0350 O.3   1 <1>  -0.3630 
  6 C       -3.6830     1.8830     0.6880 C.ar  1 <1>  -0.1500 
  7 C       -3.5550     0.2510    -1.0540 C.ar  1 <1>  -0.1500 
  8 C       -0.5610     2.3640     2.5260 C.3   1 <1>   0.0400 
  9 C       -4.3160     1.1750    -0.3350 C.ar  1 <1>   0.0530 
 10 C       -5.7050     1.4130    -0.6370 C.2   1 <1>   0.0870 
 11 O       -6.1640     2.6390    -0.6120 O.3   1 <1>  -0.0190 
 12 C       -6.7490     0.6070    -0.9790 C.2   1 <1>  -0.0860 
 13 N       -7.4290     2.7200    -0.9190 N.2   1 <1>  -0.4100 
 14 C       -7.8070     1.5110    -1.1450 C.2   1 <1>   0.3720 
 15 C       -6.8270    -0.8160    -1.1280 C.2   1 <1>   0.7160 
 16 N       -9.1280     1.1760    -1.4890 N.pl3 1 <1>  -0.8210 
 17 O       -5.9540    -1.5530    -0.7090 O.2   1 <1>  -0.5700 
 18 N       -7.9070    -1.3770    -1.7380 N.am  1 <1>  -0.7300 
 19 C       -9.7710     2.1250    -2.4420 C.3   1 <1>   0.1290 
 20 C       -9.9880     0.9370    -0.2970 C.3   1 <1>   0.1290 
 21 C       -8.2310    -2.8120    -1.8240 C.3   1 <1>   0.1400 
 22 C       -9.2210    -3.1550    -0.7140 C.3   1 <1>  -0.1600 
 23 C       -9.6110    -4.6300    -0.7710 C.3   1 <1>   0.1400 
 24 N      -10.5880    -4.9170     0.2990 N.am  1 <1>  -0.6600 
 25 C      -11.9310    -4.8980     0.1550 C.2   1 <1>   0.5690 
 26 C      -10.1580    -5.3090     1.6510 C.3   1 <1>   0.1400 
 27 O      -12.5310    -4.6040    -0.8500 O.2   1 <1>  -0.5700 
 28 C      -12.6100    -5.2920     1.4370 C.3   1 <1>  -0.0990 
 29 C      -11.4620    -5.3280     2.4620 C.3   1 <1>  -0.1600 
 30 H       -1.6440    -0.6810    -1.3160 H     1 <1>   0.1500 
 31 H       -4.2460     2.6040     1.2530 H     1 <1>   0.1500 
 32 H       -4.0140    -0.3060    -1.8510 H     1 <1>   0.1500 
 33 H       -0.4590     3.0520     3.3460 H     1 <1>   0.0800 
 34 H        0.1260     2.6290     1.7420 H     1 <1>   0.0800 
 35 H       -0.3870     1.3600     2.8700 H     1 <1>   0.0800 
 36 H       -8.6630    -0.7100    -1.9580 H     1 <1>   0.3700 
 37 H       -9.1000     2.3340    -3.2580 H     1 <1>   0.0800 
 38 H      -10.0080     3.0510    -1.9450 H     1 <1>   0.0800 
 39 H      -10.6730     1.6940    -2.8390 H     1 <1>   0.0800 
 40 H       -9.5140     0.2310     0.3630 H     1 <1>   0.0800 
 41 H      -10.9400     0.5370    -0.6030 H     1 <1>   0.0800 
 42 H      -10.1440     1.8600     0.2360 H     1 <1>   0.0800 
 43 H       -7.3320    -3.3960    -1.7130 H     1 <1>   0.0800 
 44 H       -8.6590    -3.0210    -2.7890 H     1 <1>   0.0800 
 45 H      -10.1080    -2.5570    -0.8330 H     1 <1>   0.0800 
 46 H       -8.7700    -2.9420     0.2380 H     1 <1>   0.0800 
 47 H       -8.7450    -5.2580    -0.6480 H     1 <1>   0.0800 
 48 H      -10.0620    -4.8510    -1.7250 H     1 <1>   0.0800 
 49 H       -9.4560    -4.5970     2.0510 H     1 <1>   0.0800 
 50 H       -9.7110    -6.2890     1.6150 H     1 <1>   0.0800 
 51 H      -13.0510    -6.2640     1.3110 H     1 <1>   0.0800 
 52 H      -13.3640    -4.5750     1.7020 H     1 <1>   0.0800 
 53 H      -11.5000    -4.4470     3.0790 H     1 <1>   0.0800 
 54 H      -11.5160    -6.1950     3.0960 H     1 <1>   0.0800 
@<TRIPOS>BOND
  1   1   2  1   
  2   2   3  ar  
  3   2   4  ar  
  4   3   5  1   
  5   3   6  ar  
  6   4   7  ar  
  7   4  30  1   
  8   5   8  1   
  9   6   9  ar  
 10   6  31  1   
 11   7   9  ar  
 12   7  32  1   
 13   8  33  1   
 14   8  34  1   
 15   8  35  1   
 16   9  10  1   
 17  10  11  1   
 18  10  12  2   
 19  11  13  1   
 20  12  14  1   
 21  12  15  1   
 22  13  14  2   
 23  14  16  1   
 24  15  17  2   
 25  15  18  am  
 26  16  19  1   
 27  16  20  1   
 28  18  21  1   
 29  18  36  1   
 30  19  37  1   
 31  19  38  1   
 32  19  39  1   
 33  20  40  1   
 34  20  41  1   
 35  20  42  1   
 36  21  22  1   
 37  21  43  1   
 38  21  44  1   
 39  22  23  1   
 40  22  45  1   
 41  22  46  1   
 42  23  24  1   
 43  23  47  1   
 44  23  48  1   
 45  24  25  am  
 46  24  26  1   
 47  25  27  2   
 48  25  28  1   
 49  26  29  1   
 50  26  49  1   
 51  26  50  1   
 52  28  29  1   
 53  28  51  1   
 54  28  52  1   
 55  29  53  1   
 56  29  54  1   
@<TRIPOS>SUBSTRUCTURE
  1 ****  15 GROUP 4 **** **** 0

# MOE 2024.06 (io_trps.svl 2023.06)
