@<TRIPOS>MOLECULE
NONAME
45 47 1 0 0 
SMALL
USER_CHARGES


@<TRIPOS>ATOM
  1 O        0.3080    -0.1220    -0.3410 O.3   1 <1>  -0.5600 
  2 C        1.5660     0.3250    -0.7000 C.3   1 <1>   0.2000 
  3 C        0.0270    -1.4670    -0.6450 C.3   1 <1>   0.2640 
  4 C        2.5250     0.0440     0.4610 C.3   1 <1>  -0.1600 
  5 C        1.4310     1.8250    -0.9540 C.3   1 <1>  -0.1600 
  6 C       -1.2980    -1.9280    -0.0430 C.ar  1 <1>   0.1660 
  7 C        3.8610     0.7540     0.2630 C.3   1 <1>   0.3430 
  8 C        2.7930     2.4880    -1.1240 C.3   1 <1>   0.3430 
  9 N       -1.4710    -3.2430    -0.0090 N.ar  1 <1>  -0.6200 
 10 C       -2.2380    -1.0170     0.4230 C.ar  1 <1>  -0.1500 
 11 N        3.6360     2.2190     0.0830 N.4   1 <1>  -0.9590 
 12 C       -2.6150    -3.6630     0.5090 C.ar  1 <1>   0.1600 
 13 C       -3.4250    -1.4690     0.9590 C.ar  1 <1>  -0.1500 
 14 C        4.9350     2.9510     0.0530 C.3   1 <1>   0.3430 
 15 C       -3.6080    -2.8330     0.9990 C.ar  1 <1>  -0.1500 
 16 C        4.7100     4.4490     0.2720 C.3   1 <1>  -0.1600 
 17 C        6.0410     5.2260     0.2920 C.3   1 <1>   0.0960 
 18 N        5.7920     6.6800     0.3640 N.pl3 1 <1>   0.3140 
 19 N        5.1220     7.3310    -0.5580 N.2   1 <1>  -0.4180 
 20 C        6.1440     7.5510     1.2900 C.2   1 <1>   0.0360 
 21 N        5.0810     8.5580    -0.1770 N.2   1 <1>   0.0000 
 22 N        5.7160     8.7130     0.9800 N.2   1 <1>  -0.3380 
 23 H        1.8840    -0.1740    -1.6020 H     1 <1>   0.0800 
 24 H        0.8130    -2.0850    -0.2520 H     1 <1>   0.0800 
 25 H       -0.0130    -1.5770    -1.7140 H     1 <1>   0.0800 
 26 H        2.7060    -1.0130     0.5340 H     1 <1>   0.0800 
 27 H        2.0830     0.3700     1.3870 H     1 <1>   0.0800 
 28 H        0.9100     2.2920    -0.1370 H     1 <1>   0.0800 
 29 H        0.8520     1.9800    -1.8480 H     1 <1>   0.0800 
 30 H        4.3590     0.3500    -0.6040 H     1 <1>   0.0800 
 31 H        4.4860     0.5780     1.1250 H     1 <1>   0.0800 
 32 H        2.6510     3.5490    -1.2550 H     1 <1>   0.0800 
 33 H        3.2780     2.1000    -2.0060 H     1 <1>   0.0800 
 34 H       -2.0480     0.0390     0.3670 H     1 <1>   0.1500 
 35 H        3.0990     2.5410     0.9020 H     1 <1>   0.4500 
 36 H       -2.7700    -4.7270     0.5450 H     1 <1>   0.1500 
 37 H       -4.1710    -0.7870     1.3290 H     1 <1>   0.1500 
 38 H        5.4290     2.7850    -0.8920 H     1 <1>   0.0800 
 39 H        5.5750     2.5770     0.8370 H     1 <1>   0.0800 
 40 H       -4.5100    -3.2520     1.4050 H     1 <1>   0.1500 
 41 H        4.2020     4.6070     1.2070 H     1 <1>   0.0800 
 42 H        4.1050     4.8390    -0.5280 H     1 <1>   0.0800 
 43 H        6.5990     5.0370    -0.6080 H     1 <1>   0.0800 
 44 H        6.6390     4.9350     1.1370 H     1 <1>   0.0800 
 45 H        6.7070     7.3090     2.1720 H     1 <1>   0.1500 
@<TRIPOS>BOND
  1   1   2  1   
  2   1   3  1   
  3   2   4  1   
  4   2   5  1   
  5   2  23  1   
  6   3   6  1   
  7   3  24  1   
  8   3  25  1   
  9   4   7  1   
 10   4  26  1   
 11   4  27  1   
 12   5   8  1   
 13   5  28  1   
 14   5  29  1   
 15   6   9  ar  
 16   6  10  ar  
 17   7  11  1   
 18   7  30  1   
 19   7  31  1   
 20   8  11  1   
 21   8  32  1   
 22   8  33  1   
 23   9  12  ar  
 24  10  13  ar  
 25  10  34  1   
 26  11  14  1   
 27  11  35  1   
 28  12  15  ar  
 29  12  36  1   
 30  13  15  ar  
 31  13  37  1   
 32  14  16  1   
 33  14  38  1   
 34  14  39  1   
 35  15  40  1   
 36  16  17  1   
 37  16  41  1   
 38  16  42  1   
 39  17  18  1   
 40  17  43  1   
 41  17  44  1   
 42  18  19  1   
 43  18  20  1   
 44  19  21  2   
 45  20  22  2   
 46  20  45  1   
 47  21  22  1   
@<TRIPOS>SUBSTRUCTURE
  1 ****   5 GROUP 4 **** **** 0

# MOE 2024.06 (io_trps.svl 2023.06)
