@<TRIPOS>MOLECULE
NONAME
45 47 1 0 0 
SMALL
USER_CHARGES


@<TRIPOS>ATOM
  1 O        1.2060     2.2520    -0.3880 O.co2 1 <1>  -0.9000 
  2 C        0.2720     2.9390    -0.8160 C.2   1 <1>   0.9060 
  3 O        0.3420     3.4640    -1.9330 O.co2 1 <1>  -0.9000 
  4 C       -0.8150     3.3960     0.1690 C.3   1 <1>   0.0380 
  5 C       -1.8110     2.3120     0.6210 C.ar  1 <1>  -0.1440 
  6 C        0.0020     3.9440     1.3270 C.3   1 <1>   0.3430 
  7 C       -1.5240     4.6730    -0.3130 C.3   1 <1>  -0.1600 
  8 C       -1.8360     1.0630     0.0110 C.ar  1 <1>  -0.1500 
  9 C       -2.7110     2.5620     1.6520 C.ar  1 <1>  -0.1500 
 10 N        0.4700     5.2930     0.8810 N.4   1 <1>  -0.9590 
 11 C       -0.4510     5.7500    -0.2030 C.3   1 <1>   0.3430 
 12 C       -2.7330     0.0920     0.4200 C.ar  1 <1>  -0.1500 
 13 C       -3.6090     1.5910     2.0630 C.ar  1 <1>  -0.1500 
 14 C        1.8720     5.2060     0.3500 C.3   1 <1>   0.4860 
 15 C       -3.6210     0.3540     1.4470 C.ar  1 <1>  -0.1500 
 16 C        2.4450     6.6100     0.1940 C.ar  1 <1>   0.1670 
 17 N        2.2510     7.4530     1.2040 N.ar  1 <1>  -0.6200 
 18 C        3.1130     6.9380    -0.9760 C.ar  1 <1>  -0.1500 
 19 C        2.7600     8.6650     1.0370 C.ar  1 <1>   0.1600 
 20 C        3.6290     8.2060    -1.1310 C.ar  1 <1>  -0.1500 
 21 C        3.4460     9.0930    -0.0900 C.ar  1 <1>  -0.1430 
 22 C        3.9910    10.5100    -0.1810 C.3   1 <1>  -0.0170 
 23 C        5.4180    10.5720     0.3660 C.3   1 <1>  -0.2400 
 24 H        0.8240     3.2890     1.5720 H     1 <1>   0.0800 
 25 H       -0.6300     4.0470     2.1910 H     1 <1>   0.0800 
 26 H       -2.3530     4.9310     0.3190 H     1 <1>   0.0800 
 27 H       -1.8820     4.5770    -1.3240 H     1 <1>   0.0800 
 28 H       -1.1560     0.8240    -0.7900 H     1 <1>   0.1500 
 29 H       -2.7310     3.5140     2.1490 H     1 <1>   0.1500 
 30 H        0.5230     5.9890     1.6390 H     1 <1>   0.4500 
 31 H       -0.8780     6.7140     0.0200 H     1 <1>   0.0800 
 32 H        0.0830     5.8050    -1.1400 H     1 <1>   0.0800 
 33 H       -2.7350    -0.8690    -0.0640 H     1 <1>   0.1500 
 34 H       -4.3000     1.7980     2.8610 H     1 <1>   0.1500 
 35 H        1.8910     4.6940    -0.5990 H     1 <1>   0.0800 
 36 H        2.4880     4.6540     1.0390 H     1 <1>   0.0800 
 37 H       -4.3170    -0.4030     1.7640 H     1 <1>   0.1500 
 38 H        3.2300     6.2100    -1.7620 H     1 <1>   0.1500 
 39 H        2.6250     9.3620     1.8480 H     1 <1>   0.1500 
 40 H        4.1550     8.4870    -2.0270 H     1 <1>   0.1500 
 41 H        3.3610    11.1810     0.3780 H     1 <1>   0.0800 
 42 H        3.9840    10.8370    -1.2060 H     1 <1>   0.0800 
 43 H        5.4370    10.2680     1.3980 H     1 <1>   0.0800 
 44 H        5.7990    11.5760     0.2950 H     1 <1>   0.0800 
 45 H        6.0620     9.9190    -0.1970 H     1 <1>   0.0800 
@<TRIPOS>BOND
  1   1   2  ar  
  2   2   3  ar  
  3   2   4  1   
  4   4   5  1   
  5   4   6  1   
  6   4   7  1   
  7   5   8  ar  
  8   5   9  ar  
  9   6  10  1   
 10   6  24  1   
 11   6  25  1   
 12   7  11  1   
 13   7  26  1   
 14   7  27  1   
 15   8  12  ar  
 16   8  28  1   
 17   9  13  ar  
 18   9  29  1   
 19  10  11  1   
 20  10  14  1   
 21  10  30  1   
 22  11  31  1   
 23  11  32  1   
 24  12  15  ar  
 25  12  33  1   
 26  13  15  ar  
 27  13  34  1   
 28  14  16  1   
 29  14  35  1   
 30  14  36  1   
 31  15  37  1   
 32  16  17  ar  
 33  16  18  ar  
 34  17  19  ar  
 35  18  20  ar  
 36  18  38  1   
 37  19  21  ar  
 38  19  39  1   
 39  20  21  ar  
 40  20  40  1   
 41  21  22  1   
 42  22  23  1   
 43  22  41  1   
 44  22  42  1   
 45  23  43  1   
 46  23  44  1   
 47  23  45  1   
@<TRIPOS>SUBSTRUCTURE
  1 ****  10 GROUP 4 **** **** 0

# MOE 2024.06 (io_trps.svl 2023.06)
