@<TRIPOS>MOLECULE
NONAME
51 53 1 0 0 
SMALL
USER_CHARGES


@<TRIPOS>ATOM
  1 O        1.2360    -0.1680    -1.9620 O.2   1 <1>  -0.5700 
  2 C        1.9850    -0.5450    -1.0830 C.2   1 <1>   0.7160 
  3 N        2.9490     0.3220    -0.6150 N.am  1 <1>  -0.6600 
  4 C        1.9150    -1.8770    -0.5450 C.2   1 <1>  -0.0860 
  5 C        3.4410     0.2180     0.8080 C.3   1 <1>   0.2200 
  6 C        3.5030     1.3590    -1.5300 C.3   1 <1>   0.1400 
  7 C        0.8490    -2.5060     0.1030 C.2   1 <1>   0.1080 
  8 C        2.9000    -2.8120    -0.4970 C.2   1 <1>  -0.3020 
  9 C        3.4410     1.5730     1.5350 C.3   1 <1>   0.1200 
 10 C        4.8290    -0.4510     0.8900 C.3   1 <1>   0.3430 
 11 C        4.8520     1.9580    -1.0900 C.3   1 <1>  -0.0800 
 12 N        1.1590    -3.6820     0.5470 N.2   1 <1>  -0.7070 
 13 C       -0.5250    -1.9030     0.2940 C.3   1 <1>  -0.0590 
 14 N        2.4390    -3.8740     0.1700 N.pl3 1 <1>   0.3140 
 15 O        4.6210     2.2810     1.2920 O.3   1 <1>  -0.5600 
 16 N        5.5850    -0.4070    -0.4130 N.4   1 <1>  -0.9590 
 17 C        4.6880     2.9450     0.0760 C.3   1 <1>   0.1200 
 18 C        6.0050     0.9560    -0.8480 C.3   1 <1>   0.3430 
 19 C        3.2150    -5.0900     0.4900 C.3   1 <1>   0.0960 
 20 C        6.7560    -1.3860    -0.3490 C.3   1 <1>   0.2370 
 21 C        3.3650    -5.9880    -0.7450 C.3   1 <1>  -0.1600 
 22 C        6.3790    -2.8390    -0.0270 C.2   1 <1>   0.9060 
 23 C        4.1670    -7.2510    -0.4160 C.3   1 <1>  -0.2400 
 24 O        6.1230    -3.1340     1.1440 O.co2 1 <1>  -0.9000 
 25 O        6.2050    -3.6190    -0.9640 O.co2 1 <1>  -0.9000 
 26 H        2.7580    -0.4040     1.3600 H     1 <1>   0.0800 
 27 H        3.6190     0.9180    -2.5070 H     1 <1>   0.0800 
 28 H        2.7740     2.1470    -1.6290 H     1 <1>   0.0800 
 29 H        3.8930    -2.7890    -0.8980 H     1 <1>   0.1500 
 30 H        3.4060     1.3980     2.5960 H     1 <1>   0.0800 
 31 H        2.5860     2.1690     1.2650 H     1 <1>   0.0800 
 32 H        4.6660    -1.4770     1.1750 H     1 <1>   0.0800 
 33 H        5.4100     0.0060     1.6740 H     1 <1>   0.0800 
 34 H        5.1710     2.5720    -1.9130 H     1 <1>   0.0800 
 35 H       -0.8860    -1.5140    -0.6400 H     1 <1>   0.0800 
 36 H       -0.4800    -1.1110     1.0170 H     1 <1>   0.0800 
 37 H       -1.2070    -2.6570     0.6420 H     1 <1>   0.0800 
 38 H        4.9180    -0.7820    -1.1060 H     1 <1>   0.4500 
 39 H        3.8110     3.5610    -0.0400 H     1 <1>   0.0800 
 40 H        5.5460     3.5930     0.1270 H     1 <1>   0.0800 
 41 H        6.6770     1.3710    -0.1140 H     1 <1>   0.0800 
 42 H        6.5550     0.8560    -1.7690 H     1 <1>   0.0800 
 43 H        4.1860    -4.7900     0.8430 H     1 <1>   0.0800 
 44 H        2.7090    -5.6170     1.2770 H     1 <1>   0.0800 
 45 H        7.2660    -1.4030    -1.2940 H     1 <1>   0.0800 
 46 H        7.4510    -1.0680     0.4060 H     1 <1>   0.0800 
 47 H        2.3900    -6.2640    -1.1090 H     1 <1>   0.0800 
 48 H        3.8830    -5.4410    -1.5160 H     1 <1>   0.0800 
 49 H        3.6770    -7.8230     0.3520 H     1 <1>   0.0800 
 50 H        5.1530    -6.9810    -0.0760 H     1 <1>   0.0800 
 51 H        4.2660    -7.8630    -1.2950 H     1 <1>   0.0800 
@<TRIPOS>BOND
  1   1   2  2   
  2   2   3  am  
  3   2   4  1   
  4   3   5  1   
  5   3   6  1   
  6   4   7  1   
  7   4   8  2   
  8   5   9  1   
  9   5  10  1   
 10   5  26  1   
 11   6  11  1   
 12   6  27  1   
 13   6  28  1   
 14   7  12  2   
 15   7  13  1   
 16   8  14  1   
 17   8  29  1   
 18   9  15  1   
 19   9  30  1   
 20   9  31  1   
 21  10  16  1   
 22  10  32  1   
 23  10  33  1   
 24  11  17  1   
 25  11  18  1   
 26  11  34  1   
 27  12  14  1   
 28  13  35  1   
 29  13  36  1   
 30  13  37  1   
 31  14  19  1   
 32  15  17  1   
 33  16  18  1   
 34  16  20  1   
 35  16  38  1   
 36  17  39  1   
 37  17  40  1   
 38  18  41  1   
 39  18  42  1   
 40  19  21  1   
 41  19  43  1   
 42  19  44  1   
 43  20  22  1   
 44  20  45  1   
 45  20  46  1   
 46  21  23  1   
 47  21  47  1   
 48  21  48  1   
 49  22  24  ar  
 50  22  25  ar  
 51  23  49  1   
 52  23  50  1   
 53  23  51  1   
@<TRIPOS>SUBSTRUCTURE
  1 ****   8 GROUP 4 **** **** 0

# MOE 2024.06 (io_trps.svl 2023.06)
