@<TRIPOS>MOLECULE
NONAME
53 54 1 0 0 
SMALL
USER_CHARGES


@<TRIPOS>ATOM
  1 O       -1.6260    -0.5000    -0.4180 O.2   1 <1>  -0.5700 
  2 C       -1.6310    -1.6570    -0.0740 C.2   1 <1>   0.5690 
  3 N       -0.5760    -2.5000    -0.0860 N.am  1 <1>  -0.6600 
  4 C       -2.8600    -2.3590     0.4280 C.3   1 <1>  -0.0990 
  5 C       -0.9360    -3.8550     0.3630 C.3   1 <1>   0.1400 
  6 C        0.7950    -2.1570    -0.5200 C.3   1 <1>   0.1400 
  7 C       -2.4780    -3.8550     0.3730 C.3   1 <1>  -0.0800 
  8 C        1.7370    -2.1860     0.6800 C.3   1 <1>  -0.2400 
  9 C       -3.0550    -4.5240    -0.8900 C.3   1 <1>   0.1100 
 10 N       -3.2890    -5.9700    -0.7010 N.3   1 <1>  -0.8100 
 11 C       -4.1830    -6.4890    -1.7870 C.3   1 <1>   0.1710 
 12 C       -2.0450    -6.7570    -0.6590 C.3   1 <1>   0.0300 
 13 C       -4.7980    -7.8650    -1.5110 C.2   1 <1>   0.5690 
 14 O       -5.1080    -8.5660    -2.4450 O.2   1 <1>  -0.5700 
 15 N       -4.9630    -8.2310    -0.2120 N.am  1 <1>  -0.7300 
 16 C       -5.4900    -9.4950     0.3410 C.3   1 <1>   0.2200 
 17 C       -4.4960   -10.6240     0.0390 C.3   1 <1>  -0.1600 
 18 C       -6.9230    -9.7290    -0.1630 C.3   1 <1>  -0.1600 
 19 C       -4.9110   -12.0080     0.5680 C.3   1 <1>  -0.1600 
 20 C       -7.6780   -10.7690     0.6810 C.3   1 <1>  -0.1600 
 21 C       -6.0670   -12.6180    -0.2380 C.3   1 <1>  -0.1600 
 22 C       -7.4730   -12.2290     0.2460 C.3   1 <1>  -0.1600 
 23 H       -3.7140    -2.1060    -0.1730 H     1 <1>   0.0800 
 24 H       -3.0330    -2.0490     1.4410 H     1 <1>   0.0800 
 25 H       -0.5510    -4.0150     1.3550 H     1 <1>   0.0800 
 26 H       -0.5260    -4.5870    -0.3090 H     1 <1>   0.0800 
 27 H        0.7940    -1.1700    -0.9540 H     1 <1>   0.0800 
 28 H        1.1190    -2.8560    -1.2710 H     1 <1>   0.0800 
 29 H       -2.8610    -4.3620     1.2410 H     1 <1>   0.0800 
 30 H        1.3960    -1.4960     1.4310 H     1 <1>   0.0800 
 31 H        2.7230    -1.8910     0.3700 H     1 <1>   0.0800 
 32 H        1.7940    -3.1750     1.0960 H     1 <1>   0.0800 
 33 H       -2.4170    -4.3490    -1.7420 H     1 <1>   0.0800 
 34 H       -4.0060    -4.0650    -1.1020 H     1 <1>   0.0800 
 35 H       -3.6400    -6.5360    -2.7140 H     1 <1>   0.0800 
 36 H       -5.0070    -5.8130    -1.9250 H     1 <1>   0.0800 
 37 H       -1.4850    -6.5180     0.2280 H     1 <1>   0.0800 
 38 H       -1.4420    -6.5580    -1.5290 H     1 <1>   0.0800 
 39 H       -2.2650    -7.8100    -0.6270 H     1 <1>   0.0800 
 40 H       -4.5780    -7.5690     0.4680 H     1 <1>   0.3700 
 41 H       -5.5350    -9.3740     1.4100 H     1 <1>   0.0800 
 42 H       -3.5540   -10.3640     0.4870 H     1 <1>   0.0800 
 43 H       -4.3420   -10.6890    -1.0240 H     1 <1>   0.0800 
 44 H       -6.9200   -10.0180    -1.1990 H     1 <1>   0.0800 
 45 H       -7.4550    -8.7980    -0.0840 H     1 <1>   0.0800 
 46 H       -5.1560   -11.9630     1.6150 H     1 <1>   0.0800 
 47 H       -4.0600   -12.6590     0.4660 H     1 <1>   0.0800 
 48 H       -8.7320   -10.5570     0.6230 H     1 <1>   0.0800 
 49 H       -7.3990   -10.6620     1.7150 H     1 <1>   0.0800 
 50 H       -5.9900   -13.6900    -0.1920 H     1 <1>   0.0800 
 51 H       -5.9600   -12.3480    -1.2750 H     1 <1>   0.0800 
 52 H       -8.1630   -12.4490    -0.5510 H     1 <1>   0.0800 
 53 H       -7.7410   -12.8620     1.0740 H     1 <1>   0.0800 
@<TRIPOS>BOND
  1   1   2  2   
  2   2   3  am  
  3   2   4  1   
  4   3   5  1   
  5   3   6  1   
  6   4   7  1   
  7   4  23  1   
  8   4  24  1   
  9   5   7  1   
 10   5  25  1   
 11   5  26  1   
 12   6   8  1   
 13   6  27  1   
 14   6  28  1   
 15   7   9  1   
 16   7  29  1   
 17   8  30  1   
 18   8  31  1   
 19   8  32  1   
 20   9  10  1   
 21   9  33  1   
 22   9  34  1   
 23  10  11  1   
 24  10  12  1   
 25  11  13  1   
 26  11  35  1   
 27  11  36  1   
 28  12  37  1   
 29  12  38  1   
 30  12  39  1   
 31  13  14  2   
 32  13  15  am  
 33  15  16  1   
 34  15  40  1   
 35  16  17  1   
 36  16  18  1   
 37  16  41  1   
 38  17  19  1   
 39  17  42  1   
 40  17  43  1   
 41  18  20  1   
 42  18  44  1   
 43  18  45  1   
 44  19  21  1   
 45  19  46  1   
 46  19  47  1   
 47  20  22  1   
 48  20  48  1   
 49  20  49  1   
 50  21  22  1   
 51  21  50  1   
 52  21  51  1   
 53  22  52  1   
 54  22  53  1   
@<TRIPOS>SUBSTRUCTURE
  1 ****  10 GROUP 4 **** **** 0

# MOE 2024.06 (io_trps.svl 2023.06)
