@<TRIPOS>MOLECULE
NONAME
49 52 1 0 0 
SMALL
USER_CHARGES


@<TRIPOS>ATOM
  1 F       -0.5020     0.7730    -0.1190 F     1 <1>  -0.1900 
  2 C       -1.8060     0.8810    -0.1300 C.ar  1 <1>   0.1900 
  3 C       -2.5070     1.5120     0.9040 C.ar  1 <1>   0.0830 
  4 C       -2.4590     0.3390    -1.2200 C.ar  1 <1>  -0.1500 
  5 O       -1.9800     2.0830     2.0250 O.3   1 <1>  -0.3630 
  6 C       -3.8870     1.5770     0.7970 C.ar  1 <1>  -0.1500 
  7 C       -3.8370     0.4220    -1.2950 C.ar  1 <1>  -0.1500 
  8 C       -0.6010     2.0680     2.3200 C.3   1 <1>   0.0400 
  9 C       -4.5820     1.0380    -0.2880 C.ar  1 <1>   0.0530 
 10 C       -6.0180     1.1390    -0.3570 C.2   1 <1>   0.0870 
 11 O       -6.6040     2.2380     0.0490 O.3   1 <1>  -0.0190 
 12 C       -7.0040     0.3020    -0.7870 C.2   1 <1>  -0.0860 
 13 N       -7.9020     2.2060    -0.0820 N.2   1 <1>  -0.4100 
 14 C       -8.1710     1.0530    -0.5820 C.2   1 <1>   0.3720 
 15 C       -6.9530    -1.0310    -1.3060 C.2   1 <1>   0.7160 
 16 N       -9.4800     0.6200    -0.8550 N.pl3 1 <1>  -0.8210 
 17 O       -5.9750    -1.7390    -1.1740 O.2   1 <1>  -0.5700 
 18 N       -8.0300    -1.5420    -1.9540 N.am  1 <1>  -0.7300 
 19 C      -10.3700     1.6750    -1.4170 C.3   1 <1>   0.1290 
 20 C      -10.1190    -0.0580     0.3080 C.3   1 <1>   0.1290 
 21 C       -8.3290    -2.9870    -2.1010 C.3   1 <1>   0.3200 
 22 C       -9.5950    -3.3450    -1.3360 C.2   1 <1>   0.2980 
 23 O      -10.7130    -2.7550    -1.6790 O.3   1 <1>  -0.0190 
 24 N       -9.6850    -4.1640    -0.3650 N.2   1 <1>  -0.5650 
 25 N      -11.5880    -3.2330    -0.8500 N.2   1 <1>  -0.4100 
 26 C      -10.9780    -4.0580    -0.0950 C.2   1 <1>   0.4300 
 27 C      -11.6090    -4.8650     1.0290 C.3   1 <1>  -0.0140 
 28 C      -11.9710    -6.3040     0.8110 C.3   1 <1>  -0.2000 
 29 C      -13.0510    -5.2810     0.9910 C.3   1 <1>  -0.2000 
 30 H       -1.8940    -0.1420    -1.9990 H     1 <1>   0.1500 
 31 H       -4.4370     2.0600     1.5850 H     1 <1>   0.1500 
 32 H       -4.3420     0.0020    -2.1460 H     1 <1>   0.1500 
 33 H       -0.4570     2.5580     3.2660 H     1 <1>   0.0800 
 34 H       -0.0720     2.6020     1.5500 H     1 <1>   0.0800 
 35 H       -0.2670     1.0480     2.3840 H     1 <1>   0.0800 
 36 H       -8.8590    -0.9270    -1.9120 H     1 <1>   0.3700 
 37 H       -9.8620     2.1990    -2.2100 H     1 <1>   0.0800 
 38 H      -10.6370     2.3840    -0.6520 H     1 <1>   0.0800 
 39 H      -11.2650     1.2290    -1.8150 H     1 <1>   0.0800 
 40 H       -9.4910    -0.8590     0.6610 H     1 <1>   0.0800 
 41 H      -11.0710    -0.4710     0.0200 H     1 <1>   0.0800 
 42 H      -10.2660     0.6450     1.1110 H     1 <1>   0.0800 
 43 H       -7.5110    -3.5790    -1.7270 H     1 <1>   0.0800 
 44 H       -8.4650    -3.2170    -3.1420 H     1 <1>   0.0800 
 45 H      -11.1940    -4.6040     1.9850 H     1 <1>   0.1000 
 46 H      -11.7750    -7.0060     1.6030 H     1 <1>   0.1000 
 47 H      -11.8170    -6.7290    -0.1660 H     1 <1>   0.1000 
 48 H      -13.6470    -5.0030     0.1380 H     1 <1>   0.1000 
 49 H      -13.6140    -5.2740     1.9080 H     1 <1>   0.1000 
@<TRIPOS>BOND
  1   1   2  1   
  2   2   3  ar  
  3   2   4  ar  
  4   3   5  1   
  5   3   6  ar  
  6   4   7  ar  
  7   4  30  1   
  8   5   8  1   
  9   6   9  ar  
 10   6  31  1   
 11   7   9  ar  
 12   7  32  1   
 13   8  33  1   
 14   8  34  1   
 15   8  35  1   
 16   9  10  1   
 17  10  11  1   
 18  10  12  2   
 19  11  13  1   
 20  12  14  1   
 21  12  15  1   
 22  13  14  2   
 23  14  16  1   
 24  15  17  2   
 25  15  18  am  
 26  16  19  1   
 27  16  20  1   
 28  18  21  1   
 29  18  36  1   
 30  19  37  1   
 31  19  38  1   
 32  19  39  1   
 33  20  40  1   
 34  20  41  1   
 35  20  42  1   
 36  21  22  1   
 37  21  43  1   
 38  21  44  1   
 39  22  23  1   
 40  22  24  2   
 41  23  25  1   
 42  24  26  1   
 43  25  26  2   
 44  26  27  1   
 45  27  28  1   
 46  27  29  1   
 47  27  45  1   
 48  28  29  1   
 49  28  46  1   
 50  28  47  1   
 51  29  48  1   
 52  29  49  1   
@<TRIPOS>SUBSTRUCTURE
  1 ****  15 GROUP 4 **** **** 0

# MOE 2024.06 (io_trps.svl 2023.06)
