@<TRIPOS>MOLECULE
NONAME
52 55 1 0 0 
SMALL
USER_CHARGES


@<TRIPOS>ATOM
  1 CL      -2.0750    -0.4080     0.8830 Cl    1 <1>  -0.1240 
  2 C       -1.6890     1.2610     0.5240 C.2   1 <1>  -0.0280 
  3 N       -0.5370     1.6480    -0.0520 N.pl3 1 <1>   0.3140 
  4 C       -2.4480     2.3500     0.7510 C.2   1 <1>  -0.1810 
  5 N       -0.5370     2.9860    -0.2140 N.2   1 <1>  -0.7070 
  6 C        0.5960     0.8070    -0.4630 C.3   1 <1>   0.0160 
  7 C       -1.6660     3.4010     0.2730 C.2   1 <1>   0.1080 
  8 C       -3.8170     2.4150     1.3750 C.3   1 <1>   0.5240 
  9 C       -2.0240     4.8780     0.2970 C.3   1 <1>   0.0210 
 10 N       -4.8210     2.4440     0.2810 N.4   1 <1>  -0.9590 
 11 C       -1.8290     5.4780     1.6930 C.3   1 <1>  -0.2400 
 12 C       -6.1600     2.8970     0.7870 C.3   1 <1>   0.3430 
 13 C       -4.9130     1.1160    -0.3970 C.3   1 <1>   0.3430 
 14 C       -7.1950     3.0190    -0.3450 C.3   1 <1>   0.1430 
 15 C       -5.8910     1.1960    -1.5720 C.3   1 <1>  -0.1600 
 16 C       -8.5340     3.3480     0.2690 C.ar  1 <1>   0.1670 
 17 C       -7.2800     1.6980    -1.1370 C.3   1 <1>  -0.1600 
 18 C       -6.9470     4.2400    -1.2740 C.3   1 <1>  -0.1600 
 19 N       -9.0400     2.7380     1.3150 N.ar  1 <1>  -0.6200 
 20 C       -9.1540     4.3700    -0.3810 C.ar  1 <1>  -0.1430 
 21 C       -8.3240     4.8840    -1.5300 C.3   1 <1>  -0.0170 
 22 C      -10.2330     3.1940     1.6800 C.ar  1 <1>   0.4770 
 23 C      -10.3830     4.7660     0.0860 C.ar  1 <1>   0.1600 
 24 N      -10.9320     4.1760     1.1280 N.ar  1 <1>  -0.6200 
 25 C      -10.8760     2.5230     2.8700 C.3   1 <1>  -0.0970 
 26 H        0.9650     0.2680     0.3890 H     1 <1>   0.0800 
 27 H        1.3760     1.4340    -0.8560 H     1 <1>   0.0800 
 28 H        0.2720     0.1190    -1.2200 H     1 <1>   0.0800 
 29 H       -3.8900     3.3060     1.9780 H     1 <1>   0.0800 
 30 H       -3.9760     1.5570     2.0080 H     1 <1>   0.0800 
 31 H       -3.0380     5.0180    -0.0270 H     1 <1>   0.0800 
 32 H       -1.3850     5.3970    -0.3980 H     1 <1>   0.0800 
 33 H       -4.4770     3.1150    -0.4160 H     1 <1>   0.4500 
 34 H       -2.4690     5.0040     2.4150 H     1 <1>   0.0800 
 35 H       -2.0450     6.5320     1.6760 H     1 <1>   0.0800 
 36 H       -0.8060     5.3470     2.0030 H     1 <1>   0.0800 
 37 H       -6.0730     3.8490     1.2840 H     1 <1>   0.0800 
 38 H       -6.5330     2.1840     1.5060 H     1 <1>   0.0800 
 39 H       -5.2540     0.3710     0.3040 H     1 <1>   0.0800 
 40 H       -3.9430     0.8160    -0.7610 H     1 <1>   0.0800 
 41 H       -5.9930     0.2150    -2.0040 H     1 <1>   0.0800 
 42 H       -5.4810     1.8340    -2.3350 H     1 <1>   0.0800 
 43 H       -7.9170     1.8210    -1.9970 H     1 <1>   0.0800 
 44 H       -7.7370     0.9480    -0.5110 H     1 <1>   0.0800 
 45 H       -6.4670     3.9770    -2.2000 H     1 <1>   0.0800 
 46 H       -6.3350     4.9650    -0.7650 H     1 <1>   0.0800 
 47 H       -8.7430     4.5370    -2.4600 H     1 <1>   0.0800 
 48 H       -8.2690     5.9590    -1.5350 H     1 <1>   0.0800 
 49 H      -10.9220     5.5680    -0.3900 H     1 <1>   0.1500 
 50 H      -10.3800     1.5980     3.0970 H     1 <1>   0.0800 
 51 H      -11.9090     2.3210     2.6560 H     1 <1>   0.0800 
 52 H      -10.8160     3.1750     3.7210 H     1 <1>   0.0800 
@<TRIPOS>BOND
  1   1   2  1   
  2   2   3  1   
  3   2   4  2   
  4   3   5  1   
  5   3   6  1   
  6   4   7  1   
  7   4   8  1   
  8   5   7  2   
  9   6  26  1   
 10   6  27  1   
 11   6  28  1   
 12   7   9  1   
 13   8  10  1   
 14   8  29  1   
 15   8  30  1   
 16   9  11  1   
 17   9  31  1   
 18   9  32  1   
 19  10  12  1   
 20  10  13  1   
 21  10  33  1   
 22  11  34  1   
 23  11  35  1   
 24  11  36  1   
 25  12  14  1   
 26  12  37  1   
 27  12  38  1   
 28  13  15  1   
 29  13  39  1   
 30  13  40  1   
 31  14  16  1   
 32  14  17  1   
 33  14  18  1   
 34  15  17  1   
 35  15  41  1   
 36  15  42  1   
 37  16  19  ar  
 38  16  20  ar  
 39  17  43  1   
 40  17  44  1   
 41  18  21  1   
 42  18  45  1   
 43  18  46  1   
 44  19  22  ar  
 45  20  21  1   
 46  20  23  ar  
 47  21  47  1   
 48  21  48  1   
 49  22  24  ar  
 50  22  25  1   
 51  23  24  ar  
 52  23  49  1   
 53  25  50  1   
 54  25  51  1   
 55  25  52  1   
@<TRIPOS>SUBSTRUCTURE
  1 ****  10 GROUP 4 **** **** 0

# MOE 2024.06 (io_trps.svl 2023.06)
