@<TRIPOS>MOLECULE
NONAME
57 59 1 0 0 
SMALL
USER_CHARGES


@<TRIPOS>ATOM
  1 O       -1.4630    -0.2620     1.2020 O.2   1 <1>  -0.5700 
  2 C       -1.1270    -1.3630     0.8340 C.2   1 <1>   0.5690 
  3 N       -1.8140    -2.0570    -0.1300 N.am  1 <1>  -0.6600 
  4 C        0.0950    -1.9730     1.5020 C.3   1 <1>  -0.0990 
  5 C       -1.3590    -3.3580    -0.6960 C.3   1 <1>   0.1400 
  6 C       -3.0280    -1.4790    -0.7640 C.3   1 <1>   0.1400 
  7 C        0.7290    -3.1190     0.7020 C.3   1 <1>  -0.1600 
  8 C       -0.3690    -4.0730     0.2280 C.3   1 <1>  -0.1600 
  9 C       -4.2840    -2.1080    -0.1560 C.3   1 <1>  -0.1600 
 10 C       -5.5620    -1.4430    -0.7010 C.3   1 <1>  -0.0990 
 11 C       -6.8570    -2.0540    -0.1720 C.2   1 <1>   0.5690 
 12 O       -6.8320    -3.1940     0.2300 O.2   1 <1>  -0.5700 
 13 N       -8.0200    -1.3250    -0.1790 N.am  1 <1>  -0.6600 
 14 C       -8.1540     0.0240    -0.8100 C.3   1 <1>   0.1400 
 15 C       -9.2500    -1.8920     0.4530 C.3   1 <1>   0.1400 
 16 C       -9.5910     0.2350    -1.2820 C.3   1 <1>  -0.1600 
 17 C      -10.1310    -0.7650     0.9990 C.3   1 <1>  -0.1600 
 18 C      -10.5830     0.2280    -0.1030 C.3   1 <1>   0.2800 
 19 O      -10.5240     1.5240     0.4330 O.3   1 <1>  -0.5600 
 20 C      -12.0160    -0.0580    -0.6330 C.3   1 <1>  -0.1600 
 21 C      -11.3780     1.8460     1.5010 C.3   1 <1>   0.1200 
 22 C      -13.0540     0.9850    -0.2080 C.3   1 <1>   0.2800 
 23 C      -12.8200     1.3760     1.2480 C.3   1 <1>  -0.1600 
 24 O      -12.8460     2.1040    -0.9700 O.3   1 <1>  -0.6800 
 25 C      -14.4850     0.5280    -0.4720 C.3   1 <1>  -0.2400 
 26 H       -0.2160    -2.3380     2.4640 H     1 <1>   0.0800 
 27 H        0.8240    -1.2000     1.6650 H     1 <1>   0.0800 
 28 H       -0.8880    -3.1680    -1.6460 H     1 <1>   0.0800 
 29 H       -2.2070    -3.9990    -0.8650 H     1 <1>   0.0800 
 30 H       -2.9980    -1.6550    -1.8260 H     1 <1>   0.0800 
 31 H       -3.0480    -0.4140    -0.6080 H     1 <1>   0.0800 
 32 H        1.4410    -3.6420     1.3160 H     1 <1>   0.0800 
 33 H        1.2490    -2.7160    -0.1510 H     1 <1>   0.0800 
 34 H        0.0700    -4.9010    -0.2990 H     1 <1>   0.0800 
 35 H       -0.9010    -4.4700     1.0750 H     1 <1>   0.0800 
 36 H       -4.2570    -1.9900     0.9140 H     1 <1>   0.0800 
 37 H       -4.3060    -3.1600    -0.3820 H     1 <1>   0.0800 
 38 H       -5.5760    -1.5200    -1.7720 H     1 <1>   0.0800 
 39 H       -5.5320    -0.4030    -0.4330 H     1 <1>   0.0800 
 40 H       -7.4930     0.1070    -1.6550 H     1 <1>   0.0800 
 41 H       -7.8930     0.7830    -0.0910 H     1 <1>   0.0800 
 42 H       -8.9740    -2.5510     1.2590 H     1 <1>   0.0800 
 43 H       -9.7900    -2.4670    -0.2790 H     1 <1>   0.0800 
 44 H       -9.8210    -0.5560    -1.9740 H     1 <1>   0.0800 
 45 H       -9.6730     1.1640    -1.8180 H     1 <1>   0.0800 
 46 H       -9.5440    -0.2510     1.7390 H     1 <1>   0.0800 
 47 H      -10.9790    -1.1930     1.5000 H     1 <1>   0.0800 
 48 H      -12.3300    -1.0230    -0.2830 H     1 <1>   0.0800 
 49 H      -12.0280    -0.1260    -1.7070 H     1 <1>   0.0800 
 50 H      -11.3570     2.9170     1.6020 H     1 <1>   0.0800 
 51 H      -10.9850     1.4160     2.4070 H     1 <1>   0.0800 
 52 H      -13.5120     2.1430     1.5450 H     1 <1>   0.0800 
 53 H      -13.0140     0.5230     1.8740 H     1 <1>   0.0800 
 54 H      -11.9200     2.3840    -0.8030 H     1 <1>   0.4000 
 55 H      -14.7120    -0.3460     0.1100 H     1 <1>   0.0800 
 56 H      -14.6120     0.2880    -1.5130 H     1 <1>   0.0800 
 57 H      -15.1790     1.3050    -0.2050 H     1 <1>   0.0800 
@<TRIPOS>BOND
  1   1   2  2   
  2   2   3  am  
  3   2   4  1   
  4   3   5  1   
  5   3   6  1   
  6   4   7  1   
  7   4  26  1   
  8   4  27  1   
  9   5   8  1   
 10   5  28  1   
 11   5  29  1   
 12   6   9  1   
 13   6  30  1   
 14   6  31  1   
 15   7   8  1   
 16   7  32  1   
 17   7  33  1   
 18   8  34  1   
 19   8  35  1   
 20   9  10  1   
 21   9  36  1   
 22   9  37  1   
 23  10  11  1   
 24  10  38  1   
 25  10  39  1   
 26  11  12  2   
 27  11  13  am  
 28  13  14  1   
 29  13  15  1   
 30  14  16  1   
 31  14  40  1   
 32  14  41  1   
 33  15  17  1   
 34  15  42  1   
 35  15  43  1   
 36  16  18  1   
 37  16  44  1   
 38  16  45  1   
 39  17  18  1   
 40  17  46  1   
 41  17  47  1   
 42  18  19  1   
 43  18  20  1   
 44  19  21  1   
 45  20  22  1   
 46  20  48  1   
 47  20  49  1   
 48  21  23  1   
 49  21  50  1   
 50  21  51  1   
 51  22  23  1   
 52  22  24  1   
 53  22  25  1   
 54  23  52  1   
 55  23  53  1   
 56  24  54  1   
 57  25  55  1   
 58  25  56  1   
 59  25  57  1   
@<TRIPOS>SUBSTRUCTURE
  1 ****  13 GROUP 4 **** **** 0

# MOE 2024.06 (io_trps.svl 2023.06)
