@<TRIPOS>MOLECULE
NONAME
55 58 1 0 0 
SMALL
USER_CHARGES


@<TRIPOS>ATOM
  1 O       -0.2740     0.4050    -0.2880 O.2   1 <1>  -0.5700 
  2 C       -0.3180     1.6230    -0.3200 C.2   1 <1>   0.7150 
  3 N       -1.4450     2.2490     0.1830 N.am  1 <1>  -0.6600 
  4 C        0.7910     2.3830    -0.8620 C.2   1 <1>   0.0550 
  5 C       -1.8130     3.6470    -0.1820 C.3   1 <1>   0.1400 
  6 C       -2.4380     1.4770     0.9870 C.3   1 <1>   0.1400 
  7 O        1.4460     1.9670    -1.9430 O.3   1 <1>  -0.2800 
  8 C        1.3590     3.5520    -0.4470 C.2   1 <1>  -0.1500 
  9 C       -3.3330     3.7750    -0.2720 C.3   1 <1>  -0.1600 
 10 C       -3.2430     2.4180     1.8880 C.3   1 <1>  -0.1600 
 11 C        2.3970     2.8260    -2.2260 C.2   1 <1>  -0.0100 
 12 C        2.3980     3.8380    -1.3340 C.2   1 <1>  -0.1500 
 13 C       -4.0030     3.5130     1.0980 C.3   1 <1>   0.2800 
 14 O       -3.8060     4.7010     1.8300 O.3   1 <1>  -0.5600 
 15 C       -5.5210     3.1480     0.9780 C.3   1 <1>   0.2000 
 16 C       -4.9010     5.4770     2.2200 C.3   1 <1>   0.1200 
 17 O       -5.7020     2.0180     0.1680 O.3   1 <1>  -0.6800 
 18 C       -6.4540     4.3400     0.5690 C.3   1 <1>   0.3000 
 19 C       -5.8300     5.6740     1.0220 C.3   1 <1>  -0.1600 
 20 N       -7.7220     4.2300     1.3390 N.am  1 <1>  -0.7300 
 21 C       -6.7250     4.4390    -0.9410 C.3   1 <1>  -0.2400 
 22 C       -8.9640     3.6980     1.2010 C.2   1 <1>   0.6300 
 23 O       -9.6610     3.7000     2.1840 O.2   1 <1>  -0.5700 
 24 C       -9.5530     3.0980    -0.0870 C.3   1 <1>  -0.0950 
 25 C       -9.8970     3.9680    -1.2640 C.3   1 <1>  -0.2000 
 26 C      -10.9880     3.4330    -0.3930 C.3   1 <1>  -0.2000 
 27 C       -9.1690     1.6260    -0.2910 C.3   1 <1>  -0.1450 
 28 H       -1.4360     4.3230     0.5690 H     1 <1>   0.0800 
 29 H       -1.3760     3.9070    -1.1310 H     1 <1>   0.0800 
 30 H       -3.0970     0.9470     0.3210 H     1 <1>   0.0800 
 31 H       -1.9230     0.7500     1.5940 H     1 <1>   0.0800 
 32 H        1.0830     4.1510     0.4020 H     1 <1>   0.1500 
 33 H       -3.6720     3.0730    -1.0110 H     1 <1>   0.0800 
 34 H       -3.5800     4.7590    -0.6240 H     1 <1>   0.0800 
 35 H       -2.5530     2.8720     2.5790 H     1 <1>   0.0800 
 36 H       -3.9270     1.8260     2.4670 H     1 <1>   0.0800 
 37 H        3.0300     2.6420    -3.0770 H     1 <1>   0.1500 
 38 H        3.0510     4.6930    -1.2890 H     1 <1>   0.1500 
 39 H       -5.8300     2.8380     1.9610 H     1 <1>   0.0800 
 40 H       -5.3990     4.9850     3.0380 H     1 <1>   0.0800 
 41 H       -4.5200     6.4230     2.5650 H     1 <1>   0.0800 
 42 H       -5.5220     2.2360    -0.7660 H     1 <1>   0.4000 
 43 H       -6.5990     6.3870     1.2660 H     1 <1>   0.0800 
 44 H       -5.2460     6.1160     0.2350 H     1 <1>   0.0800 
 45 H       -7.6050     4.5660     2.2930 H     1 <1>   0.3700 
 46 H       -5.8090     4.5870    -1.4820 H     1 <1>   0.0800 
 47 H       -7.3630     5.2780    -1.1460 H     1 <1>   0.0800 
 48 H       -7.1800     3.5460    -1.3210 H     1 <1>   0.0800 
 49 H       -9.7060     5.0250    -1.2200 H     1 <1>   0.1000 
 50 H       -9.7870     3.5690    -2.2580 H     1 <1>   0.1000 
 51 H      -11.6360     2.6690    -0.7830 H     1 <1>   0.1000 
 52 H      -11.5080     4.1120     0.2630 H     1 <1>   0.1000 
 53 H       -9.6750     1.2110    -1.1430 H     1 <1>   0.0800 
 54 H       -9.4420     1.0570     0.5800 H     1 <1>   0.0800 
 55 H       -8.1140     1.5260    -0.4440 H     1 <1>   0.0800 
@<TRIPOS>BOND
  1   1   2  2   
  2   2   3  am  
  3   2   4  1   
  4   3   5  1   
  5   3   6  1   
  6   4   7  1   
  7   4   8  2   
  8   5   9  1   
  9   5  28  1   
 10   5  29  1   
 11   6  10  1   
 12   6  30  1   
 13   6  31  1   
 14   7  11  1   
 15   8  12  1   
 16   8  32  1   
 17   9  13  1   
 18   9  33  1   
 19   9  34  1   
 20  10  13  1   
 21  10  35  1   
 22  10  36  1   
 23  11  12  2   
 24  11  37  1   
 25  12  38  1   
 26  13  14  1   
 27  13  15  1   
 28  14  16  1   
 29  15  17  1   
 30  15  18  1   
 31  15  39  1   
 32  16  19  1   
 33  16  40  1   
 34  16  41  1   
 35  17  42  1   
 36  18  19  1   
 37  18  20  1   
 38  18  21  1   
 39  19  43  1   
 40  19  44  1   
 41  20  22  am  
 42  20  45  1   
 43  21  46  1   
 44  21  47  1   
 45  21  48  1   
 46  22  23  2   
 47  22  24  1   
 48  24  25  1   
 49  24  26  1   
 50  24  27  1   
 51  25  26  1   
 52  25  49  1   
 53  25  50  1   
 54  26  51  1   
 55  26  52  1   
 56  27  53  1   
 57  27  54  1   
 58  27  55  1   
@<TRIPOS>SUBSTRUCTURE
  1 ****  13 GROUP 4 **** **** 0

# MOE 2024.06 (io_trps.svl 2023.06)
