@<TRIPOS>MOLECULE
NONAME
48 51 1 0 0 
SMALL
USER_CHARGES


@<TRIPOS>ATOM
  1 O        0.4270     0.0210    -0.1100 O.2   1 <1>  -0.5700 
  2 C        0.2790    -0.9450     0.6100 C.2   1 <1>   0.5440 
  3 N       -0.4230    -0.7290     1.7440 N.am  1 <1>  -0.8000 
  4 C        0.8400    -2.2360     0.2750 C.ar  1 <1>   0.0860 
  5 C        0.2770    -3.4600     0.6950 C.ar  1 <1>   0.4100 
  6 C        1.9970    -2.2970    -0.4880 C.ar  1 <1>  -0.1500 
  7 N        0.8240    -4.6450     0.4270 N.ar  1 <1>  -0.6200 
  8 N       -0.9250    -3.5290     1.3910 N.pl3 1 <1>  -0.8380 
  9 C        2.5550    -3.5230    -0.7760 C.ar  1 <1>  -0.1430 
 10 C        1.9310    -4.6630    -0.2840 C.ar  1 <1>   0.1670 
 11 C       -2.1760    -3.2710     0.6340 C.3   1 <1>   0.2090 
 12 C       -1.0790    -4.4650     2.5390 C.3   1 <1>   0.2090 
 13 C        3.8260    -3.5800    -1.6140 C.3   1 <1>  -0.0970 
 14 C        2.5000    -6.0450    -0.5520 C.3   1 <1>  -0.0970 
 15 C       -2.6930    -4.5900     0.0690 C.3   1 <1>  -0.1600 
 16 C       -1.6510    -5.8050     2.0700 C.3   1 <1>  -0.1600 
 17 C       -2.8910    -5.6410     1.1740 C.3   1 <1>   0.1000 
 18 C       -3.3240    -6.9770     0.5860 C.2   1 <1>   0.0060 
 19 N       -4.4690    -7.5200     0.8440 N.2   1 <1>  -0.3380 
 20 N       -2.5880    -7.7280    -0.2500 N.pl3 1 <1>   0.3340 
 21 N       -4.5310    -8.6650     0.1790 N.2   1 <1>  -0.3380 
 22 C       -3.4050    -8.7870    -0.4750 C.2   1 <1>   0.1410 
 23 C       -1.3300    -7.6550    -0.8530 C.2   1 <1>  -0.1810 
 24 C       -2.9740    -9.8310    -1.3340 C.2   1 <1>  -0.1050 
 25 C       -0.9070    -8.6490    -1.6780 C.2   1 <1>  -0.1500 
 26 C       -1.7480    -9.7660    -1.9260 C.2   1 <1>  -0.1500 
 27 H       -0.8430     0.1820     1.9170 H     1 <1>   0.3700 
 28 H       -0.7700    -1.5370     2.2720 H     1 <1>   0.3700 
 29 H        2.4470    -1.3840    -0.8410 H     1 <1>   0.1500 
 30 H       -1.9860    -2.5810    -0.1710 H     1 <1>   0.0800 
 31 H       -2.9090    -2.8320     1.2900 H     1 <1>   0.0800 
 32 H       -1.7370    -4.0220     3.2670 H     1 <1>   0.0800 
 33 H       -0.1210    -4.6250     3.0070 H     1 <1>   0.0800 
 34 H        4.0740    -2.6090    -2.0040 H     1 <1>   0.0800 
 35 H        3.6960    -4.2490    -2.4460 H     1 <1>   0.0800 
 36 H        4.6490    -3.9230    -1.0130 H     1 <1>   0.0800 
 37 H        2.0370    -6.7710     0.0920 H     1 <1>   0.0800 
 38 H        3.5570    -6.0590    -0.3640 H     1 <1>   0.0800 
 39 H        2.3140    -6.3210    -1.5730 H     1 <1>   0.0800 
 40 H       -1.9890    -4.9350    -0.6650 H     1 <1>   0.0800 
 41 H       -3.6290    -4.4190    -0.4330 H     1 <1>   0.0800 
 42 H       -1.9090    -6.3980     2.9290 H     1 <1>   0.0800 
 43 H       -0.8760    -6.3310     1.5490 H     1 <1>   0.0800 
 44 H       -3.6920    -5.2910     1.8040 H     1 <1>   0.0800 
 45 H       -0.7320    -6.7890    -0.6320 H     1 <1>   0.1500 
 46 H       -3.6470   -10.6550    -1.4890 H     1 <1>   0.1500 
 47 H        0.0570    -8.6180    -2.1560 H     1 <1>   0.1500 
 48 H       -1.3960   -10.5440    -2.5820 H     1 <1>   0.1500 
@<TRIPOS>BOND
  1   1   2  2   
  2   2   3  am  
  3   2   4  1   
  4   3  27  1   
  5   3  28  1   
  6   4   5  ar  
  7   4   6  ar  
  8   5   7  ar  
  9   5   8  1   
 10   6   9  ar  
 11   6  29  1   
 12   7  10  ar  
 13   8  11  1   
 14   8  12  1   
 15   9  10  ar  
 16   9  13  1   
 17  10  14  1   
 18  11  15  1   
 19  11  30  1   
 20  11  31  1   
 21  12  16  1   
 22  12  32  1   
 23  12  33  1   
 24  13  34  1   
 25  13  35  1   
 26  13  36  1   
 27  14  37  1   
 28  14  38  1   
 29  14  39  1   
 30  15  17  1   
 31  15  40  1   
 32  15  41  1   
 33  16  17  1   
 34  16  42  1   
 35  16  43  1   
 36  17  18  1   
 37  17  44  1   
 38  18  19  2   
 39  18  20  1   
 40  19  21  1   
 41  20  22  1   
 42  20  23  1   
 43  21  22  2   
 44  22  24  1   
 45  23  25  2   
 46  23  45  1   
 47  24  26  2   
 48  24  46  1   
 49  25  26  1   
 50  25  47  1   
 51  26  48  1   
@<TRIPOS>SUBSTRUCTURE
  1 ****   7 GROUP 4 **** **** 0

# MOE 2024.06 (io_trps.svl 2023.06)
