@<TRIPOS>MOLECULE
NONAME
49 51 1 0 0 
SMALL
USER_CHARGES


@<TRIPOS>ATOM
  1 O        0.6240    -0.0690     0.8760 O.2   1 <1>  -0.5700 
  2 C        1.6800    -0.6500     0.9490 C.2   1 <1>   0.5690 
  3 N        2.8310     0.0260     1.2680 N.am  1 <1>  -0.6600 
  4 C        1.7210    -2.1360     0.6380 C.3   1 <1>  -0.0990 
  5 C        4.2190    -0.5190     1.1410 C.3   1 <1>   0.1400 
  6 C        2.7630     1.4320     1.7490 C.3   1 <1>   0.1400 
  7 C        0.3370    -2.7180     0.3520 C.3   1 <1>   0.1200 
  8 C        4.9120    -0.0410    -0.1520 C.3   1 <1>   0.3430 
  9 C        2.7360     2.4070     0.5660 C.3   1 <1>  -0.1600 
 10 O        0.5020    -4.0790     0.0260 O.3   1 <1>  -0.3630 
 11 N        4.8300     1.4460    -0.3650 N.4   1 <1>  -0.9590 
 12 C        3.4600     1.9250    -0.6930 C.3   1 <1>   0.3430 
 13 C       -0.5650    -4.8570    -0.2870 C.ar  1 <1>   0.0820 
 14 C        5.8730     1.9190    -1.3130 C.3   1 <1>   0.5230 
 15 C       -1.8790    -4.3980    -0.3110 C.ar  1 <1>  -0.1500 
 16 C       -0.3010    -6.1820    -0.5990 C.ar  1 <1>  -0.1500 
 17 C        7.1860     2.0000    -0.5390 C.2   1 <1>   0.0060 
 18 C       -2.9090    -5.2620    -0.6440 C.ar  1 <1>  -0.1500 
 19 C       -1.3310    -7.0440    -0.9320 C.ar  1 <1>  -0.1500 
 20 N        7.2590     1.8720     0.7520 N.2   1 <1>  -0.5650 
 21 N        8.3870     2.2220    -1.1260 N.pl3 1 <1>   0.0330 
 22 C       -2.6360    -6.5840    -0.9540 C.ar  1 <1>  -0.1500 
 23 C        8.5720     2.0160     1.0190 C.2   1 <1>   0.0770 
 24 C        9.2720     2.2290    -0.1150 C.2   1 <1>  -0.3020 
 25 H        2.1390    -2.6520     1.4820 H     1 <1>   0.0800 
 26 H        2.3410    -2.2920    -0.2240 H     1 <1>   0.0800 
 27 H        4.2060    -1.5940     1.1520 H     1 <1>   0.0800 
 28 H        4.8040    -0.2090     1.9900 H     1 <1>   0.0800 
 29 H        3.6120     1.6400     2.3790 H     1 <1>   0.0800 
 30 H        1.8780     1.5700     2.3500 H     1 <1>   0.0800 
 31 H       -0.1220    -2.2200    -0.4850 H     1 <1>   0.0800 
 32 H       -0.2950    -2.6440     1.2200 H     1 <1>   0.0800 
 33 H        4.4730    -0.5510    -0.9920 H     1 <1>   0.0800 
 34 H        5.9490    -0.3350    -0.0950 H     1 <1>   0.0800 
 35 H        3.1310     3.3570     0.8790 H     1 <1>   0.0800 
 36 H        1.7060     2.5760     0.3040 H     1 <1>   0.0800 
 37 H        5.1430     1.8720     0.5250 H     1 <1>   0.4500 
 38 H        3.5030     2.7390    -1.3980 H     1 <1>   0.0800 
 39 H        2.8920     1.1240    -1.1410 H     1 <1>   0.0800 
 40 H        5.6240     2.9020    -1.6770 H     1 <1>   0.0800 
 41 H        5.9610     1.2440    -2.1480 H     1 <1>   0.0800 
 42 H       -2.1220    -3.3790    -0.0750 H     1 <1>   0.1500 
 43 H        0.7150    -6.5320    -0.5790 H     1 <1>   0.1500 
 44 H       -3.9240    -4.9060    -0.6620 H     1 <1>   0.1500 
 45 H       -1.1170    -8.0710    -1.1720 H     1 <1>   0.1500 
 46 H        8.6080     2.3650    -2.1190 H     1 <1>   0.2700 
 47 H       -3.4380    -7.2530    -1.2120 H     1 <1>   0.1500 
 48 H        8.9550     1.9610     2.0270 H     1 <1>   0.1500 
 49 H       10.3290     2.3830    -0.2480 H     1 <1>   0.1500 
@<TRIPOS>BOND
  1   1   2  2   
  2   2   3  am  
  3   2   4  1   
  4   3   5  1   
  5   3   6  1   
  6   4   7  1   
  7   4  25  1   
  8   4  26  1   
  9   5   8  1   
 10   5  27  1   
 11   5  28  1   
 12   6   9  1   
 13   6  29  1   
 14   6  30  1   
 15   7  10  1   
 16   7  31  1   
 17   7  32  1   
 18   8  11  1   
 19   8  33  1   
 20   8  34  1   
 21   9  12  1   
 22   9  35  1   
 23   9  36  1   
 24  10  13  1   
 25  11  12  1   
 26  11  14  1   
 27  11  37  1   
 28  12  38  1   
 29  12  39  1   
 30  13  15  ar  
 31  13  16  ar  
 32  14  17  1   
 33  14  40  1   
 34  14  41  1   
 35  15  18  ar  
 36  15  42  1   
 37  16  19  ar  
 38  16  43  1   
 39  17  20  2   
 40  17  21  1   
 41  18  22  ar  
 42  18  44  1   
 43  19  22  ar  
 44  19  45  1   
 45  20  23  1   
 46  21  24  1   
 47  21  46  1   
 48  22  47  1   
 49  23  24  2   
 50  23  48  1   
 51  24  49  1   
@<TRIPOS>SUBSTRUCTURE
  1 ****   2 GROUP 4 **** **** 0

# MOE 2024.06 (io_trps.svl 2023.06)
