@<TRIPOS>MOLECULE
NONAME
52 55 1 0 0 
SMALL
USER_CHARGES


@<TRIPOS>ATOM
  1 O       -1.6130     0.2420    -1.3640 O.2   1 <1>  -0.5700 
  2 C       -2.1720     0.8190    -0.4500 C.2   1 <1>   0.5440 
  3 N       -1.5820     1.9480     0.0800 N.am  1 <1>  -0.6600 
  4 C       -3.4330     0.3090     0.0340 C.ar  1 <1>   0.0860 
  5 C       -2.3450     3.0660     0.7130 C.3   1 <1>   0.1400 
  6 C       -0.1580     2.3040    -0.2070 C.3   1 <1>   0.1400 
  7 C       -4.3950    -0.1530    -0.8600 C.ar  1 <1>   0.1600 
  8 C       -3.7540     0.2400     1.3870 C.ar  1 <1>  -0.1500 
  9 C       -2.1240     4.3800    -0.0560 C.3   1 <1>   0.1200 
 10 C       -0.0730     3.6560    -0.9310 C.3   1 <1>   0.1200 
 11 N       -5.5880    -0.6280    -0.5460 N.ar  1 <1>  -0.6200 
 12 C       -4.9870    -0.2560     1.7340 C.ar  1 <1>  -0.1500 
 13 O       -0.7580     4.6430    -0.2110 O.3   1 <1>  -0.5600 
 14 C       -5.8770    -0.6810     0.7500 C.ar  1 <1>   0.4100 
 15 N       -7.1050    -1.1970     1.1030 N.pl3 1 <1>  -0.8380 
 16 C       -8.2970    -0.9430     0.2520 C.3   1 <1>   0.2090 
 17 C       -7.1640    -2.4220     1.9340 C.3   1 <1>   0.2090 
 18 C       -8.5250    -2.1420    -0.6740 C.3   1 <1>  -0.1600 
 19 C       -7.3540    -3.6270     1.0110 C.3   1 <1>  -0.1600 
 20 C       -8.5900    -3.4790     0.0940 C.3   1 <1>   0.3430 
 21 C       -9.8160    -3.4540     0.9690 C.1   1 <1>   0.3570 
 22 C       -8.6200    -4.6550    -0.9150 C.ar  1 <1>  -0.1430 
 23 N      -10.7310    -3.4150     1.6460 N.1   1 <1>  -0.5570 
 24 C       -7.5640    -4.8190    -1.8080 C.ar  1 <1>  -0.1500 
 25 C       -9.6680    -5.5740    -0.9770 C.ar  1 <1>  -0.1500 
 26 C       -7.5500    -5.8550    -2.7250 C.ar  1 <1>  -0.1500 
 27 C       -9.6550    -6.6110    -1.8940 C.ar  1 <1>  -0.1500 
 28 C       -8.5970    -6.7540    -2.7700 C.ar  1 <1>  -0.1500 
 29 H       -2.0140     3.1910     1.7290 H     1 <1>   0.0800 
 30 H       -3.3980     2.8490     0.7280 H     1 <1>   0.0800 
 31 H        0.3120     1.5460    -0.8100 H     1 <1>   0.0800 
 32 H        0.3830     2.3660     0.7200 H     1 <1>   0.0800 
 33 H       -4.1490    -0.1210    -1.9090 H     1 <1>   0.1500 
 34 H       -3.0490     0.5640     2.1320 H     1 <1>   0.1500 
 35 H       -2.5560     5.2040     0.4830 H     1 <1>   0.0800 
 36 H       -2.5770     4.3290    -1.0310 H     1 <1>   0.0800 
 37 H       -0.5010     3.5830    -1.9160 H     1 <1>   0.0800 
 38 H        0.9530     3.9660    -1.0210 H     1 <1>   0.0800 
 39 H       -5.2860    -0.3220     2.7620 H     1 <1>   0.1500 
 40 H       -8.1440    -0.0530    -0.3350 H     1 <1>   0.0800 
 41 H       -9.1550    -0.7780     0.8830 H     1 <1>   0.0800 
 42 H       -7.9760    -2.3390     2.6380 H     1 <1>   0.0800 
 43 H       -6.2500    -2.5390     2.4910 H     1 <1>   0.0800 
 44 H       -7.7210    -2.1560    -1.3850 H     1 <1>   0.0800 
 45 H       -9.4350    -1.9950    -1.2280 H     1 <1>   0.0800 
 46 H       -7.4470    -4.5200     1.6030 H     1 <1>   0.0800 
 47 H       -6.4620    -3.7250     0.4210 H     1 <1>   0.0800 
 48 H       -6.7290    -4.1390    -1.8050 H     1 <1>   0.1500 
 49 H      -10.5190    -5.5150    -0.3210 H     1 <1>   0.1500 
 50 H       -6.7220    -5.9610    -3.4050 H     1 <1>   0.1500 
 51 H      -10.4740    -7.3090    -1.9250 H     1 <1>   0.1500 
 52 H       -8.5890    -7.5610    -3.4820 H     1 <1>   0.1500 
@<TRIPOS>BOND
  1   1   2  2   
  2   2   3  am  
  3   2   4  1   
  4   3   5  1   
  5   3   6  1   
  6   4   7  ar  
  7   4   8  ar  
  8   5   9  1   
  9   5  29  1   
 10   5  30  1   
 11   6  10  1   
 12   6  31  1   
 13   6  32  1   
 14   7  11  ar  
 15   7  33  1   
 16   8  12  ar  
 17   8  34  1   
 18   9  13  1   
 19   9  35  1   
 20   9  36  1   
 21  10  13  1   
 22  10  37  1   
 23  10  38  1   
 24  11  14  ar  
 25  12  14  ar  
 26  12  39  1   
 27  14  15  1   
 28  15  16  1   
 29  15  17  1   
 30  16  18  1   
 31  16  40  1   
 32  16  41  1   
 33  17  19  1   
 34  17  42  1   
 35  17  43  1   
 36  18  20  1   
 37  18  44  1   
 38  18  45  1   
 39  19  20  1   
 40  19  46  1   
 41  19  47  1   
 42  20  21  1   
 43  20  22  1   
 44  21  23  3   
 45  22  24  ar  
 46  22  25  ar  
 47  24  26  ar  
 48  24  48  1   
 49  25  27  ar  
 50  25  49  1   
 51  26  28  ar  
 52  26  50  1   
 53  27  28  ar  
 54  27  51  1   
 55  28  52  1   
@<TRIPOS>SUBSTRUCTURE
  1 ****  11 GROUP 4 **** **** 0

# MOE 2024.06 (io_trps.svl 2023.06)
