@<TRIPOS>MOLECULE
NONAME
53 56 1 0 0 
SMALL
USER_CHARGES


@<TRIPOS>ATOM
  1 S        1.6070    -0.3380     1.2150 S.3   1 <1>  -0.0800 
  2 C        2.3550     1.1810     0.7090 C.2   1 <1>  -0.0450 
  3 C        3.1160    -1.2160     1.0790 C.2   1 <1>  -0.1400 
  4 C        1.5310     2.3620     0.6190 C.2   1 <1>   0.7150 
  5 C        3.6750     0.9530     0.4800 C.2   1 <1>  -0.1500 
  6 C        4.1010    -0.3910     0.6830 C.2   1 <1>  -0.1500 
  7 C        3.0940    -2.6920     1.4120 C.3   1 <1>  -0.0600 
  8 O        0.6840     2.5720     1.4710 O.2   1 <1>  -0.5700 
  9 N        1.6600     3.2690    -0.4170 N.am  1 <1>  -0.6600 
 10 C        2.1860     2.8710    -1.7650 C.3   1 <1>   0.1400 
 11 C        1.1970     4.6750    -0.2530 C.3   1 <1>   0.1400 
 12 C        2.9510     3.9800    -2.5050 C.3   1 <1>   0.1400 
 13 C        2.3710     5.5650     0.1730 C.3   1 <1>  -0.1600 
 14 N        3.9060     4.6930    -1.6080 N.am  1 <1>  -0.6600 
 15 C        3.3600     5.9110    -0.9490 C.3   1 <1>   0.1400 
 16 C        5.1620     4.1760    -1.3630 C.2   1 <1>   0.6160 
 17 O        5.4940     3.1490    -1.9290 O.2   1 <1>  -0.5700 
 18 C        6.1080     4.8450    -0.5220 C.2   1 <1>   0.0290 
 19 C        6.0390     4.6200     0.8840 C.2   1 <1>   0.6160 
 20 C        7.0730     5.6910    -1.0120 C.2   1 <1>  -0.1500 
 21 O        5.2230     3.8960     1.4330 O.2   1 <1>  -0.5700 
 22 N        6.9340     5.2680     1.6900 N.am  1 <1>  -0.5390 
 23 C        7.9750     6.3400    -0.1410 C.2   1 <1>  -0.1380 
 24 C        7.8950     6.1130     1.2040 C.2   1 <1>  -0.0290 
 25 C        9.0200     7.2700    -0.7460 C.3   1 <1>  -0.0220 
 26 C        8.8260     6.7610     2.2190 C.3   1 <1>  -0.0220 
 27 C        9.6520     8.1920     0.3060 C.3   1 <1>  -0.1600 
 28 C       10.0540     7.3980     1.5550 C.3   1 <1>  -0.1600 
 29 H        4.3760     1.7110     0.1730 H     1 <1>   0.1500 
 30 H        5.1280    -0.6700     0.5230 H     1 <1>   0.1500 
 31 H        2.4120    -3.2050     0.7570 H     1 <1>   0.0800 
 32 H        2.7750    -2.8320     2.4290 H     1 <1>   0.0800 
 33 H        4.0760    -3.1130     1.2930 H     1 <1>   0.0800 
 34 H        1.3590     2.5560    -2.3760 H     1 <1>   0.0800 
 35 H        2.8460     2.0280    -1.6750 H     1 <1>   0.0800 
 36 H        0.4360     4.7210     0.5080 H     1 <1>   0.0800 
 37 H        0.7540     5.0320    -1.1660 H     1 <1>   0.0800 
 38 H        2.2520     4.6810    -2.9240 H     1 <1>   0.0800 
 39 H        3.4890     3.5410    -3.3280 H     1 <1>   0.0800 
 40 H        2.8910     5.0990     0.9910 H     1 <1>   0.0800 
 41 H        1.9690     6.4890     0.5460 H     1 <1>   0.0800 
 42 H        4.1590     6.5040    -0.5400 H     1 <1>   0.0800 
 43 H        2.8640     6.5140    -1.6900 H     1 <1>   0.0800 
 44 H        7.1530     5.8640    -2.0720 H     1 <1>   0.1500 
 45 H        6.8360     5.0580     2.6840 H     1 <1>   0.3700 
 46 H        8.5720     7.8730    -1.5160 H     1 <1>   0.0800 
 47 H        9.7880     6.6680    -1.2000 H     1 <1>   0.0800 
 48 H        9.1560     6.0270     2.9320 H     1 <1>   0.0800 
 49 H        8.2750     7.5180     2.7500 H     1 <1>   0.0800 
 50 H        8.9440     8.9550     0.5820 H     1 <1>   0.0800 
 51 H       10.5160     8.6770    -0.1150 H     1 <1>   0.0800 
 52 H       10.7450     6.6230     1.2720 H     1 <1>   0.0800 
 53 H       10.5500     8.0440     2.2590 H     1 <1>   0.0800 
@<TRIPOS>BOND
  1   1   2  1   
  2   1   3  1   
  3   2   4  1   
  4   2   5  2   
  5   3   6  2   
  6   3   7  1   
  7   4   8  2   
  8   4   9  am  
  9   5   6  1   
 10   5  29  1   
 11   6  30  1   
 12   7  31  1   
 13   7  32  1   
 14   7  33  1   
 15   9  10  1   
 16   9  11  1   
 17  10  12  1   
 18  10  34  1   
 19  10  35  1   
 20  11  13  1   
 21  11  36  1   
 22  11  37  1   
 23  12  14  1   
 24  12  38  1   
 25  12  39  1   
 26  13  15  1   
 27  13  40  1   
 28  13  41  1   
 29  14  15  1   
 30  14  16  am  
 31  15  42  1   
 32  15  43  1   
 33  16  17  2   
 34  16  18  1   
 35  18  19  1   
 36  18  20  2   
 37  19  21  2   
 38  19  22  am  
 39  20  23  1   
 40  20  44  1   
 41  22  24  1   
 42  22  45  1   
 43  23  24  2   
 44  23  25  1   
 45  24  26  1   
 46  25  27  1   
 47  25  46  1   
 48  25  47  1   
 49  26  28  1   
 50  26  48  1   
 51  26  49  1   
 52  27  28  1   
 53  27  50  1   
 54  27  51  1   
 55  28  52  1   
 56  28  53  1   
@<TRIPOS>SUBSTRUCTURE
  1 ****  21 GROUP 4 **** **** 0

# MOE 2024.06 (io_trps.svl 2023.06)
