@<TRIPOS>MOLECULE
NONAME
47 48 1 0 0 
SMALL
USER_CHARGES


@<TRIPOS>ATOM
  1 O        2.5650     0.7390     2.9930 O.co2 1 <1>  -0.9000 
  2 C        2.4140     0.0510     1.9760 C.2   1 <1>   0.9060 
  3 O        2.4390    -1.1880     2.0200 O.co2 1 <1>  -0.9000 
  4 C        2.2640     0.7180     0.5980 C.3   1 <1>  -0.1060 
  5 C        3.5390     0.2470    -0.1530 C.3   1 <1>   0.2000 
  6 C        2.2660     2.2760     0.7090 C.3   1 <1>  -0.1600 
  7 C        0.9030     0.2650    -0.0280 C.3   1 <1>  -0.1600 
  8 O        3.3380    -0.9980    -0.7260 O.3   1 <1>  -0.6800 
  9 C        4.0630     1.2630    -1.1750 C.3   1 <1>   0.1400 
 10 C        3.6830     2.8480     0.7860 C.3   1 <1>   0.1400 
 11 C        0.6560     0.6150    -1.5090 C.3   1 <1>  -0.1600 
 12 N        4.4270     2.5510    -0.4840 N.am  1 <1>  -0.6600 
 13 C       -0.7240     0.1260    -1.9590 C.3   1 <1>  -0.2400 
 14 C        5.4270     3.3400    -0.9860 C.2   1 <1>   0.5690 
 15 O        5.9310     3.1200    -2.0640 O.2   1 <1>  -0.5700 
 16 C        5.9270     4.5330    -0.1840 C.3   1 <1>  -0.0990 
 17 C        7.3090     5.0360    -0.6240 C.3   1 <1>  -0.0170 
 18 C        7.7600     6.1810     0.2690 C.ar  1 <1>  -0.1430 
 19 C        8.3840     5.9170     1.4780 C.ar  1 <1>  -0.1500 
 20 C        7.5460     7.4960    -0.1140 C.ar  1 <1>  -0.1500 
 21 C        8.7900     6.9570     2.2970 C.ar  1 <1>  -0.1500 
 22 C        7.9510     8.5360     0.7040 C.ar  1 <1>  -0.1500 
 23 C        8.5730     8.2680     1.9100 C.ar  1 <1>  -0.1500 
 24 H        4.3340     0.1080     0.5620 H     1 <1>   0.0800 
 25 H        1.7110     2.5790     1.5790 H     1 <1>   0.0800 
 26 H        1.7860     2.7350    -0.1330 H     1 <1>   0.0800 
 27 H        0.8200    -0.8040     0.0720 H     1 <1>   0.0800 
 28 H        0.1100     0.6830     0.5680 H     1 <1>   0.0800 
 29 H        2.9860    -1.5650     0.0060 H     1 <1>   0.4000 
 30 H        3.3110     1.4640    -1.9150 H     1 <1>   0.0800 
 31 H        4.9310     0.8550    -1.6610 H     1 <1>   0.0800 
 32 H        4.2020     2.4100     1.6230 H     1 <1>   0.0800 
 33 H        3.6190     3.9100     0.9420 H     1 <1>   0.0800 
 34 H        0.7130     1.6750    -1.6710 H     1 <1>   0.0800 
 35 H        1.4030     0.1420    -2.1220 H     1 <1>   0.0800 
 36 H       -1.4960     0.5960    -1.3760 H     1 <1>   0.0800 
 37 H       -0.7970    -0.9400    -1.8380 H     1 <1>   0.0800 
 38 H       -0.8790     0.3660    -2.9960 H     1 <1>   0.0800 
 39 H        5.2140     5.3300    -0.2800 H     1 <1>   0.0800 
 40 H        5.9870     4.2540     0.8520 H     1 <1>   0.0800 
 41 H        7.2690     5.3630    -1.6480 H     1 <1>   0.0800 
 42 H        8.0210     4.2300    -0.5680 H     1 <1>   0.0800 
 43 H        8.5550     4.9010     1.7870 H     1 <1>   0.1500 
 44 H        7.0630     7.7140    -1.0500 H     1 <1>   0.1500 
 45 H        9.2730     6.7450     3.2350 H     1 <1>   0.1500 
 46 H        7.7820     9.5550     0.4010 H     1 <1>   0.1500 
 47 H        8.8880     9.0760     2.5460 H     1 <1>   0.1500 
@<TRIPOS>BOND
  1   1   2  ar  
  2   2   3  ar  
  3   2   4  1   
  4   4   5  1   
  5   4   6  1   
  6   4   7  1   
  7   5   8  1   
  8   5   9  1   
  9   5  24  1   
 10   6  10  1   
 11   6  25  1   
 12   6  26  1   
 13   7  11  1   
 14   7  27  1   
 15   7  28  1   
 16   8  29  1   
 17   9  12  1   
 18   9  30  1   
 19   9  31  1   
 20  10  12  1   
 21  10  32  1   
 22  10  33  1   
 23  11  13  1   
 24  11  34  1   
 25  11  35  1   
 26  12  14  am  
 27  13  36  1   
 28  13  37  1   
 29  13  38  1   
 30  14  15  2   
 31  14  16  1   
 32  16  17  1   
 33  16  39  1   
 34  16  40  1   
 35  17  18  1   
 36  17  41  1   
 37  17  42  1   
 38  18  19  ar  
 39  18  20  ar  
 40  19  21  ar  
 41  19  43  1   
 42  20  22  ar  
 43  20  44  1   
 44  21  23  ar  
 45  21  45  1   
 46  22  23  ar  
 47  22  46  1   
 48  23  47  1   
@<TRIPOS>SUBSTRUCTURE
  1 ****  12 GROUP 4 **** **** 0

# MOE 2024.06 (io_trps.svl 2023.06)
