@<TRIPOS>MOLECULE
NONAME
52 55 1 0 0 
SMALL
USER_CHARGES


@<TRIPOS>ATOM
  1 O       -0.9220     0.1750    -0.7090 O.2   1 <1>  -0.5700 
  2 C       -1.9690     0.6660    -0.3570 C.2   1 <1>   0.5690 
  3 N       -3.1180    -0.0790    -0.3370 N.am  1 <1>  -0.6600 
  4 C       -1.9910     2.1470     0.0460 C.3   1 <1>  -0.0190 
  5 C       -4.4980     0.4070    -0.0900 C.3   1 <1>   0.1400 
  6 C       -3.1270    -1.5080    -0.7300 C.3   1 <1>   0.1400 
  7 C       -2.1230     3.0480    -1.1980 C.3   1 <1>  -0.1600 
  8 C       -0.7480     2.5460     0.8710 C.3   1 <1>  -0.1600 
  9 C       -5.4040    -0.7340    -0.5510 C.3   1 <1>   0.2000 
 10 C       -4.5510    -1.9970    -0.4630 C.3   1 <1>  -0.0800 
 11 C       -2.1490     4.5380    -0.8200 C.3   1 <1>  -0.1600 
 12 C       -0.7750     4.0340     1.2550 C.3   1 <1>  -0.1600 
 13 O       -6.5210    -0.8550     0.2610 O.3   1 <1>  -0.6800 
 14 C       -5.0120    -3.0980    -1.4320 C.3   1 <1>  -0.0170 
 15 C       -0.9180     4.9130     0.0100 C.3   1 <1>   0.2000 
 16 C       -4.1610    -4.3550    -1.2800 C.ar  1 <1>  -0.1440 
 17 O       -1.0520     6.2210     0.4150 O.3   1 <1>  -0.6800 
 18 C       -4.3530    -5.2750    -0.2210 C.ar  1 <1>   0.0000 
 19 C       -3.1680    -4.6230    -2.1760 C.ar  1 <1>  -0.1500 
 20 C       -3.4900    -6.3970    -0.1620 C.ar  1 <1>   0.3100 
 21 C       -5.3470    -5.1500     0.7780 C.ar  1 <1>  -0.1500 
 22 C       -2.3740    -5.7670    -2.0280 C.ar  1 <1>   0.1600 
 23 N       -2.5100    -6.6280    -1.0710 N.ar  1 <1>  -0.6200 
 24 C       -3.6490    -7.3210     0.8840 C.ar  1 <1>  -0.1500 
 25 C       -5.4760    -6.0700     1.7820 C.ar  1 <1>  -0.1500 
 26 C       -4.6160    -7.1690     1.8400 C.ar  1 <1>  -0.1500 
 27 H       -2.8450     2.3140     0.6750 H     1 <1>   0.0800 
 28 H       -4.6230     0.5940     0.9620 H     1 <1>   0.0800 
 29 H       -4.6950     1.3000    -0.6570 H     1 <1>   0.0800 
 30 H       -2.8800    -1.5800    -1.7750 H     1 <1>   0.0800 
 31 H       -2.4040    -2.0660    -0.1570 H     1 <1>   0.0800 
 32 H       -1.2890     2.8620    -1.8540 H     1 <1>   0.0800 
 33 H       -3.0210     2.7990    -1.7350 H     1 <1>   0.0800 
 34 H       -0.6970     1.9430     1.7610 H     1 <1>   0.0800 
 35 H        0.1420     2.3480     0.2950 H     1 <1>   0.0800 
 36 H       -5.7350    -0.5520    -1.5590 H     1 <1>   0.0800 
 37 H       -4.5700    -2.3700     0.5460 H     1 <1>   0.0800 
 38 H       -3.0430     4.7410    -0.2580 H     1 <1>   0.0800 
 39 H       -2.1650     5.1310    -1.7180 H     1 <1>   0.0800 
 40 H        0.1390     4.2850     1.7640 H     1 <1>   0.0800 
 41 H       -1.6010     4.2080     1.9220 H     1 <1>   0.0800 
 42 H       -6.2570    -1.0720     1.1760 H     1 <1>   0.4000 
 43 H       -4.9410    -2.7350    -2.4430 H     1 <1>   0.0800 
 44 H       -6.0470    -3.3340    -1.2610 H     1 <1>   0.0800 
 45 H       -0.0280     4.8460    -0.5950 H     1 <1>   0.0800 
 46 H       -1.8420     6.3140     0.9790 H     1 <1>   0.4000 
 47 H       -2.9650    -3.9730    -3.0070 H     1 <1>   0.1500 
 48 H       -6.0210    -4.3150     0.7510 H     1 <1>   0.1500 
 49 H       -1.6010    -5.9400    -2.7570 H     1 <1>   0.1500 
 50 H       -2.9770    -8.1590     0.9060 H     1 <1>   0.1500 
 51 H       -6.2360    -5.9630     2.5370 H     1 <1>   0.1500 
 52 H       -4.7260    -7.8860     2.6350 H     1 <1>   0.1500 
@<TRIPOS>BOND
  1   1   2  2   
  2   2   3  am  
  3   2   4  1   
  4   3   5  1   
  5   3   6  1   
  6   4   7  1   
  7   4   8  1   
  8   4  27  1   
  9   5   9  1   
 10   5  28  1   
 11   5  29  1   
 12   6  10  1   
 13   6  30  1   
 14   6  31  1   
 15   7  11  1   
 16   7  32  1   
 17   7  33  1   
 18   8  12  1   
 19   8  34  1   
 20   8  35  1   
 21   9  10  1   
 22   9  13  1   
 23   9  36  1   
 24  10  14  1   
 25  10  37  1   
 26  11  15  1   
 27  11  38  1   
 28  11  39  1   
 29  12  15  1   
 30  12  40  1   
 31  12  41  1   
 32  13  42  1   
 33  14  16  1   
 34  14  43  1   
 35  14  44  1   
 36  15  17  1   
 37  15  45  1   
 38  16  18  ar  
 39  16  19  ar  
 40  17  46  1   
 41  18  20  ar  
 42  18  21  ar  
 43  19  22  ar  
 44  19  47  1   
 45  20  23  ar  
 46  20  24  ar  
 47  21  25  ar  
 48  21  48  1   
 49  22  23  ar  
 50  22  49  1   
 51  24  26  ar  
 52  24  50  1   
 53  25  26  ar  
 54  25  51  1   
 55  26  52  1   
@<TRIPOS>SUBSTRUCTURE
  1 ****   6 GROUP 4 **** **** 0

# MOE 2024.06 (io_trps.svl 2023.06)
