@<TRIPOS>MOLECULE
NONAME
52 55 1 0 0 
SMALL
USER_CHARGES


@<TRIPOS>ATOM
  1 O       -3.8260    -5.0630     0.1350 O.co2 1 <1>  -0.9000 
  2 C       -4.2220    -3.9310    -0.1420 C.2   1 <1>   0.9060 
  3 O       -3.9730    -3.3750    -1.2250 O.co2 1 <1>  -0.9000 
  4 C       -5.0780    -3.1620     0.8830 C.3   1 <1>   0.2370 
  5 N       -5.5390    -1.8010     0.3970 N.4   1 <1>  -0.9590 
  6 C       -6.7510    -1.2420     1.0510 C.3   1 <1>   0.3430 
  7 C       -4.4130    -0.8430     0.2330 C.3   1 <1>   0.3430 
  8 C       -7.4640    -0.1790     0.1700 C.3   1 <1>   0.1900 
  9 C       -4.7390     0.2600    -0.7860 C.3   1 <1>  -0.0800 
 10 N       -7.1850    -0.2420    -1.3060 N.3   1 <1>  -0.8100 
 11 C       -7.2040     1.2340     0.7180 C.3   1 <1>   0.1200 
 12 C       -5.0350     1.6100    -0.1160 C.3   1 <1>   0.1200 
 13 C       -5.7990    -0.1550    -1.8220 C.3   1 <1>   0.1100 
 14 C       -8.0610    -1.1830    -2.0570 C.3   1 <1>   0.2530 
 15 O       -5.8520     1.4500     0.9990 O.3   1 <1>  -0.5600 
 16 C       -7.9050    -2.6370    -1.6100 C.ar  1 <1>   0.1670 
 17 N       -8.6010    -3.0340    -0.5850 N.ar  1 <1>  -0.6200 
 18 C       -7.0000    -3.4660    -2.2880 C.ar  1 <1>  -0.1500 
 19 C       -8.4240    -4.3040    -0.1210 C.ar  1 <1>   0.3100 
 20 C       -6.8040    -4.7420    -1.8610 C.ar  1 <1>  -0.1500 
 21 C       -9.1240    -4.7520     1.0320 C.ar  1 <1>   0.0830 
 22 C       -7.5190    -5.1930    -0.7410 C.ar  1 <1>   0.0000 
 23 O       -9.9660    -3.8710     1.6410 O.3   1 <1>  -0.3630 
 24 C       -8.9300    -6.0290     1.5160 C.ar  1 <1>  -0.1500 
 25 C       -7.3360    -6.4820    -0.2110 C.ar  1 <1>  -0.1500 
 26 C      -10.8810    -4.2700     2.6370 C.3   1 <1>   0.0400 
 27 C       -8.0310    -6.8950     0.8910 C.ar  1 <1>  -0.1500 
 28 H       -4.5070    -3.0620     1.7870 H     1 <1>   0.0800 
 29 H       -5.9330    -3.7790     1.0900 H     1 <1>   0.0800 
 30 H       -5.8390    -1.9960    -0.5750 H     1 <1>   0.4500 
 31 H       -7.4490    -2.0400     1.2400 H     1 <1>   0.0800 
 32 H       -6.4910    -0.8080     2.0020 H     1 <1>   0.0800 
 33 H       -4.1550    -0.4070     1.1840 H     1 <1>   0.0800 
 34 H       -3.5550    -1.3850    -0.1300 H     1 <1>   0.0800 
 35 H       -8.5210    -0.3360     0.2990 H     1 <1>   0.0800 
 36 H       -3.8340     0.4120    -1.3460 H     1 <1>   0.0800 
 37 H       -7.7320     1.3550     1.6460 H     1 <1>   0.0800 
 38 H       -7.5560     1.9850     0.0310 H     1 <1>   0.0800 
 39 H       -5.4940     2.3030    -0.8020 H     1 <1>   0.0800 
 40 H       -4.1160     2.0440     0.2380 H     1 <1>   0.0800 
 41 H       -5.5020    -1.1020    -2.2430 H     1 <1>   0.0800 
 42 H       -5.7940     0.5580    -2.6290 H     1 <1>   0.0800 
 43 H       -9.0870    -0.8930    -1.9120 H     1 <1>   0.0800 
 44 H       -7.8550    -1.1040    -3.1100 H     1 <1>   0.0800 
 45 H       -6.4480    -3.0880    -3.1300 H     1 <1>   0.1500 
 46 H       -6.0940    -5.3940    -2.3430 H     1 <1>   0.1500 
 47 H       -9.4470    -6.3940     2.3830 H     1 <1>   0.1500 
 48 H       -6.6250    -7.1360    -0.6870 H     1 <1>   0.1500 
 49 H      -11.4980    -3.4240     2.8810 H     1 <1>   0.0800 
 50 H      -10.3360    -4.5880     3.5070 H     1 <1>   0.0800 
 51 H      -11.4920    -5.0670     2.2500 H     1 <1>   0.0800 
 52 H       -7.8860    -7.8850     1.2900 H     1 <1>   0.1500 
@<TRIPOS>BOND
  1   1   2  ar  
  2   2   3  ar  
  3   2   4  1   
  4   4   5  1   
  5   4  28  1   
  6   4  29  1   
  7   5   6  1   
  8   5   7  1   
  9   5  30  1   
 10   6   8  1   
 11   6  31  1   
 12   6  32  1   
 13   7   9  1   
 14   7  33  1   
 15   7  34  1   
 16   8  10  1   
 17   8  11  1   
 18   8  35  1   
 19   9  12  1   
 20   9  13  1   
 21   9  36  1   
 22  10  13  1   
 23  10  14  1   
 24  11  15  1   
 25  11  37  1   
 26  11  38  1   
 27  12  15  1   
 28  12  39  1   
 29  12  40  1   
 30  13  41  1   
 31  13  42  1   
 32  14  16  1   
 33  14  43  1   
 34  14  44  1   
 35  16  17  ar  
 36  16  18  ar  
 37  17  19  ar  
 38  18  20  ar  
 39  18  45  1   
 40  19  21  ar  
 41  19  22  ar  
 42  20  22  ar  
 43  20  46  1   
 44  21  23  1   
 45  21  24  ar  
 46  22  25  ar  
 47  23  26  1   
 48  24  27  ar  
 49  24  47  1   
 50  25  27  ar  
 51  25  48  1   
 52  26  49  1   
 53  26  50  1   
 54  26  51  1   
 55  27  52  1   
@<TRIPOS>SUBSTRUCTURE
  1 ****   5 GROUP 4 **** **** 0

# MOE 2024.06 (io_trps.svl 2023.06)
