@<TRIPOS>MOLECULE
NONAME
50 52 1 0 0 
SMALL
USER_CHARGES


@<TRIPOS>ATOM
  1 S        0.2960     0.8310     1.4060 S.o2  1 <1>   1.4470 
  2 O       -0.7090     0.1780     2.2190 O.2   1 <1>  -0.6500 
  3 O        1.0990     1.8660     2.0270 O.2   1 <1>  -0.6500 
  4 N       -0.5540     1.5710     0.1360 N.am  1 <1>  -0.8490 
  5 C        1.3390    -0.3840     0.5330 C.ar  1 <1>  -0.0090 
  6 C       -1.3290     2.7470     0.5660 C.3   1 <1>   0.1960 
  7 C       -1.3090     0.5950    -0.6700 C.3   1 <1>   0.1960 
  8 C        2.5140    -0.0490    -0.1460 C.ar  1 <1>  -0.1440 
  9 C        0.9180    -1.7080     0.4830 C.ar  1 <1>  -0.1500 
 10 C       -2.8100     2.4070     0.7370 C.3   1 <1>  -0.1600 
 11 C       -2.3870     1.2900    -1.5010 C.3   1 <1>  -0.1600 
 12 C        3.2260    -1.0280    -0.8210 C.ar  1 <1>  -0.1500 
 13 C        3.0490     1.3770    -0.1830 C.3   1 <1>  -0.0970 
 14 C        1.6000    -2.7060    -0.2130 C.ar  1 <1>  -0.1790 
 15 C       -3.4480     1.9760    -0.6080 C.3   1 <1>   0.2800 
 16 C        2.7770    -2.3320    -0.8540 C.ar  1 <1>  -0.1500 
 17 C        1.0940    -4.0710    -0.2790 C.2   1 <1>   0.9790 
 18 O       -3.8320     3.1150    -1.3310 O.3   1 <1>  -0.5600 
 19 C       -4.6700     1.0440    -0.4190 C.3   1 <1>  -0.1600 
 20 O        1.7650    -4.9730    -0.8110 O.co2 1 <1>  -0.9000 
 21 O       -0.0290    -4.3480     0.1790 O.co2 1 <1>  -0.9000 
 22 C       -4.9370     3.8690    -0.9150 C.3   1 <1>   0.1200 
 23 C       -5.9530     1.7540     0.0210 C.3   1 <1>   0.2800 
 24 C       -6.1840     2.9890    -0.8450 C.3   1 <1>  -0.1600 
 25 O       -5.8130     2.1600     1.3250 O.3   1 <1>  -0.6800 
 26 C       -7.1590     0.8170    -0.0040 C.3   1 <1>  -0.2400 
 27 H       -1.2340     3.5130    -0.1850 H     1 <1>   0.0800 
 28 H       -0.9350     3.1490     1.4850 H     1 <1>   0.0800 
 29 H       -1.7800    -0.1360    -0.0330 H     1 <1>   0.0800 
 30 H       -0.6290     0.0740    -1.3240 H     1 <1>   0.0800 
 31 H        0.0130    -1.9940     0.9950 H     1 <1>   0.1500 
 32 H       -3.3070     3.2530     1.1660 H     1 <1>   0.0800 
 33 H       -2.8810     1.6060     1.4530 H     1 <1>   0.0800 
 34 H       -2.8390     0.5690    -2.1550 H     1 <1>   0.0800 
 35 H       -1.8980     2.0190    -2.1230 H     1 <1>   0.0800 
 36 H        4.1380    -0.7830    -1.3350 H     1 <1>   0.1500 
 37 H        2.2720     2.0630    -0.4700 H     1 <1>   0.0800 
 38 H        3.8520     1.4710    -0.8920 H     1 <1>   0.0800 
 39 H        3.4210     1.6560     0.7870 H     1 <1>   0.0800 
 40 H        3.3340    -3.0850    -1.3860 H     1 <1>   0.1500 
 41 H       -4.4340     0.2490     0.2660 H     1 <1>   0.0800 
 42 H       -4.8830     0.5790    -1.3640 H     1 <1>   0.0800 
 43 H       -5.0810     4.6530    -1.6380 H     1 <1>   0.0800 
 44 H       -4.7250     4.3270     0.0340 H     1 <1>   0.0800 
 45 H       -6.4340     2.6840    -1.8450 H     1 <1>   0.0800 
 46 H       -7.0140     3.5560    -0.4630 H     1 <1>   0.0800 
 47 H       -4.9560     2.6090     1.4280 H     1 <1>   0.4000 
 48 H       -7.3350     0.4630    -1.0030 H     1 <1>   0.0800 
 49 H       -8.0400     1.3340     0.3330 H     1 <1>   0.0800 
 50 H       -6.9840    -0.0320     0.6320 H     1 <1>   0.0800 
@<TRIPOS>BOND
  1   1   2  2   
  2   1   3  2   
  3   1   4  am  
  4   1   5  1   
  5   4   6  1   
  6   4   7  1   
  7   5   8  ar  
  8   5   9  ar  
  9   6  10  1   
 10   6  27  1   
 11   6  28  1   
 12   7  11  1   
 13   7  29  1   
 14   7  30  1   
 15   8  12  ar  
 16   8  13  1   
 17   9  14  ar  
 18   9  31  1   
 19  10  15  1   
 20  10  32  1   
 21  10  33  1   
 22  11  15  1   
 23  11  34  1   
 24  11  35  1   
 25  12  16  ar  
 26  12  36  1   
 27  13  37  1   
 28  13  38  1   
 29  13  39  1   
 30  14  16  ar  
 31  14  17  1   
 32  15  18  1   
 33  15  19  1   
 34  16  40  1   
 35  17  20  ar  
 36  17  21  ar  
 37  18  22  1   
 38  19  23  1   
 39  19  41  1   
 40  19  42  1   
 41  22  24  1   
 42  22  43  1   
 43  22  44  1   
 44  23  24  1   
 45  23  25  1   
 46  23  26  1   
 47  24  45  1   
 48  24  46  1   
 49  25  47  1   
 50  26  48  1   
 51  26  49  1   
 52  26  50  1   
@<TRIPOS>SUBSTRUCTURE
  1 ****   7 GROUP 4 **** **** 0

# MOE 2024.06 (io_trps.svl 2023.06)
