@<TRIPOS>MOLECULE
NONAME
39 41 1 0 0 
SMALL
USER_CHARGES


@<TRIPOS>ATOM
  1 O        0.5760     0.4420    -0.8100 O.3   1 <1>  -0.2880 
  2 C        1.4510     1.0130    -0.0030 C.2   1 <1>  -0.0500 
  3 C        0.6350    -0.8590    -0.6050 C.2   1 <1>  -0.0200 
  4 C        2.0840     0.0780     0.7400 C.2   1 <1>  -0.1590 
  5 C        1.5800     2.5290    -0.0400 C.3   1 <1>   0.2820 
  6 C        1.5490    -1.1530     0.3430 C.2   1 <1>  -0.1590 
  7 N        2.8670     2.9940     0.5220 N.3   1 <1>  -0.8130 
  8 C        2.8330     4.4380     0.7960 C.3   1 <1>   0.1010 
  9 C        3.9920     2.6390    -0.3640 C.3   1 <1>   0.1010 
 10 C        4.1470     4.8950     1.4520 C.3   1 <1>   0.1590 
 11 C        5.3340     3.0530     0.2620 C.3   1 <1>   0.1590 
 12 N        5.3270     4.5070     0.6180 N.pl3 1 <1>  -0.5970 
 13 C        6.3230     5.3510     0.2690 C.cat 1 <1>   1.0690 
 14 N        7.5940     5.0130     0.2300 N.pl3 1 <1>  -0.7040 
 15 N        6.2590     6.6380    -0.0890 N.pl3 1 <1>  -0.4630 
 16 C        8.2860     6.1240    -0.1390 C.2   1 <1>   0.4790 
 17 N        7.5130     7.1210    -0.3420 N.2   1 <1>  -0.2680 
 18 C        5.0780     7.5010    -0.3280 C.3   1 <1>   0.2660 
 19 C        9.7930     6.1220    -0.2750 C.3   1 <1>  -0.0820 
 20 H       -0.0100    -1.5030    -1.1760 H     1 <1>   0.1410 
 21 H        2.8410     0.2250     1.4890 H     1 <1>   0.1410 
 22 H        0.7630     2.9410     0.5270 H     1 <1>   0.0700 
 23 H        1.4850     2.8670    -1.0580 H     1 <1>   0.0700 
 24 H        1.8300    -2.1140     0.7350 H     1 <1>   0.1410 
 25 H        2.0180     4.6510     1.4670 H     1 <1>   0.0700 
 26 H        2.6670     4.9830    -0.1180 H     1 <1>   0.0700 
 27 H        3.8730     3.1180    -1.3210 H     1 <1>   0.0700 
 28 H        4.0030     1.5750    -0.5280 H     1 <1>   0.0700 
 29 H        4.2270     4.4140     2.4130 H     1 <1>   0.0700 
 30 H        4.1220     5.9550     1.6240 H     1 <1>   0.0700 
 31 H        6.1240     2.8350    -0.4350 H     1 <1>   0.0700 
 32 H        5.4950     2.4670     1.1520 H     1 <1>   0.0700 
 33 H        7.9710     4.1060     0.4800 H     1 <1>   0.4430 
 34 H        4.2260     6.9040    -0.6040 H     1 <1>   0.0700 
 35 H        5.2890     8.1880    -1.1300 H     1 <1>   0.0700 
 36 H        4.8530     8.0640     0.5600 H     1 <1>   0.0700 
 37 H       10.0950     5.4070    -1.0180 H     1 <1>   0.0700 
 38 H       10.2480     5.8700     0.6660 H     1 <1>   0.0700 
 39 H       10.1370     7.0960    -0.5740 H     1 <1>   0.0700 
@<TRIPOS>BOND
  1   1   2  1   
  2   1   3  1   
  3   2   4  2   
  4   2   5  1   
  5   3   6  2   
  6   3  20  1   
  7   4   6  1   
  8   4  21  1   
  9   5   7  1   
 10   5  22  1   
 11   5  23  1   
 12   6  24  1   
 13   7   8  1   
 14   7   9  1   
 15   8  10  1   
 16   8  25  1   
 17   8  26  1   
 18   9  11  1   
 19   9  27  1   
 20   9  28  1   
 21  10  12  1   
 22  10  29  1   
 23  10  30  1   
 24  11  12  1   
 25  11  31  1   
 26  11  32  1   
 27  12  13  ar  
 28  13  14  ar  
 29  13  15  ar  
 30  14  16  1   
 31  14  33  1   
 32  15  17  1   
 33  15  18  1   
 34  16  17  2   
 35  16  19  1   
 36  18  34  1   
 37  18  35  1   
 38  18  36  1   
 39  19  37  1   
 40  19  38  1   
 41  19  39  1   
@<TRIPOS>SUBSTRUCTURE
  1 ****  11 GROUP 4 **** **** 0

# MOE 2024.06 (io_trps.svl 2023.06)
