@<TRIPOS>MOLECULE
NONAME
46 49 1 0 0 
SMALL
USER_CHARGES


@<TRIPOS>ATOM
  1 O       -2.3870     0.6990    -2.4800 O.2   1 <1>  -0.5700 
  2 C       -2.1440     1.0000    -1.3290 C.2   1 <1>   0.5440 
  3 N       -2.3300     0.0280    -0.3690 N.am  1 <1>  -0.6600 
  4 C       -1.7930     2.3620    -0.9860 C.ar  1 <1>   0.0860 
  5 C       -3.0690     0.3250     0.8930 C.3   1 <1>   0.1400 
  6 C       -2.3900    -1.4090    -0.7660 C.3   1 <1>   0.1400 
  7 C       -0.7220     2.7160    -0.1640 C.ar  1 <1>  -0.1440 
  8 C       -2.5850     3.3950    -1.4850 C.ar  1 <1>   0.1600 
  9 C       -4.5480    -0.1270     0.7860 C.3   1 <1>   0.4230 
 10 C       -3.8580    -1.8370    -0.9310 C.3   1 <1>   0.3430 
 11 C       -0.5650     4.0570     0.1210 C.ar  1 <1>  -0.1500 
 12 C        0.2650     1.7010     0.3980 C.3   1 <1>  -0.0970 
 13 N       -2.4530     4.6800    -1.2070 N.ar  1 <1>  -0.6200 
 14 N       -4.6740    -1.5690     0.3170 N.4   1 <1>  -0.9590 
 15 C       -5.3470     0.8250    -0.1370 C.3   1 <1>   0.1200 
 16 C       -1.4440     4.9840    -0.4100 C.ar  1 <1>   0.1600 
 17 C       -6.1270    -1.9100     0.1490 C.3   1 <1>   0.5180 
 18 O       -6.6830     0.4150    -0.2190 O.3   1 <1>  -0.5600 
 19 C       -6.2700    -3.3390    -0.3880 C.3   1 <1>  -0.1950 
 20 C       -6.8680    -0.8770    -0.7280 C.3   1 <1>   0.1200 
 21 C       -7.3620    -4.2260     0.1240 C.3   1 <1>  -0.2000 
 22 C       -5.9290    -4.5340     0.4500 C.3   1 <1>  -0.2000 
 23 H       -2.5930    -0.1900     1.7090 H     1 <1>   0.0800 
 24 H       -3.0300     1.3780     1.1140 H     1 <1>   0.0800 
 25 H       -1.8660    -1.5590    -1.6950 H     1 <1>   0.0800 
 26 H       -1.9060    -2.0130    -0.0190 H     1 <1>   0.0800 
 27 H       -3.3870     3.1330    -2.1550 H     1 <1>   0.1500 
 28 H       -4.9830    -0.0410     1.7680 H     1 <1>   0.0800 
 29 H       -3.8880    -2.8870    -1.1730 H     1 <1>   0.0800 
 30 H       -4.2710    -1.2940    -1.7650 H     1 <1>   0.0800 
 31 H        0.2380     4.3970     0.7510 H     1 <1>   0.1500 
 32 H        1.1780     2.1850     0.6980 H     1 <1>   0.0800 
 33 H        0.5120     0.9650    -0.3470 H     1 <1>   0.0800 
 34 H       -0.1540     1.2050     1.2540 H     1 <1>   0.0800 
 35 H       -4.3170    -2.1840     1.0540 H     1 <1>   0.4500 
 36 H       -4.9350     0.8550    -1.1310 H     1 <1>   0.0800 
 37 H       -5.3410     1.8250     0.2630 H     1 <1>   0.0800 
 38 H       -1.3070     6.0260    -0.1730 H     1 <1>   0.1500 
 39 H       -6.5920    -1.8850     1.1210 H     1 <1>   0.0800 
 40 H       -6.1010    -3.4020    -1.4500 H     1 <1>   0.1000 
 41 H       -7.9250    -1.0810    -0.7220 H     1 <1>   0.0800 
 42 H       -6.5220    -0.9030    -1.7470 H     1 <1>   0.0800 
 43 H       -8.0040    -3.8960     0.9250 H     1 <1>   0.1000 
 44 H       -7.8780    -4.8770    -0.5640 H     1 <1>   0.1000 
 45 H       -5.4850    -5.3990    -0.0160 H     1 <1>   0.1000 
 46 H       -5.6260    -4.4280     1.4780 H     1 <1>   0.1000 
@<TRIPOS>BOND
  1   1   2  2   
  2   2   3  am  
  3   2   4  1   
  4   3   5  1   
  5   3   6  1   
  6   4   7  ar  
  7   4   8  ar  
  8   5   9  1   
  9   5  23  1   
 10   5  24  1   
 11   6  10  1   
 12   6  25  1   
 13   6  26  1   
 14   7  11  ar  
 15   7  12  1   
 16   8  13  ar  
 17   8  27  1   
 18   9  14  1   
 19   9  15  1   
 20   9  28  1   
 21  10  14  1   
 22  10  29  1   
 23  10  30  1   
 24  11  16  ar  
 25  11  31  1   
 26  12  32  1   
 27  12  33  1   
 28  12  34  1   
 29  13  16  ar  
 30  14  17  1   
 31  14  35  1   
 32  15  18  1   
 33  15  36  1   
 34  15  37  1   
 35  16  38  1   
 36  17  19  1   
 37  17  20  1   
 38  17  39  1   
 39  18  20  1   
 40  19  21  1   
 41  19  22  1   
 42  19  40  1   
 43  20  41  1   
 44  20  42  1   
 45  21  22  1   
 46  21  43  1   
 47  21  44  1   
 48  22  45  1   
 49  22  46  1   
@<TRIPOS>SUBSTRUCTURE
  1 ****   3 GROUP 4 **** **** 0

# MOE 2024.06 (io_trps.svl 2023.06)
