@<TRIPOS>MOLECULE
NONAME
49 51 1 0 0 
SMALL
USER_CHARGES


@<TRIPOS>ATOM
  1 N        0.1020     0.3030    -1.1480 N.pl3 1 <1>   0.0330 
  2 C       -0.8700     0.6270    -0.2600 C.ar  1 <1>  -0.1520 
  3 C        0.3280     1.4340    -1.8720 C.2   1 <1>   0.0060 
  4 C       -1.2050     1.9390    -0.5290 C.ar  1 <1>   0.2270 
  5 C       -1.5000    -0.0840     0.7620 C.ar  1 <1>  -0.1500 
  6 N       -0.4270     2.4290    -1.5360 N.2   1 <1>  -0.5650 
  7 C        1.3830     1.5390    -2.9670 C.3   1 <1>   0.5230 
  8 C       -2.2070     2.5690     0.2060 C.ar  1 <1>  -0.1500 
  9 C       -2.4790     0.5460     1.4990 C.ar  1 <1>  -0.1440 
 10 N        1.7940     2.9760    -3.0070 N.4   1 <1>  -0.9590 
 11 C       -2.8330     1.8720     1.2150 C.ar  1 <1>  -0.1500 
 12 C       -3.1990    -0.1800     2.6220 C.3   1 <1>  -0.0970 
 13 C        2.7820     3.2920    -1.9320 C.3   1 <1>   0.3430 
 14 C        2.2480     3.3940    -4.3700 C.3   1 <1>   0.2630 
 15 C        2.5450     4.6810    -1.3190 C.3   1 <1>  -0.1600 
 16 C        1.3900     4.6950    -0.3000 C.3   1 <1>   0.4230 
 17 N        1.0930     6.0320     0.2800 N.4   1 <1>  -0.9590 
 18 C        1.6100     3.8070     0.9220 C.3   1 <1>  -0.1600 
 19 C        0.2210     5.7420     1.4560 C.3   1 <1>   0.3430 
 20 C        2.2850     6.8310     0.7220 C.3   1 <1>   0.2630 
 21 C        0.6920     4.3930     1.9950 C.3   1 <1>  -0.1600 
 22 H        0.5290    -0.6260    -1.2290 H     1 <1>   0.2700 
 23 H       -1.2240    -1.1050     0.9620 H     1 <1>   0.1500 
 24 H        0.9410     1.2480    -3.9060 H     1 <1>   0.0800 
 25 H        2.2280     0.9030    -2.7600 H     1 <1>   0.0800 
 26 H       -2.4810     3.5790    -0.0310 H     1 <1>   0.1500 
 27 H        0.8920     3.4350    -2.7810 H     1 <1>   0.4500 
 28 H       -3.6120     2.3410     1.7930 H     1 <1>   0.1500 
 29 H       -3.0570     0.3450     3.5500 H     1 <1>   0.0800 
 30 H       -2.8250    -1.1810     2.7360 H     1 <1>   0.0800 
 31 H       -4.2520    -0.2300     2.4090 H     1 <1>   0.0800 
 32 H        2.7240     2.5530    -1.1480 H     1 <1>   0.0800 
 33 H        3.7780     3.2480    -2.3440 H     1 <1>   0.0800 
 34 H        3.1450     2.8660    -4.6490 H     1 <1>   0.0800 
 35 H        2.4530     4.4530    -4.3890 H     1 <1>   0.0800 
 36 H        1.4830     3.1850    -5.1010 H     1 <1>   0.0800 
 37 H        2.3650     5.3970    -2.1010 H     1 <1>   0.0800 
 38 H        3.4550     4.9560    -0.8180 H     1 <1>   0.0800 
 39 H        0.4930     4.3610    -0.7910 H     1 <1>   0.0800 
 40 H        0.5510     6.5910    -0.3950 H     1 <1>   0.4500 
 41 H        1.3620     2.7800     0.7170 H     1 <1>   0.0800 
 42 H        2.6340     3.8580     1.2490 H     1 <1>   0.0800 
 43 H        0.2880     6.5150     2.2050 H     1 <1>   0.0800 
 44 H       -0.8050     5.6540     1.1350 H     1 <1>   0.0800 
 45 H        2.8670     6.2720     1.4370 H     1 <1>   0.0800 
 46 H        1.9650     7.7510     1.1860 H     1 <1>   0.0800 
 47 H        2.9100     7.0750    -0.1200 H     1 <1>   0.0800 
 48 H        1.2170     4.5200     2.9260 H     1 <1>   0.0800 
 49 H       -0.1600     3.7570     2.1700 H     1 <1>   0.0800 
@<TRIPOS>BOND
  1   1   2  1   
  2   1   3  1   
  3   1  22  1   
  4   2   4  ar  
  5   2   5  ar  
  6   3   6  2   
  7   3   7  1   
  8   4   6  1   
  9   4   8  ar  
 10   5   9  ar  
 11   5  23  1   
 12   7  10  1   
 13   7  24  1   
 14   7  25  1   
 15   8  11  ar  
 16   8  26  1   
 17   9  11  ar  
 18   9  12  1   
 19  10  13  1   
 20  10  14  1   
 21  10  27  1   
 22  11  28  1   
 23  12  29  1   
 24  12  30  1   
 25  12  31  1   
 26  13  15  1   
 27  13  32  1   
 28  13  33  1   
 29  14  34  1   
 30  14  35  1   
 31  14  36  1   
 32  15  16  1   
 33  15  37  1   
 34  15  38  1   
 35  16  17  1   
 36  16  18  1   
 37  16  39  1   
 38  17  19  1   
 39  17  20  1   
 40  17  40  1   
 41  18  21  1   
 42  18  41  1   
 43  18  42  1   
 44  19  21  1   
 45  19  43  1   
 46  19  44  1   
 47  20  45  1   
 48  20  46  1   
 49  20  47  1   
 50  21  48  1   
 51  21  49  1   
@<TRIPOS>SUBSTRUCTURE
  1 ****   6 GROUP 4 **** **** 0

# MOE 2024.06 (io_trps.svl 2023.06)
