@<TRIPOS>MOLECULE
NONAME
57 60 1 0 0 
SMALL
USER_CHARGES


@<TRIPOS>ATOM
  1 O       -3.7370    -0.0990    -2.6790 O.2   1 <1>  -0.5700 
  2 C       -4.1890    -0.5210    -1.6230 C.2   1 <1>   0.5440 
  3 N       -5.5610    -0.5720    -1.4200 N.am  1 <1>  -0.2980 
  4 C       -3.3390    -0.9770    -0.5590 C.ar  1 <1>   0.0860 
  5 N       -6.1480    -1.0670    -0.2880 N.2   1 <1>  -0.5120 
  6 C       -6.4770    -0.0930    -2.4800 C.3   1 <1>   0.0600 
  7 C       -3.9450    -1.4720     0.6090 C.ar  1 <1>   0.0860 
  8 C       -1.9440    -0.9360    -0.6500 C.ar  1 <1>  -0.1500 
  9 C       -5.3870    -1.5060     0.6540 C.2   1 <1>   0.3030 
 10 C       -3.1040    -1.8920     1.6530 C.ar  1 <1>  -0.1500 
 11 C       -1.1450    -1.3620     0.3860 C.ar  1 <1>  -0.1500 
 12 C       -6.1050    -2.0930     1.8590 C.3   1 <1>  -0.0380 
 13 C       -1.7320    -1.8410     1.5460 C.ar  1 <1>  -0.1500 
 14 C       -5.9010    -3.5930     1.9380 C.2   1 <1>   0.5690 
 15 O       -5.2870    -4.0060     2.8930 O.2   1 <1>  -0.5700 
 16 N       -6.3770    -4.4440     0.9730 N.am  1 <1>  -0.6600 
 17 C       -7.2000    -4.0380    -0.2120 C.3   1 <1>   0.1400 
 18 C       -5.9880    -5.8890     0.9550 C.3   1 <1>   0.1400 
 19 C       -8.3050    -5.0660    -0.5390 C.3   1 <1>   0.2950 
 20 C       -7.1730    -6.7990     0.5710 C.3   1 <1>   0.2000 
 21 O       -7.7580    -6.3490    -0.6160 O.3   1 <1>  -0.5600 
 22 C       -9.0430    -4.8080    -1.8650 C.3   1 <1>  -0.1950 
 23 C       -6.7590    -8.2570     0.3310 C.3   1 <1>  -0.1600 
 24 C       -8.3600    -4.4240    -3.1420 C.3   1 <1>  -0.2000 
 25 C       -9.2530    -3.4390    -2.4410 C.3   1 <1>  -0.2000 
 26 C       -6.2210    -8.9470     1.5960 C.3   1 <1>  -0.1600 
 27 C       -5.9150   -10.4250     1.3260 C.3   1 <1>  -0.1600 
 28 C       -5.3760   -11.1140     2.5820 C.3   1 <1>  -0.2400 
 29 H       -6.2200     0.9160    -2.7470 H     1 <1>   0.0800 
 30 H       -7.4940    -0.1190    -2.1310 H     1 <1>   0.0800 
 31 H       -6.3810    -0.7230    -3.3460 H     1 <1>   0.0800 
 32 H       -1.4930    -0.5590    -1.5540 H     1 <1>   0.1500 
 33 H       -3.5180    -2.2670     2.5710 H     1 <1>   0.1500 
 34 H       -0.0720    -1.3240     0.3020 H     1 <1>   0.1500 
 35 H       -7.1570    -1.8890     1.8080 H     1 <1>   0.0800 
 36 H       -5.7400    -1.6290     2.7550 H     1 <1>   0.0800 
 37 H       -1.1100    -2.1740     2.3600 H     1 <1>   0.1500 
 38 H       -7.6810    -3.0970    -0.0280 H     1 <1>   0.0800 
 39 H       -6.5510    -3.9220    -1.0600 H     1 <1>   0.0800 
 40 H       -5.1930    -6.0270     0.2430 H     1 <1>   0.0800 
 41 H       -5.6180    -6.1830     1.9210 H     1 <1>   0.0800 
 42 H       -9.0290    -5.0610     0.2580 H     1 <1>   0.0800 
 43 H       -7.9200    -6.7670     1.3460 H     1 <1>   0.0800 
 44 H       -9.8710    -5.4890    -1.9610 H     1 <1>   0.1000 
 45 H       -7.6230    -8.7960    -0.0160 H     1 <1>   0.0800 
 46 H       -6.0120    -8.2890    -0.4420 H     1 <1>   0.0800 
 47 H       -7.2970    -4.2600    -3.1460 H     1 <1>   0.1000 
 48 H       -8.7010    -4.8810    -4.0550 H     1 <1>   0.1000 
 49 H      -10.2080    -3.2080    -2.8810 H     1 <1>   0.1000 
 50 H       -8.7900    -2.5730    -2.0000 H     1 <1>   0.1000 
 51 H       -5.3210    -8.4600     1.9280 H     1 <1>   0.0800 
 52 H       -6.9530    -8.8750     2.3830 H     1 <1>   0.0800 
 53 H       -6.8100   -10.9280     1.0030 H     1 <1>   0.0800 
 54 H       -5.1850   -10.5050     0.5370 H     1 <1>   0.0800 
 55 H       -6.0980   -11.0650     3.3780 H     1 <1>   0.0800 
 56 H       -4.4660   -10.6420     2.9100 H     1 <1>   0.0800 
 57 H       -5.1680   -12.1490     2.3730 H     1 <1>   0.0800 
@<TRIPOS>BOND
  1   1   2  2   
  2   2   3  am  
  3   2   4  1   
  4   3   5  1   
  5   3   6  1   
  6   4   7  ar  
  7   4   8  ar  
  8   5   9  2   
  9   6  29  1   
 10   6  30  1   
 11   6  31  1   
 12   7   9  1   
 13   7  10  ar  
 14   8  11  ar  
 15   8  32  1   
 16   9  12  1   
 17  10  13  ar  
 18  10  33  1   
 19  11  13  ar  
 20  11  34  1   
 21  12  14  1   
 22  12  35  1   
 23  12  36  1   
 24  13  37  1   
 25  14  15  2   
 26  14  16  am  
 27  16  17  1   
 28  16  18  1   
 29  17  19  1   
 30  17  38  1   
 31  17  39  1   
 32  18  20  1   
 33  18  40  1   
 34  18  41  1   
 35  19  21  1   
 36  19  22  1   
 37  19  42  1   
 38  20  21  1   
 39  20  23  1   
 40  20  43  1   
 41  22  24  1   
 42  22  25  1   
 43  22  44  1   
 44  23  26  1   
 45  23  45  1   
 46  23  46  1   
 47  24  25  1   
 48  24  47  1   
 49  24  48  1   
 50  25  49  1   
 51  25  50  1   
 52  26  27  1   
 53  26  51  1   
 54  26  52  1   
 55  27  28  1   
 56  27  53  1   
 57  27  54  1   
 58  28  55  1   
 59  28  56  1   
 60  28  57  1   
@<TRIPOS>SUBSTRUCTURE
  1 ****  16 GROUP 4 **** **** 0

# MOE 2024.06 (io_trps.svl 2023.06)
