@<TRIPOS>MOLECULE
NONAME
39 40 1 0 0 
SMALL
USER_CHARGES


@<TRIPOS>ATOM
  1 N       -0.2050    -1.5030    -0.3550 N.ar  1 <1>  -0.6200 
  2 C       -0.0060    -2.4420     0.5540 C.ar  1 <1>   0.7200 
  3 C        0.7920    -1.2810    -1.1730 C.ar  1 <1>   0.1660 
  4 N        1.0790    -3.1900     0.7200 N.ar  1 <1>  -0.6200 
  5 N       -1.0570    -2.6510     1.3720 N.pl3 1 <1>  -0.8690 
  6 C        1.9690    -1.9870    -1.0860 C.ar  1 <1>  -0.1500 
  7 C        0.5910    -0.2090    -2.2230 C.3   1 <1>  -0.0970 
  8 C        2.0660    -2.9470    -0.1060 C.ar  1 <1>   0.1670 
  9 C       -1.2620    -3.8050     2.2530 C.3   1 <1>   0.4690 
 10 C        3.3230    -3.7730     0.0640 C.3   1 <1>  -0.0960 
 11 C       -2.4600    -4.6190     1.7600 C.2   1 <1>   0.0060 
 12 C       -1.4560    -3.2590     3.6660 C.3   1 <1>  -0.2400 
 13 N       -3.6030    -4.7240     2.3520 N.2   1 <1>  -0.5650 
 14 N       -2.4410    -5.3400     0.6260 N.pl3 1 <1>   0.3140 
 15 C       -4.2640    -5.5420     1.5270 C.2   1 <1>   0.3660 
 16 N       -3.6160    -5.9430     0.4870 N.2   1 <1>  -0.7070 
 17 C       -1.3630    -5.5230    -0.3730 C.3   1 <1>   0.0960 
 18 C       -1.6350    -4.6950    -1.6380 C.3   1 <1>  -0.1600 
 19 C       -0.4740    -4.8010    -2.6330 C.3   1 <1>  -0.2400 
 20 H       -1.8930    -2.1220     1.1370 H     1 <1>   0.4000 
 21 H        2.7830    -1.7940    -1.7590 H     1 <1>   0.1500 
 22 H       -0.2500    -0.4650    -2.8400 H     1 <1>   0.0800 
 23 H        1.4620    -0.1080    -2.8440 H     1 <1>   0.0800 
 24 H        0.3940     0.7310    -1.7420 H     1 <1>   0.0800 
 25 H       -0.3930    -4.4400     2.2570 H     1 <1>   0.0800 
 26 H        3.7190    -3.6240     1.0520 H     1 <1>   0.0800 
 27 H        4.0700    -3.4930    -0.6550 H     1 <1>   0.0800 
 28 H        3.0900    -4.8150    -0.0620 H     1 <1>   0.0800 
 29 H       -2.3160    -2.6160     3.7030 H     1 <1>   0.0800 
 30 H       -0.5820    -2.7120     3.9700 H     1 <1>   0.0800 
 31 H       -1.6090    -4.0740     4.3490 H     1 <1>   0.0800 
 32 H       -5.2790    -5.8360     1.7400 H     1 <1>   0.1500 
 33 H       -1.3190    -6.5660    -0.6260 H     1 <1>   0.0800 
 34 H       -0.4240    -5.2430     0.0630 H     1 <1>   0.0800 
 35 H       -1.7750    -3.6620    -1.3710 H     1 <1>   0.0800 
 36 H       -2.5390    -5.0470    -2.1050 H     1 <1>   0.0800 
 37 H        0.4350    -4.4360    -2.1880 H     1 <1>   0.0800 
 38 H       -0.6870    -4.2090    -3.5060 H     1 <1>   0.0800 
 39 H       -0.3290    -5.8220    -2.9380 H     1 <1>   0.0800 
@<TRIPOS>BOND
  1   1   2  ar  
  2   1   3  ar  
  3   2   4  ar  
  4   2   5  1   
  5   3   6  ar  
  6   3   7  1   
  7   4   8  ar  
  8   5   9  1   
  9   5  20  1   
 10   6   8  ar  
 11   6  21  1   
 12   7  22  1   
 13   7  23  1   
 14   7  24  1   
 15   8  10  1   
 16   9  11  1   
 17   9  12  1   
 18   9  25  1   
 19  10  26  1   
 20  10  27  1   
 21  10  28  1   
 22  11  13  2   
 23  11  14  1   
 24  12  29  1   
 25  12  30  1   
 26  12  31  1   
 27  13  15  1   
 28  14  16  1   
 29  14  17  1   
 30  15  16  2   
 31  15  32  1   
 32  17  18  1   
 33  17  33  1   
 34  17  34  1   
 35  18  19  1   
 36  18  35  1   
 37  18  36  1   
 38  19  37  1   
 39  19  38  1   
 40  19  39  1   
@<TRIPOS>SUBSTRUCTURE
  1 ****   2 GROUP 4 **** **** 0

# MOE 2024.06 (io_trps.svl 2023.06)
