@<TRIPOS>MOLECULE
NONAME
47 49 1 0 0 
SMALL
USER_CHARGES


@<TRIPOS>ATOM
  1 S        0.9570     0.8970     2.1980 S.3   1 <1>  -0.0800 
  2 C        0.6430    -0.2710     0.9400 C.2   1 <1>   0.1980 
  3 C        1.9920     1.7600     1.0980 C.2   1 <1>  -0.1400 
  4 N        1.2400    -0.0400    -0.1630 N.2   1 <1>  -0.5650 
  5 C       -0.2920    -1.4250     1.2570 C.3   1 <1>   0.5230 
  6 C        2.0070     1.1110    -0.0810 C.2   1 <1>   0.0460 
  7 C        2.6560     3.0160     1.6330 C.3   1 <1>  -0.0600 
  8 N       -0.4550    -2.2380     0.0060 N.4   1 <1>  -0.9590 
  9 C        2.7710     1.4980    -1.3310 C.3   1 <1>  -0.0590 
 10 C       -1.7690    -2.1320    -0.6860 C.3   1 <1>   0.4230 
 11 C       -0.0080    -3.6490     0.1900 C.3   1 <1>   0.2630 
 12 C       -2.9550    -2.6140     0.1470 C.3   1 <1>  -0.1600 
 13 C       -2.1360    -0.7050    -1.0780 C.3   1 <1>  -0.1600 
 14 C       -4.1770    -1.9900    -0.5420 C.3   1 <1>  -0.0800 
 15 C       -3.6510    -0.7530    -1.3090 C.3   1 <1>  -0.0800 
 16 C       -5.3470    -1.7120     0.4250 C.3   1 <1>   0.1400 
 17 C       -4.3670     0.5590    -0.9370 C.3   1 <1>  -0.0990 
 18 N       -6.3070    -0.7720    -0.1990 N.am  1 <1>  -0.6600 
 19 C       -5.8650     0.3410    -0.8610 C.2   1 <1>   0.5690 
 20 C       -7.7540    -1.0720    -0.0230 C.3   1 <1>   0.0600 
 21 O       -6.5990     1.1460    -1.3780 O.2   1 <1>  -0.5700 
 22 H       -1.2380    -1.0360     1.5900 H     1 <1>   0.0800 
 23 H        0.1390    -2.0200     2.0440 H     1 <1>   0.0800 
 24 H        3.2720     3.4750     0.8820 H     1 <1>   0.0800 
 25 H        3.2710     2.7720     2.4800 H     1 <1>   0.0800 
 26 H        1.9070     3.7230     1.9420 H     1 <1>   0.0800 
 27 H        0.2290    -1.7690    -0.6240 H     1 <1>   0.4500 
 28 H        3.3350     2.3980    -1.1760 H     1 <1>   0.0800 
 29 H        2.0840     1.6570    -2.1410 H     1 <1>   0.0800 
 30 H        3.4490     0.7080    -1.6000 H     1 <1>   0.0800 
 31 H       -1.7390    -2.7190    -1.5910 H     1 <1>   0.0800 
 32 H       -0.6620    -4.1650     0.8740 H     1 <1>   0.0800 
 33 H        0.9970    -3.6760     0.5810 H     1 <1>   0.0800 
 34 H       -0.0190    -4.1690    -0.7550 H     1 <1>   0.0800 
 35 H       -3.0260    -3.6870     0.1550 H     1 <1>   0.0800 
 36 H       -2.8890    -2.2480     1.1550 H     1 <1>   0.0800 
 37 H       -1.9210    -0.0110    -0.2860 H     1 <1>   0.0800 
 38 H       -1.6180    -0.3940    -1.9690 H     1 <1>   0.0800 
 39 H       -4.5390    -2.6910    -1.2770 H     1 <1>   0.0800 
 40 H       -3.8330    -0.9290    -2.3580 H     1 <1>   0.0800 
 41 H       -4.9870    -1.2660     1.3360 H     1 <1>   0.0800 
 42 H       -5.8420    -2.6360     0.6730 H     1 <1>   0.0800 
 43 H       -4.1540     1.3180    -1.6680 H     1 <1>   0.0800 
 44 H       -4.0440     0.9170     0.0230 H     1 <1>   0.0800 
 45 H       -7.9890    -2.0200    -0.4750 H     1 <1>   0.0800 
 46 H       -8.3580    -0.3120    -0.4900 H     1 <1>   0.0800 
 47 H       -7.9960    -1.1060     1.0250 H     1 <1>   0.0800 
@<TRIPOS>BOND
  1   1   2  1   
  2   1   3  1   
  3   2   4  2   
  4   2   5  1   
  5   3   6  2   
  6   3   7  1   
  7   4   6  1   
  8   5   8  1   
  9   5  22  1   
 10   5  23  1   
 11   6   9  1   
 12   7  24  1   
 13   7  25  1   
 14   7  26  1   
 15   8  10  1   
 16   8  11  1   
 17   8  27  1   
 18   9  28  1   
 19   9  29  1   
 20   9  30  1   
 21  10  12  1   
 22  10  13  1   
 23  10  31  1   
 24  11  32  1   
 25  11  33  1   
 26  11  34  1   
 27  12  14  1   
 28  12  35  1   
 29  12  36  1   
 30  13  15  1   
 31  13  37  1   
 32  13  38  1   
 33  14  15  1   
 34  14  16  1   
 35  14  39  1   
 36  15  17  1   
 37  15  40  1   
 38  16  18  1   
 39  16  41  1   
 40  16  42  1   
 41  17  19  1   
 42  17  43  1   
 43  17  44  1   
 44  18  19  am  
 45  18  20  1   
 46  19  21  2   
 47  20  45  1   
 48  20  46  1   
 49  20  47  1   
@<TRIPOS>SUBSTRUCTURE
  1 ****  13 GROUP 4 **** **** 0

# MOE 2024.06 (io_trps.svl 2023.06)
