@<TRIPOS>MOLECULE
NONAME
48 50 1 0 0 
SMALL
USER_CHARGES


@<TRIPOS>ATOM
  1 O        0.9020    -1.7000     1.9610 O.3   1 <1>  -0.5600 
  2 C        0.4210    -1.6320     0.6530 C.3   1 <1>   0.2000 
  3 C       -0.0730    -1.5530     2.9490 C.3   1 <1>   0.0400 
  4 C        1.5860    -1.4370    -0.3280 C.3   1 <1>   0.0000 
  5 C       -0.2570    -2.9420     0.2380 C.3   1 <1>  -0.1600 
  6 C        2.7920    -2.3160     0.1000 C.3   1 <1>   0.3430 
  7 C        1.9840     0.0510    -0.4450 C.3   1 <1>  -0.1600 
  8 C        0.9960    -1.9810    -1.6390 C.3   1 <1>  -0.1600 
  9 C        0.1280    -3.1750    -1.2290 C.3   1 <1>  -0.1600 
 10 N        4.1120    -1.6260    -0.0680 N.4   1 <1>  -0.9590 
 11 C        3.1900     0.2520    -1.3840 C.3   1 <1>  -0.1600 
 12 C        4.2070    -0.8970    -1.3610 C.3   1 <1>   0.3430 
 13 C        5.2490    -2.5540     0.1630 C.3   1 <1>   0.4860 
 14 C        6.5330    -1.7500     0.1960 C.ar  1 <1>  -0.1440 
 15 C        7.4230    -1.8100    -0.8670 C.ar  1 <1>  -0.1500 
 16 C        6.8270    -0.9420     1.2840 C.ar  1 <1>  -0.1500 
 17 C        8.5850    -1.0600    -0.8450 C.ar  1 <1>  -0.1500 
 18 C        7.9910    -0.1930     1.3010 C.ar  1 <1>  -0.1500 
 19 C        8.8730    -0.2460     0.2360 C.ar  1 <1>  -0.1440 
 20 C       10.1510     0.5740     0.2580 C.3   1 <1>  -0.0970 
 21 H       -0.2710    -0.8100     0.5670 H     1 <1>   0.0800 
 22 H        0.4090    -1.6110     3.9090 H     1 <1>   0.0800 
 23 H       -0.7980    -2.3450     2.8630 H     1 <1>   0.0800 
 24 H       -0.5490    -0.5930     2.8420 H     1 <1>   0.0800 
 25 H        0.0940    -3.7610     0.8420 H     1 <1>   0.0800 
 26 H       -1.3250    -2.8560     0.3400 H     1 <1>   0.0800 
 27 H        2.7780    -3.2230    -0.4820 H     1 <1>   0.0800 
 28 H        2.6850    -2.6020     1.1330 H     1 <1>   0.0800 
 29 H        1.1520     0.6430    -0.7900 H     1 <1>   0.0800 
 30 H        2.2400     0.4120     0.5370 H     1 <1>   0.0800 
 31 H        0.3580    -1.2350    -2.0850 H     1 <1>   0.0800 
 32 H        1.7440    -2.2610    -2.3600 H     1 <1>   0.0800 
 33 H        0.6860    -4.0920    -1.3170 H     1 <1>   0.0800 
 34 H       -0.7450    -3.2480    -1.8560 H     1 <1>   0.0800 
 35 H        4.1680    -0.9060     0.6620 H     1 <1>   0.4500 
 36 H        3.6890     1.1690    -1.1240 H     1 <1>   0.0800 
 37 H        2.8430     0.3660    -2.3960 H     1 <1>   0.0800 
 38 H        5.1990    -0.4960    -1.5020 H     1 <1>   0.0800 
 39 H        4.0000    -1.5780    -2.1710 H     1 <1>   0.0800 
 40 H        5.1250    -3.0630     1.1050 H     1 <1>   0.0800 
 41 H        5.2950    -3.2900    -0.6220 H     1 <1>   0.0800 
 42 H        7.2280    -2.4380    -1.7190 H     1 <1>   0.1500 
 43 H        6.1640    -0.8850     2.1310 H     1 <1>   0.1500 
 44 H        9.2720    -1.1140    -1.6740 H     1 <1>   0.1500 
 45 H        8.2120     0.4310     2.1510 H     1 <1>   0.1500 
 46 H       10.4400     0.8510    -0.7400 H     1 <1>   0.0800 
 47 H       10.9450     0.0000     0.7020 H     1 <1>   0.0800 
 48 H       10.0130     1.4740     0.8310 H     1 <1>   0.0800 
@<TRIPOS>BOND
  1   1   2  1   
  2   1   3  1   
  3   2   4  1   
  4   2   5  1   
  5   2  21  1   
  6   3  22  1   
  7   3  23  1   
  8   3  24  1   
  9   4   6  1   
 10   4   7  1   
 11   4   8  1   
 12   5   9  1   
 13   5  25  1   
 14   5  26  1   
 15   6  10  1   
 16   6  27  1   
 17   6  28  1   
 18   7  11  1   
 19   7  29  1   
 20   7  30  1   
 21   8   9  1   
 22   8  31  1   
 23   8  32  1   
 24   9  33  1   
 25   9  34  1   
 26  10  12  1   
 27  10  13  1   
 28  10  35  1   
 29  11  12  1   
 30  11  36  1   
 31  11  37  1   
 32  12  38  1   
 33  12  39  1   
 34  13  14  1   
 35  13  40  1   
 36  13  41  1   
 37  14  15  ar  
 38  14  16  ar  
 39  15  17  ar  
 40  15  42  1   
 41  16  18  ar  
 42  16  43  1   
 43  17  19  ar  
 44  17  44  1   
 45  18  19  ar  
 46  18  45  1   
 47  19  20  1   
 48  20  46  1   
 49  20  47  1   
 50  20  48  1   
@<TRIPOS>SUBSTRUCTURE
  1 ****  10 GROUP 4 **** **** 0

# MOE 2024.06 (io_trps.svl 2023.06)
