@<TRIPOS>MOLECULE
NONAME
59 62 1 0 0 
SMALL
USER_CHARGES


@<TRIPOS>ATOM
  1 O        1.4050     0.0490     1.3990 O.co2 1 <1>  -0.9000 
  2 C        1.5820     0.6380     0.3200 C.2   1 <1>   0.9060 
  3 O        0.8010     1.4990    -0.0800 O.co2 1 <1>  -0.9000 
  4 C        2.8230     0.2870    -0.5250 C.3   1 <1>  -0.1060 
  5 C        3.9710    -0.1200     0.4240 C.3   1 <1>   0.4230 
  6 C        3.2910     1.5180    -1.3480 C.3   1 <1>  -0.1600 
  7 C        2.5160    -0.8750    -1.4990 C.3   1 <1>  -0.1600 
  8 N        3.6030    -1.3790     1.1660 N.4   1 <1>  -0.9590 
  9 C        4.3620     1.0750     1.3320 C.3   1 <1>   0.2090 
 10 C        3.6810     2.6990    -0.4500 C.3   1 <1>   0.2090 
 11 C        2.2510    -2.1870    -0.7440 C.3   1 <1>  -0.1600 
 12 C        3.3650    -2.5230     0.2490 C.3   1 <1>   0.3430 
 13 C        4.4740    -1.7360     2.3160 C.3   1 <1>   0.2630 
 14 N        4.7450     2.2600     0.5020 N.pl3 1 <1>  -0.8380 
 15 C        6.0220     2.7070     0.4230 C.ar  1 <1>   0.4100 
 16 N        6.9400     1.7790     0.2290 N.ar  1 <1>  -0.6200 
 17 C        6.3430     4.0870     0.5300 C.ar  1 <1>  -0.1430 
 18 C        8.1880     2.1780     0.0480 C.ar  1 <1>   0.7710 
 19 C        7.6370     4.4580     0.3180 C.ar  1 <1>   0.2180 
 20 C        5.2530     5.0990     0.9080 C.3   1 <1>  -0.0970 
 21 N        8.5330     3.4730     0.0750 N.ar  1 <1>  -0.1790 
 22 N        9.1540     1.2530    -0.1790 N.pl3 1 <1>  -0.8380 
 23 C        8.1800     5.8820     0.3380 C.3   1 <1>  -0.0970 
 24 C       10.6210     1.4660    -0.3360 C.3   1 <1>   0.2090 
 25 C        8.8380    -0.1960    -0.3060 C.3   1 <1>   0.2090 
 26 C       11.2300     0.0720    -0.2830 C.3   1 <1>  -0.1600 
 27 C       10.1260    -0.8480    -0.7880 C.3   1 <1>  -0.1600 
 28 H        4.8360    -0.3330    -0.1800 H     1 <1>   0.0800 
 29 H        2.4960     1.8360    -2.0000 H     1 <1>   0.0800 
 30 H        4.1340     1.2630    -1.9650 H     1 <1>   0.0800 
 31 H        1.6510    -0.6230    -2.0920 H     1 <1>   0.0800 
 32 H        3.3450    -1.0180    -2.1710 H     1 <1>   0.0800 
 33 H        2.6510    -1.1070     1.5380 H     1 <1>   0.4500 
 34 H        5.1950     0.8060     1.9540 H     1 <1>   0.0800 
 35 H        3.5370     1.3480     1.9680 H     1 <1>   0.0800 
 36 H        2.8240     3.0530     0.1000 H     1 <1>   0.0800 
 37 H        4.0380     3.5040    -1.0680 H     1 <1>   0.0800 
 38 H        2.1530    -2.9920    -1.4510 H     1 <1>   0.0800 
 39 H        1.3170    -2.1170    -0.2120 H     1 <1>   0.0800 
 40 H        4.2710    -2.7500    -0.2880 H     1 <1>   0.0800 
 41 H        3.0780    -3.3920     0.8180 H     1 <1>   0.0800 
 42 H        5.4810    -1.9210     1.9800 H     1 <1>   0.0800 
 43 H        4.0980    -2.6220     2.8010 H     1 <1>   0.0800 
 44 H        4.4840    -0.9360     3.0370 H     1 <1>   0.0800 
 45 H        5.6520     5.9270     1.4650 H     1 <1>   0.0800 
 46 H        4.5090     4.6400     1.5360 H     1 <1>   0.0800 
 47 H        4.7670     5.4760     0.0260 H     1 <1>   0.0800 
 48 H        9.5110     3.6650    -0.0950 H     1 <1>   0.4570 
 49 H        7.3940     6.6080     0.2490 H     1 <1>   0.0800 
 50 H        8.8520     6.0410    -0.4860 H     1 <1>   0.0800 
 51 H        8.7080     6.0650     1.2580 H     1 <1>   0.0800 
 52 H       10.8210     1.9090    -1.2980 H     1 <1>   0.0800 
 53 H       11.0230     2.0820     0.4510 H     1 <1>   0.0800 
 54 H        8.5630    -0.5850     0.6610 H     1 <1>   0.0800 
 55 H        8.0320    -0.3620    -1.0030 H     1 <1>   0.0800 
 56 H       12.1240     0.0010    -0.8780 H     1 <1>   0.0800 
 57 H       11.4710    -0.1720     0.7370 H     1 <1>   0.0800 
 58 H       10.2290    -1.8530    -0.4200 H     1 <1>   0.0800 
 59 H       10.1290    -0.8690    -1.8640 H     1 <1>   0.0800 
@<TRIPOS>BOND
  1   1   2  ar  
  2   2   3  ar  
  3   2   4  1   
  4   4   5  1   
  5   4   6  1   
  6   4   7  1   
  7   5   8  1   
  8   5   9  1   
  9   5  28  1   
 10   6  10  1   
 11   6  29  1   
 12   6  30  1   
 13   7  11  1   
 14   7  31  1   
 15   7  32  1   
 16   8  12  1   
 17   8  13  1   
 18   8  33  1   
 19   9  14  1   
 20   9  34  1   
 21   9  35  1   
 22  10  14  1   
 23  10  36  1   
 24  10  37  1   
 25  11  12  1   
 26  11  38  1   
 27  11  39  1   
 28  12  40  1   
 29  12  41  1   
 30  13  42  1   
 31  13  43  1   
 32  13  44  1   
 33  14  15  1   
 34  15  16  ar  
 35  15  17  ar  
 36  16  18  ar  
 37  17  19  ar  
 38  17  20  1   
 39  18  21  ar  
 40  18  22  1   
 41  19  21  ar  
 42  19  23  1   
 43  20  45  1   
 44  20  46  1   
 45  20  47  1   
 46  21  48  1   
 47  22  24  1   
 48  22  25  1   
 49  23  49  1   
 50  23  50  1   
 51  23  51  1   
 52  24  26  1   
 53  24  52  1   
 54  24  53  1   
 55  25  27  1   
 56  25  54  1   
 57  25  55  1   
 58  26  27  1   
 59  26  56  1   
 60  26  57  1   
 61  27  58  1   
 62  27  59  1   
@<TRIPOS>SUBSTRUCTURE
  1 ****  14 GROUP 4 **** **** 0

# MOE 2024.06 (io_trps.svl 2023.06)
