@<TRIPOS>MOLECULE
NONAME
52 55 1 0 0 
SMALL
USER_CHARGES


@<TRIPOS>ATOM
  1 O        1.5290    -0.1040    -2.1350 O.2   1 <1>  -0.5700 
  2 C        1.9900    -0.8170    -1.2520 C.2   1 <1>   0.6160 
  3 N        2.6290    -0.2660    -0.1530 N.am  1 <1>  -0.4690 
  4 C        1.8660    -2.2260    -1.3210 C.2   1 <1>  -0.1360 
  5 C        3.1290    -1.0890     0.8370 C.2   1 <1>  -0.0410 
  6 C        2.8020     1.2040    -0.0410 C.3   1 <1>   0.1400 
  7 C        2.3320    -3.0560    -0.3390 C.2   1 <1>   0.0140 
  8 C        2.9940    -2.4370     0.7620 C.2   1 <1>  -0.1500 
  9 C        4.1410     1.6120    -0.6520 C.3   1 <1>  -0.2400 
 10 C        2.1920    -4.4990    -0.3800 C.2   1 <1>   0.6160 
 11 O        3.1310    -5.1960    -0.0440 O.2   1 <1>  -0.5700 
 12 N        1.0210    -5.1040    -0.7810 N.am  1 <1>  -0.6600 
 13 C       -0.3310    -4.4780    -0.6430 C.3   1 <1>   0.1400 
 14 C        0.9550    -6.5660    -1.0890 C.3   1 <1>   0.1400 
 15 C       -1.2040    -5.2650     0.3540 C.3   1 <1>   0.1900 
 16 C        0.0490    -7.2990    -0.0870 C.3   1 <1>   0.1100 
 17 N       -1.3010    -6.6930    -0.0370 N.3   1 <1>  -0.8100 
 18 C       -2.6080    -4.6360     0.4540 C.3   1 <1>   0.1200 
 19 C       -2.1920    -7.4130     0.9050 C.3   1 <1>   0.3330 
 20 O       -3.3980    -5.3450     1.3650 O.3   1 <1>  -0.5600 
 21 C       -2.4160    -8.8560     0.4550 C.ar  1 <1>  -0.1430 
 22 C       -3.5550    -6.6970     1.0240 C.3   1 <1>   0.1200 
 23 C       -2.7550    -9.1490    -0.8590 C.ar  1 <1>  -0.1500 
 24 C       -2.2870    -9.8960     1.3650 C.ar  1 <1>  -0.1500 
 25 C       -2.9630   -10.4580    -1.2570 C.ar  1 <1>  -0.1500 
 26 C       -2.4940   -11.2060     0.9690 C.ar  1 <1>  -0.1500 
 27 C       -2.8320   -11.4880    -0.3430 C.ar  1 <1>  -0.1500 
 28 H        1.3820    -2.6120    -2.1980 H     1 <1>   0.1500 
 29 H        3.6330    -0.6200     1.6670 H     1 <1>   0.1500 
 30 H        1.9970     1.7080    -0.5500 H     1 <1>   0.0800 
 31 H        2.7680     1.4910     0.9960 H     1 <1>   0.0800 
 32 H        3.3890    -3.0810     1.5300 H     1 <1>   0.1500 
 33 H        4.1650     1.3500    -1.6950 H     1 <1>   0.0800 
 34 H        4.9530     1.1250    -0.1420 H     1 <1>   0.0800 
 35 H        4.2700     2.6750    -0.5660 H     1 <1>   0.0800 
 36 H       -0.2460    -3.4640    -0.2960 H     1 <1>   0.0800 
 37 H       -0.8130    -4.4660    -1.6050 H     1 <1>   0.0800 
 38 H        0.5590    -6.7000    -2.0800 H     1 <1>   0.0800 
 39 H        1.9370    -7.0050    -1.0680 H     1 <1>   0.0800 
 40 H       -0.7430    -5.1910     1.3250 H     1 <1>   0.0800 
 41 H        0.5060    -7.2710     0.8870 H     1 <1>   0.0800 
 42 H       -0.0240    -8.3300    -0.3900 H     1 <1>   0.0800 
 43 H       -3.0980    -4.6430    -0.5050 H     1 <1>   0.0800 
 44 H       -2.5410    -3.6210     0.8040 H     1 <1>   0.0800 
 45 H       -1.7380    -7.4180     1.8810 H     1 <1>   0.0800 
 46 H       -4.1480    -7.1630     1.7900 H     1 <1>   0.0800 
 47 H       -4.0900    -6.7560     0.0920 H     1 <1>   0.0800 
 48 H       -2.8510    -8.3510    -1.5750 H     1 <1>   0.1500 
 49 H       -2.0250    -9.6930     2.3890 H     1 <1>   0.1500 
 50 H       -3.2240   -10.6740    -2.2780 H     1 <1>   0.1500 
 51 H       -2.3920   -12.0060     1.6800 H     1 <1>   0.1500 
 52 H       -2.9930   -12.5060    -0.6520 H     1 <1>   0.1500 
@<TRIPOS>BOND
  1   1   2  2   
  2   2   3  am  
  3   2   4  1   
  4   3   5  1   
  5   3   6  1   
  6   4   7  2   
  7   4  28  1   
  8   5   8  2   
  9   5  29  1   
 10   6   9  1   
 11   6  30  1   
 12   6  31  1   
 13   7   8  1   
 14   7  10  1   
 15   8  32  1   
 16   9  33  1   
 17   9  34  1   
 18   9  35  1   
 19  10  11  2   
 20  10  12  am  
 21  12  13  1   
 22  12  14  1   
 23  13  15  1   
 24  13  36  1   
 25  13  37  1   
 26  14  16  1   
 27  14  38  1   
 28  14  39  1   
 29  15  17  1   
 30  15  18  1   
 31  15  40  1   
 32  16  17  1   
 33  16  41  1   
 34  16  42  1   
 35  17  19  1   
 36  18  20  1   
 37  18  43  1   
 38  18  44  1   
 39  19  21  1   
 40  19  22  1   
 41  19  45  1   
 42  20  22  1   
 43  21  23  ar  
 44  21  24  ar  
 45  22  46  1   
 46  22  47  1   
 47  23  25  ar  
 48  23  48  1   
 49  24  26  ar  
 50  24  49  1   
 51  25  27  ar  
 52  25  50  1   
 53  26  27  ar  
 54  26  51  1   
 55  27  52  1   
@<TRIPOS>SUBSTRUCTURE
  1 ****  13 GROUP 4 **** **** 0

# MOE 2024.06 (io_trps.svl 2023.06)
