@<TRIPOS>MOLECULE
NONAME
53 56 1 0 0 
SMALL
USER_CHARGES


@<TRIPOS>ATOM
  1 F       -0.8540    -2.0420    -1.3790 F     1 <1>  -0.1900 
  2 C       -2.0560    -2.1860    -0.8890 C.ar  1 <1>   0.1900 
  3 C       -2.8360    -1.0630    -0.6950 C.ar  1 <1>  -0.1500 
  4 C       -2.5050    -3.4560    -0.5840 C.ar  1 <1>  -0.1500 
  5 C       -4.1100    -1.2210    -0.1760 C.ar  1 <1>  -0.1500 
  6 C       -3.7810    -3.6020    -0.0660 C.ar  1 <1>  -0.1500 
  7 C       -4.5870    -2.4880     0.1390 C.ar  1 <1>  -0.1430 
  8 C       -5.9860    -2.6620     0.7080 C.3   1 <1>  -0.0160 
  9 C       -6.9720    -3.0490    -0.4030 C.3   1 <1>  -0.0990 
 10 C       -8.3830    -3.2170     0.1270 C.2   1 <1>   0.5690 
 11 O       -8.9400    -4.2790    -0.0250 O.2   1 <1>  -0.5700 
 12 N       -9.0590    -2.1830     0.7150 N.am  1 <1>  -0.6600 
 13 C      -10.1350    -2.4710     1.7290 C.3   1 <1>   0.1400 
 14 C       -9.0920    -0.8130     0.1340 C.3   1 <1>   0.1400 
 15 C      -11.5490    -2.5730     1.1040 C.3   1 <1>   0.4230 
 16 C      -10.3860    -0.5470    -0.6770 C.3   1 <1>  -0.0800 
 17 N      -11.4300    -2.9000    -0.3650 N.4   1 <1>  -0.9590 
 18 C      -12.4160    -1.3320     1.4040 C.3   1 <1>   0.1200 
 19 C      -11.3920     0.3470     0.0680 C.3   1 <1>   0.1200 
 20 C      -11.0890    -1.7750    -1.2950 C.3   1 <1>   0.3430 
 21 C      -12.5430    -3.7470    -0.8870 C.3   1 <1>   0.5240 
 22 O      -11.6800    -0.1460     1.3310 O.3   1 <1>  -0.5600 
 23 C      -12.7310    -5.0020    -0.0440 C.2   1 <1>   0.0460 
 24 N      -13.5250    -4.9900     1.0460 N.2   1 <1>  -0.5650 
 25 C      -12.1840    -6.2250    -0.2260 C.2   1 <1>  -0.3020 
 26 C      -13.4500    -6.2020     1.4980 C.2   1 <1>   0.0360 
 27 N      -12.6470    -7.0050     0.7690 N.pl3 1 <1>   0.0330 
 28 H       -2.4490    -0.0910    -0.9430 H     1 <1>   0.1500 
 29 H       -1.8680    -4.3070    -0.7490 H     1 <1>   0.1500 
 30 H       -4.7240    -0.3520    -0.0170 H     1 <1>   0.1500 
 31 H       -4.1420    -4.5870     0.1780 H     1 <1>   0.1500 
 32 H       -5.9740    -3.4300     1.4630 H     1 <1>   0.0800 
 33 H       -6.3000    -1.7480     1.1810 H     1 <1>   0.0800 
 34 H       -6.6560    -3.9810    -0.8360 H     1 <1>   0.0800 
 35 H       -6.9560    -2.3130    -1.1840 H     1 <1>   0.0800 
 36 H       -9.9160    -3.4110     2.2060 H     1 <1>   0.0800 
 37 H      -10.1150    -1.7240     2.5040 H     1 <1>   0.0800 
 38 H       -8.9980    -0.0910     0.9300 H     1 <1>   0.0800 
 39 H       -8.2440    -0.6760    -0.5120 H     1 <1>   0.0800 
 40 H      -12.0280    -3.3930     1.6050 H     1 <1>   0.0800 
 41 H      -10.0810     0.0520    -1.5160 H     1 <1>   0.0800 
 42 H      -10.5950    -3.5230    -0.3560 H     1 <1>   0.4500 
 43 H      -12.7690    -1.4040     2.4180 H     1 <1>   0.0800 
 44 H      -13.2750    -1.2740     0.7580 H     1 <1>   0.0800 
 45 H      -12.3130     0.4630    -0.4800 H     1 <1>   0.0800 
 46 H      -10.9670     1.3260     0.2110 H     1 <1>   0.0800 
 47 H      -10.4560    -2.1660    -2.0760 H     1 <1>   0.0800 
 48 H      -11.9940    -1.4280    -1.7660 H     1 <1>   0.0800 
 49 H      -13.4660    -3.1910    -0.8900 H     1 <1>   0.0800 
 50 H      -12.3230    -4.0470    -1.8980 H     1 <1>   0.0800 
 51 H      -11.5060    -6.5830    -0.9820 H     1 <1>   0.1500 
 52 H      -13.9710    -6.5590     2.3710 H     1 <1>   0.1500 
 53 H      -12.4430    -7.9950     0.9400 H     1 <1>   0.2700 
@<TRIPOS>BOND
  1   1   2  1   
  2   2   3  ar  
  3   2   4  ar  
  4   3   5  ar  
  5   3  28  1   
  6   4   6  ar  
  7   4  29  1   
  8   5   7  ar  
  9   5  30  1   
 10   6   7  ar  
 11   6  31  1   
 12   7   8  1   
 13   8   9  1   
 14   8  32  1   
 15   8  33  1   
 16   9  10  1   
 17   9  34  1   
 18   9  35  1   
 19  10  11  2   
 20  10  12  am  
 21  12  13  1   
 22  12  14  1   
 23  13  15  1   
 24  13  36  1   
 25  13  37  1   
 26  14  16  1   
 27  14  38  1   
 28  14  39  1   
 29  15  17  1   
 30  15  18  1   
 31  15  40  1   
 32  16  19  1   
 33  16  20  1   
 34  16  41  1   
 35  17  20  1   
 36  17  21  1   
 37  17  42  1   
 38  18  22  1   
 39  18  43  1   
 40  18  44  1   
 41  19  22  1   
 42  19  45  1   
 43  19  46  1   
 44  20  47  1   
 45  20  48  1   
 46  21  23  1   
 47  21  49  1   
 48  21  50  1   
 49  23  24  1   
 50  23  25  2   
 51  24  26  2   
 52  25  27  1   
 53  25  51  1   
 54  26  27  1   
 55  26  52  1   
 56  27  53  1   
@<TRIPOS>SUBSTRUCTURE
  1 ****  10 GROUP 4 **** **** 0

# MOE 2024.06 (io_trps.svl 2023.06)
