@<TRIPOS>MOLECULE
NONAME
35 37 1 0 0 
SMALL
USER_CHARGES


@<TRIPOS>ATOM
  1 S       -0.8680    -0.1450     1.1680 S.3   1 <1>  -0.0800 
  2 C       -0.6460    -1.8720     0.8860 C.ar  1 <1>   0.2970 
  3 C       -2.2070    -0.0780     0.0190 C.2   1 <1>  -0.1100 
  4 N        0.2750    -2.5930     1.4870 N.ar  1 <1>  -0.5670 
  5 C       -1.5600    -2.3270    -0.0300 C.ar  1 <1>   0.0000 
  6 C       -2.4370    -1.2910    -0.5140 C.2   1 <1>  -0.1500 
  7 C        0.2520    -3.8590     1.1210 C.ar  1 <1>   0.4770 
  8 C       -1.4740    -3.6860    -0.3210 C.ar  1 <1>   0.4100 
  9 N       -0.5680    -4.4520     0.2620 N.ar  1 <1>  -0.6200 
 10 C        1.2810    -4.7590     1.7630 C.3   1 <1>  -0.0960 
 11 N       -2.3460    -4.2770    -1.1990 N.pl3 1 <1>  -0.8690 
 12 C       -2.3140    -5.6970    -1.5970 C.3   1 <1>   0.3890 
 13 C       -3.1140    -6.4740    -0.5830 C.2   1 <1>  -0.3320 
 14 N       -2.7910    -6.4560     0.7210 N.pl3 1 <1>   0.3000 
 15 C       -4.1950    -7.2740    -0.7050 C.2   1 <1>  -0.1500 
 16 N       -3.6250    -7.2210     1.4550 N.2   1 <1>  -0.7070 
 17 C       -4.4680    -7.7080     0.5910 C.2   1 <1>   0.1080 
 18 C       -5.6040    -8.6410     0.9910 C.3   1 <1>   0.3010 
 19 O       -6.3890    -8.9850    -0.1180 O.3   1 <1>  -0.5600 
 20 C       -7.4460    -9.8370     0.1830 C.3   1 <1>   0.0400 
 21 H       -2.6760     0.8790    -0.1300 H     1 <1>   0.1500 
 22 H       -3.1950    -1.5180    -1.2430 H     1 <1>   0.1500 
 23 H        2.0150    -4.1780     2.2910 H     1 <1>   0.0800 
 24 H        1.7760    -5.3390     1.0070 H     1 <1>   0.0800 
 25 H        0.7950    -5.4210     2.4540 H     1 <1>   0.0800 
 26 H       -3.2730    -3.8600    -1.2940 H     1 <1>   0.4000 
 27 H       -1.2980    -6.0550    -1.6290 H     1 <1>   0.0800 
 28 H       -2.7450    -5.8070    -2.5780 H     1 <1>   0.0800 
 29 H       -2.0130    -5.9060     1.1140 H     1 <1>   0.2700 
 30 H       -4.7560    -7.5460    -1.5820 H     1 <1>   0.1500 
 31 H       -6.2260    -8.1490     1.7170 H     1 <1>   0.0800 
 32 H       -5.1920    -9.5390     1.4160 H     1 <1>   0.0800 
 33 H       -7.9830   -10.0380    -0.7280 H     1 <1>   0.0800 
 34 H       -8.1010    -9.3560     0.8900 H     1 <1>   0.0800 
 35 H       -7.0590   -10.7560     0.5870 H     1 <1>   0.0800 
@<TRIPOS>BOND
  1   1   2  1   
  2   1   3  1   
  3   2   4  ar  
  4   2   5  ar  
  5   3   6  2   
  6   3  21  1   
  7   4   7  ar  
  8   5   6  1   
  9   5   8  ar  
 10   6  22  1   
 11   7   9  ar  
 12   7  10  1   
 13   8   9  ar  
 14   8  11  1   
 15  10  23  1   
 16  10  24  1   
 17  10  25  1   
 18  11  12  1   
 19  11  26  1   
 20  12  13  1   
 21  12  27  1   
 22  12  28  1   
 23  13  14  1   
 24  13  15  2   
 25  14  16  1   
 26  14  29  1   
 27  15  17  1   
 28  15  30  1   
 29  16  17  2   
 30  17  18  1   
 31  18  19  1   
 32  18  31  1   
 33  18  32  1   
 34  19  20  1   
 35  20  33  1   
 36  20  34  1   
 37  20  35  1   
@<TRIPOS>SUBSTRUCTURE
  1 ****  11 GROUP 4 **** **** 0

# MOE 2024.06 (io_trps.svl 2023.06)
