@<TRIPOS>MOLECULE
NONAME
39 41 1 0 0 
SMALL
USER_CHARGES


@<TRIPOS>ATOM
  1 O       -0.8090     0.6530     0.7050 O.2   1 <1>  -0.5700 
  2 C       -1.7650     0.9870     0.0270 C.2   1 <1>   0.7150 
  3 N       -2.9170     0.2360     0.1290 N.am  1 <1>  -0.6600 
  4 C       -1.6750     2.1290    -0.8530 C.2   1 <1>   0.0550 
  5 C       -4.2760     0.6810    -0.2680 C.3   1 <1>   0.1400 
  6 C       -3.0080    -0.9580     1.0050 C.3   1 <1>   0.1400 
  7 O       -0.8290     3.1050    -0.6020 O.3   1 <1>  -0.0190 
  8 C       -2.3110     2.4780    -1.9960 C.2   1 <1>  -0.1500 
  9 C       -5.2220    -0.1090     0.6390 C.3   1 <1>  -0.0800 
 10 C       -4.4620    -1.4230     0.8870 C.3   1 <1>  -0.0800 
 11 N       -0.8720     4.0600    -1.4820 N.2   1 <1>  -0.4100 
 12 C       -1.7610     3.7040    -2.3380 C.2   1 <1>   0.1390 
 13 C       -6.6640    -0.2850     0.1020 C.3   1 <1>   0.2800 
 14 C       -4.6030    -2.4250    -0.2790 C.3   1 <1>  -0.1600 
 15 O       -7.0800     0.9220    -0.4120 O.3   1 <1>  -0.6800 
 16 C       -6.7150    -1.2940    -1.0590 C.3   1 <1>  -0.1600 
 17 C       -7.6690    -0.6770     1.2130 C.3   1 <1>  -0.1600 
 18 C       -6.0610    -2.6360    -0.6970 C.3   1 <1>  -0.1600 
 19 C       -7.9610     0.3910     2.2870 C.3   1 <1>  -0.2400 
 20 H       -4.4010     1.7410    -0.1270 H     1 <1>   0.0800 
 21 H       -4.4430     0.4300    -1.3000 H     1 <1>   0.0800 
 22 H       -2.3090    -1.7160     0.6940 H     1 <1>   0.0800 
 23 H       -2.7870    -0.6670     2.0190 H     1 <1>   0.0800 
 24 H       -3.0680     1.9490    -2.5440 H     1 <1>   0.1500 
 25 H       -5.2600     0.4230     1.5700 H     1 <1>   0.0800 
 26 H       -4.7870    -1.8890     1.8000 H     1 <1>   0.0800 
 27 H       -2.0310     4.2870    -3.2010 H     1 <1>   0.1500 
 28 H       -4.0540    -2.0680    -1.1340 H     1 <1>   0.0800 
 29 H       -4.1720    -3.3690     0.0070 H     1 <1>   0.0800 
 30 H       -7.3750     1.4880     0.3250 H     1 <1>   0.4000 
 31 H       -7.7370    -1.4650    -1.3490 H     1 <1>   0.0800 
 32 H       -6.2040    -0.8840    -1.9120 H     1 <1>   0.0800 
 33 H       -8.6030    -0.9470     0.7520 H     1 <1>   0.0800 
 34 H       -7.3080    -1.5590     1.7100 H     1 <1>   0.0800 
 35 H       -6.6050    -3.1130     0.0990 H     1 <1>   0.0800 
 36 H       -6.0960    -3.2900    -1.5510 H     1 <1>   0.0800 
 37 H       -8.4090     1.2680     1.8530 H     1 <1>   0.0800 
 38 H       -7.0720     0.6750     2.8180 H     1 <1>   0.0800 
 39 H       -8.6570    -0.0090     3.0040 H     1 <1>   0.0800 
@<TRIPOS>BOND
  1   1   2  2   
  2   2   3  am  
  3   2   4  1   
  4   3   5  1   
  5   3   6  1   
  6   4   7  1   
  7   4   8  2   
  8   5   9  1   
  9   5  20  1   
 10   5  21  1   
 11   6  10  1   
 12   6  22  1   
 13   6  23  1   
 14   7  11  1   
 15   8  12  1   
 16   8  24  1   
 17   9  10  1   
 18   9  13  1   
 19   9  25  1   
 20  10  14  1   
 21  10  26  1   
 22  11  12  2   
 23  12  27  1   
 24  13  15  1   
 25  13  16  1   
 26  13  17  1   
 27  14  18  1   
 28  14  28  1   
 29  14  29  1   
 30  15  30  1   
 31  16  18  1   
 32  16  31  1   
 33  16  32  1   
 34  17  19  1   
 35  17  33  1   
 36  17  34  1   
 37  18  35  1   
 38  18  36  1   
 39  19  37  1   
 40  19  38  1   
 41  19  39  1   
@<TRIPOS>SUBSTRUCTURE
  1 ****   5 GROUP 4 **** **** 0

# MOE 2024.06 (io_trps.svl 2023.06)
