@<TRIPOS>MOLECULE
NONAME
46 47 1 0 0 
SMALL
USER_CHARGES


@<TRIPOS>ATOM
  1 N        0.0240    -0.2370    -0.4980 N.ar  1 <1>  -0.6200 
  2 C       -0.1860    -1.4890    -0.1740 C.ar  1 <1>   0.4100 
  3 C        0.9870     0.3740     0.1660 C.ar  1 <1>   0.4760 
  4 N       -1.1860    -2.0840    -0.8810 N.pl3 1 <1>  -0.8690 
  5 C        0.5570    -2.1160     0.8070 C.ar  1 <1>  -0.1500 
  6 N        1.7620    -0.1230     1.1150 N.ar  1 <1>  -0.6200 
  7 C        1.2420     1.8160    -0.1970 C.3   1 <1>  -0.0970 
  8 C       -1.2670    -3.5210    -1.2070 C.3   1 <1>   0.2090 
  9 C        1.5300    -1.3820     1.4280 C.ar  1 <1>   0.1600 
 10 C       -2.3700    -4.1780    -0.3570 C.3   1 <1>  -0.0800 
 11 C       -2.4680    -5.6840    -0.6470 C.3   1 <1>  -0.1600 
 12 C       -3.7470    -3.5210    -0.5790 C.3   1 <1>  -0.1600 
 13 C       -3.5920    -6.3430     0.1550 C.3   1 <1>   0.3430 
 14 C       -4.8420    -4.2170     0.2260 C.3   1 <1>   0.3430 
 15 N       -4.8910    -5.6640    -0.1330 N.4   1 <1>  -0.9590 
 16 C       -6.0360    -6.3230     0.5540 C.3   1 <1>   0.3430 
 17 C       -6.3490    -7.6720    -0.0950 C.3   1 <1>  -0.1600 
 18 C       -7.6000    -8.2990     0.5340 C.3   1 <1>  -0.1600 
 19 C       -7.9210    -9.6480    -0.1140 C.3   1 <1>  -0.2400 
 20 H       -1.5400    -1.4530    -1.6070 H     1 <1>   0.4000 
 21 H        0.3730    -3.1350     1.0740 H     1 <1>   0.1500 
 22 H        0.4980     2.1710    -0.8860 H     1 <1>   0.0800 
 23 H        2.2110     1.9020    -0.6520 H     1 <1>   0.0800 
 24 H        1.2140     2.4200     0.6900 H     1 <1>   0.0800 
 25 H       -0.3170    -3.9920    -1.0170 H     1 <1>   0.0800 
 26 H       -1.4870    -3.6300    -2.2560 H     1 <1>   0.0800 
 27 H        2.1380    -1.8250     2.1990 H     1 <1>   0.1500 
 28 H       -2.0950    -4.0520     0.6770 H     1 <1>   0.0800 
 29 H       -1.5380    -6.1600    -0.3890 H     1 <1>   0.0800 
 30 H       -2.6360    -5.8540    -1.6970 H     1 <1>   0.0800 
 31 H       -4.0040    -3.5300    -1.6230 H     1 <1>   0.0800 
 32 H       -3.7090    -2.4910    -0.2670 H     1 <1>   0.0800 
 33 H       -3.3720    -6.2730     1.2090 H     1 <1>   0.0800 
 34 H       -3.6510    -7.3870    -0.1080 H     1 <1>   0.0800 
 35 H       -5.7910    -3.7500     0.0150 H     1 <1>   0.0800 
 36 H       -4.6360    -4.1080     1.2790 H     1 <1>   0.0800 
 37 H       -5.0590    -5.7220    -1.1460 H     1 <1>   0.4500 
 38 H       -6.9110    -5.6960     0.4780 H     1 <1>   0.0800 
 39 H       -5.8140    -6.4600     1.6010 H     1 <1>   0.0800 
 40 H       -5.5260    -8.3510     0.0370 H     1 <1>   0.0800 
 41 H       -6.5240    -7.5350    -1.1480 H     1 <1>   0.0800 
 42 H       -8.4460    -7.6430     0.4070 H     1 <1>   0.0800 
 43 H       -7.4490    -8.4480     1.5900 H     1 <1>   0.0800 
 44 H       -8.1070    -9.5320    -1.1680 H     1 <1>   0.0800 
 45 H       -8.8010   -10.0730     0.3380 H     1 <1>   0.0800 
 46 H       -7.1080   -10.3400     0.0200 H     1 <1>   0.0800 
@<TRIPOS>BOND
  1   1   2  ar  
  2   1   3  ar  
  3   2   4  1   
  4   2   5  ar  
  5   3   6  ar  
  6   3   7  1   
  7   4   8  1   
  8   4  20  1   
  9   5   9  ar  
 10   5  21  1   
 11   6   9  ar  
 12   7  22  1   
 13   7  23  1   
 14   7  24  1   
 15   8  10  1   
 16   8  25  1   
 17   8  26  1   
 18   9  27  1   
 19  10  11  1   
 20  10  12  1   
 21  10  28  1   
 22  11  13  1   
 23  11  29  1   
 24  11  30  1   
 25  12  14  1   
 26  12  31  1   
 27  12  32  1   
 28  13  15  1   
 29  13  33  1   
 30  13  34  1   
 31  14  15  1   
 32  14  35  1   
 33  14  36  1   
 34  15  16  1   
 35  15  37  1   
 36  16  17  1   
 37  16  38  1   
 38  16  39  1   
 39  17  18  1   
 40  17  40  1   
 41  17  41  1   
 42  18  19  1   
 43  18  42  1   
 44  18  43  1   
 45  19  44  1   
 46  19  45  1   
 47  19  46  1   
@<TRIPOS>SUBSTRUCTURE
  1 ****  10 GROUP 4 **** **** 0

# MOE 2024.06 (io_trps.svl 2023.06)
