@<TRIPOS>MOLECULE
NONAME
45 47 1 0 0 
SMALL
USER_CHARGES


@<TRIPOS>ATOM
  1 O       -2.3260     0.8630    -0.5430 O.co2 1 <1>  -0.9000 
  2 C       -1.3750     1.1720     0.1910 C.2   1 <1>   0.9060 
  3 O       -0.5570     0.3620     0.6260 O.co2 1 <1>  -0.9000 
  4 C       -1.2740     2.6520     0.5910 C.3   1 <1>   0.3170 
  5 N       -2.6400     3.3460     0.5520 N.4   1 <1>  -0.9590 
  6 C       -0.2600     3.3060    -0.3710 C.3   1 <1>   0.1100 
  7 C       -2.5470     4.8370     0.5770 C.3   1 <1>   0.3430 
  8 C       -3.5260     2.7810     1.6070 C.3   1 <1>   0.2630 
  9 N       -0.1990     4.7810    -0.2400 N.3   1 <1>  -0.8100 
 10 C       -1.5360     5.3710    -0.4530 C.3   1 <1>   0.1100 
 11 C        0.8120     5.3390    -1.1570 C.3   1 <1>   0.2530 
 12 C        0.9510     6.8450    -0.9730 C.ar  1 <1>  -0.1440 
 13 C        0.7140     7.7140    -2.0260 C.ar  1 <1>  -0.1500 
 14 C        1.3150     7.3690     0.2570 C.ar  1 <1>  -0.1500 
 15 C        0.8370     9.0800    -1.8480 C.ar  1 <1>  -0.1500 
 16 C        1.4370     8.7360     0.4280 C.ar  1 <1>  -0.1500 
 17 C        1.2000     9.6260    -0.6180 C.ar  1 <1>   0.0530 
 18 C        1.3250    11.0560    -0.4360 C.2   1 <1>   0.0870 
 19 O        1.5280    11.5630     0.7740 O.3   1 <1>  -0.2800 
 20 C        1.2730    12.0830    -1.3280 C.2   1 <1>  -0.1500 
 21 C        1.6050    12.8720     0.6820 C.2   1 <1>  -0.0400 
 22 C        1.4540    13.2610    -0.6000 C.2   1 <1>  -0.1500 
 23 C        1.8340    13.6770     1.9410 C.3   1 <1>  -0.0600 
 24 H       -0.8710     2.6910     1.5860 H     1 <1>   0.0800 
 25 H       -3.0130     2.9970    -0.3510 H     1 <1>   0.4500 
 26 H       -0.5200     3.0390    -1.3820 H     1 <1>   0.0800 
 27 H        0.7110     2.8850    -0.1660 H     1 <1>   0.0800 
 28 H       -2.2290     5.1600     1.5540 H     1 <1>   0.0800 
 29 H       -3.5150     5.2660     0.3800 H     1 <1>   0.0800 
 30 H       -3.1240     2.9910     2.5850 H     1 <1>   0.0800 
 31 H       -3.6010     1.7110     1.4860 H     1 <1>   0.0800 
 32 H       -4.5140     3.2030     1.5320 H     1 <1>   0.0800 
 33 H       -1.4830     6.4410    -0.3400 H     1 <1>   0.0800 
 34 H       -1.8830     5.1580    -1.4490 H     1 <1>   0.0800 
 35 H        0.5450     5.1140    -2.1760 H     1 <1>   0.0800 
 36 H        1.7660     4.8820    -0.9550 H     1 <1>   0.0800 
 37 H        0.4320     7.3310    -2.9920 H     1 <1>   0.1500 
 38 H        1.5010     6.7060     1.0840 H     1 <1>   0.1500 
 39 H        0.6460     9.7340    -2.6790 H     1 <1>   0.1500 
 40 H        1.7230     9.1230     1.3900 H     1 <1>   0.1500 
 41 H        1.1250    12.0340    -2.3900 H     1 <1>   0.1500 
 42 H        1.4650    14.2560    -1.0080 H     1 <1>   0.1500 
 43 H        2.7620    13.3820     2.3950 H     1 <1>   0.0800 
 44 H        1.0330    13.4990     2.6360 H     1 <1>   0.0800 
 45 H        1.8730    14.7260     1.7110 H     1 <1>   0.0800 
@<TRIPOS>BOND
  1   1   2  ar  
  2   2   3  ar  
  3   2   4  1   
  4   4   5  1   
  5   4   6  1   
  6   4  24  1   
  7   5   7  1   
  8   5   8  1   
  9   5  25  1   
 10   6   9  1   
 11   6  26  1   
 12   6  27  1   
 13   7  10  1   
 14   7  28  1   
 15   7  29  1   
 16   8  30  1   
 17   8  31  1   
 18   8  32  1   
 19   9  10  1   
 20   9  11  1   
 21  10  33  1   
 22  10  34  1   
 23  11  12  1   
 24  11  35  1   
 25  11  36  1   
 26  12  13  ar  
 27  12  14  ar  
 28  13  15  ar  
 29  13  37  1   
 30  14  16  ar  
 31  14  38  1   
 32  15  17  ar  
 33  15  39  1   
 34  16  17  ar  
 35  16  40  1   
 36  17  18  1   
 37  18  19  1   
 38  18  20  2   
 39  19  21  1   
 40  20  22  1   
 41  20  41  1   
 42  21  22  2   
 43  21  23  1   
 44  22  42  1   
 45  23  43  1   
 46  23  44  1   
 47  23  45  1   
@<TRIPOS>SUBSTRUCTURE
  1 ****  12 GROUP 4 **** **** 0

# MOE 2024.06 (io_trps.svl 2023.06)
