@<TRIPOS>MOLECULE
NONAME
53 56 1 0 0 
SMALL
USER_CHARGES


@<TRIPOS>ATOM
  1 O        0.8990    -0.5150     1.2710 O.3   1 <1>  -0.6800 
  2 C        0.7980    -0.3010    -0.1030 C.3   1 <1>   0.2000 
  3 C        1.3350    -1.5200    -0.8560 C.3   1 <1>  -0.0800 
  4 C        1.8000     0.7880    -0.4950 C.3   1 <1>   0.3430 
  5 C        2.8600    -1.3560    -0.7970 C.3   1 <1>   0.3430 
  6 C        0.8260    -2.8950    -0.3780 C.3   1 <1>  -0.0160 
  7 N        3.1180     0.0940    -0.5760 N.4   1 <1>  -0.9590 
  8 C        1.5680    -4.0130    -1.1040 C.ar  1 <1>  -0.1430 
  9 C        3.9070     0.3510     0.6570 C.3   1 <1>   0.5240 
 10 C        2.7240    -4.6460    -0.5810 C.ar  1 <1>   0.0000 
 11 C        1.1220    -4.4220    -2.3270 C.ar  1 <1>  -0.1500 
 12 C        4.4060     1.7860     0.5700 C.2   1 <1>   0.0460 
 13 C        3.3550    -5.6240    -1.3900 C.ar  1 <1>   0.3100 
 14 C        3.2940    -4.3760     0.6870 C.ar  1 <1>  -0.1500 
 15 C        1.8120    -5.4130    -3.0350 C.ar  1 <1>   0.1600 
 16 N        4.8920     2.2470    -0.6030 N.2   1 <1>  -0.5650 
 17 C        4.4280     2.7510     1.5170 C.2   1 <1>  -0.3320 
 18 N        2.8890    -5.9890    -2.6090 N.ar  1 <1>  -0.6200 
 19 C        4.5200    -6.2510    -0.9210 C.ar  1 <1>  -0.1500 
 20 C        4.4290    -5.0080     1.1160 C.ar  1 <1>  -0.1500 
 21 C        5.2110     3.4740    -0.3470 C.2   1 <1>   0.0060 
 22 N        4.9550     3.8410     0.9270 N.pl3 1 <1>   0.0330 
 23 C        3.9880     2.7430     2.9720 C.3   1 <1>  -0.0600 
 24 C        5.0540    -5.9540     0.3030 C.ar  1 <1>  -0.1500 
 25 C        5.8200     4.4240    -1.3640 C.3   1 <1>   0.0200 
 26 C        4.8410     5.5390    -1.7450 C.3   1 <1>  -0.2400 
 27 H        0.1020    -0.9720     1.6150 H     1 <1>   0.4000 
 28 H       -0.2170    -0.0390    -0.3490 H     1 <1>   0.0800 
 29 H        1.0570    -1.4150    -1.8910 H     1 <1>   0.0800 
 30 H        1.8050     1.5990     0.2160 H     1 <1>   0.0800 
 31 H        1.5420     1.1750    -1.4670 H     1 <1>   0.0800 
 32 H        3.3190    -1.7040    -1.7080 H     1 <1>   0.0800 
 33 H        3.2510    -1.9240     0.0300 H     1 <1>   0.0800 
 34 H       -0.2250    -2.9720    -0.5970 H     1 <1>   0.0800 
 35 H        0.9210    -3.0110     0.6850 H     1 <1>   0.0800 
 36 H        3.6940     0.5420    -1.3110 H     1 <1>   0.4500 
 37 H        3.3050     0.2080     1.5380 H     1 <1>   0.0800 
 38 H        4.7580    -0.3070     0.6930 H     1 <1>   0.0800 
 39 H        0.2440    -4.0020    -2.7820 H     1 <1>   0.1500 
 40 H        2.8310    -3.6670     1.3460 H     1 <1>   0.1500 
 41 H        1.4260    -5.7100    -3.9970 H     1 <1>   0.1500 
 42 H        4.9790    -6.9830    -1.5600 H     1 <1>   0.1500 
 43 H        4.8530    -4.7950     2.0830 H     1 <1>   0.1500 
 44 H        5.1300     4.7610     1.3440 H     1 <1>   0.2700 
 45 H        3.5870     1.7840     3.2490 H     1 <1>   0.0800 
 46 H        3.2290     3.4880     3.1350 H     1 <1>   0.0800 
 47 H        4.8250     2.9590     3.6130 H     1 <1>   0.0800 
 48 H        5.9480    -6.4460     0.6500 H     1 <1>   0.1500 
 49 H        6.7220     4.8490    -0.9610 H     1 <1>   0.0800 
 50 H        6.0850     3.8680    -2.2470 H     1 <1>   0.0800 
 51 H        4.5900     6.1360    -0.8870 H     1 <1>   0.0800 
 52 H        3.9390     5.1140    -2.1480 H     1 <1>   0.0800 
 53 H        5.2820     6.1760    -2.4900 H     1 <1>   0.0800 
@<TRIPOS>BOND
  1   1   2  1   
  2   1  27  1   
  3   2   3  1   
  4   2   4  1   
  5   2  28  1   
  6   3   5  1   
  7   3   6  1   
  8   3  29  1   
  9   4   7  1   
 10   4  30  1   
 11   4  31  1   
 12   5   7  1   
 13   5  32  1   
 14   5  33  1   
 15   6   8  1   
 16   6  34  1   
 17   6  35  1   
 18   7   9  1   
 19   7  36  1   
 20   8  10  ar  
 21   8  11  ar  
 22   9  12  1   
 23   9  37  1   
 24   9  38  1   
 25  10  13  ar  
 26  10  14  ar  
 27  11  15  ar  
 28  11  39  1   
 29  12  16  1   
 30  12  17  2   
 31  13  18  ar  
 32  13  19  ar  
 33  14  20  ar  
 34  14  40  1   
 35  15  18  ar  
 36  15  41  1   
 37  16  21  2   
 38  17  22  1   
 39  17  23  1   
 40  19  24  ar  
 41  19  42  1   
 42  20  24  ar  
 43  20  43  1   
 44  21  22  1   
 45  21  25  1   
 46  22  44  1   
 47  23  45  1   
 48  23  46  1   
 49  23  47  1   
 50  24  48  1   
 51  25  26  1   
 52  25  49  1   
 53  25  50  1   
 54  26  51  1   
 55  26  52  1   
 56  26  53  1   
@<TRIPOS>SUBSTRUCTURE
  1 ****   5 GROUP 4 **** **** 0

# MOE 2024.06 (io_trps.svl 2023.06)
