@<TRIPOS>MOLECULE
NONAME
59 61 1 0 0 
SMALL
USER_CHARGES


@<TRIPOS>ATOM
  1 O       -0.4030    -2.2280    -2.2770 O.2   1 <1>  -0.5700 
  2 C       -0.2130    -1.6730    -1.2260 C.2   1 <1>   0.5690 
  3 N       -1.2950    -1.2730    -0.5130 N.am  1 <1>  -0.8000 
  4 C        1.2680    -1.5210    -0.7080 C.3   1 <1>   0.5640 
  5 N        1.5930    -2.7100     0.2040 N.4   1 <1>  -0.9590 
  6 C        1.3730    -0.1820     0.0660 C.3   1 <1>  -0.1600 
  7 C        2.2130    -1.4630    -1.9380 C.3   1 <1>  -0.1600 
  8 C        2.8950    -2.7500     0.9410 C.3   1 <1>   0.3430 
  9 C        1.3500    -4.0300    -0.4910 C.3   1 <1>   0.3430 
 10 C        2.7730     0.4160     0.2330 C.3   1 <1>   0.3430 
 11 C        3.6070    -0.9040    -1.6820 C.3   1 <1>   0.3430 
 12 C        2.8670    -3.8540     1.9980 C.3   1 <1>  -0.1600 
 13 C        1.2940    -5.1610     0.5350 C.3   1 <1>  -0.1600 
 14 N        3.4950     0.4470    -1.0700 N.4   1 <1>  -0.9590 
 15 C        2.5680    -5.2250     1.3820 C.3   1 <1>  -0.1600 
 16 C        4.8740     1.0480    -0.9300 C.3   1 <1>   0.3430 
 17 C        4.8590     2.5470    -0.6100 C.3   1 <1>   0.1200 
 18 O        6.1910     2.9230    -0.3820 O.3   1 <1>  -0.3630 
 19 C        6.5180     4.1930    -0.0320 C.ar  1 <1>   0.0820 
 20 C        7.8490     4.4340     0.2650 C.ar  1 <1>  -0.1500 
 21 C        5.6000     5.2380     0.0410 C.ar  1 <1>  -0.1500 
 22 C        8.2750     5.6960     0.6380 C.ar  1 <1>   0.0820 
 23 C        6.0210     6.5030     0.4140 C.ar  1 <1>  -0.1500 
 24 O        9.5960     5.8380     0.9130 O.3   1 <1>  -0.3620 
 25 C        7.3530     6.7360     0.7120 C.ar  1 <1>  -0.1500 
 26 C       10.1360     7.0830     1.2980 C.3   1 <1>   0.0400 
 27 H       -2.2230    -1.4270    -0.9270 H     1 <1>   0.3700 
 28 H       -1.3240    -0.7740     0.3790 H     1 <1>   0.3700 
 29 H        0.8650    -2.7040     0.9320 H     1 <1>   0.4500 
 30 H        0.9140    -0.2810     1.0340 H     1 <1>   0.0800 
 31 H        0.7980     0.5570    -0.4650 H     1 <1>   0.0800 
 32 H        1.7620    -0.8300    -2.6830 H     1 <1>   0.0800 
 33 H        2.2980    -2.4300    -2.3990 H     1 <1>   0.0800 
 34 H        3.0750    -1.8160     1.4430 H     1 <1>   0.0800 
 35 H        3.7030    -2.9420     0.2550 H     1 <1>   0.0800 
 36 H        2.1410    -4.2300    -1.1960 H     1 <1>   0.0800 
 37 H        0.4170    -4.0170    -1.0330 H     1 <1>   0.0800 
 38 H        3.3440    -0.1530     0.9470 H     1 <1>   0.0800 
 39 H        2.6800     1.4180     0.6230 H     1 <1>   0.0800 
 40 H        4.1380    -0.8370    -2.6200 H     1 <1>   0.0800 
 41 H        4.1630    -1.5610    -1.0340 H     1 <1>   0.0800 
 42 H        2.1300    -3.6220     2.7480 H     1 <1>   0.0800 
 43 H        3.8220    -3.8950     2.4940 H     1 <1>   0.0800 
 44 H        1.1660    -6.0960     0.0170 H     1 <1>   0.0800 
 45 H        0.4330    -5.0310     1.1690 H     1 <1>   0.0800 
 46 H        2.9820     1.0530    -1.7320 H     1 <1>   0.4500 
 47 H        2.4520    -5.9610     2.1620 H     1 <1>   0.0800 
 48 H        3.3960    -5.5340     0.7650 H     1 <1>   0.0800 
 49 H        5.4190     0.9170    -1.8520 H     1 <1>   0.0800 
 50 H        5.4150     0.5380    -0.1490 H     1 <1>   0.0800 
 51 H        4.3040     2.7590     0.2870 H     1 <1>   0.0800 
 52 H        4.4870     3.1190    -1.4420 H     1 <1>   0.0800 
 53 H        8.5660     3.6360     0.2090 H     1 <1>   0.1500 
 54 H        4.5610     5.0980    -0.1860 H     1 <1>   0.1500 
 55 H        5.3130     7.3110     0.4710 H     1 <1>   0.1500 
 56 H        7.6510     7.7270     0.9980 H     1 <1>   0.1500 
 57 H       11.1910     6.9530     1.4600 H     1 <1>   0.0800 
 58 H        9.6630     7.4010     2.2100 H     1 <1>   0.0800 
 59 H        9.9720     7.7940     0.5080 H     1 <1>   0.0800 
@<TRIPOS>BOND
  1   1   2  2   
  2   2   3  am  
  3   2   4  1   
  4   3  27  1   
  5   3  28  1   
  6   4   5  1   
  7   4   6  1   
  8   4   7  1   
  9   5   8  1   
 10   5   9  1   
 11   5  29  1   
 12   6  10  1   
 13   6  30  1   
 14   6  31  1   
 15   7  11  1   
 16   7  32  1   
 17   7  33  1   
 18   8  12  1   
 19   8  34  1   
 20   8  35  1   
 21   9  13  1   
 22   9  36  1   
 23   9  37  1   
 24  10  14  1   
 25  10  38  1   
 26  10  39  1   
 27  11  14  1   
 28  11  40  1   
 29  11  41  1   
 30  12  15  1   
 31  12  42  1   
 32  12  43  1   
 33  13  15  1   
 34  13  44  1   
 35  13  45  1   
 36  14  16  1   
 37  14  46  1   
 38  15  47  1   
 39  15  48  1   
 40  16  17  1   
 41  16  49  1   
 42  16  50  1   
 43  17  18  1   
 44  17  51  1   
 45  17  52  1   
 46  18  19  1   
 47  19  20  ar  
 48  19  21  ar  
 49  20  22  ar  
 50  20  53  1   
 51  21  23  ar  
 52  21  54  1   
 53  22  24  1   
 54  22  25  ar  
 55  23  25  ar  
 56  23  55  1   
 57  24  26  1   
 58  25  56  1   
 59  26  57  1   
 60  26  58  1   
 61  26  59  1   
@<TRIPOS>SUBSTRUCTURE
  1 ****  14 GROUP 4 **** **** 0

# MOE 2024.06 (io_trps.svl 2023.06)
