@<TRIPOS>MOLECULE
NONAME
54 56 1 0 0 
SMALL
USER_CHARGES


@<TRIPOS>ATOM
  1 O       -1.5350    -0.1150     2.1570 O.2   1 <1>  -0.5700 
  2 C       -1.8700     0.4080     1.1200 C.2   1 <1>   0.5690 
  3 N       -2.5120    -0.3060     0.1340 N.am  1 <1>  -0.6600 
  4 C       -1.5620     1.8970     0.9670 C.3   1 <1>   0.0820 
  5 C       -2.6160    -1.8010     0.2800 C.3   1 <1>   0.3640 
  6 C       -3.2250     0.3330    -1.0200 C.3   1 <1>   0.1400 
  7 C       -0.0780     2.2490     1.0600 C.2   1 <1>  -0.1810 
  8 C       -1.3320    -2.4360    -0.2590 C.ar  1 <1>  -0.1440 
  9 C       -3.8780    -2.4460    -0.3680 C.3   1 <1>   0.2000 
 10 C       -4.1690    -0.6080    -1.7840 C.3   1 <1>   0.1200 
 11 C        0.4970     3.2930     1.6810 C.2   1 <1>  -0.0400 
 12 C        1.0140     1.5760     0.5030 C.2   1 <1>   0.1080 
 13 C       -0.5160    -3.1470     0.6110 C.ar  1 <1>  -0.1500 
 14 C       -0.9480    -2.3180    -1.5900 C.ar  1 <1>  -0.1500 
 15 O       -4.7690    -1.5040    -0.9070 O.3   1 <1>  -0.5600 
 16 C       -4.6740    -3.2900     0.6360 C.3   1 <1>   0.1200 
 17 O        1.7850     3.2230     1.4840 O.3   1 <1>  -0.0190 
 18 C       -0.0520     4.4440     2.4990 C.3   1 <1>  -0.0600 
 19 N        2.1110     2.1890     0.7680 N.2   1 <1>  -0.4100 
 20 C        0.9750     0.2920    -0.2980 C.3   1 <1>  -0.0590 
 21 C        0.6600    -3.7300     0.1710 C.ar  1 <1>   0.0820 
 22 C        0.2340    -2.8840    -2.0370 C.ar  1 <1>  -0.1500 
 23 O       -3.8970    -4.3390     1.1210 O.3   1 <1>  -0.6800 
 24 O        1.3830    -4.4380     1.0710 O.3   1 <1>  -0.3630 
 25 C        1.0540    -3.5740    -1.1620 C.ar  1 <1>   0.0820 
 26 C        1.4480    -5.8300     0.8590 C.3   1 <1>   0.0400 
 27 O        2.2200    -4.0610    -1.6510 O.3   1 <1>  -0.3630 
 28 C        3.4030    -3.5160    -1.1080 C.3   1 <1>   0.0400 
 29 H       -1.9210     2.2750     0.0330 H     1 <1>   0.0800 
 30 H       -2.0930     2.4100     1.7450 H     1 <1>   0.0800 
 31 H       -2.6650    -2.0260     1.3320 H     1 <1>   0.0800 
 32 H       -3.8180     1.1490    -0.6450 H     1 <1>   0.0800 
 33 H       -2.5030     0.7370    -1.7080 H     1 <1>   0.0800 
 34 H       -3.5800    -3.0880    -1.1770 H     1 <1>   0.0800 
 35 H       -3.6480    -1.1620    -2.5440 H     1 <1>   0.0800 
 36 H       -4.9490    -0.0390    -2.2590 H     1 <1>   0.0800 
 37 H       -0.7860    -3.2540     1.6480 H     1 <1>   0.1500 
 38 H       -1.5550    -1.7770    -2.2890 H     1 <1>   0.1500 
 39 H       -5.5490    -3.7080     0.1700 H     1 <1>   0.0800 
 40 H       -4.9690    -2.6850     1.4760 H     1 <1>   0.0800 
 41 H       -1.1220     4.3900     2.5710 H     1 <1>   0.0800 
 42 H        0.2200     5.3760     2.0390 H     1 <1>   0.0800 
 43 H        0.3650     4.4110     3.4900 H     1 <1>   0.0800 
 44 H        0.1940     0.3330    -1.0330 H     1 <1>   0.0800 
 45 H        0.8010    -0.5360     0.3640 H     1 <1>   0.0800 
 46 H        1.9140     0.1400    -0.7980 H     1 <1>   0.0800 
 47 H        0.5340    -2.7850    -3.0650 H     1 <1>   0.1500 
 48 H       -3.7310    -5.0070     0.4260 H     1 <1>   0.4000 
 49 H        1.9870    -6.2700     1.6790 H     1 <1>   0.0800 
 50 H        1.9610    -6.0260    -0.0650 H     1 <1>   0.0800 
 51 H        0.4470    -6.2210     0.8230 H     1 <1>   0.0800 
 52 H        4.2360    -3.8850    -1.6770 H     1 <1>   0.0800 
 53 H        3.4990    -3.8200    -0.0810 H     1 <1>   0.0800 
 54 H        3.3560    -2.4430    -1.1750 H     1 <1>   0.0800 
@<TRIPOS>BOND
  1   1   2  2   
  2   2   3  am  
  3   2   4  1   
  4   3   5  1   
  5   3   6  1   
  6   4   7  1   
  7   4  29  1   
  8   4  30  1   
  9   5   8  1   
 10   5   9  1   
 11   5  31  1   
 12   6  10  1   
 13   6  32  1   
 14   6  33  1   
 15   7  11  2   
 16   7  12  1   
 17   8  13  ar  
 18   8  14  ar  
 19   9  15  1   
 20   9  16  1   
 21   9  34  1   
 22  10  15  1   
 23  10  35  1   
 24  10  36  1   
 25  11  17  1   
 26  11  18  1   
 27  12  19  2   
 28  12  20  1   
 29  13  21  ar  
 30  13  37  1   
 31  14  22  ar  
 32  14  38  1   
 33  16  23  1   
 34  16  39  1   
 35  16  40  1   
 36  17  19  1   
 37  18  41  1   
 38  18  42  1   
 39  18  43  1   
 40  20  44  1   
 41  20  45  1   
 42  20  46  1   
 43  21  24  1   
 44  21  25  ar  
 45  22  25  ar  
 46  22  47  1   
 47  23  48  1   
 48  24  26  1   
 49  25  27  1   
 50  26  49  1   
 51  26  50  1   
 52  26  51  1   
 53  27  28  1   
 54  28  52  1   
 55  28  53  1   
 56  28  54  1   
@<TRIPOS>SUBSTRUCTURE
  1 ****   8 GROUP 4 **** **** 0

# MOE 2024.06 (io_trps.svl 2023.06)
