@<TRIPOS>MOLECULE
NONAME
49 50 1 0 0 
SMALL
USER_CHARGES


@<TRIPOS>ATOM
  1 F        3.1740     0.8250    -1.5350 F     1 <1>  -0.3400 
  2 C        2.7610     0.2700    -0.4040 C.3   1 <1>   1.1640 
  3 F        1.4380     0.1930    -0.4870 F     1 <1>  -0.3400 
  4 F        3.0240     1.1380     0.5640 F     1 <1>  -0.3400 
  5 C        3.3980    -1.1130    -0.1790 C.ar  1 <1>  -0.1440 
  6 C        2.9380    -2.2200    -0.8830 C.ar  1 <1>  -0.1500 
  7 C        4.4410    -1.2930     0.7200 C.ar  1 <1>  -0.1500 
  8 C        3.4930    -3.4800    -0.6970 C.ar  1 <1>  -0.1440 
  9 C        5.0040    -2.5420     0.9050 C.ar  1 <1>  -0.1500 
 10 C        4.5430    -3.6430     0.2020 C.ar  1 <1>  -0.1430 
 11 C        2.9260    -4.6480    -1.4870 C.3   1 <1>   0.4870 
 12 C        5.2190    -4.9870     0.4450 C.3   1 <1>  -0.0970 
 13 N        2.0790    -5.4710    -0.5900 N.4   1 <1>  -0.9590 
 14 C        1.6930    -6.7690    -1.2430 C.3   1 <1>   0.3430 
 15 C        0.8880    -4.7230    -0.0850 C.3   1 <1>   0.3430 
 16 C        0.8450    -7.6510    -0.3200 C.3   1 <1>   0.2000 
 17 C        0.1120    -5.6040     0.8860 C.3   1 <1>  -0.1600 
 18 O        0.4680    -8.7710    -1.0310 O.3   1 <1>  -0.6800 
 19 C       -0.4000    -6.9170     0.2300 C.3   1 <1>  -0.1060 
 20 C       -1.0070    -7.8570     1.2830 C.2   1 <1>   0.9060 
 21 C       -1.4370    -6.6160    -0.9010 C.3   1 <1>  -0.1600 
 22 O       -1.1740    -7.4470     2.4340 O.co2 1 <1>  -0.9000 
 23 O       -1.2450    -9.0250     0.9490 O.co2 1 <1>  -0.9000 
 24 C       -2.6870    -5.8450    -0.4400 C.3   1 <1>  -0.1600 
 25 C       -3.7030    -5.7210    -1.5780 C.3   1 <1>  -0.2400 
 26 H        2.1330    -2.0890    -1.5890 H     1 <1>   0.1500 
 27 H        4.8310    -0.4600     1.2840 H     1 <1>   0.1500 
 28 H        5.8140    -2.6460     1.6080 H     1 <1>   0.1500 
 29 H        3.7370    -5.2400    -1.8770 H     1 <1>   0.0800 
 30 H        2.3420    -4.2840    -2.3160 H     1 <1>   0.0800 
 31 H        6.1640    -4.8490     0.9430 H     1 <1>   0.0800 
 32 H        5.4180    -5.4940    -0.4820 H     1 <1>   0.0800 
 33 H        4.6060    -5.6090     1.0710 H     1 <1>   0.0800 
 34 H        2.6450    -5.6860     0.2400 H     1 <1>   0.4500 
 35 H        1.1200    -6.5680    -2.1320 H     1 <1>   0.0800 
 36 H        2.5760    -7.3190    -1.5210 H     1 <1>   0.0800 
 37 H        1.2030    -3.8270     0.4260 H     1 <1>   0.0800 
 38 H        0.2490    -4.4410    -0.9050 H     1 <1>   0.0800 
 39 H        1.4480    -7.9970     0.5030 H     1 <1>   0.0800 
 40 H        0.7450    -5.8430     1.7240 H     1 <1>   0.0800 
 41 H       -0.7140    -5.0510     1.2960 H     1 <1>   0.0800 
 42 H       -0.2300    -9.2230    -0.4650 H     1 <1>   0.4000 
 43 H       -0.9800    -6.0790    -1.7100 H     1 <1>   0.0800 
 44 H       -1.7760    -7.5570    -1.3030 H     1 <1>   0.0800 
 45 H       -3.1480    -6.3660     0.3850 H     1 <1>   0.0800 
 46 H       -2.4270    -4.8580    -0.1050 H     1 <1>   0.0800 
 47 H       -4.0160    -6.6980    -1.9050 H     1 <1>   0.0800 
 48 H       -3.2780    -5.1930    -2.4130 H     1 <1>   0.0800 
 49 H       -4.5710    -5.1850    -1.2360 H     1 <1>   0.0800 
@<TRIPOS>BOND
  1   1   2  1   
  2   2   3  1   
  3   2   4  1   
  4   2   5  1   
  5   5   6  ar  
  6   5   7  ar  
  7   6   8  ar  
  8   6  26  1   
  9   7   9  ar  
 10   7  27  1   
 11   8  10  ar  
 12   8  11  1   
 13   9  10  ar  
 14   9  28  1   
 15  10  12  1   
 16  11  13  1   
 17  11  29  1   
 18  11  30  1   
 19  12  31  1   
 20  12  32  1   
 21  12  33  1   
 22  13  14  1   
 23  13  15  1   
 24  13  34  1   
 25  14  16  1   
 26  14  35  1   
 27  14  36  1   
 28  15  17  1   
 29  15  37  1   
 30  15  38  1   
 31  16  18  1   
 32  16  19  1   
 33  16  39  1   
 34  17  19  1   
 35  17  40  1   
 36  17  41  1   
 37  18  42  1   
 38  19  20  1   
 39  19  21  1   
 40  20  22  ar  
 41  20  23  ar  
 42  21  24  1   
 43  21  43  1   
 44  21  44  1   
 45  24  25  1   
 46  24  45  1   
 47  24  46  1   
 48  25  47  1   
 49  25  48  1   
 50  25  49  1   
@<TRIPOS>SUBSTRUCTURE
  1 ****  15 GROUP 4 **** **** 0

# MOE 2024.06 (io_trps.svl 2023.06)
