@<TRIPOS>MOLECULE
NONAME
47 49 1 0 0 
SMALL
USER_CHARGES


@<TRIPOS>ATOM
  1 O        0.4410     2.4110    -0.5570 O.2   1 <1>  -0.5700 
  2 C       -0.2280     3.4070    -0.4510 C.2   1 <1>   0.5690 
  3 N       -1.1890     3.4960     0.4930 N.am  1 <1>  -0.7300 
  4 C        0.0100     4.5910    -1.3920 C.3   1 <1>   0.1810 
  5 C       -2.1400     4.6290     0.5850 C.3   1 <1>   0.3640 
  6 O       -1.1120     5.4490    -1.5100 O.3   1 <1>  -0.5600 
  7 C       -3.5220     4.1320     0.1710 C.ar  1 <1>  -0.1440 
  8 C       -1.7010     5.8500    -0.2730 C.3   1 <1>   0.2610 
  9 C       -4.5880     4.2440     1.0530 C.ar  1 <1>  -0.1500 
 10 C       -3.7410     3.5720    -1.0810 C.ar  1 <1>  -0.1500 
 11 C       -0.7970     6.8250     0.4970 C.2   1 <1>   0.5690 
 12 C       -5.8500     3.8060     0.6910 C.ar  1 <1>  -0.1500 
 13 C       -5.0020     3.1330    -1.4450 C.ar  1 <1>  -0.1500 
 14 O       -0.8700     6.8950     1.7020 O.2   1 <1>  -0.5700 
 15 N        0.0530     7.6190    -0.2090 N.am  1 <1>  -0.7300 
 16 C       -6.0580     3.2500    -0.5590 C.ar  1 <1>  -0.1500 
 17 C        0.9870     8.6080     0.3520 C.3   1 <1>   0.2200 
 18 C        0.6340     9.9780    -0.2420 C.3   1 <1>  -0.1600 
 19 C        2.4100     8.1200     0.0540 C.3   1 <1>  -0.1600 
 20 C        1.3180    11.1330     0.5060 C.3   1 <1>  -0.1600 
 21 C        3.5310     9.0770     0.4940 C.3   1 <1>  -0.1600 
 22 C        2.7260    11.4890     0.0020 C.3   1 <1>  -0.1600 
 23 C        3.6320    10.3170    -0.4060 C.3   1 <1>  -0.1600 
 24 H       -1.4090     2.6620     1.0360 H     1 <1>   0.3700 
 25 H        0.2390     4.2180    -2.3740 H     1 <1>   0.0800 
 26 H        0.8490     5.1610    -1.0370 H     1 <1>   0.0800 
 27 H       -2.2010     4.9270     1.6170 H     1 <1>   0.0800 
 28 H       -2.5860     6.4050    -0.5250 H     1 <1>   0.0800 
 29 H       -4.4470     4.6730     2.0300 H     1 <1>   0.1500 
 30 H       -2.9290     3.4740    -1.7820 H     1 <1>   0.1500 
 31 H       -6.6700     3.8960     1.3810 H     1 <1>   0.1500 
 32 H       -5.1600     2.7000    -2.4170 H     1 <1>   0.1500 
 33 H        0.0600     7.5320    -1.2280 H     1 <1>   0.3700 
 34 H       -7.0390     2.9090    -0.8410 H     1 <1>   0.1500 
 35 H        0.8520     8.6490     1.4210 H     1 <1>   0.0800 
 36 H        0.8710    10.0160    -1.2910 H     1 <1>   0.0800 
 37 H       -0.4280    10.1150    -0.1360 H     1 <1>   0.0800 
 38 H        2.5480     7.1890     0.5760 H     1 <1>   0.0800 
 39 H        2.5110     7.9230    -0.9980 H     1 <1>   0.0800 
 40 H        0.7060    12.0140     0.4130 H     1 <1>   0.0800 
 41 H        1.3630    10.9010     1.5560 H     1 <1>   0.0800 
 42 H        3.4100     9.3610     1.5250 H     1 <1>   0.0800 
 43 H        4.4610     8.5400     0.4200 H     1 <1>   0.0800 
 44 H        2.6330    12.1440    -0.8470 H     1 <1>   0.0800 
 45 H        3.2190    12.0520     0.7760 H     1 <1>   0.0800 
 46 H        4.6490    10.6710    -0.3900 H     1 <1>   0.0800 
 47 H        3.4210    10.0390    -1.4240 H     1 <1>   0.0800 
@<TRIPOS>BOND
  1   1   2  2   
  2   2   3  am  
  3   2   4  1   
  4   3   5  1   
  5   3  24  1   
  6   4   6  1   
  7   4  25  1   
  8   4  26  1   
  9   5   7  1   
 10   5   8  1   
 11   5  27  1   
 12   6   8  1   
 13   7   9  ar  
 14   7  10  ar  
 15   8  11  1   
 16   8  28  1   
 17   9  12  ar  
 18   9  29  1   
 19  10  13  ar  
 20  10  30  1   
 21  11  14  2   
 22  11  15  am  
 23  12  16  ar  
 24  12  31  1   
 25  13  16  ar  
 26  13  32  1   
 27  15  17  1   
 28  15  33  1   
 29  16  34  1   
 30  17  18  1   
 31  17  19  1   
 32  17  35  1   
 33  18  20  1   
 34  18  36  1   
 35  18  37  1   
 36  19  21  1   
 37  19  38  1   
 38  19  39  1   
 39  20  22  1   
 40  20  40  1   
 41  20  41  1   
 42  21  23  1   
 43  21  42  1   
 44  21  43  1   
 45  22  23  1   
 46  22  44  1   
 47  22  45  1   
 48  23  46  1   
 49  23  47  1   
@<TRIPOS>SUBSTRUCTURE
  1 ****  11 GROUP 4 **** **** 0

# MOE 2024.06 (io_trps.svl 2023.06)
