@<TRIPOS>MOLECULE
NONAME
40 41 1 0 0 
SMALL
USER_CHARGES


@<TRIPOS>ATOM
  1 O        1.2540    -0.8000     2.1810 O.co2 1 <1>  -0.9000 
  2 C        2.1490    -0.8750     1.3430 C.2   1 <1>   0.9060 
  3 O        2.6210    -1.9400     0.9270 O.co2 1 <1>  -0.9000 
  4 C        2.7270     0.4110     0.7960 C.3   1 <1>  -0.1860 
  5 C        4.2500     0.4080     0.9730 C.3   1 <1>   0.2000 
  6 C        2.3090     0.6640    -0.6770 C.3   1 <1>  -0.1600 
  7 O        4.7730    -0.6340     0.2240 O.3   1 <1>  -0.6800 
  8 C        4.8600     1.7270     0.4610 C.3   1 <1>   0.3430 
  9 C        3.4250     1.2720    -1.5320 C.3   1 <1>   0.3430 
 10 N        4.1450     2.3120    -0.7440 N.4   1 <1>  -0.9590 
 11 C        5.0780     3.0960    -1.5850 C.3   1 <1>   0.4860 
 12 C        5.6000     4.2590    -0.7660 C.ar  1 <1>  -0.1440 
 13 C        4.7880     5.3540    -0.5090 C.ar  1 <1>  -0.1500 
 14 C        6.8920     4.2300    -0.2620 C.ar  1 <1>  -0.1500 
 15 C        5.2570     6.4090     0.2550 C.ar  1 <1>  -0.1440 
 16 C        7.3670     5.2790     0.5060 C.ar  1 <1>  -0.1440 
 17 C        6.5450     6.3630     0.7610 C.ar  1 <1>  -0.1500 
 18 C        4.3720     7.6100     0.5390 C.3   1 <1>  -0.0970 
 19 C        8.7800     5.2550     1.0610 C.3   1 <1>  -0.0970 
 20 H        2.3310     1.2040     1.4030 H     1 <1>   0.0800 
 21 H        4.5180     0.2320     2.0020 H     1 <1>   0.0800 
 22 H        1.4360     1.2910    -0.6990 H     1 <1>   0.0800 
 23 H        2.0310    -0.2720    -1.1310 H     1 <1>   0.0800 
 24 H        4.1600    -1.4180     0.3890 H     1 <1>   0.4000 
 25 H        5.8930     1.5380     0.2260 H     1 <1>   0.0800 
 26 H        4.8340     2.4510     1.2580 H     1 <1>   0.0800 
 27 H        3.0050     1.6920    -2.4300 H     1 <1>   0.0800 
 28 H        4.1180     0.4920    -1.8090 H     1 <1>   0.0800 
 29 H        3.4390     2.9560    -0.3730 H     1 <1>   0.4500 
 30 H        5.8960     2.4740    -1.9100 H     1 <1>   0.0800 
 31 H        4.5660     3.4740    -2.4550 H     1 <1>   0.0800 
 32 H        3.7870     5.3980    -0.9010 H     1 <1>   0.1500 
 33 H        7.5390     3.3930    -0.4620 H     1 <1>   0.1500 
 34 H        6.9130     7.1820     1.3560 H     1 <1>   0.1500 
 35 H        4.9660     8.5030     0.6130 H     1 <1>   0.0800 
 36 H        3.8480     7.4670     1.4670 H     1 <1>   0.0800 
 37 H        3.6540     7.7490    -0.2490 H     1 <1>   0.0800 
 38 H        8.8030     5.6900     2.0440 H     1 <1>   0.0800 
 39 H        9.4320     5.8200     0.4190 H     1 <1>   0.0800 
 40 H        9.1500     4.2480     1.1280 H     1 <1>   0.0800 
@<TRIPOS>BOND
  1   1   2  ar  
  2   2   3  ar  
  3   2   4  1   
  4   4   5  1   
  5   4   6  1   
  6   4  20  1   
  7   5   7  1   
  8   5   8  1   
  9   5  21  1   
 10   6   9  1   
 11   6  22  1   
 12   6  23  1   
 13   7  24  1   
 14   8  10  1   
 15   8  25  1   
 16   8  26  1   
 17   9  10  1   
 18   9  27  1   
 19   9  28  1   
 20  10  11  1   
 21  10  29  1   
 22  11  12  1   
 23  11  30  1   
 24  11  31  1   
 25  12  13  ar  
 26  12  14  ar  
 27  13  15  ar  
 28  13  32  1   
 29  14  16  ar  
 30  14  33  1   
 31  15  17  ar  
 32  15  18  1   
 33  16  17  ar  
 34  16  19  1   
 35  17  34  1   
 36  18  35  1   
 37  18  36  1   
 38  18  37  1   
 39  19  38  1   
 40  19  39  1   
 41  19  40  1   
@<TRIPOS>SUBSTRUCTURE
  1 ****   8 GROUP 4 **** **** 0

# MOE 2024.06 (io_trps.svl 2023.06)
