@<TRIPOS>MOLECULE
NONAME
53 54 1 0 0 
SMALL
USER_CHARGES


@<TRIPOS>ATOM
  1 O       -3.4130     0.6790    -1.4930 O.2   1 <1>  -0.5700 
  2 C       -2.4920     0.6540    -0.7130 C.2   1 <1>   0.5690 
  3 N       -1.9290    -0.5190    -0.3200 N.am  1 <1>  -0.7300 
  4 C       -1.9320     1.9570    -0.1410 C.3   1 <1>  -0.0190 
  5 C       -2.3470    -1.8510    -0.8270 C.3   1 <1>   0.1400 
  6 C       -2.9940     3.0720    -0.0380 C.3   1 <1>  -0.1600 
  7 C       -0.7120     2.4390    -0.9600 C.3   1 <1>  -0.1600 
  8 C       -3.6100    -2.3210    -0.1100 C.3   1 <1>   0.1200 
  9 C       -2.4540     4.3290     0.6770 C.3   1 <1>   0.2000 
 10 C       -0.3880     3.9350    -0.7710 C.3   1 <1>  -0.1600 
 11 O       -3.9430    -3.6030    -0.5920 O.3   1 <1>  -0.3620 
 12 O       -3.0570     5.4630     0.1030 O.3   1 <1>  -0.5600 
 13 C       -0.9120     4.4650     0.5660 C.3   1 <1>   0.2000 
 14 C       -5.1580    -4.0700    -0.2270 C.ar  1 <1>   0.0820 
 15 C       -4.3680     5.7090     0.5080 C.3   1 <1>   0.0400 
 16 O       -0.5640     5.7960     0.6650 O.3   1 <1>  -0.6800 
 17 C       -5.2640    -4.9100     0.8770 C.ar  1 <1>  -0.1440 
 18 C       -6.2880    -3.7150    -0.9610 C.ar  1 <1>  -0.1440 
 19 C       -6.5140    -5.3680     1.2600 C.ar  1 <1>  -0.1500 
 20 C       -4.0330    -5.3350     1.6650 C.3   1 <1>  -0.0970 
 21 C       -7.5270    -4.1850    -0.5570 C.ar  1 <1>  -0.1500 
 22 C       -6.1930    -2.8310    -2.1980 C.3   1 <1>  -0.0970 
 23 C       -7.6480    -5.0060     0.5520 C.ar  1 <1>  -0.1440 
 24 C       -9.0120    -5.5120     0.9820 C.3   1 <1>  -0.0970 
 25 H       -1.1460    -0.5150     0.3340 H     1 <1>   0.3700 
 26 H       -1.6020     1.7420     0.8600 H     1 <1>   0.0800 
 27 H       -2.5490    -1.7790    -1.8830 H     1 <1>   0.0800 
 28 H       -1.5520    -2.5590    -0.6690 H     1 <1>   0.0800 
 29 H       -3.8530     2.7010     0.4930 H     1 <1>   0.0800 
 30 H       -3.3050     3.3320    -1.0360 H     1 <1>   0.0800 
 31 H        0.1440     1.8490    -0.6830 H     1 <1>   0.0800 
 32 H       -0.8940     2.2660    -2.0080 H     1 <1>   0.0800 
 33 H       -4.4260    -1.6510    -0.3150 H     1 <1>   0.0800 
 34 H       -3.4500    -2.3950     0.9500 H     1 <1>   0.0800 
 35 H       -2.7050     4.2980     1.7230 H     1 <1>   0.0800 
 36 H       -0.8580     4.4940    -1.5630 H     1 <1>   0.0800 
 37 H        0.6750     4.0880    -0.8360 H     1 <1>   0.0800 
 38 H       -0.4300     3.9390     1.3720 H     1 <1>   0.0800 
 39 H       -4.7040     6.6070     0.0210 H     1 <1>   0.0800 
 40 H       -4.3920     5.8460     1.5750 H     1 <1>   0.0800 
 41 H       -4.9970     4.8860     0.2160 H     1 <1>   0.0800 
 42 H       -1.3170     6.2970     0.2740 H     1 <1>   0.4000 
 43 H       -6.6080    -6.0130     2.1150 H     1 <1>   0.1500 
 44 H       -4.2550    -6.1700     2.3040 H     1 <1>   0.0800 
 45 H       -3.6870    -4.5180     2.2700 H     1 <1>   0.0800 
 46 H       -3.2480    -5.6270     0.9900 H     1 <1>   0.0800 
 47 H       -8.4070    -3.9120    -1.1120 H     1 <1>   0.1500 
 48 H       -7.0440    -2.9800    -2.8370 H     1 <1>   0.0800 
 49 H       -5.3080    -3.0690    -2.7600 H     1 <1>   0.0800 
 50 H       -6.1550    -1.7970    -1.9100 H     1 <1>   0.0800 
 51 H       -9.0360    -5.6720     2.0450 H     1 <1>   0.0800 
 52 H       -9.2280    -6.4400     0.4850 H     1 <1>   0.0800 
 53 H       -9.7740    -4.7960     0.7310 H     1 <1>   0.0800 
@<TRIPOS>BOND
  1   1   2  2   
  2   2   3  am  
  3   2   4  1   
  4   3   5  1   
  5   3  25  1   
  6   4   6  1   
  7   4   7  1   
  8   4  26  1   
  9   5   8  1   
 10   5  27  1   
 11   5  28  1   
 12   6   9  1   
 13   6  29  1   
 14   6  30  1   
 15   7  10  1   
 16   7  31  1   
 17   7  32  1   
 18   8  11  1   
 19   8  33  1   
 20   8  34  1   
 21   9  12  1   
 22   9  13  1   
 23   9  35  1   
 24  10  13  1   
 25  10  36  1   
 26  10  37  1   
 27  11  14  1   
 28  12  15  1   
 29  13  16  1   
 30  13  38  1   
 31  14  17  ar  
 32  14  18  ar  
 33  15  39  1   
 34  15  40  1   
 35  15  41  1   
 36  16  42  1   
 37  17  19  ar  
 38  17  20  1   
 39  18  21  ar  
 40  18  22  1   
 41  19  23  ar  
 42  19  43  1   
 43  20  44  1   
 44  20  45  1   
 45  20  46  1   
 46  21  23  ar  
 47  21  47  1   
 48  22  48  1   
 49  22  49  1   
 50  22  50  1   
 51  23  24  1   
 52  24  51  1   
 53  24  52  1   
 54  24  53  1   
@<TRIPOS>SUBSTRUCTURE
  1 ****   1 GROUP 4 **** **** 0

# MOE 2024.06 (io_trps.svl 2023.06)
