@<TRIPOS>MOLECULE
NONAME
55 57 1 0 0 
SMALL
USER_CHARGES


@<TRIPOS>ATOM
  1 O       -0.4900     0.1660     1.3670 O.2   1 <1>  -0.5700 
  2 C       -1.5110     0.7550     1.0600 C.2   1 <1>   0.6160 
  3 N       -2.6890     0.0370     0.9980 N.am  1 <1>  -0.6600 
  4 C       -1.4410     2.1710     0.8400 C.2   1 <1>   0.0290 
  5 C       -2.7080    -1.4610     0.9960 C.3   1 <1>   0.1400 
  6 C       -4.0350     0.6170     0.7050 C.3   1 <1>   0.1400 
  7 C       -1.7680     2.6910    -0.4520 C.2   1 <1>   0.6160 
  8 C       -1.0470     3.0490     1.8200 C.2   1 <1>  -0.1500 
  9 C       -3.3920    -2.0020    -0.2750 C.3   1 <1>   0.3440 
 10 C       -4.6200    -0.0120    -0.5790 C.3   1 <1>   0.2000 
 11 O       -2.1370     2.0150    -1.4020 O.2   1 <1>  -0.5700 
 12 N       -1.6920     4.0420    -0.6480 N.am  1 <1>  -0.5390 
 13 C       -0.9860     4.4350     1.5630 C.2   1 <1>  -0.1500 
 14 O       -4.6540    -1.4070    -0.4410 O.3   1 <1>  -0.5600 
 15 C       -3.5500    -3.5180    -0.1940 C.ar  1 <1>  -0.1430 
 16 C       -6.0440     0.4740    -0.9340 C.3   1 <1>  -0.0800 
 17 C       -1.3090     4.9220     0.3320 C.2   1 <1>  -0.0290 
 18 C       -2.5670    -4.3400    -0.7280 C.ar  1 <1>  -0.1500 
 19 C       -4.6530    -4.0980     0.4170 C.ar  1 <1>  -0.1500 
 20 C       -6.0680     1.9780    -1.2530 C.3   1 <1>  -0.2400 
 21 C       -7.0950     0.1550     0.1430 C.3   1 <1>  -0.2400 
 22 C       -1.2580     6.4100    -0.0080 C.3   1 <1>   0.0580 
 23 C       -2.6840    -5.7170    -0.6510 C.ar  1 <1>  -0.1500 
 24 C       -4.7720    -5.4750     0.4950 C.ar  1 <1>  -0.1500 
 25 C       -2.6460     6.9310    -0.3990 C.3   1 <1>  -0.2400 
 26 C       -0.2460     6.6830    -1.1270 C.3   1 <1>  -0.2400 
 27 C       -3.7860    -6.2860    -0.0390 C.ar  1 <1>  -0.1500 
 28 H       -1.7100    -1.8580     1.0480 H     1 <1>   0.0800 
 29 H       -3.2440    -1.8100     1.8600 H     1 <1>   0.0800 
 30 H       -4.6870     0.4090     1.5340 H     1 <1>   0.0800 
 31 H       -3.9770     1.6830     0.5950 H     1 <1>   0.0800 
 32 H       -0.7740     2.6890     2.7980 H     1 <1>   0.1500 
 33 H       -2.7950    -1.7530    -1.1360 H     1 <1>   0.0800 
 34 H       -3.9730     0.2170    -1.4080 H     1 <1>   0.0800 
 35 H       -1.9230     4.3570    -1.5900 H     1 <1>   0.3700 
 36 H       -0.6760     5.0880     2.3610 H     1 <1>   0.1500 
 37 H       -6.3270    -0.0450    -1.8350 H     1 <1>   0.0800 
 38 H       -1.7030    -3.9110    -1.2060 H     1 <1>   0.1500 
 39 H       -5.4260    -3.4740     0.8310 H     1 <1>   0.1500 
 40 H       -5.8740     2.5670    -0.3740 H     1 <1>   0.0800 
 41 H       -7.0320     2.2560    -1.6400 H     1 <1>   0.0800 
 42 H       -5.3260     2.2130    -1.9970 H     1 <1>   0.0800 
 43 H       -6.9040     0.6990     1.0500 H     1 <1>   0.0800 
 44 H       -7.0910    -0.8980     0.3650 H     1 <1>   0.0800 
 45 H       -8.0760     0.4170    -0.2100 H     1 <1>   0.0800 
 46 H       -0.9360     6.9490     0.8670 H     1 <1>   0.0800 
 47 H       -1.9170    -6.3460    -1.0680 H     1 <1>   0.1500 
 48 H       -5.6320    -5.9130     0.9690 H     1 <1>   0.1500 
 49 H       -2.9970     6.4550    -1.2960 H     1 <1>   0.0800 
 50 H       -2.6110     7.9930    -0.5640 H     1 <1>   0.0800 
 51 H       -3.3480     6.7320     0.3920 H     1 <1>   0.0800 
 52 H       -0.5430     6.2020    -2.0410 H     1 <1>   0.0800 
 53 H        0.7220     6.3090    -0.8430 H     1 <1>   0.0800 
 54 H       -0.1640     7.7400    -1.3060 H     1 <1>   0.0800 
 55 H       -3.8780    -7.3560     0.0210 H     1 <1>   0.1500 
@<TRIPOS>BOND
  1   1   2  2   
  2   2   3  am  
  3   2   4  1   
  4   3   5  1   
  5   3   6  1   
  6   4   7  1   
  7   4   8  2   
  8   5   9  1   
  9   5  28  1   
 10   5  29  1   
 11   6  10  1   
 12   6  30  1   
 13   6  31  1   
 14   7  11  2   
 15   7  12  am  
 16   8  13  1   
 17   8  32  1   
 18   9  14  1   
 19   9  15  1   
 20   9  33  1   
 21  10  14  1   
 22  10  16  1   
 23  10  34  1   
 24  12  17  1   
 25  12  35  1   
 26  13  17  2   
 27  13  36  1   
 28  15  18  ar  
 29  15  19  ar  
 30  16  20  1   
 31  16  21  1   
 32  16  37  1   
 33  17  22  1   
 34  18  23  ar  
 35  18  38  1   
 36  19  24  ar  
 37  19  39  1   
 38  20  40  1   
 39  20  41  1   
 40  20  42  1   
 41  21  43  1   
 42  21  44  1   
 43  21  45  1   
 44  22  25  1   
 45  22  26  1   
 46  22  46  1   
 47  23  27  ar  
 48  23  47  1   
 49  24  27  ar  
 50  24  48  1   
 51  25  49  1   
 52  25  50  1   
 53  25  51  1   
 54  26  52  1   
 55  26  53  1   
 56  26  54  1   
 57  27  55  1   
@<TRIPOS>SUBSTRUCTURE
  1 ****   3 GROUP 4 **** **** 0

# MOE 2024.06 (io_trps.svl 2023.06)
