@<TRIPOS>MOLECULE
NONAME
50 52 1 0 0 
SMALL
USER_CHARGES


@<TRIPOS>ATOM
  1 O        1.1880    -0.0520    -0.9680 O.2   1 <1>  -0.5700 
  2 C        1.7940    -0.6670    -0.1260 C.2   1 <1>   0.5690 
  3 N        2.6930    -0.0310     0.6950 N.am  1 <1>  -0.6600 
  4 C        1.5500    -2.1620    -0.0190 C.3   1 <1>  -0.0990 
  5 C        3.7280    -0.7000     1.5460 C.3   1 <1>   0.1400 
  6 C        2.6580     1.4550     0.8090 C.3   1 <1>   0.1400 
  7 C        0.2860    -2.6000    -0.7750 C.3   1 <1>   0.0960 
  8 C        5.1600    -0.5570     0.9760 C.3   1 <1>   0.3430 
  9 C        3.5520     2.1030    -0.2520 C.3   1 <1>  -0.1600 
 10 N        0.0730    -4.0500    -0.6150 N.pl3 1 <1>   0.0480 
 11 N        5.5330     0.8410     0.5650 N.4   1 <1>  -0.9590 
 12 C        4.7790     1.2840    -0.6470 C.3   1 <1>   0.3430 
 13 C        0.4510    -5.0430    -1.4210 C.2   1 <1>   0.0360 
 14 C       -0.5170    -4.7000     0.3890 C.2   1 <1>   0.0360 
 15 C        6.9980     0.9830     0.3520 C.3   1 <1>   0.5240 
 16 N        0.1270    -6.1950    -0.9460 N.2   1 <1>  -0.3380 
 17 N       -0.4940    -5.9750     0.2150 N.2   1 <1>  -0.3380 
 18 C        7.3080     2.4590     0.2820 C.2   1 <1>  -0.1810 
 19 C        7.3650     3.3260     1.3670 C.2   1 <1>   0.1390 
 20 C        7.5780     3.2360    -0.7910 C.2   1 <1>  -0.3020 
 21 N        7.6260     4.5390     1.0030 N.2   1 <1>  -0.7070 
 22 N        7.7720     4.4900    -0.3320 N.pl3 1 <1>   0.3140 
 23 C        8.1070     5.6920    -1.1270 C.3   1 <1>   0.0960 
 24 C        9.5810     5.6840    -1.5500 C.3   1 <1>  -0.2400 
 25 H        1.4340    -2.4170     1.0190 H     1 <1>   0.0800 
 26 H        2.4020    -2.6790    -0.4200 H     1 <1>   0.0800 
 27 H        3.5090    -1.7470     1.6530 H     1 <1>   0.0800 
 28 H        3.6960    -0.2770     2.5360 H     1 <1>   0.0800 
 29 H        2.9780     1.7490     1.7940 H     1 <1>   0.0800 
 30 H        1.6450     1.8070     0.6870 H     1 <1>   0.0800 
 31 H        0.3800    -2.3750    -1.8240 H     1 <1>   0.0800 
 32 H       -0.5750    -2.0780    -0.3950 H     1 <1>   0.0800 
 33 H        5.2540    -1.2130     0.1260 H     1 <1>   0.0800 
 34 H        5.8500    -0.9070     1.7270 H     1 <1>   0.0800 
 35 H        3.8540     3.0800     0.0810 H     1 <1>   0.0800 
 36 H        2.9590     2.2510    -1.1380 H     1 <1>   0.0800 
 37 H        5.2920     1.5020     1.3130 H     1 <1>   0.4500 
 38 H        5.4040     1.8920    -1.2810 H     1 <1>   0.0800 
 39 H        4.4630     0.4240    -1.2170 H     1 <1>   0.0800 
 40 H        0.9640    -4.8890    -2.3530 H     1 <1>   0.1500 
 41 H       -0.9550    -4.2070     1.2380 H     1 <1>   0.1500 
 42 H        7.2950     0.4990    -0.5640 H     1 <1>   0.0800 
 43 H        7.5450     0.5430     1.1700 H     1 <1>   0.0800 
 44 H        7.2140     3.0550     2.3990 H     1 <1>   0.1500 
 45 H        7.6510     2.9910    -1.8350 H     1 <1>   0.1500 
 46 H        7.9050     6.5600    -0.5250 H     1 <1>   0.0800 
 47 H        7.4700     5.7200    -1.9920 H     1 <1>   0.0800 
 48 H       10.2140     5.6620    -0.6800 H     1 <1>   0.0800 
 49 H        9.8040     6.5750    -2.1090 H     1 <1>   0.0800 
 50 H        9.7950     4.8310    -2.1690 H     1 <1>   0.0800 
@<TRIPOS>BOND
  1   1   2  2   
  2   2   3  am  
  3   2   4  1   
  4   3   5  1   
  5   3   6  1   
  6   4   7  1   
  7   4  25  1   
  8   4  26  1   
  9   5   8  1   
 10   5  27  1   
 11   5  28  1   
 12   6   9  1   
 13   6  29  1   
 14   6  30  1   
 15   7  10  1   
 16   7  31  1   
 17   7  32  1   
 18   8  11  1   
 19   8  33  1   
 20   8  34  1   
 21   9  12  1   
 22   9  35  1   
 23   9  36  1   
 24  10  13  1   
 25  10  14  1   
 26  11  12  1   
 27  11  15  1   
 28  11  37  1   
 29  12  38  1   
 30  12  39  1   
 31  13  16  2   
 32  13  40  1   
 33  14  17  2   
 34  14  41  1   
 35  15  18  1   
 36  15  42  1   
 37  15  43  1   
 38  16  17  1   
 39  18  19  1   
 40  18  20  2   
 41  19  21  2   
 42  19  44  1   
 43  20  22  1   
 44  20  45  1   
 45  21  22  1   
 46  22  23  1   
 47  23  24  1   
 48  23  46  1   
 49  23  47  1   
 50  24  48  1   
 51  24  49  1   
 52  24  50  1   
@<TRIPOS>SUBSTRUCTURE
  1 ****   3 GROUP 4 **** **** 0

# MOE 2024.06 (io_trps.svl 2023.06)
