@<TRIPOS>MOLECULE
NONAME
54 57 1 0 0 
SMALL
USER_CHARGES


@<TRIPOS>ATOM
  1 O       -0.8780     0.1650     1.1170 O.2   1 <1>  -0.5700 
  2 C       -1.8660     0.7760     0.7820 C.2   1 <1>   0.6300 
  3 N       -2.9370     0.1290     0.2290 N.am  1 <1>  -0.6600 
  4 C       -1.9430     2.2850     1.0220 C.3   1 <1>  -0.1000 
  5 C       -4.2680     0.7190    -0.0560 C.3   1 <1>   0.1400 
  6 C       -2.9550    -1.3340    -0.0090 C.3   1 <1>   0.1400 
  7 C       -1.9880     3.2930    -0.1090 C.3   1 <1>  -0.1900 
  8 C       -0.8010     3.2530     0.8050 C.3   1 <1>  -0.1900 
  9 C       -5.2180    -0.4760    -0.0120 C.3   1 <1>   0.2000 
 10 C       -4.3640    -1.6350    -0.5430 C.3   1 <1>  -0.0800 
 11 C       -3.0150     4.4330    -0.0160 C.3   1 <1>  -0.1450 
 12 C       -1.8350     2.8430    -1.5730 C.3   1 <1>  -0.1450 
 13 C       -0.5850     4.3480     1.8620 C.3   1 <1>  -0.1450 
 14 C        0.5650     2.7510     0.3030 C.3   1 <1>  -0.1450 
 15 O       -5.5520    -0.7090     1.3140 O.3   1 <1>  -0.6800 
 16 C       -4.8890    -3.0400    -0.1770 C.3   1 <1>  -0.0160 
 17 C       -4.1580    -4.2340    -0.8050 C.ar  1 <1>  -0.1440 
 18 C       -4.4590    -5.5480    -0.3670 C.ar  1 <1>   0.0000 
 19 C       -3.2190    -4.1130    -1.7920 C.ar  1 <1>  -0.1500 
 20 C       -3.7530    -6.6260    -0.9580 C.ar  1 <1>   0.3100 
 21 C       -5.4250    -5.8600     0.6200 C.ar  1 <1>  -0.1500 
 22 C       -2.5830    -5.2460    -2.3120 C.ar  1 <1>   0.1600 
 23 N       -2.8200    -6.4580    -1.9260 N.ar  1 <1>  -0.6200 
 24 C       -4.0270    -7.9360    -0.5350 C.ar  1 <1>  -0.1500 
 25 C       -5.6700    -7.1490     1.0090 C.ar  1 <1>  -0.1500 
 26 C       -4.9630    -8.2030     0.4270 C.ar  1 <1>  -0.1500 
 27 H       -2.5530     2.4760     1.8850 H     1 <1>   0.1000 
 28 H       -4.5420     1.4750     0.6590 H     1 <1>   0.0800 
 29 H       -4.2590     1.1410    -1.0440 H     1 <1>   0.0800 
 30 H       -2.1870    -1.6060    -0.7120 H     1 <1>   0.0800 
 31 H       -2.7760    -1.8430     0.9230 H     1 <1>   0.0800 
 32 H       -6.1240    -0.3180    -0.5720 H     1 <1>   0.0800 
 33 H       -4.3440    -1.5390    -1.6130 H     1 <1>   0.0800 
 34 H       -3.9320     4.1490    -0.4980 H     1 <1>   0.0800 
 35 H       -2.6290     5.3120    -0.5010 H     1 <1>   0.0800 
 36 H       -3.2490     4.6800     1.0030 H     1 <1>   0.0800 
 37 H       -2.7970     2.6830    -2.0220 H     1 <1>   0.0800 
 38 H       -1.2810     1.9270    -1.6610 H     1 <1>   0.0800 
 39 H       -1.3230     3.6050    -2.1340 H     1 <1>   0.0800 
 40 H        0.0880     3.9970     2.6230 H     1 <1>   0.0800 
 41 H       -1.5010     4.6280     2.3470 H     1 <1>   0.0800 
 42 H       -0.1590     5.2220     1.4030 H     1 <1>   0.0800 
 43 H        1.1660     2.4300     1.1350 H     1 <1>   0.0800 
 44 H        1.0820     3.5410    -0.2120 H     1 <1>   0.0800 
 45 H        0.4770     1.9140    -0.3630 H     1 <1>   0.0800 
 46 H       -4.7320    -0.7030     1.8480 H     1 <1>   0.4000 
 47 H       -5.9260    -3.0990    -0.4590 H     1 <1>   0.0800 
 48 H       -4.8400    -3.1450     0.8920 H     1 <1>   0.0800 
 49 H       -2.9290    -3.1690    -2.2100 H     1 <1>   0.1500 
 50 H       -5.9880    -5.0700     1.0800 H     1 <1>   0.1500 
 51 H       -1.8470    -5.0990    -3.0840 H     1 <1>   0.1500 
 52 H       -3.4720    -8.7310    -0.9990 H     1 <1>   0.1500 
 53 H       -6.4070    -7.3670     1.7620 H     1 <1>   0.1500 
 54 H       -5.1630    -9.2130     0.7420 H     1 <1>   0.1500 
@<TRIPOS>BOND
  1   1   2  2   
  2   2   3  am  
  3   2   4  1   
  4   3   5  1   
  5   3   6  1   
  6   4   7  1   
  7   4   8  1   
  8   4  27  1   
  9   5   9  1   
 10   5  28  1   
 11   5  29  1   
 12   6  10  1   
 13   6  30  1   
 14   6  31  1   
 15   7   8  1   
 16   7  11  1   
 17   7  12  1   
 18   8  13  1   
 19   8  14  1   
 20   9  10  1   
 21   9  15  1   
 22   9  32  1   
 23  10  16  1   
 24  10  33  1   
 25  11  34  1   
 26  11  35  1   
 27  11  36  1   
 28  12  37  1   
 29  12  38  1   
 30  12  39  1   
 31  13  40  1   
 32  13  41  1   
 33  13  42  1   
 34  14  43  1   
 35  14  44  1   
 36  14  45  1   
 37  15  46  1   
 38  16  17  1   
 39  16  47  1   
 40  16  48  1   
 41  17  18  ar  
 42  17  19  ar  
 43  18  20  ar  
 44  18  21  ar  
 45  19  22  ar  
 46  19  49  1   
 47  20  23  ar  
 48  20  24  ar  
 49  21  25  ar  
 50  21  50  1   
 51  22  23  ar  
 52  22  51  1   
 53  24  26  ar  
 54  24  52  1   
 55  25  26  ar  
 56  25  53  1   
 57  26  54  1   
@<TRIPOS>SUBSTRUCTURE
  1 ****   6 GROUP 4 **** **** 0

# MOE 2024.06 (io_trps.svl 2023.06)
