@<TRIPOS>MOLECULE
NONAME
63 67 1 0 0 
SMALL
USER_CHARGES


@<TRIPOS>ATOM
  1 O        0.2170     0.7550     0.6880 O.2   1 <1>  -0.5700 
  2 C       -0.5700     1.4890     0.1330 C.2   1 <1>   0.5690 
  3 N       -1.8800     1.5890     0.5300 N.am  1 <1>  -0.6600 
  4 C       -0.0090     2.3220    -1.0350 C.3   1 <1>   0.4040 
  5 C       -2.9340     2.4410    -0.1120 C.3   1 <1>   0.1400 
  6 C       -2.4150     0.7570     1.6500 C.3   1 <1>   0.1400 
  7 N        1.4930     2.5170    -0.9650 N.4   1 <1>  -0.9590 
  8 C       -3.5630     3.4060     0.9130 C.3   1 <1>   0.1430 
  9 C       -3.0460     1.6590     2.7170 C.3   1 <1>  -0.1600 
 10 C        1.8840     3.3200     0.2360 C.3   1 <1>   0.4230 
 11 C        2.0710     2.9720    -2.2680 C.3   1 <1>   0.2630 
 12 C       -4.6900     4.1990     0.2770 C.ar  1 <1>   0.1670 
 13 C       -4.1020     2.6110     2.1220 C.3   1 <1>  -0.1600 
 14 C       -2.5850     4.5290     1.3530 C.3   1 <1>  -0.1600 
 15 C        1.4460     4.7900     0.1270 C.3   1 <1>  -0.1600 
 16 C        3.4030     3.3470     0.4110 C.3   1 <1>  -0.1600 
 17 N       -5.6380     3.6960    -0.4760 N.ar  1 <1>  -0.6200 
 18 C       -4.6050     5.5220     0.5790 C.ar  1 <1>  -0.1440 
 19 C       -3.4150     5.8220     1.4540 C.3   1 <1>  -0.0170 
 20 C        2.7160     5.6480     0.1850 C.3   1 <1>  -0.1600 
 21 C        3.8760     4.7040    -0.1110 C.3   1 <1>  -0.1600 
 22 C       -6.5510     4.5690    -0.9280 C.ar  1 <1>   0.6200 
 23 C       -5.5690     6.3540     0.0710 C.ar  1 <1>   0.1600 
 24 N       -6.5400     5.8870    -0.6800 N.ar  1 <1>  -0.6200 
 25 C       -7.6370     4.0460    -1.7500 C.ar  1 <1>   0.0000 
 26 C       -7.5080     2.8560    -2.4740 C.ar  1 <1>  -0.1500 
 27 C       -8.8630     4.7110    -1.8540 C.ar  1 <1>  -0.1500 
 28 C       -8.5370     2.3600    -3.2540 C.ar  1 <1>  -0.1500 
 29 C       -9.8970     4.2210    -2.6320 C.ar  1 <1>  -0.1500 
 30 C       -9.7360     3.0420    -3.3350 C.ar  1 <1>  -0.1500 
 31 H       -0.4970     3.2790    -1.0460 H     1 <1>   0.0800 
 32 H       -0.2590     1.8060    -1.9450 H     1 <1>   0.0800 
 33 H       -3.7070     1.7940    -0.4950 H     1 <1>   0.0800 
 34 H       -2.5460     3.0000    -0.9430 H     1 <1>   0.0800 
 35 H       -1.6360     0.1630     2.0990 H     1 <1>   0.0800 
 36 H       -3.1590     0.0820     1.2610 H     1 <1>   0.0800 
 37 H        1.8530     1.5690    -0.7540 H     1 <1>   0.4500 
 38 H       -2.2680     2.2160     3.2060 H     1 <1>   0.0800 
 39 H       -3.5100     1.0400     3.4660 H     1 <1>   0.0800 
 40 H        1.4470     2.8740     1.1170 H     1 <1>   0.0800 
 41 H        1.7400     3.9710    -2.5010 H     1 <1>   0.0800 
 42 H        1.7690     2.3120    -3.0650 H     1 <1>   0.0800 
 43 H        3.1470     2.9710    -2.2190 H     1 <1>   0.0800 
 44 H       -4.9450     2.0250     1.7980 H     1 <1>   0.0800 
 45 H       -4.4570     3.2860     2.8820 H     1 <1>   0.0800 
 46 H       -1.8400     4.6750     0.5920 H     1 <1>   0.0800 
 47 H       -2.0850     4.3130     2.2800 H     1 <1>   0.0800 
 48 H        0.8110     5.0420     0.9580 H     1 <1>   0.0800 
 49 H        0.9130     4.9930    -0.7840 H     1 <1>   0.0800 
 50 H        3.9070     2.5220    -0.0610 H     1 <1>   0.0800 
 51 H        3.6140     3.3050     1.4660 H     1 <1>   0.0800 
 52 H       -2.8670     6.6800     1.1060 H     1 <1>   0.0800 
 53 H       -3.7450     5.9860     2.4660 H     1 <1>   0.0800 
 54 H        2.8340     6.0450     1.1810 H     1 <1>   0.0800 
 55 H        2.6840     6.4720    -0.5090 H     1 <1>   0.0800 
 56 H        4.0510     4.6610    -1.1720 H     1 <1>   0.0800 
 57 H        4.7840     5.0250     0.3720 H     1 <1>   0.0800 
 58 H       -5.5470     7.4100     0.2820 H     1 <1>   0.1500 
 59 H       -6.5840     2.3070    -2.4270 H     1 <1>   0.1500 
 60 H       -9.0120     5.6300    -1.3150 H     1 <1>   0.1500 
 61 H       -8.4060     1.4410    -3.7980 H     1 <1>   0.1500 
 62 H      -10.8270     4.7590    -2.6900 H     1 <1>   0.1500 
 63 H      -10.5390     2.6590    -3.9410 H     1 <1>   0.1500 
@<TRIPOS>BOND
  1   1   2  2   
  2   2   3  am  
  3   2   4  1   
  4   3   5  1   
  5   3   6  1   
  6   4   7  1   
  7   4  31  1   
  8   4  32  1   
  9   5   8  1   
 10   5  33  1   
 11   5  34  1   
 12   6   9  1   
 13   6  35  1   
 14   6  36  1   
 15   7  10  1   
 16   7  11  1   
 17   7  37  1   
 18   8  12  1   
 19   8  13  1   
 20   8  14  1   
 21   9  13  1   
 22   9  38  1   
 23   9  39  1   
 24  10  15  1   
 25  10  16  1   
 26  10  40  1   
 27  11  41  1   
 28  11  42  1   
 29  11  43  1   
 30  12  17  ar  
 31  12  18  ar  
 32  13  44  1   
 33  13  45  1   
 34  14  19  1   
 35  14  46  1   
 36  14  47  1   
 37  15  20  1   
 38  15  48  1   
 39  15  49  1   
 40  16  21  1   
 41  16  50  1   
 42  16  51  1   
 43  17  22  ar  
 44  18  19  1   
 45  18  23  ar  
 46  19  52  1   
 47  19  53  1   
 48  20  21  1   
 49  20  54  1   
 50  20  55  1   
 51  21  56  1   
 52  21  57  1   
 53  22  24  ar  
 54  22  25  1   
 55  23  24  ar  
 56  23  58  1   
 57  25  26  ar  
 58  25  27  ar  
 59  26  28  ar  
 60  26  59  1   
 61  27  29  ar  
 62  27  60  1   
 63  28  30  ar  
 64  28  61  1   
 65  29  30  ar  
 66  29  62  1   
 67  30  63  1   
@<TRIPOS>SUBSTRUCTURE
  1 ****   5 GROUP 4 **** **** 0

# MOE 2024.06 (io_trps.svl 2023.06)
