@<TRIPOS>MOLECULE
NONAME
42 44 1 0 0 
SMALL
USER_CHARGES


@<TRIPOS>ATOM
  1 F        0.8280     1.7140    -1.5950 F     1 <1>  -0.1900 
  2 C        0.4760     2.6910    -0.8030 C.ar  1 <1>   0.1900 
  3 C       -0.8170     3.1730    -0.8760 C.ar  1 <1>  -0.1500 
  4 C        1.4110     3.2050     0.0740 C.ar  1 <1>  -0.1500 
  5 C       -1.1950     4.2160    -0.0420 C.ar  1 <1>  -0.1440 
  6 C        1.0310     4.2410     0.9090 C.ar  1 <1>  -0.1500 
  7 C       -0.2620     4.7390     0.8490 C.ar  1 <1>  -0.1500 
  8 C       -2.6150     4.7830    -0.1050 C.3   1 <1>   0.3940 
  9 N       -2.5180     6.2720    -0.2920 N.3   1 <1>  -0.8100 
 10 C       -3.4530     4.3360     1.1230 C.2   1 <1>   0.5690 
 11 C       -3.7900     6.9470     0.0540 C.3   1 <1>   0.1100 
 12 C       -2.0580     6.6260    -1.6690 C.3   1 <1>   0.1710 
 13 O       -3.5410     3.1680     1.4170 O.2   1 <1>  -0.5700 
 14 N       -4.1420     5.2560     1.8490 N.am  1 <1>  -0.7300 
 15 C       -4.1740     6.7030     1.5260 C.3   1 <1>   0.1400 
 16 C       -1.5460     8.0620    -1.7950 C.2   1 <1>   0.5690 
 17 O       -1.6670     8.6370    -2.8520 O.2   1 <1>  -0.5700 
 18 N       -0.9920     8.6150    -0.6880 N.am  1 <1>  -0.4930 
 19 C       -0.4850     9.8850    -0.4540 C.2   1 <1>   0.3520 
 20 N       -0.1400    10.2190     0.7480 N.2   1 <1>  -0.7070 
 21 C       -0.2800    10.9130    -1.3700 C.2   1 <1>  -0.1500 
 22 N        0.3050    11.4880     0.6330 N.pl3 1 <1>   0.3140 
 23 C        0.2280    11.9260    -0.6380 C.2   1 <1>  -0.3020 
 24 C        0.7980    12.2340     1.7960 C.3   1 <1>   0.0160 
 25 H       -1.5050     2.7300    -1.5730 H     1 <1>   0.1500 
 26 H        2.4070     2.8010     0.1010 H     1 <1>   0.1500 
 27 H        1.7370     4.6610     1.6050 H     1 <1>   0.1500 
 28 H       -0.5470     5.5450     1.5040 H     1 <1>   0.1500 
 29 H       -3.1140     4.3680    -0.9630 H     1 <1>   0.0800 
 30 H       -4.5810     6.5890    -0.5840 H     1 <1>   0.0800 
 31 H       -3.6970     8.0090    -0.1010 H     1 <1>   0.0800 
 32 H       -2.8570     6.4790    -2.3740 H     1 <1>   0.0800 
 33 H       -1.2440     5.9850    -1.9570 H     1 <1>   0.0800 
 34 H       -4.6400     4.9240     2.6780 H     1 <1>   0.3700 
 35 H       -5.1620     7.0890     1.7060 H     1 <1>   0.0800 
 36 H       -3.4840     7.2260     2.1670 H     1 <1>   0.0800 
 37 H       -1.0120     8.0300     0.1460 H     1 <1>   0.3700 
 38 H       -0.4930    10.8690    -2.4230 H     1 <1>   0.1500 
 39 H        0.5300    12.9090    -0.9470 H     1 <1>   0.1500 
 40 H        1.5300    11.6370     2.3070 H     1 <1>   0.0800 
 41 H       -0.0260    12.4350     2.4550 H     1 <1>   0.0800 
 42 H        1.2420    13.1560     1.4720 H     1 <1>   0.0800 
@<TRIPOS>BOND
  1   1   2  1   
  2   2   3  ar  
  3   2   4  ar  
  4   3   5  ar  
  5   3  25  1   
  6   4   6  ar  
  7   4  26  1   
  8   5   7  ar  
  9   5   8  1   
 10   6   7  ar  
 11   6  27  1   
 12   7  28  1   
 13   8   9  1   
 14   8  10  1   
 15   8  29  1   
 16   9  11  1   
 17   9  12  1   
 18  10  13  2   
 19  10  14  am  
 20  11  15  1   
 21  11  30  1   
 22  11  31  1   
 23  12  16  1   
 24  12  32  1   
 25  12  33  1   
 26  14  15  1   
 27  14  34  1   
 28  15  35  1   
 29  15  36  1   
 30  16  17  2   
 31  16  18  am  
 32  18  19  1   
 33  18  37  1   
 34  19  20  2   
 35  19  21  1   
 36  20  22  1   
 37  21  23  2   
 38  21  38  1   
 39  22  23  1   
 40  22  24  1   
 41  23  39  1   
 42  24  40  1   
 43  24  41  1   
 44  24  42  1   
@<TRIPOS>SUBSTRUCTURE
  1 ****   9 GROUP 4 **** **** 0

# MOE 2024.06 (io_trps.svl 2023.06)
