@<TRIPOS>MOLECULE
NONAME
47 50 1 0 0 
SMALL
USER_CHARGES


@<TRIPOS>ATOM
  1 O        1.1910     0.6280    -1.0370 O.3   1 <1>  -0.6800 
  2 C        1.3410     0.1050     0.2330 C.3   1 <1>   0.2800 
  3 C        2.8500     0.0820     0.6260 C.3   1 <1>  -0.0800 
  4 C        0.7810    -1.3290     0.1870 C.3   1 <1>  -0.1600 
  5 C        0.4890     0.9750     1.1830 C.3   1 <1>  -0.1600 
  6 C        3.5720    -1.2490     0.3700 C.3   1 <1>  -0.0800 
  7 C        3.7370     1.1080    -0.0820 C.3   1 <1>   0.2090 
  8 C        1.5400    -2.2590    -0.7830 C.3   1 <1>  -0.1600 
  9 C        0.8850     2.4600     1.2640 C.3   1 <1>  -0.2400 
 10 C        3.0400    -1.9320    -0.9010 C.3   1 <1>  -0.1600 
 11 C        5.0550    -0.8800     0.2690 C.3   1 <1>   0.2090 
 12 N        5.1350     0.6000     0.0440 N.pl3 1 <1>  -0.8380 
 13 C        6.2480     1.3760     0.0740 C.ar  1 <1>   0.4610 
 14 N        7.3480     0.8040     0.5750 N.ar  1 <1>  -0.1790 
 15 C        6.3470     2.7660    -0.3260 C.ar  1 <1>   0.0000 
 16 C        8.4920     1.4870     0.9110 C.ar  1 <1>   0.2110 
 17 C        7.4880     3.5030     0.0690 C.ar  1 <1>   0.0000 
 18 C        5.4130     3.4520    -1.1290 C.ar  1 <1>  -0.1500 
 19 C        8.5640     2.8180     0.6920 C.ar  1 <1>  -0.1500 
 20 C        7.5760     4.8750    -0.2000 C.ar  1 <1>  -0.1500 
 21 C        5.5230     4.7920    -1.4050 C.ar  1 <1>  -0.1500 
 22 C        6.6040     5.5170    -0.9200 C.ar  1 <1>  -0.1500 
 23 H        0.2520     0.5780    -1.2960 H     1 <1>   0.4000 
 24 H        2.9220     0.2700     1.6820 H     1 <1>   0.0800 
 25 H        0.8550    -1.7440     1.1770 H     1 <1>   0.0800 
 26 H       -0.2640    -1.3180    -0.0660 H     1 <1>   0.0800 
 27 H       -0.5410     0.9140     0.8790 H     1 <1>   0.0800 
 28 H        0.5420     0.5590     2.1740 H     1 <1>   0.0800 
 29 H        3.4250    -1.9200     1.1990 H     1 <1>   0.0800 
 30 H        3.6250     2.0820     0.3600 H     1 <1>   0.0800 
 31 H        3.4930     1.1520    -1.1290 H     1 <1>   0.0800 
 32 H        1.4160    -3.2760    -0.4510 H     1 <1>   0.0800 
 33 H        1.1000    -2.1880    -1.7640 H     1 <1>   0.0800 
 34 H        0.8950     2.9090     0.2860 H     1 <1>   0.0800 
 35 H        1.8540     2.5770     1.7140 H     1 <1>   0.0800 
 36 H        0.1730     2.9930     1.8700 H     1 <1>   0.0800 
 37 H        3.1840    -1.2710    -1.7400 H     1 <1>   0.0800 
 38 H        3.5870    -2.8370    -1.1030 H     1 <1>   0.0800 
 39 H        5.5240    -1.4120    -0.5430 H     1 <1>   0.0800 
 40 H        5.5350    -1.1390     1.1970 H     1 <1>   0.0800 
 41 H        7.2690    -0.1840     0.7900 H     1 <1>   0.4570 
 42 H        9.3000     0.9310     1.3590 H     1 <1>   0.1500 
 43 H        4.5840     2.9330    -1.5660 H     1 <1>   0.1500 
 44 H        9.4370     3.3870     0.9660 H     1 <1>   0.1500 
 45 H        8.4260     5.4320     0.1540 H     1 <1>   0.1500 
 46 H        4.7800     5.2920    -2.0050 H     1 <1>   0.1500 
 47 H        6.6740     6.5720    -1.1280 H     1 <1>   0.1500 
@<TRIPOS>BOND
  1   1   2  1   
  2   1  23  1   
  3   2   3  1   
  4   2   4  1   
  5   2   5  1   
  6   3   6  1   
  7   3   7  1   
  8   3  24  1   
  9   4   8  1   
 10   4  25  1   
 11   4  26  1   
 12   5   9  1   
 13   5  27  1   
 14   5  28  1   
 15   6  10  1   
 16   6  11  1   
 17   6  29  1   
 18   7  12  1   
 19   7  30  1   
 20   7  31  1   
 21   8  10  1   
 22   8  32  1   
 23   8  33  1   
 24   9  34  1   
 25   9  35  1   
 26   9  36  1   
 27  10  37  1   
 28  10  38  1   
 29  11  12  1   
 30  11  39  1   
 31  11  40  1   
 32  12  13  1   
 33  13  14  ar  
 34  13  15  ar  
 35  14  16  ar  
 36  14  41  1   
 37  15  17  ar  
 38  15  18  ar  
 39  16  19  ar  
 40  16  42  1   
 41  17  19  ar  
 42  17  20  ar  
 43  18  21  ar  
 44  18  43  1   
 45  19  44  1   
 46  20  22  ar  
 47  20  45  1   
 48  21  22  ar  
 49  21  46  1   
 50  22  47  1   
@<TRIPOS>SUBSTRUCTURE
  1 ****   7 GROUP 4 **** **** 0

# MOE 2024.06 (io_trps.svl 2023.06)
