@<TRIPOS>MOLECULE
NONAME
48 51 1 0 0 
SMALL
USER_CHARGES


@<TRIPOS>ATOM
  1 O       -1.7560    -0.6360     0.7770 O.2   1 <1>  -0.5700 
  2 C       -1.8040     0.5420     0.5300 C.2   1 <1>   0.5950 
  3 C       -2.7860     1.1780    -0.3080 C.2   1 <1>  -0.0860 
  4 C       -0.7420     1.4440     1.1530 C.3   1 <1>  -0.0990 
  5 C       -3.8160     0.7060    -1.1810 C.2   1 <1>  -0.0860 
  6 C       -2.8510     2.5290    -0.3950 C.2   1 <1>  -0.0400 
  7 C       -1.2840     2.8440     1.5210 C.3   1 <1>  -0.1600 
  8 C       -4.3730     1.8490    -1.6850 C.2   1 <1>  -0.0400 
  9 C       -4.1880    -0.6630    -1.4890 C.2   1 <1>   0.7160 
 10 O       -3.7840     2.9170    -1.2120 O.3   1 <1>  -0.2800 
 11 C       -1.9800     3.5320     0.3330 C.3   1 <1>   0.0200 
 12 C       -5.5140     2.0960    -2.6570 C.3   1 <1>  -0.0600 
 13 O       -4.8960    -0.9240    -2.4420 O.2   1 <1>  -0.5700 
 14 N       -3.7740    -1.7040    -0.7210 N.am  1 <1>  -0.7300 
 15 C       -4.0390    -3.1350    -0.9820 C.3   1 <1>   0.2200 
 16 C       -5.1490    -3.6540    -0.0910 C.3   1 <1>  -0.0800 
 17 C       -2.8590    -4.0310    -0.6150 C.3   1 <1>   0.1200 
 18 C       -4.7820    -5.1270     0.0440 C.3   1 <1>   0.1200 
 19 C       -6.5520    -3.4050    -0.6660 C.3   1 <1>  -0.0170 
 20 O       -3.3920    -5.1920    -0.0450 O.3   1 <1>  -0.5600 
 21 C       -7.6230    -4.0410     0.2060 C.ar  1 <1>  -0.1430 
 22 C       -8.0080    -3.4770     1.4050 C.ar  1 <1>  -0.1500 
 23 C       -8.2620    -5.2110    -0.1500 C.ar  1 <1>  -0.1500 
 24 C       -8.9830    -4.0950     2.1700 C.ar  1 <1>   0.1600 
 25 C       -9.2250    -5.7480     0.6880 C.ar  1 <1>   0.1600 
 26 N       -9.6010    -5.2190     1.8410 N.ar  1 <1>  -0.6200 
 27 H       -0.3550     0.9690     2.0360 H     1 <1>   0.0800 
 28 H        0.0650     1.5420     0.4510 H     1 <1>   0.0800 
 29 H       -2.0010     2.7320     2.3160 H     1 <1>   0.0800 
 30 H       -0.4850     3.4670     1.8850 H     1 <1>   0.0800 
 31 H       -1.2520     3.9230    -0.3560 H     1 <1>   0.0800 
 32 H       -2.5840     4.3500     0.6860 H     1 <1>   0.0800 
 33 H       -6.0280     1.1900    -2.9140 H     1 <1>   0.0800 
 34 H       -5.1290     2.5410    -3.5560 H     1 <1>   0.0800 
 35 H       -6.2220     2.7710    -2.2130 H     1 <1>   0.0800 
 36 H       -3.1100    -1.5090     0.0400 H     1 <1>   0.3700 
 37 H       -4.2810    -3.2900    -2.0210 H     1 <1>   0.0800 
 38 H       -5.0700    -3.2070     0.8850 H     1 <1>   0.0800 
 39 H       -2.2280    -3.5670     0.1230 H     1 <1>   0.0800 
 40 H       -2.2840    -4.3040    -1.4820 H     1 <1>   0.0800 
 41 H       -5.1870    -5.7070    -0.7670 H     1 <1>   0.0800 
 42 H       -5.0980    -5.5420     0.9850 H     1 <1>   0.0800 
 43 H       -6.6140    -3.7990    -1.6660 H     1 <1>   0.0800 
 44 H       -6.7290    -2.3450    -0.7290 H     1 <1>   0.0800 
 45 H       -7.5590    -2.5640     1.7500 H     1 <1>   0.1500 
 46 H       -8.0210    -5.7120    -1.0700 H     1 <1>   0.1500 
 47 H       -9.2700    -3.6410     3.1030 H     1 <1>   0.1500 
 48 H       -9.7130    -6.6610     0.3940 H     1 <1>   0.1500 
@<TRIPOS>BOND
  1   1   2  2   
  2   2   3  1   
  3   2   4  1   
  4   3   5  1   
  5   3   6  2   
  6   4   7  1   
  7   4  27  1   
  8   4  28  1   
  9   5   8  2   
 10   5   9  1   
 11   6  10  1   
 12   6  11  1   
 13   7  11  1   
 14   7  29  1   
 15   7  30  1   
 16   8  10  1   
 17   8  12  1   
 18   9  13  2   
 19   9  14  am  
 20  11  31  1   
 21  11  32  1   
 22  12  33  1   
 23  12  34  1   
 24  12  35  1   
 25  14  15  1   
 26  14  36  1   
 27  15  16  1   
 28  15  17  1   
 29  15  37  1   
 30  16  18  1   
 31  16  19  1   
 32  16  38  1   
 33  17  20  1   
 34  17  39  1   
 35  17  40  1   
 36  18  20  1   
 37  18  41  1   
 38  18  42  1   
 39  19  21  1   
 40  19  43  1   
 41  19  44  1   
 42  21  22  ar  
 43  21  23  ar  
 44  22  24  ar  
 45  22  45  1   
 46  23  25  ar  
 47  23  46  1   
 48  24  26  ar  
 49  24  47  1   
 50  25  26  ar  
 51  25  48  1   
@<TRIPOS>SUBSTRUCTURE
  1 ****  14 GROUP 4 **** **** 0

# MOE 2024.06 (io_trps.svl 2023.06)
