@<TRIPOS>MOLECULE
NONAME
37 38 1 0 0 
SMALL
USER_CHARGES


@<TRIPOS>ATOM
  1 S        0.7200     1.4600     1.5620 S.3   1 <1>  -0.0800 
  2 C       -0.1750     1.8890     0.1150 C.2   1 <1>   0.1980 
  3 C        2.2000     1.8150     0.7240 C.2   1 <1>  -0.1100 
  4 N        0.5600     2.2460    -0.8630 N.2   1 <1>  -0.5650 
  5 C       -1.6980     1.8020     0.1490 C.3   1 <1>   0.1000 
  6 C        1.9110     2.2110    -0.5250 C.2   1 <1>   0.0460 
  7 C       -2.2920     2.7720     1.1790 C.3   1 <1>  -0.2400 
  8 C       -2.1770     0.3690     0.4150 C.3   1 <1>  -0.2400 
  9 C        2.9410     2.6140    -1.5750 C.3   1 <1>   0.3900 
 10 N        3.2160     4.0820    -1.5270 N.pl3 1 <1>  -0.8380 
 11 C        4.1830     4.6000    -0.6910 C.ar  1 <1>   0.7200 
 12 C        2.0750     4.9280    -1.9860 C.3   1 <1>   0.1290 
 13 N        4.2060     5.9240    -0.5500 N.ar  1 <1>  -0.6200 
 14 N        5.0100     3.7320    -0.1020 N.ar  1 <1>  -0.6200 
 15 C        5.1230     6.4290     0.2440 C.ar  1 <1>   0.3930 
 16 C        5.9270     4.2450     0.6890 C.ar  1 <1>   0.1600 
 17 O        5.0810     7.7790     0.3390 O.3   1 <1>  -0.3630 
 18 C        6.0230     5.5950     0.8960 C.ar  1 <1>   0.1900 
 19 C        5.9450     8.5550     1.1400 C.3   1 <1>   0.0400 
 20 F        6.9660     6.0310     1.7020 F     1 <1>  -0.1900 
 21 H        3.1290     1.7000     1.2510 H     1 <1>   0.1500 
 22 H       -2.0520     2.0950    -0.8250 H     1 <1>   0.0800 
 23 H       -1.9960     2.4980     2.1760 H     1 <1>   0.0800 
 24 H       -3.3650     2.7640     1.1220 H     1 <1>   0.0800 
 25 H       -1.9450     3.7710     0.9800 H     1 <1>   0.0800 
 26 H       -1.8780     0.0420     1.3950 H     1 <1>   0.0800 
 27 H       -1.7520    -0.2990    -0.3140 H     1 <1>   0.0800 
 28 H       -3.2490     0.3150     0.3460 H     1 <1>   0.0800 
 29 H        2.5720     2.3500    -2.5500 H     1 <1>   0.0800 
 30 H        3.8460     2.0550    -1.4210 H     1 <1>   0.0800 
 31 H        1.4980     4.4100    -2.7330 H     1 <1>   0.0800 
 32 H        2.4390     5.8480    -2.4100 H     1 <1>   0.0800 
 33 H        1.4360     5.1540    -1.1500 H     1 <1>   0.0800 
 34 H        6.6130     3.5790     1.1810 H     1 <1>   0.1500 
 35 H        5.6690     9.5880     1.0210 H     1 <1>   0.0800 
 36 H        6.9570     8.4100     0.8070 H     1 <1>   0.0800 
 37 H        5.8280     8.2630     2.1680 H     1 <1>   0.0800 
@<TRIPOS>BOND
  1   1   2  1   
  2   1   3  1   
  3   2   4  2   
  4   2   5  1   
  5   3   6  2   
  6   3  21  1   
  7   4   6  1   
  8   5   7  1   
  9   5   8  1   
 10   5  22  1   
 11   6   9  1   
 12   7  23  1   
 13   7  24  1   
 14   7  25  1   
 15   8  26  1   
 16   8  27  1   
 17   8  28  1   
 18   9  10  1   
 19   9  29  1   
 20   9  30  1   
 21  10  11  1   
 22  10  12  1   
 23  11  13  ar  
 24  11  14  ar  
 25  12  31  1   
 26  12  32  1   
 27  12  33  1   
 28  13  15  ar  
 29  14  16  ar  
 30  15  17  1   
 31  15  18  ar  
 32  16  18  ar  
 33  16  34  1   
 34  17  19  1   
 35  18  20  1   
 36  19  35  1   
 37  19  36  1   
 38  19  37  1   
@<TRIPOS>SUBSTRUCTURE
  1 ****  10 GROUP 4 **** **** 0

# MOE 2024.06 (io_trps.svl 2023.06)
