@<TRIPOS>MOLECULE
NONAME
52 54 1 0 0 
SMALL
USER_CHARGES


@<TRIPOS>ATOM
  1 O        1.0500     0.1650    -1.8890 O.2   1 <1>  -0.5700 
  2 C        1.4170    -0.4300    -0.9000 C.2   1 <1>   0.5690 
  3 N        1.9010     0.2240     0.2210 N.am  1 <1>  -0.4770 
  4 C        1.3420    -1.9650    -0.9520 C.3   1 <1>   0.1710 
  5 C        2.0280     1.6230     0.3000 C.ar  1 <1>   0.1170 
  6 C        2.2180    -0.5310     1.4640 C.3   1 <1>   0.0600 
  7 N        0.3930    -2.5940     0.0060 N.3   1 <1>  -0.8100 
  8 C        3.2560     2.2080     0.5920 C.ar  1 <1>  -0.1500 
  9 C        0.9300     2.4530     0.1040 C.ar  1 <1>  -0.1500 
 10 C        0.3610    -4.0650    -0.1060 C.3   1 <1>   0.1100 
 11 C       -0.9770    -2.1070    -0.1750 C.3   1 <1>   0.1100 
 12 C        3.3820     3.5820     0.6960 C.ar  1 <1>  -0.1500 
 13 C        1.0500     3.8270     0.2060 C.ar  1 <1>  -0.1500 
 14 C       -1.1080    -4.4760    -0.2340 C.3   1 <1>   0.0630 
 15 C       -1.8500    -3.2540     0.2990 C.3   1 <1>  -0.1600 
 16 C        2.2770     4.3940     0.5040 C.ar  1 <1>  -0.1500 
 17 C       -1.4020    -5.8450     0.3980 C.ar  1 <1>  -0.1430 
 18 C       -0.8950    -6.9960    -0.2090 C.ar  1 <1>   0.0830 
 19 C       -2.1580    -5.9770     1.5570 C.ar  1 <1>  -0.1500 
 20 O       -0.1490    -6.8270    -1.3400 O.3   1 <1>  -0.3630 
 21 C       -1.1660    -8.2650     0.3280 C.ar  1 <1>   0.0830 
 22 C       -2.4080    -7.2210     2.1030 C.ar  1 <1>  -0.1500 
 23 C        1.0990    -7.4790    -1.4500 C.3   1 <1>   0.0400 
 24 O       -0.7040    -9.3790    -0.3120 O.3   1 <1>  -0.3630 
 25 C       -1.9170    -8.3600     1.4950 C.ar  1 <1>  -0.1500 
 26 C       -1.1810   -10.6680     0.0060 C.3   1 <1>   0.0400 
 27 H        2.3280    -2.3520    -0.7710 H     1 <1>   0.0800 
 28 H        1.0660    -2.2470    -1.9540 H     1 <1>   0.0800 
 29 H        2.9500    -1.2910     1.2600 H     1 <1>   0.0800 
 30 H        1.3230    -0.9930     1.8440 H     1 <1>   0.0800 
 31 H        2.6040     0.1310     2.2200 H     1 <1>   0.0800 
 32 H        4.1170     1.5810     0.7330 H     1 <1>   0.1500 
 33 H       -0.0210     2.0110    -0.1350 H     1 <1>   0.1500 
 34 H        0.7810    -4.4890     0.7900 H     1 <1>   0.0800 
 35 H        0.9200    -4.4180    -0.9550 H     1 <1>   0.0800 
 36 H       -1.1700    -1.9120    -1.2180 H     1 <1>   0.0800 
 37 H       -1.1440    -1.2080     0.3950 H     1 <1>   0.0800 
 38 H        4.3380     4.0200     0.9220 H     1 <1>   0.1500 
 39 H        0.1900     4.4540     0.0500 H     1 <1>   0.1500 
 40 H       -1.3300    -4.5470    -1.2850 H     1 <1>   0.0800 
 41 H       -2.8540    -3.1850    -0.0770 H     1 <1>   0.0800 
 42 H       -1.8570    -3.2290     1.3730 H     1 <1>   0.0800 
 43 H        2.3720     5.4620     0.5830 H     1 <1>   0.1500 
 44 H       -2.5680    -5.1210     2.0580 H     1 <1>   0.1500 
 45 H       -2.9910    -7.3030     3.0040 H     1 <1>   0.1500 
 46 H        1.7240    -6.8990    -2.1030 H     1 <1>   0.0800 
 47 H        0.9450    -8.4560    -1.8700 H     1 <1>   0.0800 
 48 H        1.5470    -7.5520    -0.4740 H     1 <1>   0.0800 
 49 H       -2.1330    -9.3080     1.9480 H     1 <1>   0.1500 
 50 H       -0.7690   -11.3600    -0.7070 H     1 <1>   0.0800 
 51 H       -2.2540   -10.6700    -0.0620 H     1 <1>   0.0800 
 52 H       -0.8540   -10.9280     0.9970 H     1 <1>   0.0800 
@<TRIPOS>BOND
  1   1   2  2   
  2   2   3  am  
  3   2   4  1   
  4   3   5  1   
  5   3   6  1   
  6   4   7  1   
  7   4  27  1   
  8   4  28  1   
  9   5   8  ar  
 10   5   9  ar  
 11   6  29  1   
 12   6  30  1   
 13   6  31  1   
 14   7  10  1   
 15   7  11  1   
 16   8  12  ar  
 17   8  32  1   
 18   9  13  ar  
 19   9  33  1   
 20  10  14  1   
 21  10  34  1   
 22  10  35  1   
 23  11  15  1   
 24  11  36  1   
 25  11  37  1   
 26  12  16  ar  
 27  12  38  1   
 28  13  16  ar  
 29  13  39  1   
 30  14  15  1   
 31  14  17  1   
 32  14  40  1   
 33  15  41  1   
 34  15  42  1   
 35  16  43  1   
 36  17  18  ar  
 37  17  19  ar  
 38  18  20  1   
 39  18  21  ar  
 40  19  22  ar  
 41  19  44  1   
 42  20  23  1   
 43  21  24  1   
 44  21  25  ar  
 45  22  25  ar  
 46  22  45  1   
 47  23  46  1   
 48  23  47  1   
 49  23  48  1   
 50  24  26  1   
 51  25  49  1   
 52  26  50  1   
 53  26  51  1   
 54  26  52  1   
@<TRIPOS>SUBSTRUCTURE
  1 ****   7 GROUP 4 **** **** 0

# MOE 2024.06 (io_trps.svl 2023.06)
