@<TRIPOS>MOLECULE
NONAME
55 57 1 0 0 
SMALL
USER_CHARGES


@<TRIPOS>ATOM
  1 O        1.5890     0.9300     1.0160 O.2   1 <1>  -0.5700 
  2 C        1.5920     0.0920     0.1410 C.2   1 <1>   0.6300 
  3 N        1.6770     0.4580    -1.1640 N.am  1 <1>  -0.7300 
  4 C        1.5190    -1.4020     0.4730 C.3   1 <1>   0.0320 
  5 C        1.4020     1.8220    -1.6680 C.3   1 <1>   0.1400 
  6 C        0.1370    -1.9530     0.1390 C.ar  1 <1>  -0.0320 
  7 C        2.3160    -2.0460     1.5840 C.3   1 <1>  -0.1900 
  8 C        2.7430    -2.2480     0.1740 C.3   1 <1>  -0.2000 
  9 C        2.6880     2.5990    -1.9890 C.3   1 <1>  -0.1600 
 10 C       -0.0890    -2.7030    -1.0070 C.ar  1 <1>  -0.1500 
 11 C       -0.9230    -1.6870     0.9920 C.ar  1 <1>  -0.1500 
 12 C        3.2170    -1.2100     2.5030 C.3   1 <1>  -0.1450 
 13 C        1.7480    -3.2600     2.3350 C.3   1 <1>  -0.1450 
 14 C        3.6460     2.9210    -0.8180 C.3   1 <1>   0.2800 
 15 C       -1.3550    -3.1830    -1.2920 C.ar  1 <1>  -0.1500 
 16 C       -2.1900    -2.1660     0.7090 C.ar  1 <1>  -0.1500 
 17 O        2.8960     3.2030     0.3090 O.3   1 <1>  -0.6800 
 18 C        4.6110     1.7700    -0.4700 C.3   1 <1>  -0.1600 
 19 C        4.4790     4.1790    -1.1160 C.3   1 <1>  -0.1600 
 20 C       -2.4070    -2.9150    -0.4340 C.ar  1 <1>  -0.1500 
 21 C        5.8120     2.1850     0.3920 C.3   1 <1>   0.3430 
 22 C        5.4100     4.5910     0.0340 C.3   1 <1>   0.3430 
 23 N        5.5460     3.4960     1.0350 N.4   1 <1>  -0.9590 
 24 C        6.4960     3.8260     2.1340 C.3   1 <1>   0.2630 
 25 H        1.6130    -0.2870    -1.8610 H     1 <1>   0.3700 
 26 H        0.8140     2.3650    -0.9450 H     1 <1>   0.0800 
 27 H        0.8040     1.7410    -2.5610 H     1 <1>   0.0800 
 28 H        3.6390    -1.7620    -0.1700 H     1 <1>   0.1000 
 29 H        2.6240    -3.2280    -0.2540 H     1 <1>   0.1000 
 30 H        2.3680     3.5310    -2.4190 H     1 <1>   0.0800 
 31 H        3.2230     2.0860    -2.7680 H     1 <1>   0.0800 
 32 H        0.7190    -2.9180    -1.6830 H     1 <1>   0.1500 
 33 H       -0.7570    -1.1030     1.8810 H     1 <1>   0.1500 
 34 H        3.7040    -0.4200     1.9640 H     1 <1>   0.0800 
 35 H        3.9750    -1.8310     2.9480 H     1 <1>   0.0800 
 36 H        2.6270    -0.7700     3.2880 H     1 <1>   0.0800 
 37 H        1.1830    -3.8990     1.6800 H     1 <1>   0.0800 
 38 H        1.0980    -2.9320     3.1270 H     1 <1>   0.0800 
 39 H        2.5440    -3.8430     2.7620 H     1 <1>   0.0800 
 40 H       -1.5240    -3.7650    -2.1810 H     1 <1>   0.1500 
 41 H       -3.0060    -1.9550     1.3790 H     1 <1>   0.1500 
 42 H        2.3180     2.4220     0.5340 H     1 <1>   0.4000 
 43 H        5.0020     1.3470    -1.3780 H     1 <1>   0.0800 
 44 H        4.0880     0.9790     0.0280 H     1 <1>   0.0800 
 45 H        3.8310     5.0050    -1.3480 H     1 <1>   0.0800 
 46 H        5.0780     4.0020    -1.9910 H     1 <1>   0.0800 
 47 H       -3.3920    -3.2880    -0.6540 H     1 <1>   0.1500 
 48 H        6.6930     2.2620    -0.2250 H     1 <1>   0.0800 
 49 H        5.9890     1.4310     1.1420 H     1 <1>   0.0800 
 50 H        4.9950     5.4590     0.5210 H     1 <1>   0.0800 
 51 H        6.3770     4.8580    -0.3620 H     1 <1>   0.0800 
 52 H        4.5800     3.4050     1.4140 H     1 <1>   0.4500 
 53 H        7.4960     3.9320     1.7460 H     1 <1>   0.0800 
 54 H        6.4930     3.0440     2.8770 H     1 <1>   0.0800 
 55 H        6.2080     4.7500     2.6100 H     1 <1>   0.0800 
@<TRIPOS>BOND
  1   1   2  2   
  2   2   3  am  
  3   2   4  1   
  4   3   5  1   
  5   3  25  1   
  6   4   6  1   
  7   4   7  1   
  8   4   8  1   
  9   5   9  1   
 10   5  26  1   
 11   5  27  1   
 12   6  10  ar  
 13   6  11  ar  
 14   7   8  1   
 15   7  12  1   
 16   7  13  1   
 17   8  28  1   
 18   8  29  1   
 19   9  14  1   
 20   9  30  1   
 21   9  31  1   
 22  10  15  ar  
 23  10  32  1   
 24  11  16  ar  
 25  11  33  1   
 26  12  34  1   
 27  12  35  1   
 28  12  36  1   
 29  13  37  1   
 30  13  38  1   
 31  13  39  1   
 32  14  17  1   
 33  14  18  1   
 34  14  19  1   
 35  15  20  ar  
 36  15  40  1   
 37  16  20  ar  
 38  16  41  1   
 39  17  42  1   
 40  18  21  1   
 41  18  43  1   
 42  18  44  1   
 43  19  22  1   
 44  19  45  1   
 45  19  46  1   
 46  20  47  1   
 47  21  23  1   
 48  21  48  1   
 49  21  49  1   
 50  22  23  1   
 51  22  50  1   
 52  22  51  1   
 53  23  24  1   
 54  23  52  1   
 55  24  53  1   
 56  24  54  1   
 57  24  55  1   
@<TRIPOS>SUBSTRUCTURE
  1 ****   2 GROUP 4 **** **** 0

# MOE 2024.06 (io_trps.svl 2023.06)
