@<TRIPOS>MOLECULE
NONAME
54 56 1 0 0 
SMALL
USER_CHARGES


@<TRIPOS>ATOM
  1 O       -0.1240     0.2620     0.8720 O.2   1 <1>  -0.5700 
  2 C       -0.0140     1.4120     0.4890 C.2   1 <1>   0.6900 
  3 N       -1.1270     2.2080     0.3750 N.am  1 <1>  -0.6600 
  4 N        1.2010     1.9490     0.1820 N.am  1 <1>  -0.5470 
  5 C       -1.1420     3.4770    -0.4120 C.3   1 <1>   0.1400 
  6 C       -2.4200     1.7620     0.9690 C.3   1 <1>   0.1400 
  7 C        2.5130     1.4500     0.1270 C.ar  1 <1>   0.1170 
  8 C       -2.5380     3.7120    -0.9890 C.3   1 <1>  -0.1600 
  9 C       -3.2860     2.9710     1.3310 C.3   1 <1>  -0.1600 
 10 C        3.5580     2.3700    -0.0150 C.ar  1 <1>   0.0820 
 11 C        2.8190     0.0950     0.1980 C.ar  1 <1>  -0.1500 
 12 C       -3.5890     3.8880     0.1210 C.3   1 <1>   0.2800 
 13 O        3.2150     3.6930    -0.0900 O.3   1 <1>  -0.3630 
 14 C        4.8760     1.9260    -0.0770 C.ar  1 <1>  -0.1500 
 15 C        4.1300    -0.3410     0.1360 C.ar  1 <1>  -0.1500 
 16 O       -3.4210     5.2070     0.5870 O.3   1 <1>  -0.5600 
 17 C       -5.0030     3.6250    -0.4650 C.3   1 <1>  -0.1600 
 18 C        4.1960     4.7030    -0.1140 C.3   1 <1>   0.1200 
 19 C        5.1590     0.5730     0.0000 C.ar  1 <1>  -0.1500 
 20 C       -4.4940     6.1120     0.4940 C.3   1 <1>   0.1200 
 21 C       -6.1830     4.2790     0.2960 C.3   1 <1>   0.2800 
 22 C        3.4800     6.0500    -0.1220 C.3   1 <1>  -0.2400 
 23 C       -5.7300     5.4940     1.1500 C.3   1 <1>   0.2000 
 24 O       -7.0310     4.7750    -0.6770 O.3   1 <1>  -0.6800 
 25 C       -7.0350     3.2650     1.0710 C.3   1 <1>  -0.2400 
 26 O       -5.3570     5.1200     2.4390 O.3   1 <1>  -0.6800 
 27 H        1.1760     2.9590     0.0750 H     1 <1>   0.3700 
 28 H       -0.8710     4.2980     0.2300 H     1 <1>   0.0800 
 29 H       -0.4320     3.4180    -1.2200 H     1 <1>   0.0800 
 30 H       -2.9310     1.1320     0.2620 H     1 <1>   0.0800 
 31 H       -2.2270     1.1810     1.8560 H     1 <1>   0.0800 
 32 H       -2.7850     2.8680    -1.6090 H     1 <1>   0.0800 
 33 H       -2.5300     4.5820    -1.6200 H     1 <1>   0.0800 
 34 H       -2.7550     3.5240     2.0860 H     1 <1>   0.0800 
 35 H       -4.1950     2.6150     1.7750 H     1 <1>   0.0800 
 36 H        2.0330    -0.6300     0.2990 H     1 <1>   0.1500 
 37 H        5.6950     2.6100    -0.1860 H     1 <1>   0.1500 
 38 H        4.3460    -1.3940     0.1950 H     1 <1>   0.1500 
 39 H       -4.9950     3.9990    -1.4740 H     1 <1>   0.0800 
 40 H       -5.1540     2.5630    -0.5400 H     1 <1>   0.0800 
 41 H        4.8100     4.6040     0.7650 H     1 <1>   0.0800 
 42 H        4.7900     4.5820    -1.0030 H     1 <1>   0.0800 
 43 H        6.1780     0.2310    -0.0470 H     1 <1>   0.1500 
 44 H       -4.2150     7.0190     1.0000 H     1 <1>   0.0800 
 45 H       -4.6750     6.3360    -0.5430 H     1 <1>   0.0800 
 46 H        2.8760     6.1540     0.7610 H     1 <1>   0.0800 
 47 H        2.8600     6.1350    -0.9960 H     1 <1>   0.0800 
 48 H        4.2030     6.8450    -0.1370 H     1 <1>   0.0800 
 49 H       -6.5330     6.2050     1.2380 H     1 <1>   0.0800 
 50 H       -7.4860     4.0350    -1.1200 H     1 <1>   0.4000 
 51 H       -6.4600     2.8070     1.8540 H     1 <1>   0.0800 
 52 H       -7.3980     2.4860     0.4250 H     1 <1>   0.0800 
 53 H       -7.8700     3.7640     1.5320 H     1 <1>   0.0800 
 54 H       -4.4020     4.8980     2.4010 H     1 <1>   0.4000 
@<TRIPOS>BOND
  1   1   2  2   
  2   2   3  am  
  3   2   4  am  
  4   3   5  1   
  5   3   6  1   
  6   4   7  1   
  7   4  27  1   
  8   5   8  1   
  9   5  28  1   
 10   5  29  1   
 11   6   9  1   
 12   6  30  1   
 13   6  31  1   
 14   7  10  ar  
 15   7  11  ar  
 16   8  12  1   
 17   8  32  1   
 18   8  33  1   
 19   9  12  1   
 20   9  34  1   
 21   9  35  1   
 22  10  13  1   
 23  10  14  ar  
 24  11  15  ar  
 25  11  36  1   
 26  12  16  1   
 27  12  17  1   
 28  13  18  1   
 29  14  19  ar  
 30  14  37  1   
 31  15  19  ar  
 32  15  38  1   
 33  16  20  1   
 34  17  21  1   
 35  17  39  1   
 36  17  40  1   
 37  18  22  1   
 38  18  41  1   
 39  18  42  1   
 40  19  43  1   
 41  20  23  1   
 42  20  44  1   
 43  20  45  1   
 44  21  23  1   
 45  21  24  1   
 46  21  25  1   
 47  22  46  1   
 48  22  47  1   
 49  22  48  1   
 50  23  26  1   
 51  23  49  1   
 52  24  50  1   
 53  25  51  1   
 54  25  52  1   
 55  25  53  1   
 56  26  54  1   
@<TRIPOS>SUBSTRUCTURE
  1 ****   5 GROUP 4 **** **** 0

# MOE 2024.06 (io_trps.svl 2023.06)
