@<TRIPOS>MOLECULE
NONAME
47 51 1 0 0 
SMALL
USER_CHARGES


@<TRIPOS>ATOM
  1 S       -0.2920     0.7960    -2.3770 S.3   1 <1>  -0.0800 
  2 C       -1.0850     1.2280    -0.8700 C.2   1 <1>  -0.1400 
  3 C       -1.5630    -0.3610    -2.7510 C.2   1 <1>  -0.1100 
  4 C       -2.2210     0.5360    -0.7170 C.2   1 <1>  -0.1810 
  5 C       -0.5150     2.2610     0.0970 C.3   1 <1>   0.4600 
  6 C       -2.4990    -0.3790    -1.7820 C.2   1 <1>  -0.1500 
  7 C       -3.0750     0.7650     0.5090 C.3   1 <1>   0.0210 
  8 O       -1.3010     2.2550     1.2740 O.3   1 <1>  -0.5600 
  9 C       -0.5310     3.6700    -0.5100 C.3   1 <1>  -0.1600 
 10 C        0.9060     1.8860     0.5250 C.3   1 <1>  -0.1600 
 11 C       -2.6970     2.1200     1.1400 C.3   1 <1>   0.1200 
 12 C        0.0770     4.7050     0.4390 C.3   1 <1>   0.1400 
 13 C        1.5000     2.9290     1.4720 C.3   1 <1>   0.1400 
 14 N        1.4470     4.2740     0.8320 N.am  1 <1>  -0.6600 
 15 C        2.5850     5.0490     0.6590 C.2   1 <1>   0.7160 
 16 O        3.6710     4.5050     0.7840 O.2   1 <1>  -0.5700 
 17 C        2.5430     6.4670     0.3310 C.2   1 <1>   0.1410 
 18 N        1.6570     7.3760     0.8370 N.2   1 <1>  -0.5650 
 19 C        3.3820     7.1350    -0.5080 C.2   1 <1>  -0.0150 
 20 C        2.0000     8.5250     0.2950 C.2   1 <1>   0.1420 
 21 F        4.3680     6.6470    -1.2180 F     1 <1>  -0.1370 
 22 N        3.0770     8.4330    -0.5570 N.pl3 1 <1>   0.3340 
 23 C        1.4010     9.7980     0.4840 C.2   1 <1>  -0.1050 
 24 C        3.5740     9.5450    -1.2260 C.2   1 <1>  -0.1810 
 25 C        1.8810    10.8960    -0.1660 C.2   1 <1>  -0.1380 
 26 C        2.9940    10.7600    -1.0420 C.2   1 <1>  -0.1500 
 27 C        1.2670    12.2730     0.0100 C.3   1 <1>  -0.1020 
 28 H       -1.4730    -0.9130    -3.6690 H     1 <1>   0.1500 
 29 H       -3.3780    -0.9990    -1.7710 H     1 <1>   0.1500 
 30 H       -2.9130    -0.0260     1.2190 H     1 <1>   0.0800 
 31 H       -4.1150     0.7760     0.2400 H     1 <1>   0.0800 
 32 H       -1.5330     3.9500    -0.7700 H     1 <1>   0.0800 
 33 H        0.0420     3.6660    -1.4190 H     1 <1>   0.0800 
 34 H        1.5410     1.8120    -0.3390 H     1 <1>   0.0800 
 35 H        0.8910     0.9230     1.0020 H     1 <1>   0.0800 
 36 H       -3.1290     2.2060     2.1210 H     1 <1>   0.0800 
 37 H       -3.0610     2.9300     0.5320 H     1 <1>   0.0800 
 38 H       -0.5290     4.7990     1.3240 H     1 <1>   0.0800 
 39 H        0.0940     5.6560    -0.0600 H     1 <1>   0.0800 
 40 H        2.5120     2.6570     1.7200 H     1 <1>   0.0800 
 41 H        0.9330     2.9570     2.3880 H     1 <1>   0.0800 
 42 H        0.5650     9.8460     1.1580 H     1 <1>   0.1500 
 43 H        4.4170     9.3780    -1.8720 H     1 <1>   0.1500 
 44 H        3.3590    11.6390    -1.5480 H     1 <1>   0.1500 
 45 H        2.0020    12.9560     0.3970 H     1 <1>   0.0800 
 46 H        0.4390    12.2380     0.6950 H     1 <1>   0.0800 
 47 H        0.9130    12.6420    -0.9360 H     1 <1>   0.0800 
@<TRIPOS>BOND
  1   1   2  1   
  2   1   3  1   
  3   2   4  2   
  4   2   5  1   
  5   3   6  2   
  6   3  28  1   
  7   4   6  1   
  8   4   7  1   
  9   5   8  1   
 10   5   9  1   
 11   5  10  1   
 12   6  29  1   
 13   7  11  1   
 14   7  30  1   
 15   7  31  1   
 16   8  11  1   
 17   9  12  1   
 18   9  32  1   
 19   9  33  1   
 20  10  13  1   
 21  10  34  1   
 22  10  35  1   
 23  11  36  1   
 24  11  37  1   
 25  12  14  1   
 26  12  38  1   
 27  12  39  1   
 28  13  14  1   
 29  13  40  1   
 30  13  41  1   
 31  14  15  am  
 32  15  16  2   
 33  15  17  1   
 34  17  18  1   
 35  17  19  2   
 36  18  20  2   
 37  19  21  1   
 38  19  22  1   
 39  20  22  1   
 40  20  23  1   
 41  22  24  1   
 42  23  25  2   
 43  23  42  1   
 44  24  26  2   
 45  24  43  1   
 46  25  26  1   
 47  25  27  1   
 48  26  44  1   
 49  27  45  1   
 50  27  46  1   
 51  27  47  1   
@<TRIPOS>SUBSTRUCTURE
  1 ****  12 GROUP 4 **** **** 0

# MOE 2024.06 (io_trps.svl 2023.06)
