@<TRIPOS>MOLECULE
NONAME
46 47 1 0 0 
SMALL
USER_CHARGES


@<TRIPOS>ATOM
  1 O        0.4430    -0.1760    -3.1550 O.2   1 <1>  -0.5700 
  2 C        1.1860    -0.8510    -2.4800 C.2   1 <1>   0.5690 
  3 N        1.6340    -0.4610    -1.2480 N.am  1 <1>  -0.4940 
  4 C        1.6240    -2.2280    -3.0120 C.3   1 <1>   0.2610 
  5 C        1.3220     0.6910    -0.4920 C.2   1 <1>  -0.0880 
  6 O        2.4870    -2.9000    -2.0980 O.3   1 <1>  -0.3630 
  7 C        2.3940    -2.1210    -4.3330 C.3   1 <1>  -0.2400 
  8 N        1.4300     0.7850     0.8600 N.pl3 1 <1>   0.3140 
  9 C        0.8690     1.8920    -0.9170 C.2   1 <1>  -0.1500 
 10 C        2.0460    -3.4960    -0.9600 C.ar  1 <1>   0.0830 
 11 N        1.0710     2.0120     1.3020 N.2   1 <1>  -0.7070 
 12 C        1.7930    -0.2950     1.8010 C.3   1 <1>   0.0960 
 13 C        0.7380     2.6600     0.2320 C.2   1 <1>   0.1080 
 14 C        0.7370    -3.4180    -0.4970 C.ar  1 <1>  -0.1500 
 15 C        2.9880    -4.2000    -0.2280 C.ar  1 <1>  -0.1500 
 16 C        3.3130    -0.5080     1.8440 C.3   1 <1>  -0.1600 
 17 C        0.2600     4.0920     0.2710 C.3   1 <1>  -0.0590 
 18 C        0.3810    -4.0270     0.6940 C.ar  1 <1>   0.0830 
 19 C        2.6340    -4.8210     0.9570 C.ar  1 <1>  -0.1500 
 20 C        3.6900    -1.6050     2.8440 C.3   1 <1>  -0.2400 
 21 O       -0.9100    -3.8850     1.0830 O.3   1 <1>  -0.3630 
 22 C        1.3340    -4.7340     1.4220 C.ar  1 <1>  -0.1500 
 23 C       -1.3980    -4.4990     2.2560 C.3   1 <1>   0.0400 
 24 H        2.2240    -1.1640    -0.7940 H     1 <1>   0.3700 
 25 H        0.7540    -2.8420    -3.1640 H     1 <1>   0.0800 
 26 H        3.2740    -1.5190    -4.2030 H     1 <1>   0.0800 
 27 H        1.7720    -1.6580    -5.0790 H     1 <1>   0.0800 
 28 H        2.6720    -3.1000    -4.6800 H     1 <1>   0.0800 
 29 H        0.6520     2.1950    -1.9250 H     1 <1>   0.1500 
 30 H        1.2920    -1.1960     1.4960 H     1 <1>   0.0800 
 31 H        1.4330    -0.0200     2.7750 H     1 <1>   0.0800 
 32 H       -0.0300    -2.8890    -1.0310 H     1 <1>   0.1500 
 33 H        3.9980    -4.2630    -0.5920 H     1 <1>   0.1500 
 34 H        3.7890     0.4140     2.1340 H     1 <1>   0.0800 
 35 H        3.6710    -0.7830     0.8670 H     1 <1>   0.0800 
 36 H        0.0230     4.4360    -0.7180 H     1 <1>   0.0800 
 37 H        1.0300     4.7140     0.6880 H     1 <1>   0.0800 
 38 H       -0.6160     4.1600     0.8890 H     1 <1>   0.0800 
 39 H        3.3720    -5.3710     1.5160 H     1 <1>   0.1500 
 40 H        3.3780    -1.3320     3.8370 H     1 <1>   0.0800 
 41 H        4.7570    -1.7460     2.8500 H     1 <1>   0.0800 
 42 H        3.2230    -2.5360     2.5780 H     1 <1>   0.0800 
 43 H        1.0830    -5.2220     2.3460 H     1 <1>   0.1500 
 44 H       -2.4420    -4.2610     2.3470 H     1 <1>   0.0800 
 45 H       -0.8600    -4.1120     3.1030 H     1 <1>   0.0800 
 46 H       -1.2720    -5.5640     2.1710 H     1 <1>   0.0800 
@<TRIPOS>BOND
  1   1   2  2   
  2   2   3  am  
  3   2   4  1   
  4   3   5  1   
  5   3  24  1   
  6   4   6  1   
  7   4   7  1   
  8   4  25  1   
  9   5   8  1   
 10   5   9  2   
 11   6  10  1   
 12   7  26  1   
 13   7  27  1   
 14   7  28  1   
 15   8  11  1   
 16   8  12  1   
 17   9  13  1   
 18   9  29  1   
 19  10  14  ar  
 20  10  15  ar  
 21  11  13  2   
 22  12  16  1   
 23  12  30  1   
 24  12  31  1   
 25  13  17  1   
 26  14  18  ar  
 27  14  32  1   
 28  15  19  ar  
 29  15  33  1   
 30  16  20  1   
 31  16  34  1   
 32  16  35  1   
 33  17  36  1   
 34  17  37  1   
 35  17  38  1   
 36  18  21  1   
 37  18  22  ar  
 38  19  22  ar  
 39  19  39  1   
 40  20  40  1   
 41  20  41  1   
 42  20  42  1   
 43  21  23  1   
 44  22  43  1   
 45  23  44  1   
 46  23  45  1   
 47  23  46  1   
@<TRIPOS>SUBSTRUCTURE
  1 ****   3 GROUP 4 **** **** 0

# MOE 2024.06 (io_trps.svl 2023.06)
