@<TRIPOS>MOLECULE
NONAME
48 49 1 0 0 
SMALL
USER_CHARGES


@<TRIPOS>ATOM
  1 O       -0.1420    -0.0450    -1.1400 O.2   1 <1>  -0.5700 
  2 C       -1.0710     0.5210    -0.6160 C.2   1 <1>   0.5690 
  3 N       -2.0490    -0.1650     0.0610 N.am  1 <1>  -0.6600 
  4 C       -1.0940     2.0340    -0.7300 C.3   1 <1>  -0.0990 
  5 C       -1.9830    -1.6510     0.1590 C.3   1 <1>   0.3200 
  6 C       -3.1680     0.4850     0.8120 C.3   1 <1>   0.1400 
  7 C       -0.3170     2.6890     0.4170 C.3   1 <1>  -0.0170 
  8 C       -3.2160    -2.2630    -0.4760 C.2   1 <1>  -0.3320 
  9 C       -4.3910     0.7270    -0.0810 C.3   1 <1>   0.1200 
 10 C       -0.4530     4.1990     0.3430 C.ar  1 <1>  -0.1440 
 11 N       -4.2420    -2.8460     0.1800 N.pl3 1 <1>   0.0480 
 12 C       -3.5140    -2.3300    -1.7920 C.2   1 <1>   0.0770 
 13 O       -5.3650     1.3630     0.6760 O.3   1 <1>  -0.6800 
 14 C        0.4800     4.9520    -0.3510 C.ar  1 <1>  -0.1500 
 15 C       -1.5180     4.8340     0.9620 C.ar  1 <1>  -0.1500 
 16 C       -5.1000    -3.2200    -0.7960 C.2   1 <1>   0.0360 
 17 C       -4.4210    -3.0430     1.6300 C.3   1 <1>   0.0160 
 18 N       -4.7030    -2.9270    -1.9910 N.2   1 <1>  -0.5650 
 19 C        0.3570     6.3300    -0.4260 C.ar  1 <1>  -0.1430 
 20 C       -1.6540     6.2100     0.8900 C.ar  1 <1>  -0.1430 
 21 C       -0.7130     6.9530     0.1950 C.ar  1 <1>  -0.1500 
 22 C        1.3830     7.1470    -1.1890 C.3   1 <1>  -0.0970 
 23 C       -2.8230     6.8990     1.5700 C.3   1 <1>  -0.0970 
 24 H       -2.1010     2.4010    -0.7520 H     1 <1>   0.0800 
 25 H       -0.6370     2.3120    -1.6620 H     1 <1>   0.0800 
 26 H       -1.8970    -1.9380     1.1910 H     1 <1>   0.0800 
 27 H       -1.1130    -2.0290    -0.3520 H     1 <1>   0.0800 
 28 H       -2.8390     1.4250     1.2150 H     1 <1>   0.0800 
 29 H       -3.4530    -0.1400     1.6390 H     1 <1>   0.0800 
 30 H        0.7200     2.4080     0.3550 H     1 <1>   0.0800 
 31 H       -0.6890     2.3420     1.3650 H     1 <1>   0.0800 
 32 H       -4.8040    -0.1970    -0.4420 H     1 <1>   0.0800 
 33 H       -4.1420     1.3620    -0.9120 H     1 <1>   0.0800 
 34 H       -2.9240    -1.9670    -2.6180 H     1 <1>   0.1500 
 35 H       -6.1630     1.5240     0.1340 H     1 <1>   0.4000 
 36 H        1.3070     4.4640    -0.8360 H     1 <1>   0.1500 
 37 H       -2.2460     4.2560     1.5010 H     1 <1>   0.1500 
 38 H       -6.0280    -3.7180    -0.5780 H     1 <1>   0.1500 
 39 H       -4.6180    -2.0960     2.0970 H     1 <1>   0.0800 
 40 H       -3.5310    -3.4780     2.0460 H     1 <1>   0.0800 
 41 H       -5.2520    -3.7030     1.8030 H     1 <1>   0.0800 
 42 H       -0.8140     8.0210     0.1380 H     1 <1>   0.1500 
 43 H        2.3510     6.6830    -1.1290 H     1 <1>   0.0800 
 44 H        1.4560     8.1380    -0.7780 H     1 <1>   0.0800 
 45 H        1.0950     7.2190    -2.2220 H     1 <1>   0.0800 
 46 H       -3.6790     6.2500     1.5940 H     1 <1>   0.0800 
 47 H       -3.0920     7.7950     1.0390 H     1 <1>   0.0800 
 48 H       -2.5540     7.1590     2.5780 H     1 <1>   0.0800 
@<TRIPOS>BOND
  1   1   2  2   
  2   2   3  am  
  3   2   4  1   
  4   3   5  1   
  5   3   6  1   
  6   4   7  1   
  7   4  24  1   
  8   4  25  1   
  9   5   8  1   
 10   5  26  1   
 11   5  27  1   
 12   6   9  1   
 13   6  28  1   
 14   6  29  1   
 15   7  10  1   
 16   7  30  1   
 17   7  31  1   
 18   8  11  1   
 19   8  12  2   
 20   9  13  1   
 21   9  32  1   
 22   9  33  1   
 23  10  14  ar  
 24  10  15  ar  
 25  11  16  1   
 26  11  17  1   
 27  12  18  1   
 28  12  34  1   
 29  13  35  1   
 30  14  19  ar  
 31  14  36  1   
 32  15  20  ar  
 33  15  37  1   
 34  16  18  2   
 35  16  38  1   
 36  17  39  1   
 37  17  40  1   
 38  17  41  1   
 39  19  21  ar  
 40  19  22  1   
 41  20  21  ar  
 42  20  23  1   
 43  21  42  1   
 44  22  43  1   
 45  22  44  1   
 46  22  45  1   
 47  23  46  1   
 48  23  47  1   
 49  23  48  1   
@<TRIPOS>SUBSTRUCTURE
  1 ****   4 GROUP 4 **** **** 0

# MOE 2024.06 (io_trps.svl 2023.06)
