@<TRIPOS>MOLECULE
NONAME
55 57 1 0 0 
SMALL
USER_CHARGES


@<TRIPOS>ATOM
  1 O       -0.8750     1.1980    -1.2370 O.2   1 <1>  -0.5700 
  2 C       -1.8150     1.2270    -0.4730 C.2   1 <1>   0.5690 
  3 N       -2.9430     0.4770    -0.7270 N.am  1 <1>  -0.6600 
  4 C       -1.7340     2.1290     0.7880 C.3   1 <1>   0.2610 
  5 C       -2.9730    -0.5520    -1.8030 C.3   1 <1>   0.1400 
  6 C       -4.2580     0.6470    -0.0500 C.3   1 <1>   0.1400 
  7 O       -2.3260     3.3700     0.5410 O.3   1 <1>  -0.6800 
  8 C       -0.3320     2.3720     1.4110 C.3   1 <1>  -0.0800 
  9 C       -3.3620    -1.9000    -1.1890 C.3   1 <1>  -0.1600 
 10 C       -4.6500    -0.6800     0.6030 C.3   1 <1>  -0.1600 
 11 C        0.6050     3.2720     0.5810 C.3   1 <1>  -0.2400 
 12 C        0.3780     1.0500     1.7420 C.3   1 <1>  -0.2400 
 13 C       -4.6940    -1.8250    -0.4250 C.3   1 <1>   0.4240 
 14 O       -5.6580    -1.5010    -1.3990 O.3   1 <1>  -0.5600 
 15 C       -5.0020    -3.1750     0.2580 C.ar  1 <1>  -0.1430 
 16 C       -6.9890    -1.8050    -1.1180 C.3   1 <1>   0.1200 
 17 C       -6.1600    -3.8840    -0.0320 C.ar  1 <1>  -0.1430 
 18 C       -4.1230    -3.7090     1.1910 C.ar  1 <1>  -0.1500 
 19 C       -7.1430    -3.3210    -1.0400 C.3   1 <1>  -0.0170 
 20 C       -6.4230    -5.0920     0.5920 C.ar  1 <1>  -0.1500 
 21 C       -4.3650    -4.9180     1.8210 C.ar  1 <1>   0.0830 
 22 C       -5.5420    -5.6250     1.5300 C.ar  1 <1>   0.0830 
 23 O       -3.3950    -5.3030     2.6990 O.3   1 <1>  -0.3630 
 24 O       -5.8140    -6.8000     2.1720 O.3   1 <1>  -0.3620 
 25 C       -3.1310    -6.6640     2.9580 C.3   1 <1>   0.0400 
 26 C       -7.0490    -7.4670     2.0310 C.3   1 <1>   0.0400 
 27 H       -2.3230     1.6600     1.5530 H     1 <1>   0.0800 
 28 H       -3.6920    -0.2630    -2.5510 H     1 <1>   0.0800 
 29 H       -2.0110    -0.6380    -2.2790 H     1 <1>   0.0800 
 30 H       -4.2300     1.4300     0.6860 H     1 <1>   0.0800 
 31 H       -4.9940     0.9220    -0.7860 H     1 <1>   0.0800 
 32 H       -1.8580     3.7850    -0.2110 H     1 <1>   0.4000 
 33 H       -0.5030     2.8740     2.3490 H     1 <1>   0.0800 
 34 H       -2.5710    -2.2050    -0.5300 H     1 <1>   0.0800 
 35 H       -3.4410    -2.6430    -1.9610 H     1 <1>   0.0800 
 36 H       -5.6020    -0.5850     1.0890 H     1 <1>   0.0800 
 37 H       -3.9290    -0.9070     1.3650 H     1 <1>   0.0800 
 38 H        0.8380     2.8230    -0.3680 H     1 <1>   0.0800 
 39 H        1.5280     3.4290     1.1100 H     1 <1>   0.0800 
 40 H        0.1590     4.2350     0.4080 H     1 <1>   0.0800 
 41 H        0.6350     0.5160     0.8430 H     1 <1>   0.0800 
 42 H       -0.2540     0.4220     2.3460 H     1 <1>   0.0800 
 43 H        1.2840     1.2410     2.2890 H     1 <1>   0.0800 
 44 H       -7.2720    -1.3380    -0.1910 H     1 <1>   0.0800 
 45 H       -7.5940    -1.4050    -1.9130 H     1 <1>   0.0800 
 46 H       -3.2180    -3.1900     1.4470 H     1 <1>   0.1500 
 47 H       -8.1510    -3.5590    -0.7530 H     1 <1>   0.0800 
 48 H       -6.9550    -3.7490    -2.0080 H     1 <1>   0.0800 
 49 H       -7.3280    -5.6060     0.3330 H     1 <1>   0.1500 
 50 H       -2.1500    -6.7400     3.3880 H     1 <1>   0.0800 
 51 H       -3.1740    -7.2130     2.0340 H     1 <1>   0.0800 
 52 H       -3.8620    -7.0320     3.6560 H     1 <1>   0.0800 
 53 H       -7.0420    -8.3220     2.6830 H     1 <1>   0.0800 
 54 H       -7.1600    -7.7870     1.0110 H     1 <1>   0.0800 
 55 H       -7.8420    -6.7980     2.3170 H     1 <1>   0.0800 
@<TRIPOS>BOND
  1   1   2  2   
  2   2   3  am  
  3   2   4  1   
  4   3   5  1   
  5   3   6  1   
  6   4   7  1   
  7   4   8  1   
  8   4  27  1   
  9   5   9  1   
 10   5  28  1   
 11   5  29  1   
 12   6  10  1   
 13   6  30  1   
 14   6  31  1   
 15   7  32  1   
 16   8  11  1   
 17   8  12  1   
 18   8  33  1   
 19   9  13  1   
 20   9  34  1   
 21   9  35  1   
 22  10  13  1   
 23  10  36  1   
 24  10  37  1   
 25  11  38  1   
 26  11  39  1   
 27  11  40  1   
 28  12  41  1   
 29  12  42  1   
 30  12  43  1   
 31  13  14  1   
 32  13  15  1   
 33  14  16  1   
 34  15  17  ar  
 35  15  18  ar  
 36  16  19  1   
 37  16  44  1   
 38  16  45  1   
 39  17  19  1   
 40  17  20  ar  
 41  18  21  ar  
 42  18  46  1   
 43  19  47  1   
 44  19  48  1   
 45  20  22  ar  
 46  20  49  1   
 47  21  22  ar  
 48  21  23  1   
 49  22  24  1   
 50  23  25  1   
 51  24  26  1   
 52  25  50  1   
 53  25  51  1   
 54  25  52  1   
 55  26  53  1   
 56  26  54  1   
 57  26  55  1   
@<TRIPOS>SUBSTRUCTURE
  1 ****  13 GROUP 4 **** **** 0

# MOE 2024.06 (io_trps.svl 2023.06)
