@<TRIPOS>MOLECULE
NONAME
41 44 1 0 0 
SMALL
USER_CHARGES


@<TRIPOS>ATOM
  1 O        0.2840     0.5860     1.0130 O.3   1 <1>  -0.0190 
  2 N        1.1230    -0.4060     0.9360 N.2   1 <1>  -0.4100 
  3 C        0.6960     1.6290     0.3430 C.2   1 <1>  -0.0400 
  4 C        2.0920     0.0040     0.2010 C.2   1 <1>   0.1080 
  5 C        1.8750     1.3130    -0.2170 C.2   1 <1>  -0.1500 
  6 C       -0.1690     2.8800     0.3290 C.3   1 <1>   0.0200 
  7 C        3.3010    -0.8310    -0.1560 C.3   1 <1>  -0.0590 
  8 C        0.5190     4.0780    -0.3490 C.3   1 <1>  -0.0800 
  9 C       -0.3680     5.3140    -0.5330 C.3   1 <1>   0.2000 
 10 C        1.7240     4.6040     0.4290 C.3   1 <1>   0.2090 
 11 O       -1.1720     5.4660     0.6060 O.3   1 <1>  -0.5600 
 12 C        0.6350     6.4750    -0.6560 C.3   1 <1>   0.2090 
 13 N        1.9060     5.9850    -0.0640 N.pl3 1 <1>  -0.8380 
 14 C       -2.2530     6.3320     0.4600 C.3   1 <1>   0.0400 
 15 C        2.9340     6.8170     0.3530 C.ar  1 <1>   0.4100 
 16 N        3.8580     6.2720     1.1230 N.ar  1 <1>  -0.6200 
 17 C        3.0310     8.1800    -0.0140 C.ar  1 <1>   0.2270 
 18 C        4.8550     7.0660     1.5300 C.ar  1 <1>   0.4700 
 19 N        2.2680     9.0300    -0.7880 N.2   1 <1>  -0.5650 
 20 C        4.1130     8.8630     0.4810 C.ar  1 <1>   0.1050 
 21 N        5.0550     8.3350     1.2650 N.ar  1 <1>  -0.5670 
 22 C        2.8940    10.1550    -0.7350 C.2   1 <1>   0.0360 
 23 N        4.0220    10.1230     0.0190 N.pl3 1 <1>   0.0330 
 24 H        2.5270     1.8940    -0.8420 H     1 <1>   0.1500 
 25 H       -1.0850     2.6550    -0.1860 H     1 <1>   0.0800 
 26 H       -0.4200     3.1330     1.3450 H     1 <1>   0.0800 
 27 H        4.2000    -0.3030     0.1030 H     1 <1>   0.0800 
 28 H        3.3000    -1.0400    -1.2100 H     1 <1>   0.0800 
 29 H        3.2760    -1.7610     0.3840 H     1 <1>   0.0800 
 30 H        0.8660     3.7790    -1.3220 H     1 <1>   0.0800 
 31 H       -1.0000     5.2260    -1.4000 H     1 <1>   0.0800 
 32 H        2.6090     4.0180     0.2560 H     1 <1>   0.0800 
 33 H        1.5120     4.6360     1.4850 H     1 <1>   0.0800 
 34 H        0.2880     7.3540    -0.1440 H     1 <1>   0.0800 
 35 H        0.8070     6.7070    -1.6920 H     1 <1>   0.0800 
 36 H       -2.7910     6.3530     1.3920 H     1 <1>   0.0800 
 37 H       -2.8980     5.9680    -0.3210 H     1 <1>   0.0800 
 38 H       -1.8990     7.3210     0.2290 H     1 <1>   0.0800 
 39 H        5.5880     6.5890     2.1600 H     1 <1>   0.1500 
 40 H        2.5730    11.0540    -1.2340 H     1 <1>   0.1500 
 41 H        4.6860    10.8730     0.2160 H     1 <1>   0.2700 
@<TRIPOS>BOND
  1   1   2  1   
  2   1   3  1   
  3   2   4  2   
  4   3   5  2   
  5   3   6  1   
  6   4   5  1   
  7   4   7  1   
  8   5  24  1   
  9   6   8  1   
 10   6  25  1   
 11   6  26  1   
 12   7  27  1   
 13   7  28  1   
 14   7  29  1   
 15   8   9  1   
 16   8  10  1   
 17   8  30  1   
 18   9  11  1   
 19   9  12  1   
 20   9  31  1   
 21  10  13  1   
 22  10  32  1   
 23  10  33  1   
 24  11  14  1   
 25  12  13  1   
 26  12  34  1   
 27  12  35  1   
 28  13  15  1   
 29  14  36  1   
 30  14  37  1   
 31  14  38  1   
 32  15  16  ar  
 33  15  17  ar  
 34  16  18  ar  
 35  17  19  1   
 36  17  20  ar  
 37  18  21  ar  
 38  18  39  1   
 39  19  22  2   
 40  20  21  ar  
 41  20  23  1   
 42  22  23  1   
 43  22  40  1   
 44  23  41  1   
@<TRIPOS>SUBSTRUCTURE
  1 ****  10 GROUP 4 **** **** 0

# MOE 2024.06 (io_trps.svl 2023.06)
