@<TRIPOS>MOLECULE
NONAME
38 38 1 0 0 
SMALL
USER_CHARGES


@<TRIPOS>ATOM
  1 O        0.4790     2.5940     0.6900 O.2   1 <1>  -0.5700 
  2 C       -0.5460     2.2290     0.1640 C.2   1 <1>   0.5690 
  3 N       -0.6910     2.2650    -1.1850 N.am  1 <1>  -0.7300 
  4 C       -1.7120     1.7540     1.0330 C.3   1 <1>  -0.0190 
  5 C        0.3640     2.7290    -2.1430 C.3   1 <1>   0.2010 
  6 C       -2.1530     0.3230     0.6810 C.3   1 <1>  -0.2400 
  7 C       -2.9090     2.7150     0.9490 C.3   1 <1>  -0.2400 
  8 C        0.5580     4.2460    -2.1580 C.2   1 <1>   0.5690 
  9 O        0.4310     4.8350    -3.2070 O.2   1 <1>  -0.5700 
 10 N        0.8700     4.8580    -0.9820 N.am  1 <1>  -0.4930 
 11 C        1.0970     6.2260    -0.6980 C.2   1 <1>   0.0630 
 12 C        1.3710     6.7550     0.5140 C.2   1 <1>  -0.3320 
 13 C        1.0890     7.3150    -1.5690 C.2   1 <1>   0.1390 
 14 N        1.5140     8.0930     0.3280 N.pl3 1 <1>   0.3140 
 15 C        1.5080     6.0510     1.8580 C.3   1 <1>  -0.0600 
 16 N        1.3370     8.4360    -0.9610 N.2   1 <1>  -0.7070 
 17 C        1.8190     9.1190     1.3490 C.3   1 <1>   0.0960 
 18 C        3.3330     9.2900     1.5290 C.3   1 <1>  -0.2400 
 19 H       -1.6010     2.0430    -1.5930 H     1 <1>   0.3700 
 20 H       -1.3640     1.7480     2.0520 H     1 <1>   0.0800 
 21 H        0.1070     2.4040    -3.1360 H     1 <1>   0.0800 
 22 H        1.3020     2.2740    -1.8790 H     1 <1>   0.0800 
 23 H       -2.5450     0.2740    -0.3190 H     1 <1>   0.0800 
 24 H       -2.9140    -0.0110     1.3650 H     1 <1>   0.0800 
 25 H       -1.3150    -0.3480     0.7550 H     1 <1>   0.0800 
 26 H       -3.3160     2.7380    -0.0460 H     1 <1>   0.0800 
 27 H       -2.6000     3.7110     1.2150 H     1 <1>   0.0800 
 28 H       -3.6830     2.4070     1.6300 H     1 <1>   0.0800 
 29 H        0.8990     4.2310    -0.1660 H     1 <1>   0.3700 
 30 H        0.8980     7.2390    -2.6260 H     1 <1>   0.1500 
 31 H        1.3690     4.9910     1.7490 H     1 <1>   0.0800 
 32 H        0.7680     6.4190     2.5460 H     1 <1>   0.0800 
 33 H        2.4870     6.2210     2.2680 H     1 <1>   0.0800 
 34 H        1.3590     8.8340     2.2760 H     1 <1>   0.0800 
 35 H        1.3840    10.0470     1.0250 H     1 <1>   0.0800 
 36 H        3.7800     8.3700     1.8580 H     1 <1>   0.0800 
 37 H        3.5300    10.0510     2.2630 H     1 <1>   0.0800 
 38 H        3.7800     9.5890     0.5970 H     1 <1>   0.0800 
@<TRIPOS>BOND
  1   1   2  2   
  2   2   3  am  
  3   2   4  1   
  4   3   5  1   
  5   3  19  1   
  6   4   6  1   
  7   4   7  1   
  8   4  20  1   
  9   5   8  1   
 10   5  21  1   
 11   5  22  1   
 12   6  23  1   
 13   6  24  1   
 14   6  25  1   
 15   7  26  1   
 16   7  27  1   
 17   7  28  1   
 18   8   9  2   
 19   8  10  am  
 20  10  11  1   
 21  10  29  1   
 22  11  12  2   
 23  11  13  1   
 24  12  14  1   
 25  12  15  1   
 26  13  16  2   
 27  13  30  1   
 28  14  16  1   
 29  14  17  1   
 30  15  31  1   
 31  15  32  1   
 32  15  33  1   
 33  17  18  1   
 34  17  34  1   
 35  17  35  1   
 36  18  36  1   
 37  18  37  1   
 38  18  38  1   
@<TRIPOS>SUBSTRUCTURE
  1 ****  10 GROUP 4 **** **** 0

# MOE 2024.06 (io_trps.svl 2023.06)
