@<TRIPOS>MOLECULE
NONAME
44 46 1 0 0 
SMALL
USER_CHARGES


@<TRIPOS>ATOM
  1 O        2.2590    -0.7850     2.6370 O.2   1 <1>  -0.5700 
  2 C        2.2290    -1.0070     1.4390 C.2   1 <1>   0.5440 
  3 N        2.4950     0.0470     0.5740 N.am  1 <1>  -0.6600 
  4 C        1.9710    -2.3490     0.9840 C.ar  1 <1>   0.0860 
  5 C        2.8340     1.3920     1.1410 C.3   1 <1>   0.1400 
  6 C        2.7770    -0.1910    -0.8790 C.3   1 <1>   0.1400 
  7 C        0.8500    -2.6590     0.1910 C.ar  1 <1>   0.4100 
  8 C        2.8450    -3.3750     1.3110 C.ar  1 <1>  -0.1500 
  9 C        4.3580     1.6840     1.1920 C.3   1 <1>   0.4230 
 10 C        4.1760     0.2680    -1.3460 C.3   1 <1>  -0.0800 
 11 N        0.6080    -3.8750    -0.2940 N.ar  1 <1>  -0.6200 
 12 N       -0.0740    -1.6880    -0.1380 N.pl3 1 <1>  -0.8690 
 13 C        2.5810    -4.6340     0.8240 C.ar  1 <1>  -0.1500 
 14 N        4.8840     2.3340    -0.0660 N.4   1 <1>  -0.9590 
 15 C        5.2430     0.4640     1.5700 C.3   1 <1>   0.1200 
 16 C        5.3710    -0.4580    -0.6900 C.3   1 <1>   0.1200 
 17 C        4.3000     1.7920    -1.3290 C.3   1 <1>   0.3430 
 18 C        1.4630    -4.8250     0.0320 C.ar  1 <1>   0.1600 
 19 C       -1.3840    -1.9920    -0.7730 C.3   1 <1>   0.1290 
 20 C        4.7390     3.8210    -0.0170 C.3   1 <1>   0.2630 
 21 O        5.2140    -0.6290     0.6840 O.3   1 <1>  -0.5600 
 22 H        2.3230     2.1550     0.5820 H     1 <1>   0.0800 
 23 H        2.4570     1.4610     2.1460 H     1 <1>   0.0800 
 24 H        2.6890    -1.2390    -1.1090 H     1 <1>   0.0800 
 25 H        2.0180     0.3100    -1.4550 H     1 <1>   0.0800 
 26 H        3.7060    -3.1780     1.9270 H     1 <1>   0.1500 
 27 H        4.4920     2.3950     1.9900 H     1 <1>   0.0800 
 28 H        4.2160     0.0050    -2.3880 H     1 <1>   0.0800 
 29 H       -0.0790    -0.8560     0.4610 H     1 <1>   0.4000 
 30 H        3.2310    -5.4600     1.0510 H     1 <1>   0.1500 
 31 H        5.8880     2.1080    -0.0840 H     1 <1>   0.4500 
 32 H        4.9130     0.0860     2.5220 H     1 <1>   0.0800 
 33 H        6.2680     0.7690     1.6820 H     1 <1>   0.0800 
 34 H        6.3060     0.0410    -0.8760 H     1 <1>   0.0800 
 35 H        5.4420    -1.4510    -1.1030 H     1 <1>   0.0800 
 36 H        3.3230     2.2170    -1.4910 H     1 <1>   0.0800 
 37 H        4.9250     2.0950    -2.1540 H     1 <1>   0.0800 
 38 H        1.2640    -5.8120    -0.3510 H     1 <1>   0.1500 
 39 H       -1.2340    -2.5870    -1.6590 H     1 <1>   0.0800 
 40 H       -1.8830    -1.0800    -1.0460 H     1 <1>   0.0800 
 41 H       -2.0010    -2.5440    -0.0850 H     1 <1>   0.0800 
 42 H        3.6970     4.0970     0.0120 H     1 <1>   0.0800 
 43 H        5.1890     4.2710    -0.8870 H     1 <1>   0.0800 
 44 H        5.2240     4.2180     0.8610 H     1 <1>   0.0800 
@<TRIPOS>BOND
  1   1   2  2   
  2   2   3  am  
  3   2   4  1   
  4   3   5  1   
  5   3   6  1   
  6   4   7  ar  
  7   4   8  ar  
  8   5   9  1   
  9   5  22  1   
 10   5  23  1   
 11   6  10  1   
 12   6  24  1   
 13   6  25  1   
 14   7  11  ar  
 15   7  12  1   
 16   8  13  ar  
 17   8  26  1   
 18   9  14  1   
 19   9  15  1   
 20   9  27  1   
 21  10  16  1   
 22  10  17  1   
 23  10  28  1   
 24  11  18  ar  
 25  12  19  1   
 26  12  29  1   
 27  13  18  ar  
 28  13  30  1   
 29  14  17  1   
 30  14  20  1   
 31  14  31  1   
 32  15  21  1   
 33  15  32  1   
 34  15  33  1   
 35  16  21  1   
 36  16  34  1   
 37  16  35  1   
 38  17  36  1   
 39  17  37  1   
 40  18  38  1   
 41  19  39  1   
 42  19  40  1   
 43  19  41  1   
 44  20  42  1   
 45  20  43  1   
 46  20  44  1   
@<TRIPOS>SUBSTRUCTURE
  1 ****   3 GROUP 4 **** **** 0

# MOE 2024.06 (io_trps.svl 2023.06)
