@<TRIPOS>MOLECULE
NONAME
47 51 1 0 0 
SMALL
USER_CHARGES


@<TRIPOS>ATOM
  1 S       -0.5350     0.3760    -0.6610 S.3   1 <1>  -0.0800 
  2 C       -1.3790    -0.9860    -0.0020 C.2   1 <1>   0.4620 
  3 C        0.9640    -0.3770    -0.1950 C.2   1 <1>   0.3250 
  4 N       -0.5620    -1.8530     0.4900 N.2   1 <1>  -0.3380 
  5 N       -2.7580    -1.0390    -0.0380 N.pl3 1 <1>  -0.8220 
  6 N        0.7480    -1.5080     0.3800 N.2   1 <1>  -0.3380 
  7 C        2.2240     0.2790    -0.4670 C.ar  1 <1>   0.0530 
  8 C       -3.6490     0.0480    -0.5570 C.3   1 <1>   0.2090 
  9 C       -3.4930    -2.2020     0.5310 C.3   1 <1>   0.2090 
 10 C        3.4180    -0.2960    -0.0220 C.ar  1 <1>  -0.1500 
 11 C        2.3270     1.4870    -1.1660 C.ar  1 <1>  -0.1500 
 12 C       -4.5710     0.5760     0.5590 C.3   1 <1>   0.1440 
 13 C       -4.4280    -1.7240     1.6500 C.3   1 <1>  -0.1600 
 14 C        4.6440     0.2970    -0.2560 C.ar  1 <1>  -0.1500 
 15 C        3.5510     2.0850    -1.4030 C.ar  1 <1>  -0.1500 
 16 C       -5.4710     1.6430    -0.0340 C.ar  1 <1>   0.1660 
 17 C       -5.3650    -0.5960     1.1770 C.3   1 <1>  -0.1600 
 18 C       -3.7770     1.3700     1.6340 C.3   1 <1>  -0.1600 
 19 C        4.7140     1.4910    -0.9490 C.ar  1 <1>  -0.1500 
 20 N       -6.4800     1.4240    -0.8490 N.ar  1 <1>  -0.6200 
 21 C       -5.0990     2.8920     0.3620 C.ar  1 <1>  -0.1430 
 22 C       -3.8990     2.8610     1.2750 C.3   1 <1>  -0.0170 
 23 C       -7.1150     2.5190    -1.2420 C.ar  1 <1>   0.4770 
 24 C       -5.8260     3.9570    -0.1080 C.ar  1 <1>   0.1600 
 25 N       -6.8480     3.7780    -0.9200 N.ar  1 <1>  -0.6200 
 26 C       -8.2880     2.3120    -2.1690 C.3   1 <1>  -0.0970 
 27 H       -4.2550    -0.3530    -1.3510 H     1 <1>   0.0800 
 28 H       -3.0830     0.8640    -0.9670 H     1 <1>   0.0800 
 29 H       -2.8070    -2.9350     0.9220 H     1 <1>   0.0800 
 30 H       -4.0670    -2.6690    -0.2510 H     1 <1>   0.0800 
 31 H        3.3820    -1.2260     0.5190 H     1 <1>   0.1500 
 32 H        1.4460     1.9770    -1.5370 H     1 <1>   0.1500 
 33 H       -3.8270    -1.3850     2.4760 H     1 <1>   0.0800 
 34 H       -5.0140    -2.5560     1.9960 H     1 <1>   0.0800 
 35 H        5.5450    -0.1720     0.1000 H     1 <1>   0.1500 
 36 H        3.6020     3.0140    -1.9440 H     1 <1>   0.1500 
 37 H       -6.0330    -0.9930     0.4320 H     1 <1>   0.0800 
 38 H       -5.9690    -0.2460     1.9950 H     1 <1>   0.0800 
 39 H       -2.7500     1.0590     1.7010 H     1 <1>   0.0800 
 40 H       -4.2330     1.2210     2.5970 H     1 <1>   0.0800 
 41 H        5.6680     1.9550    -1.1330 H     1 <1>   0.1500 
 42 H       -3.0270     3.1960     0.7410 H     1 <1>   0.0800 
 43 H       -4.0490     3.4670     2.1520 H     1 <1>   0.0800 
 44 H       -5.5720     4.9630     0.1780 H     1 <1>   0.1500 
 45 H       -8.2130     1.3600    -2.6600 H     1 <1>   0.0800 
 46 H       -8.3070     3.0870    -2.9120 H     1 <1>   0.0800 
 47 H       -9.1980     2.3460    -1.6000 H     1 <1>   0.0800 
@<TRIPOS>BOND
  1   1   2  1   
  2   1   3  1   
  3   2   4  2   
  4   2   5  1   
  5   3   6  2   
  6   3   7  1   
  7   4   6  1   
  8   5   8  1   
  9   5   9  1   
 10   7  10  ar  
 11   7  11  ar  
 12   8  12  1   
 13   8  27  1   
 14   8  28  1   
 15   9  13  1   
 16   9  29  1   
 17   9  30  1   
 18  10  14  ar  
 19  10  31  1   
 20  11  15  ar  
 21  11  32  1   
 22  12  16  1   
 23  12  17  1   
 24  12  18  1   
 25  13  17  1   
 26  13  33  1   
 27  13  34  1   
 28  14  19  ar  
 29  14  35  1   
 30  15  19  ar  
 31  15  36  1   
 32  16  20  ar  
 33  16  21  ar  
 34  17  37  1   
 35  17  38  1   
 36  18  22  1   
 37  18  39  1   
 38  18  40  1   
 39  19  41  1   
 40  20  23  ar  
 41  21  22  1   
 42  21  24  ar  
 43  22  42  1   
 44  22  43  1   
 45  23  25  ar  
 46  23  26  1   
 47  24  25  ar  
 48  24  44  1   
 49  26  45  1   
 50  26  46  1   
 51  26  47  1   
@<TRIPOS>SUBSTRUCTURE
  1 ****   8 GROUP 4 **** **** 0

# MOE 2024.06 (io_trps.svl 2023.06)
