@<TRIPOS>MOLECULE
NONAME
28 29 1 0 0 
SMALL
USER_CHARGES


@<TRIPOS>ATOM
  1 CL      -0.4770    -0.7890    -1.3540 Cl    1 <1>  -0.1770 
  2 C        1.1050    -1.3040    -0.7950 C.ar  1 <1>   0.1770 
  3 C        1.3840    -2.6460    -0.5630 C.ar  1 <1>   0.4100 
  4 C        2.0960    -0.3880    -0.5750 C.ar  1 <1>   0.1600 
  5 N        2.5790    -3.0160    -0.1390 N.ar  1 <1>  -0.6200 
  6 N        0.4480    -3.6310    -0.7650 N.pl3 1 <1>  -0.8690 
  7 N        3.2960    -0.7490    -0.1510 N.ar  1 <1>  -0.6200 
  8 C        3.4620    -2.0490     0.0390 C.ar  1 <1>   0.4770 
  9 C        0.5510    -4.9970    -0.2240 C.3   1 <1>   0.3900 
 10 C        4.8260    -2.4780     0.5240 C.3   1 <1>  -0.0960 
 11 C       -0.8410    -5.4350     0.1750 C.2   1 <1>  -0.1810 
 12 C       -1.5530    -4.9620     1.2710 C.2   1 <1>   0.1390 
 13 C       -1.6690    -6.3290    -0.4080 C.2   1 <1>  -0.3020 
 14 N       -2.7250    -5.5120     1.3680 N.2   1 <1>  -0.7070 
 15 N       -2.7970    -6.3580     0.3280 N.pl3 1 <1>   0.3140 
 16 C       -3.9900    -7.1760     0.0910 C.3   1 <1>   0.0160 
 17 H        1.9090     0.6570    -0.7460 H     1 <1>   0.1500 
 18 H       -0.5160    -3.3520    -0.9710 H     1 <1>   0.4000 
 19 H        1.2030    -5.0220     0.6330 H     1 <1>   0.0800 
 20 H        0.9450    -5.6520    -0.9810 H     1 <1>   0.0800 
 21 H        5.0430    -3.4740     0.1860 H     1 <1>   0.0800 
 22 H        4.8440    -2.4570     1.5970 H     1 <1>   0.0800 
 23 H        5.5790    -1.8110     0.1450 H     1 <1>   0.0800 
 24 H       -1.1840    -4.2240     1.9640 H     1 <1>   0.1500 
 25 H       -1.5240    -6.9300    -1.2860 H     1 <1>   0.1500 
 26 H       -3.8620    -7.7520    -0.8060 H     1 <1>   0.0800 
 27 H       -4.8400    -6.5280    -0.0090 H     1 <1>   0.0800 
 28 H       -4.1340    -7.8310     0.9300 H     1 <1>   0.0800 
@<TRIPOS>BOND
  1   1   2  1   
  2   2   3  ar  
  3   2   4  ar  
  4   3   5  ar  
  5   3   6  1   
  6   4   7  ar  
  7   4  17  1   
  8   5   8  ar  
  9   6   9  1   
 10   6  18  1   
 11   7   8  ar  
 12   8  10  1   
 13   9  11  1   
 14   9  19  1   
 15   9  20  1   
 16  10  21  1   
 17  10  22  1   
 18  10  23  1   
 19  11  12  1   
 20  11  13  2   
 21  12  14  2   
 22  12  24  1   
 23  13  15  1   
 24  13  25  1   
 25  14  15  1   
 26  15  16  1   
 27  16  26  1   
 28  16  27  1   
 29  16  28  1   
@<TRIPOS>SUBSTRUCTURE
  1 ****   6 GROUP 4 **** **** 0

# MOE 2024.06 (io_trps.svl 2023.06)
