@<TRIPOS>MOLECULE
NONAME
50 54 1 0 0 
SMALL
USER_CHARGES


@<TRIPOS>ATOM
  1 O       -3.1030     0.6150    -2.1370 O.2   1 <1>  -0.5700 
  2 C       -2.6800     0.9060    -1.0370 C.2   1 <1>   0.5440 
  3 N       -2.4520    -0.1040    -0.1480 N.am  1 <1>  -0.7300 
  4 C       -2.4310     2.2870    -0.6960 C.ar  1 <1>   0.0860 
  5 C       -2.7100    -1.5370    -0.4190 C.3   1 <1>   0.2200 
  6 C       -2.2490     3.2540    -1.6670 C.ar  1 <1>   0.1600 
  7 C       -2.3620     2.7500     0.6060 C.ar  1 <1>   0.1600 
  8 C       -4.0910    -1.8950     0.1050 C.3   1 <1>  -0.0800 
  9 C       -1.8150    -2.3940     0.4650 C.3   1 <1>   0.1200 
 10 N       -2.0090     4.5190    -1.3930 N.ar  1 <1>  -0.6200 
 11 N       -2.1240     4.0050     0.9170 N.ar  1 <1>  -0.6200 
 12 C       -3.8190    -2.2400     1.5750 C.3   1 <1>   0.1200 
 13 C       -4.6990    -3.0770    -0.6750 C.3   1 <1>  -0.0170 
 14 O       -2.4360    -2.4090     1.7130 O.3   1 <1>  -0.5600 
 15 C       -1.9550     4.8270    -0.1070 C.ar  1 <1>   0.5880 
 16 C       -6.1280    -3.3660    -0.2260 C.ar  1 <1>  -0.1430 
 17 C       -1.6770     6.2860     0.2310 C.3   1 <1>  -0.0680 
 18 C       -7.2190    -2.5480    -0.6060 C.ar  1 <1>   0.0000 
 19 C       -6.3930    -4.4410     0.5710 C.ar  1 <1>  -0.1500 
 20 C       -0.4600     6.9890    -0.3020 C.3   1 <1>  -0.2000 
 21 C       -0.5580     6.6710     1.1570 C.3   1 <1>  -0.2000 
 22 C       -8.5020    -2.8930    -0.1140 C.ar  1 <1>   0.3100 
 23 C       -7.1160    -1.4140    -1.4470 C.ar  1 <1>  -0.1500 
 24 C       -7.7020    -4.6970     0.9970 C.ar  1 <1>   0.1600 
 25 N       -8.7250    -3.9670     0.6850 N.ar  1 <1>  -0.6200 
 26 C       -9.6020    -2.0940    -0.4640 C.ar  1 <1>  -0.1500 
 27 C       -8.2100    -0.6580    -1.7700 C.ar  1 <1>  -0.1500 
 28 C       -9.4700    -0.9990    -1.2730 C.ar  1 <1>  -0.1500 
 29 H       -2.1110     0.0710     0.8010 H     1 <1>   0.3700 
 30 H       -2.5780    -1.7510    -1.4670 H     1 <1>   0.0800 
 31 H       -2.3010     2.9670    -2.7050 H     1 <1>   0.1500 
 32 H       -2.5130     2.0650     1.4210 H     1 <1>   0.1500 
 33 H       -4.7570    -1.0530     0.0360 H     1 <1>   0.0800 
 34 H       -0.8180    -2.0010     0.5590 H     1 <1>   0.0800 
 35 H       -1.7760    -3.4070     0.1050 H     1 <1>   0.0800 
 36 H       -4.3090    -3.1450     1.8890 H     1 <1>   0.0800 
 37 H       -4.1160    -1.4330     2.2220 H     1 <1>   0.0800 
 38 H       -4.0920    -3.9550    -0.5350 H     1 <1>   0.0800 
 39 H       -4.6990    -2.8630    -1.7290 H     1 <1>   0.0800 
 40 H       -2.5870     6.8530     0.2910 H     1 <1>   0.1000 
 41 H       -5.6180    -5.1120     0.8930 H     1 <1>   0.1500 
 42 H        0.2270     6.4280    -0.9130 H     1 <1>   0.1000 
 43 H       -0.5610     8.0090    -0.6260 H     1 <1>   0.1000 
 44 H       -0.7270     7.4700     1.8570 H     1 <1>   0.1000 
 45 H        0.0620     5.8910     1.5630 H     1 <1>   0.1000 
 46 H       -6.1600    -1.1320    -1.8470 H     1 <1>   0.1500 
 47 H       -7.8670    -5.5560     1.6260 H     1 <1>   0.1500 
 48 H      -10.5610    -2.3770    -0.0710 H     1 <1>   0.1500 
 49 H       -8.1150     0.2030    -2.4090 H     1 <1>   0.1500 
 50 H      -10.3230    -0.3960    -1.5330 H     1 <1>   0.1500 
@<TRIPOS>BOND
  1   1   2  2   
  2   2   3  am  
  3   2   4  1   
  4   3   5  1   
  5   3  29  1   
  6   4   6  ar  
  7   4   7  ar  
  8   5   8  1   
  9   5   9  1   
 10   5  30  1   
 11   6  10  ar  
 12   6  31  1   
 13   7  11  ar  
 14   7  32  1   
 15   8  12  1   
 16   8  13  1   
 17   8  33  1   
 18   9  14  1   
 19   9  34  1   
 20   9  35  1   
 21  10  15  ar  
 22  11  15  ar  
 23  12  14  1   
 24  12  36  1   
 25  12  37  1   
 26  13  16  1   
 27  13  38  1   
 28  13  39  1   
 29  15  17  1   
 30  16  18  ar  
 31  16  19  ar  
 32  17  20  1   
 33  17  21  1   
 34  17  40  1   
 35  18  22  ar  
 36  18  23  ar  
 37  19  24  ar  
 38  19  41  1   
 39  20  21  1   
 40  20  42  1   
 41  20  43  1   
 42  21  44  1   
 43  21  45  1   
 44  22  25  ar  
 45  22  26  ar  
 46  23  27  ar  
 47  23  46  1   
 48  24  25  ar  
 49  24  47  1   
 50  26  28  ar  
 51  26  48  1   
 52  27  28  ar  
 53  27  49  1   
 54  28  50  1   
@<TRIPOS>SUBSTRUCTURE
  1 ****   3 GROUP 4 **** **** 0

# MOE 2024.06 (io_trps.svl 2023.06)
