@<TRIPOS>MOLECULE
Untitled Document
48 52 1 0 0 
SMALL
USER_CHARGES


@<TRIPOS>ATOM
  1 F        0.1940     1.5510    -1.5380 F     1 <1>  -0.1900 
  2 C        1.3240     1.9040    -0.9680 C.ar  1 <1>   0.1900 
  3 C        1.3270     2.9820    -0.0750 C.ar  1 <1>   0.1000 
  4 C        2.4430     1.1800    -1.2640 C.ar  1 <1>  -0.1500 
  5 N        0.1570     3.7030     0.2090 N.pl3 1 <1>  -0.8380 
  6 C        2.5440     3.3080     0.5330 C.ar  1 <1>   0.0730 
  7 C        3.6710     1.5170    -0.6860 C.ar  1 <1>   0.0860 
  8 C       -0.4700     4.5210    -0.8860 C.3   1 <1>   0.2090 
  9 C       -0.9190     3.0470     1.0160 C.3   1 <1>   0.2090 
 10 C        2.4980     4.3010     1.5680 C.1   1 <1>   0.4840 
 11 C        3.7390     2.6390     0.1720 C.ar  1 <1>   0.1000 
 12 C        4.8390     0.7200    -0.9550 C.2   1 <1>   0.4690 
 13 C       -1.9020     4.0080    -0.9380 C.3   1 <1>   0.2000 
 14 C       -2.2090     3.7060     0.5210 C.3   1 <1>   0.4230 
 15 N        2.4290     5.0780     2.4030 N.1   1 <1>  -0.5570 
 16 N        5.0260     3.0080     0.6290 N.pl3 1 <1>  -0.3690 
 17 O        4.7980    -0.1220    -1.8430 O.2   1 <1>  -0.5700 
 18 C        6.0100     0.9850    -0.2060 C.2   1 <1>  -0.2360 
 19 O       -2.8610     4.9040    -1.4180 O.3   1 <1>  -0.5600 
 20 N       -3.5170     2.9770     0.6220 N.4   1 <1>  -0.9060 
 21 C        6.0730     2.1310     0.5260 C.2   1 <1>  -0.0500 
 22 C        5.3810     4.3810     1.0730 C.3   1 <1>   0.0690 
 23 C        7.1030     0.0650    -0.2440 C.2   1 <1>   1.0500 
 24 C       -4.1570     4.3520    -1.4380 C.3   1 <1>   0.1200 
 25 C       -4.5860     3.8130    -0.0430 C.3   1 <1>   0.3430 
 26 C        5.1390     5.5250     0.1360 C.3   1 <1>  -0.2000 
 27 C        6.5360     5.0840     0.4260 C.3   1 <1>  -0.2000 
 28 O        8.2390     0.4780    -0.5420 O.co2 1 <1>  -0.9000 
 29 O        6.9710    -1.1050     0.1530 O.co2 1 <1>  -0.9000 
 30 H        2.3830     0.3440    -1.9400 H     1 <1>   0.1500 
 31 H       -0.4450     5.5630    -0.6130 H     1 <1>   0.0800 
 32 H        0.0350     4.3740    -1.8260 H     1 <1>   0.0800 
 33 H       -0.9220     1.9870     0.8290 H     1 <1>   0.0800 
 34 H       -0.7600     3.2420     2.0630 H     1 <1>   0.0800 
 35 H       -1.9220     3.1170    -1.5420 H     1 <1>   0.0800 
 36 H       -2.2910     4.6510     1.0340 H     1 <1>   0.0800 
 37 H       -3.4410     2.0680     0.1500 H     1 <1>   0.4500 
 38 H       -3.7580     2.8060     1.6070 H     1 <1>   0.4500 
 39 H        6.9910     2.3790     1.0380 H     1 <1>   0.1500 
 40 H        5.2440     4.5230     2.1320 H     1 <1>   0.1000 
 41 H       -4.8360     5.1250    -1.7590 H     1 <1>   0.0800 
 42 H       -4.1800     3.5650    -2.1730 H     1 <1>   0.0800 
 43 H       -5.4940     3.2420    -0.1460 H     1 <1>   0.0800 
 44 H       -4.8110     4.6640     0.5810 H     1 <1>   0.0800 
 45 H        4.7350     5.3250    -0.8410 H     1 <1>   0.1000 
 46 H        4.8000     6.4600     0.5450 H     1 <1>   0.1000 
 47 H        7.1570     5.7210     1.0310 H     1 <1>   0.1000 
 48 H        7.0900     4.5770    -0.3460 H     1 <1>   0.1000 
@<TRIPOS>BOND
  1   1   2  1   
  2   2   3  ar  
  3   2   4  ar  
  4   3   5  1   
  5   3   6  ar  
  6   4   7  ar  
  7   4  30  1   
  8   5   8  1   
  9   5   9  1   
 10   6  10  1   
 11   6  11  ar  
 12   7  11  ar  
 13   7  12  1   
 14   8  13  1   
 15   8  31  1   
 16   8  32  1   
 17   9  14  1   
 18   9  33  1   
 19   9  34  1   
 20  10  15  3   
 21  11  16  1   
 22  12  17  2   
 23  12  18  1   
 24  13  14  1   
 25  13  19  1   
 26  13  35  1   
 27  14  20  1   
 28  14  36  1   
 29  16  21  1   
 30  16  22  1   
 31  18  21  2   
 32  18  23  1   
 33  19  24  1   
 34  20  25  1   
 35  20  37  1   
 36  20  38  1   
 37  21  39  1   
 38  22  26  1   
 39  22  27  1   
 40  22  40  1   
 41  23  28  ar  
 42  23  29  ar  
 43  24  25  1   
 44  24  41  1   
 45  24  42  1   
 46  25  43  1   
 47  25  44  1   
 48  26  27  1   
 49  26  45  1   
 50  26  46  1   
 51  27  47  1   
 52  27  48  1   
@<TRIPOS>SUBSTRUCTURE
  1 ****   6 GROUP 4 **** **** 0

# MOE 2024.06 (io_trps.svl 2023.06)
