@<TRIPOS>MOLECULE
NONAME
47 49 1 0 0 
SMALL
USER_CHARGES


@<TRIPOS>ATOM
  1 O        1.0820    -1.1440    -2.8170 O.3   1 <1>  -0.6800 
  2 C        2.3050    -0.8610    -2.2200 C.3   1 <1>   0.2000 
  3 C        2.4370    -1.5990    -0.8920 C.3   1 <1>  -0.0800 
  4 C        2.4200     0.6110    -1.8450 C.3   1 <1>   0.2090 
  5 C        3.3640    -0.7110    -0.0560 C.3   1 <1>   0.2090 
  6 C        2.9560    -3.0370    -1.0500 C.3   1 <1>  -0.0170 
  7 N        3.3490     0.6380    -0.6820 N.pl3 1 <1>  -0.8380 
  8 C        3.1680    -3.6950     0.3050 C.ar  1 <1>  -0.1440 
  9 C        4.5730     1.2330    -0.8800 C.ar  1 <1>   0.4100 
 10 C        4.4270    -3.8680     0.8440 C.ar  1 <1>  -0.1500 
 11 C        2.1100    -4.1450     1.0680 C.ar  1 <1>  -0.1500 
 12 N        5.3470     0.6930    -1.8020 N.ar  1 <1>  -0.6200 
 13 C        4.9750     2.3380    -0.1400 C.ar  1 <1>  -0.1440 
 14 C        4.5620    -4.4630     2.0870 C.ar  1 <1>   0.1600 
 15 C        2.3540    -4.7270     2.3010 C.ar  1 <1>   0.1600 
 16 C        6.5160     1.2710    -1.9770 C.ar  1 <1>   0.4770 
 17 C        6.2210     2.8390    -0.4240 C.ar  1 <1>   0.1600 
 18 C        4.0360     2.9210     0.9200 C.3   1 <1>  -0.0160 
 19 N        3.5560    -4.8950     2.8300 N.ar  1 <1>  -0.6200 
 20 N        7.0090     2.3160    -1.3420 N.ar  1 <1>  -0.6200 
 21 C        7.4100     0.6650    -3.0310 C.3   1 <1>  -0.0970 
 22 C        4.5890     4.1280     1.6940 C.3   1 <1>  -0.1600 
 23 C        3.5830     4.6310     2.7340 C.3   1 <1>  -0.2400 
 24 H        1.0510    -2.0740    -3.1080 H     1 <1>   0.4000 
 25 H        3.1000    -1.1160    -2.9010 H     1 <1>   0.0800 
 26 H        1.4800    -1.6090    -0.4000 H     1 <1>   0.0800 
 27 H        1.4640     0.9970    -1.5380 H     1 <1>   0.0800 
 28 H        2.8050     1.1900    -2.6670 H     1 <1>   0.0800 
 29 H        4.3690    -1.0980    -0.0600 H     1 <1>   0.0800 
 30 H        3.0200    -0.6520     0.9620 H     1 <1>   0.0800 
 31 H        3.8830    -3.0300    -1.5960 H     1 <1>   0.0800 
 32 H        2.2480    -3.6170    -1.6160 H     1 <1>   0.0800 
 33 H        5.3040    -3.5470     0.3130 H     1 <1>   0.1500 
 34 H        1.0990    -4.0480     0.7180 H     1 <1>   0.1500 
 35 H        5.5510    -4.5900     2.4930 H     1 <1>   0.1500 
 36 H        1.5170    -5.0720     2.8830 H     1 <1>   0.1500 
 37 H        6.6060     3.6940     0.1030 H     1 <1>   0.1500 
 38 H        3.1200     3.2070     0.4340 H     1 <1>   0.0800 
 39 H        3.7960     2.1400     1.6200 H     1 <1>   0.0800 
 40 H        7.8050     1.4420    -3.6580 H     1 <1>   0.0800 
 41 H        6.8600    -0.0290    -3.6390 H     1 <1>   0.0800 
 42 H        8.2220     0.1510    -2.5530 H     1 <1>   0.0800 
 43 H        5.4990     3.8470     2.1960 H     1 <1>   0.0800 
 44 H        4.8090     4.9270     1.0060 H     1 <1>   0.0800 
 45 H        3.3580     3.8570     3.4470 H     1 <1>   0.0800 
 46 H        2.6690     4.9380     2.2560 H     1 <1>   0.0800 
 47 H        3.9910     5.4750     3.2630 H     1 <1>   0.0800 
@<TRIPOS>BOND
  1   1   2  1   
  2   1  24  1   
  3   2   3  1   
  4   2   4  1   
  5   2  25  1   
  6   3   5  1   
  7   3   6  1   
  8   3  26  1   
  9   4   7  1   
 10   4  27  1   
 11   4  28  1   
 12   5   7  1   
 13   5  29  1   
 14   5  30  1   
 15   6   8  1   
 16   6  31  1   
 17   6  32  1   
 18   7   9  1   
 19   8  10  ar  
 20   8  11  ar  
 21   9  12  ar  
 22   9  13  ar  
 23  10  14  ar  
 24  10  33  1   
 25  11  15  ar  
 26  11  34  1   
 27  12  16  ar  
 28  13  17  ar  
 29  13  18  1   
 30  14  19  ar  
 31  14  35  1   
 32  15  19  ar  
 33  15  36  1   
 34  16  20  ar  
 35  16  21  1   
 36  17  20  ar  
 37  17  37  1   
 38  18  22  1   
 39  18  38  1   
 40  18  39  1   
 41  21  40  1   
 42  21  41  1   
 43  21  42  1   
 44  22  23  1   
 45  22  43  1   
 46  22  44  1   
 47  23  45  1   
 48  23  46  1   
 49  23  47  1   
@<TRIPOS>SUBSTRUCTURE
  1 ****   5 GROUP 4 **** **** 0

# MOE 2024.06 (io_trps.svl 2023.06)
