@<TRIPOS>MOLECULE
NONAME
47 49 1 0 0 
SMALL
USER_CHARGES


@<TRIPOS>ATOM
  1 S       -0.6460    -0.8720     0.4990 S.3   1 <1>  -0.0800 
  2 C       -1.3150     0.6070    -0.1530 C.2   1 <1>   0.1980 
  3 C        0.6880     0.0380     1.1240 C.2   1 <1>  -0.1100 
  4 N       -0.6040     1.6380     0.0760 N.2   1 <1>  -0.5650 
  5 C       -2.6400     0.5320    -0.9080 C.3   1 <1>   0.1000 
  6 C        0.5590     1.3470     0.8150 C.2   1 <1>   0.1410 
  7 C       -3.7770     0.0380    -0.0030 C.3   1 <1>  -0.2400 
  8 C       -2.5280    -0.3480    -2.1610 C.3   1 <1>  -0.2400 
  9 C        1.5190     2.3780     1.2150 C.2   1 <1>   0.7160 
 10 O        2.4480     2.0750     1.9440 O.2   1 <1>  -0.5700 
 11 N        1.4790     3.6940     0.7900 N.am  1 <1>  -0.6600 
 12 C        2.1450     4.7600     1.6310 C.3   1 <1>   0.2200 
 13 C        0.9990     4.0500    -0.5810 C.3   1 <1>   0.1400 
 14 C        1.3270     6.0600     1.6890 C.3   1 <1>   0.1200 
 15 C        3.6000     5.0220     1.1770 C.3   1 <1>   0.3430 
 16 C        1.6460     5.3060    -1.1960 C.3   1 <1>  -0.0800 
 17 O        1.6370     6.9050     0.6230 O.3   1 <1>  -0.5600 
 18 N        3.8700     4.5010    -0.2060 N.4   1 <1>  -0.9590 
 19 C        1.0640     6.5980    -0.6020 C.3   1 <1>   0.1200 
 20 C        3.1890     5.3320    -1.2490 C.3   1 <1>   0.3430 
 21 C        5.3720     4.5340    -0.4490 C.3   1 <1>   0.2370 
 22 C        5.9960     5.9330    -0.4150 C.2   1 <1>   0.9060 
 23 O        6.3540     6.3800     0.6780 O.co2 1 <1>  -0.9000 
 24 O        5.9930     6.5890    -1.4610 O.co2 1 <1>  -0.9000 
 25 H        1.4490    -0.4880     1.6730 H     1 <1>   0.1500 
 26 H       -2.8820     1.5310    -1.2260 H     1 <1>   0.0800 
 27 H       -3.6030    -0.9760     0.3120 H     1 <1>   0.0800 
 28 H       -4.7150     0.0780    -0.5270 H     1 <1>   0.0800 
 29 H       -3.8460     0.6620     0.8710 H     1 <1>   0.0800 
 30 H       -2.3220    -1.3700    -1.8930 H     1 <1>   0.0800 
 31 H       -1.7330     0.0090    -2.7900 H     1 <1>   0.0800 
 32 H       -3.4460    -0.3190    -2.7200 H     1 <1>   0.0800 
 33 H        2.1880     4.4040     2.6460 H     1 <1>   0.0800 
 34 H        1.1850     3.2150    -1.2370 H     1 <1>   0.0800 
 35 H       -0.0690     4.1870    -0.5420 H     1 <1>   0.0800 
 36 H        1.5910     6.5970     2.5830 H     1 <1>   0.0800 
 37 H        0.2680     5.8660     1.7120 H     1 <1>   0.0800 
 38 H        4.2610     4.5310     1.8710 H     1 <1>   0.0800 
 39 H        3.8200     6.0780     1.2250 H     1 <1>   0.0800 
 40 H        1.3230     5.3210    -2.2210 H     1 <1>   0.0800 
 41 H        3.5100     3.5400    -0.2270 H     1 <1>   0.4500 
 42 H       -0.0050     6.5390    -0.4830 H     1 <1>   0.0800 
 43 H        1.2820     7.4260    -1.2560 H     1 <1>   0.0800 
 44 H        3.5280     6.3550    -1.1670 H     1 <1>   0.0800 
 45 H        3.5020     4.9790    -2.2180 H     1 <1>   0.0800 
 46 H        5.8740     3.9470     0.2990 H     1 <1>   0.0800 
 47 H        5.5940     4.1150    -1.4130 H     1 <1>   0.0800 
@<TRIPOS>BOND
  1   1   2  1   
  2   1   3  1   
  3   2   4  2   
  4   2   5  1   
  5   3   6  2   
  6   3  25  1   
  7   4   6  1   
  8   5   7  1   
  9   5   8  1   
 10   5  26  1   
 11   6   9  1   
 12   7  27  1   
 13   7  28  1   
 14   7  29  1   
 15   8  30  1   
 16   8  31  1   
 17   8  32  1   
 18   9  10  2   
 19   9  11  am  
 20  11  12  1   
 21  11  13  1   
 22  12  14  1   
 23  12  15  1   
 24  12  33  1   
 25  13  16  1   
 26  13  34  1   
 27  13  35  1   
 28  14  17  1   
 29  14  36  1   
 30  14  37  1   
 31  15  18  1   
 32  15  38  1   
 33  15  39  1   
 34  16  19  1   
 35  16  20  1   
 36  16  40  1   
 37  17  19  1   
 38  18  20  1   
 39  18  21  1   
 40  18  41  1   
 41  19  42  1   
 42  19  43  1   
 43  20  44  1   
 44  20  45  1   
 45  21  22  1   
 46  21  46  1   
 47  21  47  1   
 48  22  23  ar  
 49  22  24  ar  
@<TRIPOS>SUBSTRUCTURE
  1 ****  11 GROUP 4 **** **** 0

# MOE 2024.06 (io_trps.svl 2023.06)
