@<TRIPOS>MOLECULE
NONAME
44 46 1 0 0 
SMALL
USER_CHARGES


@<TRIPOS>ATOM
  1 O        2.5320     3.2370    -0.9490 O.3   1 <1>  -0.0190 
  2 N        3.5480     2.4340    -0.8810 N.2   1 <1>  -0.4100 
  3 C        1.3970     2.6000    -0.8400 C.2   1 <1>  -0.0400 
  4 C        3.0600     1.2510    -0.7540 C.2   1 <1>   0.1080 
  5 C        1.6680     1.2920    -0.7210 C.2   1 <1>  -0.1500 
  6 C        0.1030     3.3900    -0.8680 C.3   1 <1>   0.0200 
  7 C        3.8930    -0.0080    -0.6550 C.3   1 <1>  -0.0590 
  8 C       -0.1930     4.1270     0.4630 C.3   1 <1>  -0.0800 
  9 C       -0.8870     5.4630     0.1890 C.3   1 <1>   0.2000 
 10 C        1.0600     4.5650     1.2290 C.3   1 <1>   0.3430 
 11 O       -1.6380     5.8200     1.3020 O.3   1 <1>  -0.6800 
 12 C        0.2610     6.4690    -0.0040 C.3   1 <1>   0.3430 
 13 N        1.4880     5.8120     0.5520 N.4   1 <1>  -0.9590 
 14 C        2.3700     6.7010     1.3510 C.3   1 <1>   0.4860 
 15 C        2.8620     7.8220     0.4610 C.ar  1 <1>  -0.1440 
 16 C        3.6360     7.5210    -0.6560 C.ar  1 <1>   0.3930 
 17 C        2.5580     9.1400     0.7340 C.ar  1 <1>  -0.1500 
 18 O        3.9030     6.2160    -0.8920 O.3   1 <1>  -0.3620 
 19 N        4.1070     8.4250    -1.5040 N.ar  1 <1>  -0.6200 
 20 C        3.0510    10.0870    -0.1400 C.ar  1 <1>  -0.1500 
 21 C        4.7510     5.8180    -1.9560 C.3   1 <1>   0.0400 
 22 C        3.8080     9.6820    -1.2250 C.ar  1 <1>   0.1600 
 23 H        1.0080     0.4500    -0.6210 H     1 <1>   0.1500 
 24 H        0.1700     4.0820    -1.6900 H     1 <1>   0.0800 
 25 H       -0.7120     2.7210    -1.0870 H     1 <1>   0.0800 
 26 H        3.6880    -0.5130     0.2710 H     1 <1>   0.0800 
 27 H        4.9400     0.2380    -0.6930 H     1 <1>   0.0800 
 28 H        3.6630    -0.6650    -1.4740 H     1 <1>   0.0800 
 29 H       -0.7970     3.4820     1.0790 H     1 <1>   0.0800 
 30 H       -1.5540     5.4400    -0.6580 H     1 <1>   0.0800 
 31 H        1.8360     3.8160     1.2210 H     1 <1>   0.0800 
 32 H        0.7960     4.7790     2.2510 H     1 <1>   0.0800 
 33 H       -1.1670     5.7030     2.1480 H     1 <1>   0.4000 
 34 H        0.0340     7.3920     0.5050 H     1 <1>   0.0800 
 35 H        0.4060     6.6710    -1.0530 H     1 <1>   0.0800 
 36 H        2.0860     5.5270    -0.2490 H     1 <1>   0.4500 
 37 H        1.8340     7.1030     2.1940 H     1 <1>   0.0800 
 38 H        3.2190     6.1430     1.7140 H     1 <1>   0.0800 
 39 H        1.9690     9.4380     1.5860 H     1 <1>   0.1500 
 40 H        2.8550    11.1340     0.0170 H     1 <1>   0.1500 
 41 H        4.8420     4.7470    -1.9400 H     1 <1>   0.0800 
 42 H        5.7170     6.2720    -1.8200 H     1 <1>   0.0800 
 43 H        4.3180     6.1380    -2.8890 H     1 <1>   0.0800 
 44 H        4.1890    10.4330    -1.8990 H     1 <1>   0.1500 
@<TRIPOS>BOND
  1   1   2  1   
  2   1   3  1   
  3   2   4  2   
  4   3   5  2   
  5   3   6  1   
  6   4   5  1   
  7   4   7  1   
  8   5  23  1   
  9   6   8  1   
 10   6  24  1   
 11   6  25  1   
 12   7  26  1   
 13   7  27  1   
 14   7  28  1   
 15   8   9  1   
 16   8  10  1   
 17   8  29  1   
 18   9  11  1   
 19   9  12  1   
 20   9  30  1   
 21  10  13  1   
 22  10  31  1   
 23  10  32  1   
 24  11  33  1   
 25  12  13  1   
 26  12  34  1   
 27  12  35  1   
 28  13  14  1   
 29  13  36  1   
 30  14  15  1   
 31  14  37  1   
 32  14  38  1   
 33  15  16  ar  
 34  15  17  ar  
 35  16  18  1   
 36  16  19  ar  
 37  17  20  ar  
 38  17  39  1   
 39  18  21  1   
 40  19  22  ar  
 41  20  22  ar  
 42  20  40  1   
 43  21  41  1   
 44  21  42  1   
 45  21  43  1   
 46  22  44  1   
@<TRIPOS>SUBSTRUCTURE
  1 ****  13 GROUP 4 **** **** 0

# MOE 2024.06 (io_trps.svl 2023.06)
