@<TRIPOS>MOLECULE
Untitled Document
45 47 1 0 0 
SMALL
USER_CHARGES


@<TRIPOS>ATOM
  1 O       -0.0360     3.6720     0.2170 O.3   1 <1>  -0.3630 
  2 C        0.9060     4.2920    -0.5240 C.ar  1 <1>   0.3920 
  3 C       -1.3000     3.5140    -0.3840 C.3   1 <1>   0.1200 
  4 N        1.8020     3.4920    -1.0630 N.ar  1 <1>  -0.6200 
  5 C        0.9050     5.7120    -0.6630 C.ar  1 <1>   0.4100 
  6 C       -2.1560     2.6360     0.5210 C.3   1 <1>   0.1200 
  7 C        2.7100     4.1600    -1.7600 C.ar  1 <1>   0.1600 
  8 N        1.8260     6.3610    -1.3650 N.ar  1 <1>  -0.6200 
  9 N       -0.0490     6.5390    -0.0590 N.pl3 1 <1>  -0.8380 
 10 O       -3.4460     2.5420    -0.0440 O.3   1 <1>  -0.3630 
 11 C        2.7190     5.5380    -1.9040 C.ar  1 <1>   0.1600 
 12 C        0.3220     7.2030     1.2280 C.3   1 <1>   0.2890 
 13 C       -0.8030     7.4410    -0.9870 C.3   1 <1>   0.2090 
 14 C       -4.4180     1.7950     0.5420 C.ar  1 <1>   0.0820 
 15 C        1.1240     8.5000     0.9460 C.3   1 <1>   0.3430 
 16 C        1.0890     6.2550     2.1540 C.3   1 <1>  -0.2400 
 17 C       -0.0460     8.7680    -1.2400 C.3   1 <1>   0.3430 
 18 C       -5.6530     1.7240    -0.0930 C.ar  1 <1>   0.1600 
 19 C       -4.2450     1.1030     1.7320 C.ar  1 <1>  -0.1500 
 20 N        0.3860     9.4490     0.0340 N.4   1 <1>  -0.9060 
 21 N       -6.7020     1.0430     0.3450 N.ar  1 <1>  -0.6200 
 22 C       -5.3280     0.3890     2.2000 C.ar  1 <1>  -0.1500 
 23 C       -6.5130     0.3920     1.4820 C.ar  1 <1>   0.1600 
 24 H       -1.7470     4.4850    -0.4990 H     1 <1>   0.0800 
 25 H       -1.1630     3.0430    -1.3420 H     1 <1>   0.0800 
 26 H       -2.2460     3.0790     1.4970 H     1 <1>   0.0800 
 27 H       -1.7370     1.6470     0.5850 H     1 <1>   0.0800 
 28 H        3.4810     3.5790    -2.2360 H     1 <1>   0.1500 
 29 H        3.5030     5.9820    -2.4940 H     1 <1>   0.1500 
 30 H       -0.5880     7.4710     1.7380 H     1 <1>   0.0800 
 31 H       -0.9530     6.9380    -1.9290 H     1 <1>   0.0800 
 32 H       -1.7760     7.6450    -0.5730 H     1 <1>   0.0800 
 33 H        2.0580     8.2150     0.4890 H     1 <1>   0.0800 
 34 H        1.3470     8.9860     1.8800 H     1 <1>   0.0800 
 35 H        2.0490     5.9930     1.7440 H     1 <1>   0.0800 
 36 H        0.5180     5.3580     2.3160 H     1 <1>   0.0800 
 37 H        1.2500     6.7200     3.1100 H     1 <1>   0.0800 
 38 H       -0.6700     9.4280    -1.8190 H     1 <1>   0.0800 
 39 H        0.8250     8.5400    -1.8330 H     1 <1>   0.0800 
 40 H       -5.7710     2.2640    -1.0150 H     1 <1>   0.1500 
 41 H       -3.3220     1.1070     2.2810 H     1 <1>   0.1500 
 42 H       -0.4390     9.8160     0.5210 H     1 <1>   0.4500 
 43 H        0.9940    10.2440    -0.1950 H     1 <1>   0.4500 
 44 H       -5.2590    -0.1680     3.1170 H     1 <1>   0.1500 
 45 H       -7.3490    -0.1710     1.8630 H     1 <1>   0.1500 
@<TRIPOS>BOND
  1   1   2  1   
  2   1   3  1   
  3   2   4  ar  
  4   2   5  ar  
  5   3   6  1   
  6   3  24  1   
  7   3  25  1   
  8   4   7  ar  
  9   5   8  ar  
 10   5   9  1   
 11   6  10  1   
 12   6  26  1   
 13   6  27  1   
 14   7  11  ar  
 15   7  28  1   
 16   8  11  ar  
 17   9  12  1   
 18   9  13  1   
 19  10  14  1   
 20  11  29  1   
 21  12  15  1   
 22  12  16  1   
 23  12  30  1   
 24  13  17  1   
 25  13  31  1   
 26  13  32  1   
 27  14  18  ar  
 28  14  19  ar  
 29  15  20  1   
 30  15  33  1   
 31  15  34  1   
 32  16  35  1   
 33  16  36  1   
 34  16  37  1   
 35  17  20  1   
 36  17  38  1   
 37  17  39  1   
 38  18  21  ar  
 39  18  40  1   
 40  19  22  ar  
 41  19  41  1   
 42  20  42  1   
 43  20  43  1   
 44  21  23  ar  
 45  22  23  ar  
 46  22  44  1   
 47  23  45  1   
@<TRIPOS>SUBSTRUCTURE
  1 ****   3 GROUP 4 **** **** 0

# MOE 2024.06 (io_trps.svl 2023.06)
