@<TRIPOS>MOLECULE
NONAME
49 52 1 0 0 
SMALL
USER_CHARGES


@<TRIPOS>ATOM
  1 S       -0.6830    -0.6370     1.0050 S.3   1 <1>  -0.0800 
  2 C       -1.0100     0.8570     0.1340 C.2   1 <1>   0.4620 
  3 C       -1.9810    -1.4060     0.1370 C.2   1 <1>  -0.1100 
  4 N       -1.9800     0.7590    -0.7030 N.2   1 <1>  -0.5650 
  5 N       -0.2460     1.9680     0.3930 N.pl3 1 <1>  -0.8220 
  6 C       -2.5290    -0.5120    -0.7020 C.2   1 <1>   0.0460 
  7 C        0.7500     2.0740     1.4780 C.3   1 <1>   0.2090 
  8 C       -0.5490     3.2830    -0.2020 C.3   1 <1>   0.2090 
  9 C       -3.6950    -0.7470    -1.6530 C.3   1 <1>   0.3210 
 10 C        1.2510     3.5110     1.3940 C.3   1 <1>  -0.1600 
 11 C        0.1080     4.2850     0.7390 C.3   1 <1>  -0.1600 
 12 N       -4.0990    -2.1740    -1.6760 N.am  1 <1>  -0.7300 
 13 C       -5.3270    -2.6540    -1.3520 C.2   1 <1>   0.5690 
 14 O       -6.2280    -1.9090    -1.0500 O.2   1 <1>  -0.5700 
 15 C       -5.5600    -4.1680    -1.3520 C.3   1 <1>   0.2610 
 16 O       -4.4710    -4.8320    -1.9890 O.3   1 <1>  -0.5600 
 17 C       -5.7630    -4.6550     0.1110 C.3   1 <1>   0.3640 
 18 C       -4.5910    -6.2370    -2.0440 C.3   1 <1>   0.1810 
 19 N       -5.3490    -6.0660     0.3110 N.am  1 <1>  -0.7300 
 20 C       -7.2200    -4.5220     0.5490 C.ar  1 <1>  -0.1440 
 21 C       -4.8370    -6.8470    -0.6640 C.2   1 <1>   0.5690 
 22 C       -8.1750    -5.4630     0.1820 C.ar  1 <1>  -0.1500 
 23 C       -7.6100    -3.4410     1.3280 C.ar  1 <1>  -0.1500 
 24 O       -4.6030    -8.0120    -0.4640 O.2   1 <1>  -0.5700 
 25 C       -9.4910    -5.3280     0.5910 C.ar  1 <1>  -0.1500 
 26 C       -8.9250    -3.3040     1.7360 C.ar  1 <1>  -0.1500 
 27 C       -9.8670    -4.2480     1.3690 C.ar  1 <1>  -0.1500 
 28 H       -2.1890    -2.4370     0.3530 H     1 <1>   0.1500 
 29 H        0.2650     1.8970     2.4230 H     1 <1>   0.0800 
 30 H        1.5500     1.3670     1.3370 H     1 <1>   0.0800 
 31 H       -0.1070     3.3320    -1.1830 H     1 <1>   0.0800 
 32 H       -1.6120     3.4400    -0.2750 H     1 <1>   0.0800 
 33 H       -3.4050    -0.4490    -2.6450 H     1 <1>   0.0800 
 34 H       -4.5230    -0.1300    -1.3490 H     1 <1>   0.0800 
 35 H        1.5100     3.9010     2.3620 H     1 <1>   0.0800 
 36 H        2.1190     3.5380     0.7600 H     1 <1>   0.0800 
 37 H        0.4480     5.1600     0.2150 H     1 <1>   0.0800 
 38 H       -0.6100     4.5790     1.4850 H     1 <1>   0.0800 
 39 H       -3.3890    -2.8430    -1.9880 H     1 <1>   0.3700 
 40 H       -6.4470    -4.3700    -1.9250 H     1 <1>   0.0800 
 41 H       -5.1530    -4.0450     0.7550 H     1 <1>   0.0800 
 42 H       -5.4020    -6.4870    -2.7020 H     1 <1>   0.0800 
 43 H       -3.6770    -6.6300    -2.4500 H     1 <1>   0.0800 
 44 H       -5.5770    -6.4920     1.2110 H     1 <1>   0.3700 
 45 H       -7.9050    -6.3120    -0.4220 H     1 <1>   0.1500 
 46 H       -6.8950    -2.6890     1.6160 H     1 <1>   0.1500 
 47 H      -10.2230    -6.0620     0.3030 H     1 <1>   0.1500 
 48 H       -9.2150    -2.4600     2.3370 H     1 <1>   0.1500 
 49 H      -10.8890    -4.1410     1.6860 H     1 <1>   0.1500 
@<TRIPOS>BOND
  1   1   2  1   
  2   1   3  1   
  3   2   4  2   
  4   2   5  1   
  5   3   6  2   
  6   3  28  1   
  7   4   6  1   
  8   5   7  1   
  9   5   8  1   
 10   6   9  1   
 11   7  10  1   
 12   7  29  1   
 13   7  30  1   
 14   8  11  1   
 15   8  31  1   
 16   8  32  1   
 17   9  12  1   
 18   9  33  1   
 19   9  34  1   
 20  10  11  1   
 21  10  35  1   
 22  10  36  1   
 23  11  37  1   
 24  11  38  1   
 25  12  13  am  
 26  12  39  1   
 27  13  14  2   
 28  13  15  1   
 29  15  16  1   
 30  15  17  1   
 31  15  40  1   
 32  16  18  1   
 33  17  19  1   
 34  17  20  1   
 35  17  41  1   
 36  18  21  1   
 37  18  42  1   
 38  18  43  1   
 39  19  21  am  
 40  19  44  1   
 41  20  22  ar  
 42  20  23  ar  
 43  21  24  2   
 44  22  25  ar  
 45  22  45  1   
 46  23  26  ar  
 47  23  46  1   
 48  25  27  ar  
 49  25  47  1   
 50  26  27  ar  
 51  26  48  1   
 52  27  49  1   
@<TRIPOS>SUBSTRUCTURE
  1 ****  12 GROUP 4 **** **** 0

# MOE 2024.06 (io_trps.svl 2023.06)
