@<TRIPOS>MOLECULE
NONAME
36 38 1 0 0 
SMALL
USER_CHARGES


@<TRIPOS>ATOM
  1 O       -0.4530     0.1820    -0.5900 O.2   1 <1>  -0.5700 
  2 C       -1.4170     0.7410    -0.1020 C.2   1 <1>   0.7160 
  3 N       -2.5520     0.0020     0.1510 N.am  1 <1>  -0.6600 
  4 C       -1.3550     2.1540     0.1790 C.2   1 <1>  -0.0860 
  5 C       -3.9220     0.5730     0.2250 C.3   1 <1>   0.1400 
  6 C       -2.6150    -1.4570    -0.1240 C.3   1 <1>   0.1400 
  7 C       -1.9310     2.8220     1.2640 C.2   1 <1>   0.1390 
  8 C       -0.7290     3.1570    -0.4980 C.2   1 <1>  -0.3020 
  9 C       -4.8490    -0.5700    -0.1880 C.3   1 <1>   0.2000 
 10 C       -4.0760    -1.8500     0.1130 C.3   1 <1>  -0.0800 
 11 N       -1.7120     4.0980     1.2540 N.2   1 <1>  -0.7070 
 12 N       -0.9580     4.3030     0.1590 N.pl3 1 <1>   0.3000 
 13 O       -6.0350    -0.5490     0.5290 O.3   1 <1>  -0.6800 
 14 C       -4.5530    -3.0440    -0.7320 C.3   1 <1>  -0.0170 
 15 C       -3.8180    -4.3230    -0.3650 C.ar  1 <1>   0.1670 
 16 N       -2.6250    -4.4940    -0.9120 N.ar  1 <1>  -0.6200 
 17 C       -4.4100    -5.2290     0.5020 C.ar  1 <1>  -0.1500 
 18 C       -1.9960    -5.6100    -0.5820 C.ar  1 <1>   0.1600 
 19 C       -3.7430    -6.3880     0.8380 C.ar  1 <1>  -0.1500 
 20 C       -2.5000    -6.5740     0.2740 C.ar  1 <1>  -0.1500 
 21 H       -4.1250     0.8760     1.2360 H     1 <1>   0.0800 
 22 H       -4.0250     1.4090    -0.4450 H     1 <1>   0.0800 
 23 H       -2.3300    -1.6380    -1.1470 H     1 <1>   0.0800 
 24 H       -1.9490    -2.0000     0.5250 H     1 <1>   0.0800 
 25 H       -2.4960     2.3310     2.0390 H     1 <1>   0.1500 
 26 H       -0.1430     3.0890    -1.3970 H     1 <1>   0.1500 
 27 H       -5.0830    -0.4890    -1.2370 H     1 <1>   0.0800 
 28 H       -4.1740    -2.0920     1.1560 H     1 <1>   0.0800 
 29 H       -0.6140     5.2360    -0.1010 H     1 <1>   0.2700 
 30 H       -5.8600    -0.6590     1.4830 H     1 <1>   0.4000 
 31 H       -4.4000    -2.8410    -1.7780 H     1 <1>   0.0800 
 32 H       -5.6080    -3.1830    -0.5820 H     1 <1>   0.0800 
 33 H       -5.3840    -5.0340     0.9130 H     1 <1>   0.1500 
 34 H       -1.0230    -5.7650    -1.0180 H     1 <1>   0.1500 
 35 H       -4.1730    -7.1130     1.5080 H     1 <1>   0.1500 
 36 H       -1.9250    -7.4550     0.4920 H     1 <1>   0.1500 
@<TRIPOS>BOND
  1   1   2  2   
  2   2   3  am  
  3   2   4  1   
  4   3   5  1   
  5   3   6  1   
  6   4   7  1   
  7   4   8  2   
  8   5   9  1   
  9   5  21  1   
 10   5  22  1   
 11   6  10  1   
 12   6  23  1   
 13   6  24  1   
 14   7  11  2   
 15   7  25  1   
 16   8  12  1   
 17   8  26  1   
 18   9  10  1   
 19   9  13  1   
 20   9  27  1   
 21  10  14  1   
 22  10  28  1   
 23  11  12  1   
 24  12  29  1   
 25  13  30  1   
 26  14  15  1   
 27  14  31  1   
 28  14  32  1   
 29  15  16  ar  
 30  15  17  ar  
 31  16  18  ar  
 32  17  19  ar  
 33  17  33  1   
 34  18  20  ar  
 35  18  34  1   
 36  19  20  ar  
 37  19  35  1   
 38  20  36  1   
@<TRIPOS>SUBSTRUCTURE
  1 ****   6 GROUP 4 **** **** 0

# MOE 2024.06 (io_trps.svl 2023.06)
