@<TRIPOS>MOLECULE
NONAME
34 35 1 0 0 
SMALL
USER_CHARGES


@<TRIPOS>ATOM
  1 O       -0.1130    -0.2480     0.8760 O.2   1 <1>  -0.5700 
  2 C        0.2140    -1.3760     0.5650 C.2   1 <1>   0.7800 
  3 O        1.4520    -1.6650     0.1580 O.3   1 <1>  -0.4300 
  4 N       -0.6640    -2.4170     0.6000 N.am  1 <1>  -0.5850 
  5 C        2.5360    -0.7720     0.0310 C.3   1 <1>   0.2800 
  6 C       -2.2900    -2.2490     0.6360 C.3   1 <1>   0.2250 
  7 C       -0.4690    -3.8970    -0.2370 C.3   1 <1>   0.1400 
  8 C        3.7010    -1.6280    -0.4660 C.3   1 <1>  -0.2400 
  9 C        2.8950    -0.1740     1.3960 C.3   1 <1>  -0.2400 
 10 C        2.2180     0.3040    -1.0150 C.3   1 <1>  -0.2400 
 11 C       -1.8800    -3.3640     0.2580 C.3   1 <1>   0.0000 
 12 C       -3.4710    -3.3910     0.0310 C.3   1 <1>   0.0000 
 13 C       -2.0930    -4.2870    -0.5550 C.3   1 <1>   0.0000 
 14 C       -2.2920    -5.7590    -0.1370 C.3   1 <1>   0.1200 
 15 O       -1.5850    -6.5610    -1.0160 O.3   1 <1>  -0.6800 
 16 H       -2.5300    -2.1310     1.6800 H     1 <1>   0.0000 
 17 H        0.0470    -4.6280     0.3760 H     1 <1>   0.0800 
 18 H        0.0940    -3.7500    -1.1480 H     1 <1>   0.0800 
 19 H        3.9210    -2.4060     0.2430 H     1 <1>   0.0800 
 20 H        4.5820    -1.0250    -0.5920 H     1 <1>   0.0800 
 21 H        3.4580    -2.0760    -1.4130 H     1 <1>   0.0800 
 22 H        3.0410    -0.9560     2.1190 H     1 <1>   0.0800 
 23 H        2.1240     0.4890     1.7440 H     1 <1>   0.0800 
 24 H        3.8020     0.3950     1.3210 H     1 <1>   0.0800 
 25 H        1.9010    -0.1510    -1.9350 H     1 <1>   0.0800 
 26 H        3.0930     0.8960    -1.2090 H     1 <1>   0.0800 
 27 H        1.4490     0.9680    -0.6660 H     1 <1>   0.0800 
 28 H       -1.9270    -3.9320     1.2960 H     1 <1>   0.0000 
 29 H       -1.9080    -2.7140    -0.8810 H     1 <1>   0.0000 
 30 H       -4.0970    -2.9850    -0.7520 H     1 <1>   0.0000 
 31 H       -4.0750    -3.8730     0.7970 H     1 <1>   0.0000 
 32 H       -3.3300    -6.0390    -0.1970 H     1 <1>   0.0800 
 33 H       -1.9300    -5.9700     0.8550 H     1 <1>   0.0800 
 34 H       -1.9480    -6.4870    -1.9210 H     1 <1>   0.4000 
@<TRIPOS>BOND
  1   1   2  2   
  2   2   3  1   
  3   2   4  am  
  4   3   5  1   
  5   4   6  1   
  6   4   7  1   
  7   5   8  1   
  8   5   9  1   
  9   5  10  1   
 10   6  11  1   
 11   6  12  1   
 12   6  16  1   
 13   7  13  1   
 14   7  17  1   
 15   7  18  1   
 16   8  19  1   
 17   8  20  1   
 18   8  21  1   
 19   9  22  1   
 20   9  23  1   
 21   9  24  1   
 22  10  25  1   
 23  10  26  1   
 24  10  27  1   
 25  11  13  1   
 26  11  28  1   
 27  11  29  1   
 28  12  13  1   
 29  12  30  1   
 30  12  31  1   
 31  13  14  1   
 32  14  15  1   
 33  14  32  1   
 34  14  33  1   
 35  15  34  1   
@<TRIPOS>SUBSTRUCTURE
  1 ****   4 GROUP 4 **** **** 0

# MOE 2024.06 (io_trps.svl 2023.06)
