@<TRIPOS>MOLECULE
NONAME
53 55 1 0 0 
SMALL
USER_CHARGES


@<TRIPOS>ATOM
  1 S       -0.7430     0.3890     1.4410 S.o2  1 <1>   1.5010 
  2 O       -0.6880    -0.9650     1.9540 O.2   1 <1>  -0.6500 
  3 O       -1.2020     1.4660     2.2870 O.2   1 <1>  -0.6500 
  4 N       -1.7800     0.3160     0.0910 N.am  1 <1>  -0.8490 
  5 C        0.8310     0.8040     0.6800 C.2   1 <1>  -0.0630 
  6 C       -1.6410    -0.9040    -0.7190 C.3   1 <1>   0.1960 
  7 C       -3.1810     0.6700     0.3600 C.3   1 <1>   0.1960 
  8 C        1.2400     1.8350    -0.1050 C.2   1 <1>  -0.3320 
  9 C        1.9610     0.0060     0.7980 C.2   1 <1>   0.1390 
 10 C       -2.4030    -2.1260    -0.1220 C.3   1 <1>   0.4230 
 11 C       -3.9240    -0.4990     1.0210 C.3   1 <1>  -0.1600 
 12 N        2.5380     1.6130    -0.4130 N.pl3 1 <1>   0.3140 
 13 C        0.4340     3.0400    -0.5720 C.3   1 <1>  -0.0600 
 14 N        2.9750     0.4690     0.1390 N.2   1 <1>  -0.7070 
 15 N       -2.1930    -3.4310    -0.8820 N.4   1 <1>  -0.9590 
 16 C       -3.8940    -1.7970     0.1670 C.3   1 <1>   0.0000 
 17 C        3.4380     2.4570    -1.2300 C.3   1 <1>   0.0960 
 18 C       -3.2130    -4.4870    -0.5700 C.3   1 <1>   0.3430 
 19 C       -2.0280    -3.3050    -2.3680 C.3   1 <1>   0.2630 
 20 C       -4.5220    -2.9570     0.9940 C.3   1 <1>  -0.1600 
 21 C       -4.6710    -1.5970    -1.1660 C.3   1 <1>   0.1200 
 22 C        4.1350     3.5180    -0.3690 C.3   1 <1>  -0.2400 
 23 C       -3.7850    -4.3010     0.8350 C.3   1 <1>  -0.1600 
 24 O       -5.9280    -1.0610    -0.9490 O.3   1 <1>  -0.6800 
 25 H       -2.0140    -0.6850    -1.7020 H     1 <1>   0.0800 
 26 H       -0.5950    -1.1450    -0.8120 H     1 <1>   0.0800 
 27 H       -3.2340     1.5430     0.9900 H     1 <1>   0.0800 
 28 H       -3.6650     0.9290    -0.5670 H     1 <1>   0.0800 
 29 H        2.0010    -0.9050     1.3730 H     1 <1>   0.1500 
 30 H       -1.9730    -2.2930     0.8490 H     1 <1>   0.0800 
 31 H       -3.4810    -0.6740     1.9860 H     1 <1>   0.0800 
 32 H       -4.9390    -0.1940     1.2080 H     1 <1>   0.0800 
 33 H       -0.5670     3.0020    -0.1790 H     1 <1>   0.0800 
 34 H        0.3760     3.0590    -1.6460 H     1 <1>   0.0800 
 35 H        0.8930     3.9500    -0.2290 H     1 <1>   0.0800 
 36 H       -1.3020    -3.7960    -0.5130 H     1 <1>   0.4500 
 37 H        4.1730     1.8170    -1.6850 H     1 <1>   0.0800 
 38 H        2.8650     2.9250    -2.0090 H     1 <1>   0.0800 
 39 H       -4.0240    -4.4320    -1.2770 H     1 <1>   0.0800 
 40 H       -2.7660    -5.4650    -0.6550 H     1 <1>   0.0800 
 41 H       -2.9180    -2.8920    -2.8140 H     1 <1>   0.0800 
 42 H       -1.8430    -4.2730    -2.8060 H     1 <1>   0.0800 
 43 H       -1.1930    -2.6650    -2.6040 H     1 <1>   0.0800 
 44 H       -4.5220    -2.7150     2.0450 H     1 <1>   0.0800 
 45 H       -5.5550    -3.0870     0.7210 H     1 <1>   0.0800 
 46 H       -4.8050    -2.5260    -1.6900 H     1 <1>   0.0800 
 47 H       -4.1610    -0.9120    -1.8190 H     1 <1>   0.0800 
 48 H        4.7190     3.0400     0.3990 H     1 <1>   0.0800 
 49 H        3.4130     4.1700     0.0880 H     1 <1>   0.0800 
 50 H        4.7940     4.1090    -0.9800 H     1 <1>   0.0800 
 51 H       -4.4690    -5.1050     1.0490 H     1 <1>   0.0800 
 52 H       -2.9850    -4.3710     1.5530 H     1 <1>   0.0800 
 53 H       -6.4980    -1.6520    -0.4170 H     1 <1>   0.4000 
@<TRIPOS>BOND
  1   1   2  2   
  2   1   3  2   
  3   1   4  am  
  4   1   5  1   
  5   4   6  1   
  6   4   7  1   
  7   5   8  2   
  8   5   9  1   
  9   6  10  1   
 10   6  25  1   
 11   6  26  1   
 12   7  11  1   
 13   7  27  1   
 14   7  28  1   
 15   8  12  1   
 16   8  13  1   
 17   9  14  2   
 18   9  29  1   
 19  10  15  1   
 20  10  16  1   
 21  10  30  1   
 22  11  16  1   
 23  11  31  1   
 24  11  32  1   
 25  12  14  1   
 26  12  17  1   
 27  13  33  1   
 28  13  34  1   
 29  13  35  1   
 30  15  18  1   
 31  15  19  1   
 32  15  36  1   
 33  16  20  1   
 34  16  21  1   
 35  17  22  1   
 36  17  37  1   
 37  17  38  1   
 38  18  23  1   
 39  18  39  1   
 40  18  40  1   
 41  19  41  1   
 42  19  42  1   
 43  19  43  1   
 44  20  23  1   
 45  20  44  1   
 46  20  45  1   
 47  21  24  1   
 48  21  46  1   
 49  21  47  1   
 50  22  48  1   
 51  22  49  1   
 52  22  50  1   
 53  23  51  1   
 54  23  52  1   
 55  24  53  1   
@<TRIPOS>SUBSTRUCTURE
  1 ****   4 GROUP 4 **** **** 0

# MOE 2024.06 (io_trps.svl 2023.06)
