@<TRIPOS>MOLECULE
NONAME
47 51 1 0 0 
SMALL
USER_CHARGES


@<TRIPOS>ATOM
  1 S        1.1680     0.4560     0.0280 S.3   1 <1>  -0.0800 
  2 C       -0.3750     1.1700     0.4710 C.2   1 <1>  -0.1400 
  3 C        0.7650    -1.0260     0.8870 C.2   1 <1>  -0.1100 
  4 C       -1.0920     0.3200     1.2180 C.2   1 <1>  -0.1810 
  5 C       -0.7920     2.5720     0.0380 C.3   1 <1>   0.4600 
  6 C       -0.4520    -0.9370     1.4560 C.2   1 <1>  -0.1500 
  7 C       -2.4540     0.7390     1.7250 C.3   1 <1>   0.0210 
  8 O       -2.1410     2.7750     0.4180 O.3   1 <1>  -0.5600 
  9 C       -0.7490     2.7110    -1.4870 C.3   1 <1>  -0.1600 
 10 C        0.0770     3.6540     0.6900 C.3   1 <1>  -0.1600 
 11 C       -2.5600     2.2760     1.6670 C.3   1 <1>   0.1200 
 12 C       -1.1530     4.1160    -1.9380 C.3   1 <1>   0.1400 
 13 C       -0.3390     5.0540     0.2300 C.3   1 <1>   0.1400 
 14 N       -0.2900     5.1270    -1.2590 N.am  1 <1>  -0.6600 
 15 C        0.4370     6.0610    -1.9750 C.2   1 <1>   0.6160 
 16 O        0.2390     6.1660    -3.1720 O.2   1 <1>  -0.5700 
 17 C        1.3470     6.9840    -1.3690 C.2   1 <1>   0.0290 
 18 C        2.5010     6.5050    -0.6790 C.2   1 <1>   0.7670 
 19 C        1.1710     8.3340    -1.4440 C.2   1 <1>  -0.0500 
 20 O        2.7610     5.3160    -0.5900 O.2   1 <1>  -0.5700 
 21 N        3.3710     7.3750    -0.0660 N.2   1 <1>  -0.6610 
 22 N        2.0760     9.1470    -0.8330 N.pl3 1 <1>  -0.5500 
 23 C        3.1440     8.6300    -0.1590 C.2   1 <1>   0.5000 
 24 C        4.0760     9.6370     0.4930 C.3   1 <1>  -0.1000 
 25 C        4.5870     9.4280     1.8880 C.3   1 <1>  -0.2000 
 26 C        3.5980    10.5170     1.6110 C.3   1 <1>  -0.2000 
 27 H        1.4940    -1.8170     0.8740 H     1 <1>   0.1500 
 28 H       -0.9310    -1.7070     2.0350 H     1 <1>   0.1500 
 29 H       -2.5890     0.4100     2.7390 H     1 <1>   0.0800 
 30 H       -3.2210     0.2960     1.1160 H     1 <1>   0.0800 
 31 H       -1.4020     1.9820    -1.9280 H     1 <1>   0.0800 
 32 H        0.2470     2.5150    -1.8400 H     1 <1>   0.0800 
 33 H        1.1040     3.4920     0.4160 H     1 <1>   0.0800 
 34 H        0.0210     3.5820     1.7590 H     1 <1>   0.0800 
 35 H       -1.9500     2.7210     2.4340 H     1 <1>   0.0800 
 36 H       -3.5790     2.5830     1.8170 H     1 <1>   0.0800 
 37 H       -2.1820     4.3040    -1.6820 H     1 <1>   0.0800 
 38 H       -1.0580     4.1850    -3.0080 H     1 <1>   0.0800 
 39 H        0.3060     5.7860     0.6800 H     1 <1>   0.0800 
 40 H       -1.3460     5.2560     0.5540 H     1 <1>   0.0800 
 41 H        0.3390     8.7730    -1.9740 H     1 <1>   0.1500 
 42 H        1.9870    10.1670    -0.8570 H     1 <1>   0.4000 
 43 H        4.7700    10.0520    -0.2160 H     1 <1>   0.1000 
 44 H        5.6100     9.6880     2.1020 H     1 <1>   0.1000 
 45 H        4.2670     8.5490     2.4220 H     1 <1>   0.1000 
 46 H        2.5990    10.3960     1.9950 H     1 <1>   0.1000 
 47 H        3.9360    11.5380     1.6530 H     1 <1>   0.1000 
@<TRIPOS>BOND
  1   1   2  1   
  2   1   3  1   
  3   2   4  2   
  4   2   5  1   
  5   3   6  2   
  6   3  27  1   
  7   4   6  1   
  8   4   7  1   
  9   5   8  1   
 10   5   9  1   
 11   5  10  1   
 12   6  28  1   
 13   7  11  1   
 14   7  29  1   
 15   7  30  1   
 16   8  11  1   
 17   9  12  1   
 18   9  31  1   
 19   9  32  1   
 20  10  13  1   
 21  10  33  1   
 22  10  34  1   
 23  11  35  1   
 24  11  36  1   
 25  12  14  1   
 26  12  37  1   
 27  12  38  1   
 28  13  14  1   
 29  13  39  1   
 30  13  40  1   
 31  14  15  am  
 32  15  16  2   
 33  15  17  1   
 34  17  18  1   
 35  17  19  2   
 36  18  20  2   
 37  18  21  1   
 38  19  22  1   
 39  19  41  1   
 40  21  23  2   
 41  22  23  1   
 42  22  42  1   
 43  23  24  1   
 44  24  25  1   
 45  24  26  1   
 46  24  43  1   
 47  25  26  1   
 48  25  44  1   
 49  25  45  1   
 50  26  46  1   
 51  26  47  1   
@<TRIPOS>SUBSTRUCTURE
  1 ****  13 GROUP 4 **** **** 0

# MOE 2024.06 (io_trps.svl 2023.06)
