@<TRIPOS>MOLECULE
NONAME
53 56 1 0 0 
SMALL
USER_CHARGES


@<TRIPOS>ATOM
  1 O       -3.3580    -0.8850     0.4160 O.2   1 <1>  -0.5700 
  2 C       -2.4460    -1.2740    -0.2950 C.2   1 <1>   0.7160 
  3 N       -1.8900    -2.4990     0.0420 N.am  1 <1>  -0.6600 
  4 C       -2.0250    -0.4670    -1.4350 C.2   1 <1>   0.2030 
  5 C       -2.0140    -2.9830     1.4560 C.3   1 <1>   0.2200 
  6 C       -1.2800    -3.3960    -0.9750 C.3   1 <1>   0.1400 
  7 N       -1.0240    -0.6870    -2.2390 N.2   1 <1>  -0.4100 
  8 C       -2.6470     0.7050    -1.8410 C.2   1 <1>  -0.1500 
  9 C       -0.7980    -3.8200     1.9320 C.3   1 <1>   0.1200 
 10 C       -3.3790    -3.6910     1.6400 C.3   1 <1>   0.3430 
 11 C       -1.6110    -4.8730    -0.7360 C.3   1 <1>  -0.0800 
 12 O       -0.9480     0.2540    -3.1480 O.3   1 <1>  -0.0190 
 13 C       -1.9300     1.0900    -2.8980 C.2   1 <1>  -0.0100 
 14 O       -0.9050    -5.1790     1.5940 O.3   1 <1>  -0.5600 
 15 N       -3.4690    -5.0510     0.9980 N.4   1 <1>  -0.9590 
 16 C       -0.6310    -5.5230     0.2670 C.3   1 <1>   0.1200 
 17 C       -3.1160    -5.0960    -0.4610 C.3   1 <1>   0.3430 
 18 C       -4.7400    -5.7480     1.3340 C.3   1 <1>   0.4860 
 19 C       -4.6700    -7.1760     0.8470 C.ar  1 <1>  -0.1430 
 20 C       -3.8020    -8.0890     1.4000 C.ar  1 <1>   0.1600 
 21 C       -5.4610    -7.6150    -0.1880 C.ar  1 <1>   0.1600 
 22 N       -3.7050    -9.3160     0.9510 N.ar  1 <1>  -0.6200 
 23 N       -5.3800    -8.8370    -0.6530 N.ar  1 <1>  -0.6200 
 24 C       -4.5050    -9.6380    -0.0570 C.ar  1 <1>   0.4770 
 25 C       -4.3950   -11.0770    -0.5790 C.3   1 <1>   0.0630 
 26 C       -3.9010   -11.1190    -2.0350 C.3   1 <1>  -0.2400 
 27 C       -5.7250   -11.8380    -0.4490 C.3   1 <1>  -0.2400 
 28 H       -2.0290    -2.1070     2.0830 H     1 <1>   0.0800 
 29 H       -1.6580    -3.1300    -1.9480 H     1 <1>   0.0800 
 30 H       -0.2130    -3.2440    -0.9930 H     1 <1>   0.0800 
 31 H       -3.5050     1.1630    -1.3790 H     1 <1>   0.1500 
 32 H       -0.7520    -3.7800     3.0070 H     1 <1>   0.0800 
 33 H        0.1270    -3.4220     1.5500 H     1 <1>   0.0800 
 34 H       -4.1500    -3.0470     1.2480 H     1 <1>   0.0800 
 35 H       -3.5520    -3.7960     2.6980 H     1 <1>   0.0800 
 36 H       -1.4090    -5.3500    -1.6780 H     1 <1>   0.0800 
 37 H       -2.0450     1.9490    -3.5360 H     1 <1>   0.1500 
 38 H       -2.6850    -5.5700     1.4420 H     1 <1>   0.4500 
 39 H        0.3880    -5.2490     0.0480 H     1 <1>   0.0800 
 40 H       -0.7030    -6.5960     0.2010 H     1 <1>   0.0800 
 41 H       -3.3670    -6.0690    -0.8510 H     1 <1>   0.0800 
 42 H       -3.6970    -4.3680    -1.0040 H     1 <1>   0.0800 
 43 H       -4.8930    -5.7430     2.4010 H     1 <1>   0.0800 
 44 H       -5.5700    -5.2410     0.8690 H     1 <1>   0.0800 
 45 H       -3.1620    -7.8190     2.2250 H     1 <1>   0.1500 
 46 H       -6.1750    -6.9590    -0.6590 H     1 <1>   0.1500 
 47 H       -3.6680   -11.5920     0.0250 H     1 <1>   0.0800 
 48 H       -4.6110   -10.6390    -2.6860 H     1 <1>   0.0800 
 49 H       -3.7700   -12.1360    -2.3570 H     1 <1>   0.0800 
 50 H       -2.9590   -10.6090    -2.1170 H     1 <1>   0.0800 
 51 H       -6.4820   -11.3800    -1.0600 H     1 <1>   0.0800 
 52 H       -6.0550   -11.8230     0.5750 H     1 <1>   0.0800 
 53 H       -5.6040   -12.8620    -0.7560 H     1 <1>   0.0800 
@<TRIPOS>BOND
  1   1   2  2   
  2   2   3  am  
  3   2   4  1   
  4   3   5  1   
  5   3   6  1   
  6   4   7  2   
  7   4   8  1   
  8   5   9  1   
  9   5  10  1   
 10   5  28  1   
 11   6  11  1   
 12   6  29  1   
 13   6  30  1   
 14   7  12  1   
 15   8  13  2   
 16   8  31  1   
 17   9  14  1   
 18   9  32  1   
 19   9  33  1   
 20  10  15  1   
 21  10  34  1   
 22  10  35  1   
 23  11  16  1   
 24  11  17  1   
 25  11  36  1   
 26  12  13  1   
 27  13  37  1   
 28  14  16  1   
 29  15  17  1   
 30  15  18  1   
 31  15  38  1   
 32  16  39  1   
 33  16  40  1   
 34  17  41  1   
 35  17  42  1   
 36  18  19  1   
 37  18  43  1   
 38  18  44  1   
 39  19  20  ar  
 40  19  21  ar  
 41  20  22  ar  
 42  20  45  1   
 43  21  23  ar  
 44  21  46  1   
 45  22  24  ar  
 46  23  24  ar  
 47  24  25  1   
 48  25  26  1   
 49  25  27  1   
 50  25  47  1   
 51  26  48  1   
 52  26  49  1   
 53  26  50  1   
 54  27  51  1   
 55  27  52  1   
 56  27  53  1   
@<TRIPOS>SUBSTRUCTURE
  1 ****  17 GROUP 4 **** **** 0

# MOE 2024.06 (io_trps.svl 2023.06)
