@<TRIPOS>MOLECULE
NONAME
46 47 1 0 0 
SMALL
USER_CHARGES


@<TRIPOS>ATOM
  1 O       -0.7370    -0.0020    -0.1800 O.3   1 <1>  -0.5600 
  2 C       -0.5620     1.3310    -0.5630 C.3   1 <1>   0.1200 
  3 C       -1.8030    -0.6340    -0.8030 C.3   1 <1>   0.1200 
  4 C        0.6440     1.9030     0.1760 C.3   1 <1>   0.1200 
  5 C       -1.8410    -2.0820    -0.3020 C.3   1 <1>   0.3430 
  6 O        0.8200     3.2200    -0.2420 O.3   1 <1>  -0.5600 
  7 N       -2.8100    -2.9320    -1.0690 N.4   1 <1>  -0.9590 
  8 C        1.8950     3.8630     0.3630 C.3   1 <1>   0.0400 
  9 C       -4.2360    -2.5800    -0.7590 C.3   1 <1>   0.3430 
 10 C       -2.6300    -4.3620    -0.6570 C.3   1 <1>   0.3430 
 11 C       -4.7080    -3.5920     0.2880 C.3   1 <1>   0.2000 
 12 C       -3.9780    -4.8650    -0.1330 C.3   1 <1>  -0.0800 
 13 O       -4.2580    -3.1710     1.5350 O.3   1 <1>  -0.6800 
 14 C       -3.8230    -5.9500     0.9500 C.3   1 <1>   0.0210 
 15 C       -3.1120    -7.1720     0.4010 C.2   1 <1>   0.1080 
 16 N       -1.9230    -7.1230    -0.1190 N.2   1 <1>  -0.7070 
 17 C       -3.6360    -8.4600     0.3950 C.2   1 <1>  -0.1500 
 18 N       -1.6500    -8.4000    -0.4630 N.pl3 1 <1>   0.3000 
 19 C       -2.6760    -9.2230    -0.1660 C.2   1 <1>  -0.3320 
 20 C       -2.6730   -10.7170    -0.4350 C.3   1 <1>  -0.0600 
 21 H       -0.3890     1.3690    -1.6240 H     1 <1>   0.0800 
 22 H       -1.4460     1.8880    -0.3050 H     1 <1>   0.0800 
 23 H       -2.7080    -0.1120    -0.5440 H     1 <1>   0.0800 
 24 H       -1.6360    -0.6050    -1.8660 H     1 <1>   0.0800 
 25 H        1.5310     1.3440    -0.0660 H     1 <1>   0.0800 
 26 H        0.4700     1.8980     1.2380 H     1 <1>   0.0800 
 27 H       -2.1030    -2.0870     0.7440 H     1 <1>   0.0800 
 28 H       -0.8510    -2.4940    -0.4040 H     1 <1>   0.0800 
 29 H       -2.6200    -2.8450    -2.0760 H     1 <1>   0.4500 
 30 H        1.9450     4.8660    -0.0230 H     1 <1>   0.0800 
 31 H        2.8040     3.3370     0.1260 H     1 <1>   0.0800 
 32 H        1.7390     3.8910     1.4280 H     1 <1>   0.0800 
 33 H       -4.3400    -1.5720    -0.3910 H     1 <1>   0.0800 
 34 H       -4.8330    -2.6960    -1.6480 H     1 <1>   0.0800 
 35 H       -2.2930    -4.9740    -1.4790 H     1 <1>   0.0800 
 36 H       -1.9000    -4.4310     0.1340 H     1 <1>   0.0800 
 37 H       -5.7810    -3.6910     0.3160 H     1 <1>   0.0800 
 38 H       -4.5040    -5.2990    -0.9650 H     1 <1>   0.0800 
 39 H       -4.6760    -3.6820     2.2600 H     1 <1>   0.4000 
 40 H       -4.7920    -6.2420     1.3160 H     1 <1>   0.0800 
 41 H       -3.2490    -5.5800     1.7810 H     1 <1>   0.0800 
 42 H       -4.5990    -8.7620     0.7660 H     1 <1>   0.1500 
 43 H       -0.7580    -8.6800    -0.8900 H     1 <1>   0.2700 
 44 H       -3.6000   -11.1540    -0.1090 H     1 <1>   0.0800 
 45 H       -1.8670   -11.1900     0.0970 H     1 <1>   0.0800 
 46 H       -2.5580   -10.9070    -1.4880 H     1 <1>   0.0800 
@<TRIPOS>BOND
  1   1   2  1   
  2   1   3  1   
  3   2   4  1   
  4   2  21  1   
  5   2  22  1   
  6   3   5  1   
  7   3  23  1   
  8   3  24  1   
  9   4   6  1   
 10   4  25  1   
 11   4  26  1   
 12   5   7  1   
 13   5  27  1   
 14   5  28  1   
 15   6   8  1   
 16   7   9  1   
 17   7  10  1   
 18   7  29  1   
 19   8  30  1   
 20   8  31  1   
 21   8  32  1   
 22   9  11  1   
 23   9  33  1   
 24   9  34  1   
 25  10  12  1   
 26  10  35  1   
 27  10  36  1   
 28  11  12  1   
 29  11  13  1   
 30  11  37  1   
 31  12  14  1   
 32  12  38  1   
 33  13  39  1   
 34  14  15  1   
 35  14  40  1   
 36  14  41  1   
 37  15  16  2   
 38  15  17  1   
 39  16  18  1   
 40  17  19  2   
 41  17  42  1   
 42  18  19  1   
 43  18  43  1   
 44  19  20  1   
 45  20  44  1   
 46  20  45  1   
 47  20  46  1   
@<TRIPOS>SUBSTRUCTURE
  1 ****  10 GROUP 4 **** **** 0

# MOE 2024.06 (io_trps.svl 2023.06)
