@<TRIPOS>MOLECULE
NONAME
52 54 1 0 0 
SMALL
USER_CHARGES


@<TRIPOS>ATOM
  1 S        2.3490     2.1450     0.1160 S.o2  1 <1>   1.4470 
  2 O        2.2990     3.0470    -1.0090 O.2   1 <1>  -0.6500 
  3 O        1.4490     2.2620     1.2360 O.2   1 <1>  -0.6500 
  4 N        3.8820     2.2990     0.7490 N.am  1 <1>  -0.9780 
  5 C        2.3420     0.4300    -0.4720 C.ar  1 <1>  -0.0090 
  6 C        2.2060    -0.6260     0.4170 C.ar  1 <1>  -0.1500 
  7 C        2.4930     0.1240    -1.8190 C.ar  1 <1>  -0.1500 
  8 C        2.2200    -1.9620     0.0190 C.ar  1 <1>   0.0860 
  9 C        2.5150    -1.1890    -2.2480 C.ar  1 <1>  -0.1500 
 10 C        2.3940    -2.2340    -1.3480 C.ar  1 <1>   0.0830 
 11 C        2.0360    -2.9720     1.0360 C.2   1 <1>   0.5440 
 12 O        2.4440    -3.4740    -1.8860 O.3   1 <1>  -0.3630 
 13 O        2.9780    -3.2370     1.7580 O.2   1 <1>  -0.5700 
 14 N        0.8300    -3.6190     1.2300 N.am  1 <1>  -0.6600 
 15 C        3.0960    -4.5490    -1.2400 C.3   1 <1>   0.0400 
 16 C       -0.3460    -3.3730     0.3390 C.3   1 <1>   0.2200 
 17 C        0.6640    -4.5700     2.3740 C.3   1 <1>   0.0600 
 18 C       -1.1010    -4.6330    -0.0800 C.3   1 <1>  -0.1600 
 19 C       -1.4000    -2.4970     1.0020 C.3   1 <1>  -0.1600 
 20 C       -2.4720    -4.1140    -0.5320 C.3   1 <1>  -0.0800 
 21 C       -2.6840    -2.7710     0.2080 C.3   1 <1>  -0.0800 
 22 C       -3.5960    -5.1520    -0.3420 C.3   1 <1>   0.1400 
 23 C       -3.9520    -2.7410     1.0800 C.3   1 <1>  -0.0990 
 24 N       -4.9230    -4.4870    -0.3670 N.am  1 <1>  -0.6600 
 25 C       -5.1270    -3.3240     0.3230 C.2   1 <1>   0.5690 
 26 C       -6.0050    -5.1740    -1.1220 C.3   1 <1>   0.0600 
 27 O       -6.1900    -2.7520     0.3610 O.2   1 <1>  -0.5700 
 28 H        4.5420     2.1160     0.0010 H     1 <1>   0.4200 
 29 H        3.9840     1.6090     1.4860 H     1 <1>   0.4200 
 30 H        2.0750    -0.4150     1.4660 H     1 <1>   0.1500 
 31 H        2.5920     0.9200    -2.5410 H     1 <1>   0.1500 
 32 H        2.6310    -1.4140    -3.2950 H     1 <1>   0.1500 
 33 H        3.3990    -5.2570    -1.9900 H     1 <1>   0.0800 
 34 H        2.4110    -5.0190    -0.5580 H     1 <1>   0.0800 
 35 H        3.9620    -4.1800    -0.7160 H     1 <1>   0.0800 
 36 H       -0.0340    -2.8830    -0.5660 H     1 <1>   0.0800 
 37 H       -0.3230    -4.4930     2.7940 H     1 <1>   0.0800 
 38 H        1.3740    -4.3550     3.1540 H     1 <1>   0.0800 
 39 H        0.8260    -5.5770     2.0320 H     1 <1>   0.0800 
 40 H       -0.5900    -5.1470    -0.8740 H     1 <1>   0.0800 
 41 H       -1.2320    -5.2960     0.7540 H     1 <1>   0.0800 
 42 H       -1.5310    -2.7870     2.0280 H     1 <1>   0.0800 
 43 H       -1.1270    -1.4570     0.9600 H     1 <1>   0.0800 
 44 H       -2.4110    -3.8940    -1.5850 H     1 <1>   0.0800 
 45 H       -2.7890    -2.0060    -0.5450 H     1 <1>   0.0800 
 46 H       -3.4890    -5.6470     0.6080 H     1 <1>   0.0800 
 47 H       -3.5360    -5.8950    -1.1180 H     1 <1>   0.0800 
 48 H       -4.1760    -1.7310     1.3710 H     1 <1>   0.0800 
 49 H       -3.8150    -3.3260     1.9700 H     1 <1>   0.0800 
 50 H       -6.1620    -6.1580    -0.7180 H     1 <1>   0.0800 
 51 H       -5.7310    -5.2510    -2.1590 H     1 <1>   0.0800 
 52 H       -6.9250    -4.6200    -1.0490 H     1 <1>   0.0800 
@<TRIPOS>BOND
  1   1   2  2   
  2   1   3  2   
  3   1   4  am  
  4   1   5  1   
  5   4  28  1   
  6   4  29  1   
  7   5   6  ar  
  8   5   7  ar  
  9   6   8  ar  
 10   6  30  1   
 11   7   9  ar  
 12   7  31  1   
 13   8  10  ar  
 14   8  11  1   
 15   9  10  ar  
 16   9  32  1   
 17  10  12  1   
 18  11  13  2   
 19  11  14  am  
 20  12  15  1   
 21  14  16  1   
 22  14  17  1   
 23  15  33  1   
 24  15  34  1   
 25  15  35  1   
 26  16  18  1   
 27  16  19  1   
 28  16  36  1   
 29  17  37  1   
 30  17  38  1   
 31  17  39  1   
 32  18  20  1   
 33  18  40  1   
 34  18  41  1   
 35  19  21  1   
 36  19  42  1   
 37  19  43  1   
 38  20  21  1   
 39  20  22  1   
 40  20  44  1   
 41  21  23  1   
 42  21  45  1   
 43  22  24  1   
 44  22  46  1   
 45  22  47  1   
 46  23  25  1   
 47  23  48  1   
 48  23  49  1   
 49  24  25  am  
 50  24  26  1   
 51  25  27  2   
 52  26  50  1   
 53  26  51  1   
 54  26  52  1   
@<TRIPOS>SUBSTRUCTURE
  1 ****  16 GROUP 4 **** **** 0

# MOE 2024.06 (io_trps.svl 2023.06)
