@<TRIPOS>MOLECULE
NONAME
46 49 1 0 0 
SMALL
USER_CHARGES


@<TRIPOS>ATOM
  1 O        4.8290    -1.3470    -0.4300 O.2   1 <1>  -0.5700 
  2 C        3.6230    -1.4670    -0.5490 C.2   1 <1>   0.5440 
  3 N        3.0040    -0.5850    -1.4040 N.am  1 <1>  -0.6600 
  4 C        2.8780    -2.4440     0.2300 C.ar  1 <1>   0.0860 
  5 C        3.6370    -0.2070    -2.7140 C.3   1 <1>   0.1400 
  6 C        1.9740     0.3580    -0.8980 C.3   1 <1>   0.1400 
  7 C        1.6400    -2.9100    -0.1650 C.ar  1 <1>  -0.1500 
  8 C        3.4060    -2.9610     1.4300 C.ar  1 <1>  -0.1500 
  9 C        4.8030     0.7980    -2.5690 C.3   1 <1>   0.3430 
 10 C        2.6360     1.4980    -0.1090 C.3   1 <1>  -0.1600 
 11 C        0.9050    -3.8390     0.5810 C.ar  1 <1>   0.3100 
 12 C        2.7160    -3.8770     2.1810 C.ar  1 <1>  -0.1500 
 13 N        4.8590     1.3840    -1.1980 N.4   1 <1>  -0.9590 
 14 C        3.7150     2.2770    -0.8680 C.3   1 <1>   0.3430 
 15 N       -0.3150    -4.2270     0.1250 N.ar  1 <1>  -0.6200 
 16 C        1.4530    -4.3410     1.7870 C.ar  1 <1>   0.3100 
 17 C        6.1860     1.9260    -0.8300 C.3   1 <1>   0.5240 
 18 C       -0.9080    -5.0910     0.8890 C.ar  1 <1>   0.1600 
 19 N        0.7970    -5.2450     2.5600 N.ar  1 <1>  -0.6200 
 20 C        6.2210     2.0350     0.6770 C.2   1 <1>  -0.1810 
 21 C       -0.3600    -5.5930     2.0880 C.ar  1 <1>   0.1600 
 22 C        6.3040     1.0320     1.5790 C.2   1 <1>  -0.0100 
 23 C        6.1580     3.2160     1.4310 C.2   1 <1>  -0.1500 
 24 O        6.2860     1.5110     2.8050 O.3   1 <1>  -0.2800 
 25 C        6.2020     2.8230     2.7220 C.2   1 <1>  -0.0100 
 26 H        2.8890     0.2050    -3.3680 H     1 <1>   0.0800 
 27 H        4.0110    -1.0980    -3.1900 H     1 <1>   0.0800 
 28 H        1.2850    -0.1650    -0.2550 H     1 <1>   0.0800 
 29 H        1.4060     0.7550    -1.7240 H     1 <1>   0.0800 
 30 H        1.1950    -2.5680    -1.0820 H     1 <1>   0.1500 
 31 H        4.3760    -2.6240     1.7560 H     1 <1>   0.1500 
 32 H        4.7170     1.5730    -3.3120 H     1 <1>   0.0800 
 33 H        5.7180     0.2610    -2.7590 H     1 <1>   0.0800 
 34 H        3.0510     1.1120     0.8060 H     1 <1>   0.0800 
 35 H        1.8650     2.1910     0.1760 H     1 <1>   0.0800 
 36 H        3.1250    -4.2680     3.0960 H     1 <1>   0.1500 
 37 H        4.7460     0.5420    -0.5950 H     1 <1>   0.4500 
 38 H        4.0540     3.0850    -0.2400 H     1 <1>   0.0800 
 39 H        3.3030     2.7030    -1.7680 H     1 <1>   0.0800 
 40 H        6.3480     2.8890    -1.2850 H     1 <1>   0.0800 
 41 H        6.9620     1.2500    -1.1510 H     1 <1>   0.0800 
 42 H       -1.8790    -5.4520     0.5970 H     1 <1>   0.1500 
 43 H       -0.9430    -6.3080     2.6420 H     1 <1>   0.1500 
 44 H        6.3730    -0.0360     1.4470 H     1 <1>   0.1500 
 45 H        6.0950     4.2220     1.0520 H     1 <1>   0.1500 
 46 H        6.1820     3.3980     3.6320 H     1 <1>   0.1500 
@<TRIPOS>BOND
  1   1   2  2   
  2   2   3  am  
  3   2   4  1   
  4   3   5  1   
  5   3   6  1   
  6   4   7  ar  
  7   4   8  ar  
  8   5   9  1   
  9   5  26  1   
 10   5  27  1   
 11   6  10  1   
 12   6  28  1   
 13   6  29  1   
 14   7  11  ar  
 15   7  30  1   
 16   8  12  ar  
 17   8  31  1   
 18   9  13  1   
 19   9  32  1   
 20   9  33  1   
 21  10  14  1   
 22  10  34  1   
 23  10  35  1   
 24  11  15  ar  
 25  11  16  ar  
 26  12  16  ar  
 27  12  36  1   
 28  13  14  1   
 29  13  17  1   
 30  13  37  1   
 31  14  38  1   
 32  14  39  1   
 33  15  18  ar  
 34  16  19  ar  
 35  17  20  1   
 36  17  40  1   
 37  17  41  1   
 38  18  21  ar  
 39  18  42  1   
 40  19  21  ar  
 41  20  22  2   
 42  20  23  1   
 43  21  43  1   
 44  22  24  1   
 45  22  44  1   
 46  23  25  2   
 47  23  45  1   
 48  24  25  1   
 49  25  46  1   
@<TRIPOS>SUBSTRUCTURE
  1 ****   2 GROUP 4 **** **** 0

# MOE 2024.06 (io_trps.svl 2023.06)
