@<TRIPOS>MOLECULE
NONAME
40 41 1 0 0 
SMALL
USER_CHARGES


@<TRIPOS>ATOM
  1 S       -0.4580    -0.6910    -2.1000 S.3   1 <1>   0.1810 
  2 N        0.1340     0.8900    -2.1850 N.2   1 <1>  -0.2210 
  3 C        0.8820    -1.2560    -1.1650 C.2   1 <1>  -0.0450 
  4 N        1.2320     0.9840    -1.5780 N.2   1 <1>  -0.2270 
  5 C        1.6790    -0.1830    -1.0010 C.2   1 <1>   0.0460 
  6 C        0.9210    -2.6410    -0.7940 C.2   1 <1>   0.7150 
  7 C        3.0120    -0.1120    -0.2580 C.3   1 <1>   0.1010 
  8 O        1.8670    -3.3180    -1.1480 O.2   1 <1>  -0.5700 
  9 N       -0.0670    -3.2210    -0.0270 N.am  1 <1>  -0.6600 
 10 C        4.1520    -0.6050    -1.1560 C.3   1 <1>  -0.2400 
 11 C        2.9960    -0.8830     1.0690 C.3   1 <1>  -0.2400 
 12 C       -0.1110    -4.6980     0.1570 C.3   1 <1>   0.3200 
 13 C       -0.9650    -2.4230     0.8690 C.3   1 <1>   0.1400 
 14 C       -1.2030    -5.3050    -0.7060 C.2   1 <1>  -0.3320 
 15 C       -2.4310    -2.4740     0.4210 C.3   1 <1>   0.1200 
 16 N       -1.7470    -6.5210    -0.4940 N.pl3 1 <1>   0.0480 
 17 C       -1.8140    -4.8040    -1.8040 C.2   1 <1>   0.0770 
 18 O       -3.1850    -1.6640     1.2570 O.3   1 <1>  -0.6800 
 19 C       -2.6670    -6.6620    -1.4740 C.2   1 <1>   0.0360 
 20 C       -1.4140    -7.5060     0.5520 C.3   1 <1>   0.0160 
 21 N       -2.7420    -5.6530    -2.2780 N.2   1 <1>  -0.5650 
 22 H        3.1990     0.9230    -0.0210 H     1 <1>   0.0800 
 23 H        4.0100    -1.6400    -1.4110 H     1 <1>   0.0800 
 24 H        5.0970    -0.4970    -0.6560 H     1 <1>   0.0800 
 25 H        4.1770    -0.0300    -2.0640 H     1 <1>   0.0800 
 26 H        2.9470    -1.9440     0.9020 H     1 <1>   0.0800 
 27 H        2.1530    -0.5800     1.6630 H     1 <1>   0.0800 
 28 H        3.8940    -0.6750     1.6230 H     1 <1>   0.0800 
 29 H       -0.3010    -4.9160     1.1930 H     1 <1>   0.0800 
 30 H        0.8320    -5.1510    -0.1000 H     1 <1>   0.0800 
 31 H       -0.6480    -1.3950     0.8860 H     1 <1>   0.0800 
 32 H       -0.8880    -2.8060     1.8710 H     1 <1>   0.0800 
 33 H       -2.8310    -3.4720     0.4700 H     1 <1>   0.0800 
 34 H       -2.5350    -2.0940    -0.5800 H     1 <1>   0.0800 
 35 H       -1.6310    -3.8590    -2.2890 H     1 <1>   0.1500 
 36 H       -3.3830    -2.1110     2.1020 H     1 <1>   0.4000 
 37 H       -3.2740    -7.5460    -1.5650 H     1 <1>   0.1500 
 38 H       -0.3630    -7.7250     0.5130 H     1 <1>   0.0800 
 39 H       -1.9710    -8.4100     0.3850 H     1 <1>   0.0800 
 40 H       -1.6670    -7.1030     1.5150 H     1 <1>   0.0800 
@<TRIPOS>BOND
  1   1   2  1   
  2   1   3  1   
  3   2   4  2   
  4   3   5  2   
  5   3   6  1   
  6   4   5  1   
  7   5   7  1   
  8   6   8  2   
  9   6   9  am  
 10   7  10  1   
 11   7  11  1   
 12   7  22  1   
 13   9  12  1   
 14   9  13  1   
 15  10  23  1   
 16  10  24  1   
 17  10  25  1   
 18  11  26  1   
 19  11  27  1   
 20  11  28  1   
 21  12  14  1   
 22  12  29  1   
 23  12  30  1   
 24  13  15  1   
 25  13  31  1   
 26  13  32  1   
 27  14  16  1   
 28  14  17  2   
 29  15  18  1   
 30  15  33  1   
 31  15  34  1   
 32  16  19  1   
 33  16  20  1   
 34  17  21  1   
 35  17  35  1   
 36  18  36  1   
 37  19  21  2   
 38  19  37  1   
 39  20  38  1   
 40  20  39  1   
 41  20  40  1   
@<TRIPOS>SUBSTRUCTURE
  1 ****   9 GROUP 4 **** **** 0

# MOE 2024.06 (io_trps.svl 2023.06)
