@<TRIPOS>MOLECULE
NONAME
49 51 1 0 0 
SMALL
USER_CHARGES


@<TRIPOS>ATOM
  1 O       -0.4790     1.1040    -0.6050 O.2   1 <1>  -0.5700 
  2 C       -0.5050     2.3000    -0.4310 C.2   1 <1>   0.5690 
  3 N       -1.4690     2.9450     0.3040 N.am  1 <1>  -0.6600 
  4 C        0.5990     3.1300    -1.0800 C.3   1 <1>   0.1810 
  5 C       -1.4400     4.4390     0.4560 C.3   1 <1>   0.3640 
  6 C       -2.5480     2.2620     1.0710 C.3   1 <1>   0.2200 
  7 O        0.9230     4.2550    -0.3060 O.3   1 <1>  -0.5600 
  8 C       -2.6800     5.0370    -0.2140 C.ar  1 <1>  -0.1440 
  9 C       -0.1660     5.1420    -0.0940 C.3   1 <1>   0.2610 
 10 C       -1.9420     1.4110     2.1860 C.3   1 <1>  -0.2400 
 11 C       -3.4550     1.4410     0.1520 C.3   1 <1>  -0.2400 
 12 C       -3.0670     4.6490    -1.4900 C.ar  1 <1>  -0.1500 
 13 C       -3.4340     5.9930     0.4530 C.ar  1 <1>  -0.1500 
 14 C        0.2540     6.2700     0.8580 C.2   1 <1>   0.5690 
 15 C       -4.1870     5.2020    -2.0860 C.ar  1 <1>  -0.1500 
 16 C       -4.5540     6.5470    -0.1410 C.ar  1 <1>  -0.1500 
 17 O       -0.5480     7.1120     1.1870 O.2   1 <1>  -0.5700 
 18 N        1.5310     6.3100     1.3150 N.am  1 <1>  -0.7300 
 19 C       -4.9320     6.1520    -1.4110 C.ar  1 <1>  -0.1500 
 20 C        2.1150     7.3960     2.1320 C.3   1 <1>   0.3210 
 21 C        2.8910     8.3520     1.2450 C.2   1 <1>   0.1080 
 22 N        4.1730     8.4700     1.2390 N.2   1 <1>  -0.4100 
 23 C        2.3120     9.2210     0.3230 C.2   1 <1>  -0.1500 
 24 O        4.4470     9.3810     0.3490 O.3   1 <1>  -0.0190 
 25 C        3.3660     9.8500    -0.2160 C.2   1 <1>  -0.0400 
 26 C        3.4720    10.9200    -1.2810 C.3   1 <1>  -0.0600 
 27 H        0.2900     3.4540    -2.0570 H     1 <1>   0.0800 
 28 H        1.4860     2.5300    -1.1730 H     1 <1>   0.0800 
 29 H       -1.4940     4.6480     1.5110 H     1 <1>   0.0800 
 30 H       -3.1670     3.0120     1.5360 H     1 <1>   0.0800 
 31 H       -0.3940     5.5920    -1.0430 H     1 <1>   0.0800 
 32 H       -1.3710     0.5970     1.7780 H     1 <1>   0.0800 
 33 H       -2.7250     0.9990     2.7950 H     1 <1>   0.0800 
 34 H       -1.3060     2.0130     2.8090 H     1 <1>   0.0800 
 35 H       -2.9240     0.6150    -0.2840 H     1 <1>   0.0800 
 36 H       -3.8530     2.0620    -0.6290 H     1 <1>   0.0800 
 37 H       -4.2780     1.0460     0.7180 H     1 <1>   0.0800 
 38 H       -2.5040     3.9060    -2.0280 H     1 <1>   0.1500 
 39 H       -3.1500     6.3210     1.4390 H     1 <1>   0.1500 
 40 H       -4.4810     4.8920    -3.0740 H     1 <1>   0.1500 
 41 H       -5.1300     7.2890     0.3850 H     1 <1>   0.1500 
 42 H        2.1920     5.6230     0.9360 H     1 <1>   0.3700 
 43 H       -5.8030     6.5830    -1.8730 H     1 <1>   0.1500 
 44 H        1.3360     7.9370     2.6410 H     1 <1>   0.0800 
 45 H        2.7730     6.9730     2.8710 H     1 <1>   0.0800 
 46 H        1.2600     9.3240     0.1230 H     1 <1>   0.1500 
 47 H        2.4940    11.1870    -1.6380 H     1 <1>   0.0800 
 48 H        4.0590    10.5570    -2.1040 H     1 <1>   0.0800 
 49 H        3.9460    11.7940    -0.8720 H     1 <1>   0.0800 
@<TRIPOS>BOND
  1   1   2  2   
  2   2   3  am  
  3   2   4  1   
  4   3   5  1   
  5   3   6  1   
  6   4   7  1   
  7   4  27  1   
  8   4  28  1   
  9   5   8  1   
 10   5   9  1   
 11   5  29  1   
 12   6  10  1   
 13   6  11  1   
 14   6  30  1   
 15   7   9  1   
 16   8  12  ar  
 17   8  13  ar  
 18   9  14  1   
 19   9  31  1   
 20  10  32  1   
 21  10  33  1   
 22  10  34  1   
 23  11  35  1   
 24  11  36  1   
 25  11  37  1   
 26  12  15  ar  
 27  12  38  1   
 28  13  16  ar  
 29  13  39  1   
 30  14  17  2   
 31  14  18  am  
 32  15  19  ar  
 33  15  40  1   
 34  16  19  ar  
 35  16  41  1   
 36  18  20  1   
 37  18  42  1   
 38  19  43  1   
 39  20  21  1   
 40  20  44  1   
 41  20  45  1   
 42  21  22  2   
 43  21  23  1   
 44  22  24  1   
 45  23  25  2   
 46  23  46  1   
 47  24  25  1   
 48  25  26  1   
 49  26  47  1   
 50  26  48  1   
 51  26  49  1   
@<TRIPOS>SUBSTRUCTURE
  1 ****   9 GROUP 4 **** **** 0

# MOE 2024.06 (io_trps.svl 2023.06)
