@<TRIPOS>MOLECULE
NONAME
51 53 1 0 0 
SMALL
USER_CHARGES


@<TRIPOS>ATOM
  1 O       -0.6950    -0.2030    -0.3560 O.2   1 <1>  -0.5700 
  2 C       -1.5600     0.5680     0.0180 C.2   1 <1>   0.5440 
  3 N       -2.7610     0.0630     0.4720 N.am  1 <1>  -0.6600 
  4 C       -1.2940     1.9940    -0.0270 C.ar  1 <1>   0.0860 
  5 C       -3.1420    -1.3740     0.3070 C.3   1 <1>   0.1400 
  6 C       -3.7690     0.8480     1.2380 C.3   1 <1>   0.1400 
  7 C       -0.1850     2.5360     0.6160 C.ar  1 <1>  -0.1500 
  8 C       -2.1260     2.8710    -0.7190 C.ar  1 <1>  -0.1500 
  9 C       -4.4950    -1.4600    -0.4150 C.3   1 <1>   0.2000 
 10 C       -5.1300     0.7690     0.5310 C.3   1 <1>  -0.1600 
 11 C        0.0880     3.8950     0.5930 C.ar  1 <1>  -0.1440 
 12 C       -1.8680     4.2290    -0.7510 C.ar  1 <1>  -0.1500 
 13 O       -4.8450    -2.7900    -0.5820 O.3   1 <1>  -0.6800 
 14 C       -5.6180    -0.6990     0.3410 C.3   1 <1>  -0.1060 
 15 C       -0.7640     4.7520    -0.0960 C.ar  1 <1>  -0.1440 
 16 C        1.3190     4.4140     1.3220 C.3   1 <1>  -0.0970 
 17 C       -5.8750    -1.3940     1.6940 C.2   1 <1>   0.9060 
 18 C       -6.9150    -0.7380    -0.5130 C.3   1 <1>  -0.0160 
 19 C       -0.5100     6.2520    -0.1520 C.3   1 <1>  -0.0960 
 20 O       -6.0020    -2.6290     1.7120 O.co2 1 <1>  -0.9000 
 21 O       -5.9500    -0.7380     2.7390 O.co2 1 <1>  -0.9000 
 22 C       -7.9620     0.3190    -0.1630 C.ar  1 <1>  -0.1440 
 23 C       -8.2490     1.3420    -1.0550 C.ar  1 <1>  -0.1500 
 24 C       -8.6410     0.2660     1.0440 C.ar  1 <1>  -0.1500 
 25 C       -9.2000     2.3000    -0.7440 C.ar  1 <1>  -0.1500 
 26 C       -9.5900     1.2230     1.3590 C.ar  1 <1>  -0.1500 
 27 C       -9.8720     2.2410     0.4650 C.ar  1 <1>  -0.1500 
 28 H       -2.4010    -1.8970    -0.2720 H     1 <1>   0.0800 
 29 H       -3.2110    -1.8340     1.2780 H     1 <1>   0.0800 
 30 H       -3.8470     0.4380     2.2310 H     1 <1>   0.0800 
 31 H       -3.4710     1.8750     1.3410 H     1 <1>   0.0800 
 32 H        0.4690     1.8610     1.1400 H     1 <1>   0.1500 
 33 H       -2.9820     2.4750    -1.2350 H     1 <1>   0.1500 
 34 H       -4.3680    -1.0480    -1.4000 H     1 <1>   0.0800 
 35 H       -5.8440     1.3110     1.1270 H     1 <1>   0.0800 
 36 H       -5.0610     1.2610    -0.4210 H     1 <1>   0.0800 
 37 H       -2.5340     4.8770    -1.2920 H     1 <1>   0.1500 
 38 H       -5.2990    -3.0560     0.2760 H     1 <1>   0.4000 
 39 H        1.8570     3.6100     1.7910 H     1 <1>   0.0800 
 40 H        1.0280     5.1140     2.0840 H     1 <1>   0.0800 
 41 H        1.9790     4.9020     0.6290 H     1 <1>   0.0800 
 42 H       -6.6530    -0.6220    -1.5490 H     1 <1>   0.0800 
 43 H       -7.3680    -1.7110    -0.4220 H     1 <1>   0.0800 
 44 H       -1.2720     6.7520    -0.7220 H     1 <1>   0.0800 
 45 H        0.4400     6.4470    -0.6160 H     1 <1>   0.0800 
 46 H       -0.5070     6.6630     0.8410 H     1 <1>   0.0800 
 47 H       -7.7320     1.3980    -1.9950 H     1 <1>   0.1500 
 48 H       -8.4260    -0.5190     1.7510 H     1 <1>   0.1500 
 49 H       -9.4170     3.0890    -1.4410 H     1 <1>   0.1500 
 50 H      -10.1020     1.1700     2.3030 H     1 <1>   0.1500 
 51 H      -10.6090     2.9840     0.7110 H     1 <1>   0.1500 
@<TRIPOS>BOND
  1   1   2  2   
  2   2   3  am  
  3   2   4  1   
  4   3   5  1   
  5   3   6  1   
  6   4   7  ar  
  7   4   8  ar  
  8   5   9  1   
  9   5  28  1   
 10   5  29  1   
 11   6  10  1   
 12   6  30  1   
 13   6  31  1   
 14   7  11  ar  
 15   7  32  1   
 16   8  12  ar  
 17   8  33  1   
 18   9  13  1   
 19   9  14  1   
 20   9  34  1   
 21  10  14  1   
 22  10  35  1   
 23  10  36  1   
 24  11  15  ar  
 25  11  16  1   
 26  12  15  ar  
 27  12  37  1   
 28  13  38  1   
 29  14  17  1   
 30  14  18  1   
 31  15  19  1   
 32  16  39  1   
 33  16  40  1   
 34  16  41  1   
 35  17  20  ar  
 36  17  21  ar  
 37  18  22  1   
 38  18  42  1   
 39  18  43  1   
 40  19  44  1   
 41  19  45  1   
 42  19  46  1   
 43  22  23  ar  
 44  22  24  ar  
 45  23  25  ar  
 46  23  47  1   
 47  24  26  ar  
 48  24  48  1   
 49  25  27  ar  
 50  25  49  1   
 51  26  27  ar  
 52  26  50  1   
 53  27  51  1   
@<TRIPOS>SUBSTRUCTURE
  1 ****  10 GROUP 4 **** **** 0

# MOE 2024.06 (io_trps.svl 2023.06)
