@<TRIPOS>MOLECULE
NONAME
54 56 1 0 0 
SMALL
USER_CHARGES


@<TRIPOS>ATOM
  1 O       -0.5830     0.7370    -1.0570 O.2   1 <1>  -0.5700 
  2 C       -0.3900     1.8210    -0.5690 C.2   1 <1>   0.5690 
  3 N       -1.4040     2.7010    -0.4240 N.am  1 <1>  -0.7300 
  4 C        1.0230     2.2300    -0.1450 C.3   1 <1>   0.1810 
  5 C       -1.2430     4.0510     0.1660 C.3   1 <1>   0.3640 
  6 O        1.0490     3.3490     0.7170 O.3   1 <1>  -0.5600 
  7 C       -1.9860     5.0600    -0.7080 C.ar  1 <1>  -0.1440 
  8 C        0.2510     4.4470     0.2980 C.3   1 <1>   0.2610 
  9 C       -1.8950     5.0240    -2.0940 C.ar  1 <1>  -0.1500 
 10 C       -2.7610     6.0450    -0.1120 C.ar  1 <1>  -0.1500 
 11 C        0.4360     5.6510     1.2400 C.2   1 <1>   0.5690 
 12 C       -2.5660     5.9550    -2.8680 C.ar  1 <1>  -0.1500 
 13 C       -3.4320     6.9770    -0.8840 C.ar  1 <1>  -0.1500 
 14 O       -0.4110     5.8780     2.0770 O.2   1 <1>  -0.5700 
 15 N        1.5380     6.4650     1.1250 N.am  1 <1>  -0.6600 
 16 C       -3.3340     6.9330    -2.2630 C.ar  1 <1>  -0.1500 
 17 C        2.7250     6.1350     0.2740 C.3   1 <1>   0.1400 
 18 C        1.6350     7.7250     1.9300 C.3   1 <1>   0.1400 
 19 C        4.0020     6.8490     0.7450 C.3   1 <1>   0.1400 
 20 C        2.4530     8.8060     1.2070 C.3   1 <1>   0.1400 
 21 N        3.8180     8.3340     0.8030 N.am  1 <1>  -0.6600 
 22 C        4.7790     9.2670     0.4970 C.2   1 <1>   0.5690 
 23 O        4.5290    10.4490     0.5210 O.2   1 <1>  -0.5700 
 24 C        6.2050     8.8770     0.1290 C.3   1 <1>  -0.0990 
 25 C        6.4900     8.9770    -1.3830 C.3   1 <1>  -0.0800 
 26 C        5.6400     8.0030    -2.2100 C.3   1 <1>  -0.2400 
 27 C        7.9770     8.7220    -1.6590 C.3   1 <1>  -0.2400 
 28 H       -2.3450     2.4280    -0.7100 H     1 <1>   0.3700 
 29 H        1.6030     2.4630    -1.0190 H     1 <1>   0.0800 
 30 H        1.4880     1.4100     0.3710 H     1 <1>   0.0800 
 31 H       -1.6910     4.0320     1.1460 H     1 <1>   0.0800 
 32 H        0.6000     4.7400    -0.6750 H     1 <1>   0.0800 
 33 H       -1.3050     4.2690    -2.5850 H     1 <1>   0.1500 
 34 H       -2.8430     6.0980     0.9620 H     1 <1>   0.1500 
 35 H       -2.4910     5.9190    -3.9410 H     1 <1>   0.1500 
 36 H       -4.0280     7.7370    -0.4100 H     1 <1>   0.1500 
 37 H       -3.8560     7.6580    -2.8630 H     1 <1>   0.1500 
 38 H        2.9020     5.0740     0.2940 H     1 <1>   0.0800 
 39 H        2.5200     6.4250    -0.7430 H     1 <1>   0.0800 
 40 H        0.6480     8.1090     2.1260 H     1 <1>   0.0800 
 41 H        2.0940     7.5030     2.8770 H     1 <1>   0.0800 
 42 H        4.7960     6.5930     0.0710 H     1 <1>   0.0800 
 43 H        4.2660     6.4890     1.7240 H     1 <1>   0.0800 
 44 H        2.5490     9.6610     1.8550 H     1 <1>   0.0800 
 45 H        1.9200     9.1230     0.3280 H     1 <1>   0.0800 
 46 H        6.8520     9.5660     0.6410 H     1 <1>   0.0800 
 47 H        6.4490     7.9010     0.4970 H     1 <1>   0.0800 
 48 H        6.2560     9.9810    -1.7000 H     1 <1>   0.0800 
 49 H        5.8600     6.9840    -1.9480 H     1 <1>   0.0800 
 50 H        5.8460     8.1350    -3.2580 H     1 <1>   0.0800 
 51 H        4.5920     8.1900    -2.0560 H     1 <1>   0.0800 
 52 H        8.2580     7.7290    -1.3560 H     1 <1>   0.0800 
 53 H        8.5830     9.4300    -1.1230 H     1 <1>   0.0800 
 54 H        8.1850     8.8320    -2.7090 H     1 <1>   0.0800 
@<TRIPOS>BOND
  1   1   2  2   
  2   2   3  am  
  3   2   4  1   
  4   3   5  1   
  5   3  28  1   
  6   4   6  1   
  7   4  29  1   
  8   4  30  1   
  9   5   7  1   
 10   5   8  1   
 11   5  31  1   
 12   6   8  1   
 13   7   9  ar  
 14   7  10  ar  
 15   8  11  1   
 16   8  32  1   
 17   9  12  ar  
 18   9  33  1   
 19  10  13  ar  
 20  10  34  1   
 21  11  14  2   
 22  11  15  am  
 23  12  16  ar  
 24  12  35  1   
 25  13  16  ar  
 26  13  36  1   
 27  15  17  1   
 28  15  18  1   
 29  16  37  1   
 30  17  19  1   
 31  17  38  1   
 32  17  39  1   
 33  18  20  1   
 34  18  40  1   
 35  18  41  1   
 36  19  21  1   
 37  19  42  1   
 38  19  43  1   
 39  20  21  1   
 40  20  44  1   
 41  20  45  1   
 42  21  22  am  
 43  22  23  2   
 44  22  24  1   
 45  24  25  1   
 46  24  46  1   
 47  24  47  1   
 48  25  26  1   
 49  25  27  1   
 50  25  48  1   
 51  26  49  1   
 52  26  50  1   
 53  26  51  1   
 54  27  52  1   
 55  27  53  1   
 56  27  54  1   
@<TRIPOS>SUBSTRUCTURE
  1 ****  15 GROUP 4 **** **** 0

# MOE 2024.06 (io_trps.svl 2023.06)
