@<TRIPOS>MOLECULE
NONAME
40 41 1 0 0 
SMALL
USER_CHARGES


@<TRIPOS>ATOM
  1 O        0.9390     1.4280    -0.6690 O.co2 1 <1>  -0.9000 
  2 C        2.1260     1.5480    -0.3120 C.2   1 <1>   0.9790 
  3 O        2.5780     2.6760    -0.0580 O.co2 1 <1>  -0.9000 
  4 C        2.9530     0.3580    -0.1750 C.ar  1 <1>  -0.1790 
  5 C        2.4960    -0.8710    -0.6440 C.ar  1 <1>  -0.1500 
  6 C        4.2050     0.3790     0.4390 C.ar  1 <1>  -0.1500 
  7 C        3.2200    -2.0350    -0.4680 C.ar  1 <1>  -0.1440 
  8 C        4.9510    -0.7730     0.6040 C.ar  1 <1>  -0.1500 
  9 C        4.4570    -1.9970     0.1590 C.ar  1 <1>   0.0830 
 10 C        2.6170    -3.3390    -0.9330 C.3   1 <1>   0.4870 
 11 O        5.1130    -3.1720     0.3150 O.3   1 <1>  -0.3620 
 12 N        1.4110    -3.5440    -0.0990 N.4   1 <1>  -0.9590 
 13 C        6.4110    -3.2250     0.8640 C.3   1 <1>   0.0400 
 14 C        1.8320    -4.1490     1.2240 C.3   1 <1>   0.3430 
 15 C        0.3910    -4.3490    -0.8460 C.3   1 <1>   0.3430 
 16 C        1.6810    -5.6840     1.2370 C.3   1 <1>   0.2000 
 17 C       -0.5600    -5.0110     0.1460 C.3   1 <1>  -0.1600 
 18 O        2.4980    -6.1900     0.2300 O.3   1 <1>  -0.6800 
 19 C        0.1980    -6.0600     0.9990 C.3   1 <1>  -0.1860 
 20 C        0.0740    -7.4360     0.3850 C.2   1 <1>   0.9060 
 21 O       -0.5140    -8.3150     1.0080 O.co2 1 <1>  -0.9000 
 22 O        0.5810    -7.6050    -0.7320 O.co2 1 <1>  -0.9000 
 23 H        1.5430    -0.8840    -1.1470 H     1 <1>   0.1500 
 24 H        4.5810     1.3270     0.7910 H     1 <1>   0.1500 
 25 H        5.9070    -0.6940     1.0840 H     1 <1>   0.1500 
 26 H        3.3080    -4.1580    -0.8140 H     1 <1>   0.0800 
 27 H        2.3490    -3.2540    -1.9720 H     1 <1>   0.0800 
 28 H        1.0470    -2.6010     0.0860 H     1 <1>   0.4500 
 29 H        6.7370    -4.2490     0.8560 H     1 <1>   0.0800 
 30 H        6.3790    -2.8590     1.8750 H     1 <1>   0.0800 
 31 H        7.0710    -2.6270     0.2600 H     1 <1>   0.0800 
 32 H        2.8530    -3.8870     1.4490 H     1 <1>   0.0800 
 33 H        1.2100    -3.7490     2.0060 H     1 <1>   0.0800 
 34 H       -0.1540    -3.7190    -1.5290 H     1 <1>   0.0800 
 35 H        0.8800    -5.1300    -1.4110 H     1 <1>   0.0800 
 36 H        2.0240    -6.1030     2.1680 H     1 <1>   0.0800 
 37 H       -1.0090    -4.2600     0.7720 H     1 <1>   0.0800 
 38 H       -1.3560    -5.4970    -0.3950 H     1 <1>   0.0800 
 39 H        1.9710    -6.8990    -0.2610 H     1 <1>   0.4000 
 40 H       -0.2930    -6.1110     1.9540 H     1 <1>   0.0800 
@<TRIPOS>BOND
  1   1   2  ar  
  2   2   3  ar  
  3   2   4  1   
  4   4   5  ar  
  5   4   6  ar  
  6   5   7  ar  
  7   5  23  1   
  8   6   8  ar  
  9   6  24  1   
 10   7   9  ar  
 11   7  10  1   
 12   8   9  ar  
 13   8  25  1   
 14   9  11  1   
 15  10  12  1   
 16  10  26  1   
 17  10  27  1   
 18  11  13  1   
 19  12  14  1   
 20  12  15  1   
 21  12  28  1   
 22  13  29  1   
 23  13  30  1   
 24  13  31  1   
 25  14  16  1   
 26  14  32  1   
 27  14  33  1   
 28  15  17  1   
 29  15  34  1   
 30  15  35  1   
 31  16  18  1   
 32  16  19  1   
 33  16  36  1   
 34  17  19  1   
 35  17  37  1   
 36  17  38  1   
 37  18  39  1   
 38  19  20  1   
 39  19  40  1   
 40  20  21  ar  
 41  20  22  ar  
@<TRIPOS>SUBSTRUCTURE
  1 ****  12 GROUP 4 **** **** 0

# MOE 2024.06 (io_trps.svl 2023.06)
