@<TRIPOS>MOLECULE
NONAME
35 37 1 0 0 
SMALL
USER_CHARGES


@<TRIPOS>ATOM
  1 CL      -0.5650    -0.2700    -1.4360 Cl    1 <1>  -0.1240 
  2 C       -1.3500    -1.5340    -0.5270 C.2   1 <1>   0.2640 
  3 O       -1.1790    -2.7770    -0.9020 O.3   1 <1>  -0.2800 
  4 C       -2.1470    -1.4360     0.5540 C.2   1 <1>  -0.1500 
  5 C       -1.8690    -3.5550    -0.0670 C.2   1 <1>   0.0550 
  6 C       -2.4850    -2.7570     0.8570 C.2   1 <1>  -0.1500 
  7 C       -1.8720    -4.9940    -0.2320 C.2   1 <1>   0.7150 
  8 O       -0.8660    -5.5780    -0.5920 O.2   1 <1>  -0.5700 
  9 N       -3.0030    -5.7450     0.0190 N.am  1 <1>  -0.6600 
 10 C       -4.3870    -5.2090     0.0290 C.3   1 <1>   0.1400 
 11 C       -3.0190    -7.2200    -0.1610 C.3   1 <1>   0.1400 
 12 C       -5.2770    -6.4060    -0.3040 C.3   1 <1>   0.2000 
 13 C       -4.4690    -7.6400     0.0880 C.3   1 <1>  -0.0800 
 14 O       -6.4660    -6.3720     0.4080 O.3   1 <1>  -0.6800 
 15 C       -4.9030    -8.9010    -0.6800 C.3   1 <1>  -0.0170 
 16 C       -4.1270   -10.1300    -0.2330 C.ar  1 <1>   0.1670 
 17 N       -2.9220   -10.2900    -0.7550 N.ar  1 <1>  -0.6200 
 18 C       -4.6910   -11.0150     0.6850 C.ar  1 <1>   0.1600 
 19 C       -2.3240   -11.3790    -0.3030 C.ar  1 <1>   0.1600 
 20 N       -4.0940   -12.1040     1.1410 N.ar  1 <1>  -0.6200 
 21 C       -2.8900   -12.2560     0.6140 C.ar  1 <1>   0.1600 
 22 H       -2.4580    -0.5510     1.0780 H     1 <1>   0.1500 
 23 H       -3.1080    -3.0620     1.6790 H     1 <1>   0.1500 
 24 H       -4.6120    -4.8300     1.0100 H     1 <1>   0.0800 
 25 H       -4.5010    -4.4340    -0.7090 H     1 <1>   0.0800 
 26 H       -2.7170    -7.4560    -1.1690 H     1 <1>   0.0800 
 27 H       -2.3420    -7.6980     0.5270 H     1 <1>   0.0800 
 28 H       -5.5090    -6.4060    -1.3560 H     1 <1>   0.0800 
 29 H       -4.5700    -7.8140     1.1450 H     1 <1>   0.0800 
 30 H       -6.2950    -6.4080     1.3690 H     1 <1>   0.4000 
 31 H       -4.7530    -8.7590    -1.7360 H     1 <1>   0.0800 
 32 H       -5.9540    -9.0650    -0.5240 H     1 <1>   0.0800 
 33 H       -5.6780   -10.8130     1.0610 H     1 <1>   0.1500 
 34 H       -1.3370   -11.5890    -0.6760 H     1 <1>   0.1500 
 35 H       -2.3250   -13.1170     0.9230 H     1 <1>   0.1500 
@<TRIPOS>BOND
  1   1   2  1   
  2   2   3  1   
  3   2   4  2   
  4   3   5  1   
  5   4   6  1   
  6   4  22  1   
  7   5   6  2   
  8   5   7  1   
  9   6  23  1   
 10   7   8  2   
 11   7   9  am  
 12   9  10  1   
 13   9  11  1   
 14  10  12  1   
 15  10  24  1   
 16  10  25  1   
 17  11  13  1   
 18  11  26  1   
 19  11  27  1   
 20  12  13  1   
 21  12  14  1   
 22  12  28  1   
 23  13  15  1   
 24  13  29  1   
 25  14  30  1   
 26  15  16  1   
 27  15  31  1   
 28  15  32  1   
 29  16  17  ar  
 30  16  18  ar  
 31  17  19  ar  
 32  18  20  ar  
 33  18  33  1   
 34  19  21  ar  
 35  19  34  1   
 36  20  21  ar  
 37  21  35  1   
@<TRIPOS>SUBSTRUCTURE
  1 ****  11 GROUP 4 **** **** 0

# MOE 2024.06 (io_trps.svl 2023.06)
