@<TRIPOS>MOLECULE
NONAME
50 52 1 0 0 
SMALL
USER_CHARGES


@<TRIPOS>ATOM
  1 O       -2.3080     2.0150     3.1820 O.3   1 <1>  -0.5600 
  2 C       -0.9450     1.7350     3.0630 C.3   1 <1>   0.1200 
  3 C       -2.9000     2.1510     1.9220 C.3   1 <1>   0.1200 
  4 C       -0.5350     2.2370     1.6830 C.3   1 <1>   0.2890 
  5 C       -1.7930     1.9690     0.8760 C.3   1 <1>  -0.0800 
  6 N       -0.3060     3.7020     1.7410 N.pl3 1 <1>  -0.8690 
  7 C       -1.7880     0.5520     0.2710 C.3   1 <1>  -0.0170 
  8 C        0.5670     4.4280     1.0120 C.ar  1 <1>   0.4100 
  9 C       -3.0330     0.3020    -0.5660 C.ar  1 <1>  -0.1430 
 10 N        1.2910     3.7740     0.1280 N.ar  1 <1>  -0.6200 
 11 C        0.6770     5.8270     1.2080 C.ar  1 <1>  -0.1430 
 12 C       -3.2000     0.8810    -1.8080 C.ar  1 <1>  -0.1500 
 13 C       -4.0580    -0.5140    -0.1320 C.ar  1 <1>  -0.1500 
 14 C        2.1630     4.4600    -0.5920 C.ar  1 <1>   0.7710 
 15 C        1.6070     6.4990     0.4710 C.ar  1 <1>   0.2180 
 16 C       -0.2510     6.5000     2.2280 C.3   1 <1>  -0.0970 
 17 C       -4.3530     0.6270    -2.5320 C.ar  1 <1>   0.1600 
 18 C       -5.1700    -0.7020    -0.9350 C.ar  1 <1>   0.1600 
 19 N        2.3270     5.7800    -0.4230 N.ar  1 <1>  -0.1790 
 20 N        2.9200     3.8160    -1.5250 N.pl3 1 <1>  -0.8380 
 21 C        1.9190     7.9890     0.5530 C.3   1 <1>  -0.0970 
 22 N       -5.3430    -0.1500    -2.1250 N.ar  1 <1>  -0.6200 
 23 C        2.9020     2.3190    -1.6440 C.3   1 <1>   0.1290 
 24 C        3.7970     4.4470    -2.5640 C.3   1 <1>   0.1290 
 25 H       -0.4040     2.2180     3.8580 H     1 <1>   0.0800 
 26 H       -0.8220     0.6690     3.1350 H     1 <1>   0.0800 
 27 H       -3.6920     1.4280     1.8300 H     1 <1>   0.0800 
 28 H       -3.3170     3.1420     1.8660 H     1 <1>   0.0800 
 29 H        0.3350     1.7250     1.3080 H     1 <1>   0.0800 
 30 H       -1.8970     2.6840     0.0790 H     1 <1>   0.0800 
 31 H       -0.9280     4.1550     2.4170 H     1 <1>   0.4000 
 32 H       -1.7230    -0.1870     1.0500 H     1 <1>   0.0800 
 33 H       -0.9240     0.4360    -0.3600 H     1 <1>   0.0800 
 34 H       -2.4470     1.5260    -2.2200 H     1 <1>   0.1500 
 35 H       -4.0050    -1.0050     0.8230 H     1 <1>   0.1500 
 36 H       -0.2290     7.5710     2.1730 H     1 <1>   0.0800 
 37 H        0.0250     6.2050     3.2260 H     1 <1>   0.0800 
 38 H       -1.2700     6.2000     2.0530 H     1 <1>   0.0800 
 39 H       -4.4660     1.0890    -3.4990 H     1 <1>   0.1500 
 40 H       -5.9600    -1.3410    -0.5800 H     1 <1>   0.1500 
 41 H        3.0450     6.1980    -0.9980 H     1 <1>   0.4570 
 42 H        1.6730     8.3920     1.5180 H     1 <1>   0.0800 
 43 H        1.3610     8.5240    -0.1950 H     1 <1>   0.0800 
 44 H        2.9680     8.1690     0.3970 H     1 <1>   0.0800 
 45 H        3.8880     1.9520    -1.8720 H     1 <1>   0.0800 
 46 H        2.2290     2.0240    -2.4300 H     1 <1>   0.0800 
 47 H        2.5850     1.8540    -0.7260 H     1 <1>   0.0800 
 48 H        3.6810     3.9270    -3.5020 H     1 <1>   0.0800 
 49 H        4.8300     4.3760    -2.2640 H     1 <1>   0.0800 
 50 H        3.5430     5.4780    -2.7320 H     1 <1>   0.0800 
@<TRIPOS>BOND
  1   1   2  1   
  2   1   3  1   
  3   2   4  1   
  4   2  25  1   
  5   2  26  1   
  6   3   5  1   
  7   3  27  1   
  8   3  28  1   
  9   4   5  1   
 10   4   6  1   
 11   4  29  1   
 12   5   7  1   
 13   5  30  1   
 14   6   8  1   
 15   6  31  1   
 16   7   9  1   
 17   7  32  1   
 18   7  33  1   
 19   8  10  ar  
 20   8  11  ar  
 21   9  12  ar  
 22   9  13  ar  
 23  10  14  ar  
 24  11  15  ar  
 25  11  16  1   
 26  12  17  ar  
 27  12  34  1   
 28  13  18  ar  
 29  13  35  1   
 30  14  19  ar  
 31  14  20  1   
 32  15  19  ar  
 33  15  21  1   
 34  16  36  1   
 35  16  37  1   
 36  16  38  1   
 37  17  22  ar  
 38  17  39  1   
 39  18  22  ar  
 40  18  40  1   
 41  19  41  1   
 42  20  23  1   
 43  20  24  1   
 44  21  42  1   
 45  21  43  1   
 46  21  44  1   
 47  23  45  1   
 48  23  46  1   
 49  23  47  1   
 50  24  48  1   
 51  24  49  1   
 52  24  50  1   
@<TRIPOS>SUBSTRUCTURE
  1 ****   5 GROUP 4 **** **** 0

# MOE 2024.06 (io_trps.svl 2023.06)
