@<TRIPOS>MOLECULE
NONAME
54 57 1 0 0 
SMALL
USER_CHARGES


@<TRIPOS>ATOM
  1 O       -0.3970     0.2690     2.5020 O.2   1 <1>  -0.5700 
  2 C       -0.7220     0.3970     1.3430 C.2   1 <1>   0.5690 
  3 N       -2.0100     0.1550     0.9260 N.am  1 <1>  -0.6600 
  4 C        0.3740     0.8050     0.3810 C.3   1 <1>   0.1570 
  5 C       -3.0820    -0.2300     1.8880 C.3   1 <1>   0.1400 
  6 C       -2.5030     0.2950    -0.4760 C.3   1 <1>   0.1400 
  7 N        0.1800     2.1830    -0.0980 N.pl3 1 <1>   0.3140 
  8 C       -3.7030    -1.5620     1.4600 C.3   1 <1>  -0.1600 
  9 C       -3.1110    -1.0320    -0.9360 C.3   1 <1>  -0.1600 
 10 N        0.0390     2.4350    -1.4160 N.2   1 <1>  -0.7070 
 11 C        0.1710     3.3330     0.6200 C.2   1 <1>  -0.3320 
 12 C       -4.2240    -1.5190     0.0120 C.3   1 <1>   0.4240 
 13 C       -0.0630     3.7230    -1.5030 C.2   1 <1>   0.1080 
 14 C        0.0130     4.3410    -0.2630 C.2   1 <1>  -0.1500 
 15 C        0.3170     3.4300     2.1300 C.3   1 <1>  -0.0600 
 16 O       -5.2080    -0.5070     0.0410 O.3   1 <1>  -0.5600 
 17 C       -4.8240    -2.8870    -0.4250 C.ar  1 <1>  -0.1440 
 18 C       -0.2400     4.4330    -2.8240 C.3   1 <1>  -0.0590 
 19 C       -6.1620    -0.4970    -0.9690 C.3   1 <1>   0.1200 
 20 C       -4.0580    -4.0610    -0.4670 C.ar  1 <1>   0.0820 
 21 C       -6.1660    -2.9690    -0.7960 C.ar  1 <1>  -0.1440 
 22 C       -7.0370    -1.7290    -0.8000 C.3   1 <1>  -0.0170 
 23 O       -2.7410    -4.0010    -0.1340 O.3   1 <1>  -0.3630 
 24 C       -4.6410    -5.2670    -0.8510 C.ar  1 <1>  -0.1500 
 25 C       -6.7350    -4.1730    -1.1730 C.ar  1 <1>  -0.1500 
 26 C       -1.9280    -5.1480    -0.0210 C.3   1 <1>   0.0400 
 27 C       -5.9750    -5.3230    -1.2000 C.ar  1 <1>  -0.1500 
 28 H        0.3860     0.1380    -0.4590 H     1 <1>   0.0800 
 29 H        1.3240     0.7510     0.8750 H     1 <1>   0.0800 
 30 H       -3.8330     0.5410     1.9030 H     1 <1>   0.0800 
 31 H       -2.6860    -0.3240     2.8850 H     1 <1>   0.0800 
 32 H       -1.7140     0.5670    -1.1500 H     1 <1>   0.0800 
 33 H       -3.2460     1.0740    -0.5100 H     1 <1>   0.0800 
 34 H       -4.5160    -1.8120     2.1160 H     1 <1>   0.0800 
 35 H       -2.9550    -2.3190     1.5780 H     1 <1>   0.0800 
 36 H       -2.3190    -1.7530    -0.9790 H     1 <1>   0.0800 
 37 H       -3.4940    -0.9340    -1.9340 H     1 <1>   0.0800 
 38 H       -0.0440     5.3980    -0.0760 H     1 <1>   0.1500 
 39 H        1.2000     2.9110     2.4570 H     1 <1>   0.0800 
 40 H       -0.5410     2.9980     2.6150 H     1 <1>   0.0800 
 41 H        0.3930     4.4590     2.4300 H     1 <1>   0.0800 
 42 H       -1.1380     4.0850    -3.3000 H     1 <1>   0.0800 
 43 H        0.5990     4.2190    -3.4600 H     1 <1>   0.0800 
 44 H       -0.3080     5.4940    -2.6740 H     1 <1>   0.0800 
 45 H       -5.6720    -0.4930    -1.9260 H     1 <1>   0.0800 
 46 H       -6.7460     0.4000    -0.8640 H     1 <1>   0.0800 
 47 H       -7.7460    -1.7710    -1.6060 H     1 <1>   0.0800 
 48 H       -7.5780    -1.6610     0.1270 H     1 <1>   0.0800 
 49 H       -4.0760    -6.1780    -0.8890 H     1 <1>   0.1500 
 50 H       -7.7740    -4.2210    -1.4490 H     1 <1>   0.1500 
 51 H       -0.9550    -4.8350     0.3130 H     1 <1>   0.0800 
 52 H       -1.8480    -5.6170    -0.9860 H     1 <1>   0.0800 
 53 H       -2.3640    -5.8160     0.7000 H     1 <1>   0.0800 
 54 H       -6.4200    -6.2580    -1.4930 H     1 <1>   0.1500 
@<TRIPOS>BOND
  1   1   2  2   
  2   2   3  am  
  3   2   4  1   
  4   3   5  1   
  5   3   6  1   
  6   4   7  1   
  7   4  28  1   
  8   4  29  1   
  9   5   8  1   
 10   5  30  1   
 11   5  31  1   
 12   6   9  1   
 13   6  32  1   
 14   6  33  1   
 15   7  10  1   
 16   7  11  1   
 17   8  12  1   
 18   8  34  1   
 19   8  35  1   
 20   9  12  1   
 21   9  36  1   
 22   9  37  1   
 23  10  13  2   
 24  11  14  2   
 25  11  15  1   
 26  12  16  1   
 27  12  17  1   
 28  13  14  1   
 29  13  18  1   
 30  14  38  1   
 31  15  39  1   
 32  15  40  1   
 33  15  41  1   
 34  16  19  1   
 35  17  20  ar  
 36  17  21  ar  
 37  18  42  1   
 38  18  43  1   
 39  18  44  1   
 40  19  22  1   
 41  19  45  1   
 42  19  46  1   
 43  20  23  1   
 44  20  24  ar  
 45  21  22  1   
 46  21  25  ar  
 47  22  47  1   
 48  22  48  1   
 49  23  26  1   
 50  24  27  ar  
 51  24  49  1   
 52  25  27  ar  
 53  25  50  1   
 54  26  51  1   
 55  26  52  1   
 56  26  53  1   
 57  27  54  1   
@<TRIPOS>SUBSTRUCTURE
  1 ****   6 GROUP 4 **** **** 0

# MOE 2024.06 (io_trps.svl 2023.06)
