@<TRIPOS>MOLECULE
NONAME
53 57 1 0 0 
SMALL
USER_CHARGES


@<TRIPOS>ATOM
  1 CL      -1.4920     0.3610     1.2170 Cl    1 <1>  -0.1770 
  2 C       -3.0130     0.3030     0.3590 C.ar  1 <1>   0.1770 
  3 C       -3.5560     1.4380    -0.2180 C.ar  1 <1>   0.1900 
  4 C       -3.6820    -0.9040     0.2640 C.ar  1 <1>  -0.1500 
  5 F       -2.9320     2.5820    -0.1260 F     1 <1>  -0.1900 
  6 C       -4.7590     1.3920    -0.8960 C.ar  1 <1>  -0.1500 
  7 C       -4.9010    -0.9680    -0.4050 C.ar  1 <1>  -0.1440 
  8 C       -5.4280     0.1810    -0.9880 C.ar  1 <1>  -0.1500 
  9 C       -5.6650    -2.2790    -0.5080 C.3   1 <1>   0.4870 
 10 N       -6.1210    -2.7090     0.8490 N.4   1 <1>  -0.9590 
 11 C       -6.9550    -3.9470     0.7250 C.3   1 <1>   0.3430 
 12 C       -7.0080    -1.6690     1.4850 C.3   1 <1>   0.3430 
 13 C       -8.3880    -3.4350     0.6080 C.3   1 <1>   0.2800 
 14 C       -8.4560    -2.1970     1.4870 C.3   1 <1>  -0.0800 
 15 O       -8.6360    -2.8720    -0.6290 O.3   1 <1>  -0.5600 
 16 C       -9.5940    -4.3570     0.7830 C.3   1 <1>  -0.1600 
 17 C       -9.5690    -1.3810     0.7800 C.3   1 <1>  -0.0800 
 18 C       -9.8780    -2.3150    -0.4050 C.3   1 <1>   0.2000 
 19 C      -10.6710    -3.5450     0.0550 C.3   1 <1>  -0.1600 
 20 C       -9.1820     0.0450     0.3410 C.3   1 <1>   0.1100 
 21 N      -10.3590     0.9200     0.2630 N.3   1 <1>  -0.8100 
 22 C      -11.2760     0.6170    -0.8860 C.3   1 <1>   0.1710 
 23 C       -9.9780     2.3510     0.2390 C.3   1 <1>   0.1100 
 24 C      -12.3680     1.6650    -1.1580 C.2   1 <1>   0.5690 
 25 C      -11.2060     3.2770     0.3560 C.3   1 <1>   0.1400 
 26 O      -13.3020     1.3840    -1.8660 O.2   1 <1>  -0.5700 
 27 N      -12.2640     2.9000    -0.6140 N.am  1 <1>  -0.7300 
 28 H       -3.2340    -1.7730     0.7130 H     1 <1>   0.1500 
 29 H       -5.1540     2.2880    -1.3440 H     1 <1>   0.1500 
 30 H       -6.3620     0.1460    -1.5260 H     1 <1>   0.1500 
 31 H       -5.0260    -3.0330    -0.9390 H     1 <1>   0.0800 
 32 H       -6.5140    -2.1490    -1.1590 H     1 <1>   0.0800 
 33 H       -5.2920    -2.8760     1.4310 H     1 <1>   0.4500 
 34 H       -6.6850    -4.5480    -0.1280 H     1 <1>   0.0800 
 35 H       -6.8680    -4.5380     1.6220 H     1 <1>   0.0800 
 36 H       -6.6940    -1.4870     2.5000 H     1 <1>   0.0800 
 37 H       -6.9390    -0.7430     0.9430 H     1 <1>   0.0800 
 38 H       -8.7410    -2.4500     2.4940 H     1 <1>   0.0800 
 39 H       -9.4290    -5.3000     0.2900 H     1 <1>   0.0800 
 40 H       -9.8340    -4.5270     1.8180 H     1 <1>   0.0800 
 41 H      -10.4260    -1.3090     1.4290 H     1 <1>   0.0800 
 42 H      -10.2580    -1.8450    -1.2960 H     1 <1>   0.0800 
 43 H      -11.4970    -3.2770     0.6920 H     1 <1>   0.0800 
 44 H      -11.0460    -4.0800    -0.8000 H     1 <1>   0.0800 
 45 H       -8.6580     0.0320    -0.6000 H     1 <1>   0.0800 
 46 H       -8.5300     0.4640     1.0870 H     1 <1>   0.0800 
 47 H      -10.7020     0.5170    -1.7890 H     1 <1>   0.0800 
 48 H      -11.7780    -0.3140    -0.6990 H     1 <1>   0.0800 
 49 H       -9.3180     2.5640     1.0630 H     1 <1>   0.0800 
 50 H       -9.4530     2.5740    -0.6740 H     1 <1>   0.0800 
 51 H      -10.9040     4.2950     0.1780 H     1 <1>   0.0800 
 52 H      -11.6060     3.2120     1.3530 H     1 <1>   0.0800 
 53 H      -13.0400     3.5460    -0.7690 H     1 <1>   0.3700 
@<TRIPOS>BOND
  1   1   2  1   
  2   2   3  ar  
  3   2   4  ar  
  4   3   5  1   
  5   3   6  ar  
  6   4   7  ar  
  7   4  28  1   
  8   6   8  ar  
  9   6  29  1   
 10   7   8  ar  
 11   7   9  1   
 12   8  30  1   
 13   9  10  1   
 14   9  31  1   
 15   9  32  1   
 16  10  11  1   
 17  10  12  1   
 18  10  33  1   
 19  11  13  1   
 20  11  34  1   
 21  11  35  1   
 22  12  14  1   
 23  12  36  1   
 24  12  37  1   
 25  13  14  1   
 26  13  15  1   
 27  13  16  1   
 28  14  17  1   
 29  14  38  1   
 30  15  18  1   
 31  16  19  1   
 32  16  39  1   
 33  16  40  1   
 34  17  18  1   
 35  17  20  1   
 36  17  41  1   
 37  18  19  1   
 38  18  42  1   
 39  19  43  1   
 40  19  44  1   
 41  20  21  1   
 42  20  45  1   
 43  20  46  1   
 44  21  22  1   
 45  21  23  1   
 46  22  24  1   
 47  22  47  1   
 48  22  48  1   
 49  23  25  1   
 50  23  49  1   
 51  23  50  1   
 52  24  26  2   
 53  24  27  am  
 54  25  27  1   
 55  25  51  1   
 56  25  52  1   
 57  27  53  1   
@<TRIPOS>SUBSTRUCTURE
  1 ****  20 GROUP 4 **** **** 0

# MOE 2024.06 (io_trps.svl 2023.06)
