@<TRIPOS>MOLECULE
NONAME
55 57 1 0 0 
SMALL
USER_CHARGES


@<TRIPOS>ATOM
  1 S        0.6240    -0.5180    -0.7430 S.o2  1 <1>   1.3330 
  2 O        0.6050     0.0770    -2.0610 O.2   1 <1>  -0.6500 
  3 O        1.3700    -1.7410    -0.5520 O.2   1 <1>  -0.6500 
  4 N       -0.9740    -0.8470    -0.2740 N.am  1 <1>  -0.8490 
  5 C        1.2290     0.6830     0.4610 C.3   1 <1>  -0.0550 
  6 C       -1.0530    -1.8030     0.8310 C.3   1 <1>   0.1960 
  7 C       -1.8090    -1.2610    -1.4010 C.3   1 <1>   0.1960 
  8 C        0.5940     2.0940     0.5380 C.3   1 <1>  -0.0800 
  9 C       -2.4860    -1.9000     1.3520 C.3   1 <1>  -0.1600 
 10 C       -3.2780    -1.2950    -0.9810 C.3   1 <1>  -0.1600 
 11 C       -0.8900     2.0780     0.9250 C.3   1 <1>  -0.2400 
 12 C        0.8020     2.9160    -0.7390 C.3   1 <1>  -0.2400 
 13 C       -3.5530    -2.1420     0.2720 C.3   1 <1>   0.4240 
 14 O       -4.7210    -1.6180     0.8550 O.3   1 <1>  -0.5600 
 15 C       -3.7370    -3.6510    -0.0580 C.ar  1 <1>  -0.1440 
 16 C       -5.9440    -1.9930     0.3090 C.3   1 <1>   0.1200 
 17 C       -4.9730    -4.2700     0.1080 C.ar  1 <1>  -0.1440 
 18 C       -2.6920    -4.4330    -0.5380 C.ar  1 <1>  -0.1500 
 19 C       -6.1600    -3.4700     0.6060 C.3   1 <1>  -0.0170 
 20 C       -5.1450    -5.6140    -0.1820 C.ar  1 <1>  -0.1500 
 21 C       -2.8430    -5.7770    -0.8280 C.ar  1 <1>   0.0820 
 22 C       -4.0930    -6.3880    -0.6590 C.ar  1 <1>   0.0820 
 23 O       -1.7150    -6.3980    -1.2750 O.3   1 <1>  -0.3620 
 24 O       -4.2600    -7.7040    -0.9800 O.3   1 <1>  -0.3620 
 25 C       -1.4390    -7.7360    -0.9240 C.3   1 <1>   0.0400 
 26 C       -5.5290    -8.3190    -0.9890 C.3   1 <1>   0.0400 
 27 H        2.2770     0.8200     0.2740 H     1 <1>   0.0800 
 28 H        1.1550     0.2420     1.4340 H     1 <1>   0.0800 
 29 H       -0.4240    -1.4690     1.6380 H     1 <1>   0.0800 
 30 H       -0.6850    -2.7650     0.5230 H     1 <1>   0.0800 
 31 H       -1.4820    -2.2140    -1.7780 H     1 <1>   0.0800 
 32 H       -1.7160    -0.5480    -2.2030 H     1 <1>   0.0800 
 33 H        1.1140     2.6110     1.3280 H     1 <1>   0.0800 
 34 H       -2.6990    -0.9700     1.8460 H     1 <1>   0.0800 
 35 H       -2.5440    -2.6820     2.0870 H     1 <1>   0.0800 
 36 H       -3.8610    -1.6660    -1.8020 H     1 <1>   0.0800 
 37 H       -3.5760    -0.2800    -0.7890 H     1 <1>   0.0800 
 38 H       -1.4950     1.7030     0.1180 H     1 <1>   0.0800 
 39 H       -1.2230     3.0760     1.1510 H     1 <1>   0.0800 
 40 H       -1.0510     1.4630     1.7920 H     1 <1>   0.0800 
 41 H        0.2120     2.5300    -1.5510 H     1 <1>   0.0800 
 42 H        1.8370     2.9060    -1.0330 H     1 <1>   0.0800 
 43 H        0.5080     3.9380    -0.5730 H     1 <1>   0.0800 
 44 H       -5.9380    -1.8020    -0.7500 H     1 <1>   0.0800 
 45 H       -6.7110    -1.3980     0.7730 H     1 <1>   0.0800 
 46 H       -1.7190    -4.0250    -0.7060 H     1 <1>   0.1500 
 47 H       -7.0630    -3.7980     0.1240 H     1 <1>   0.0800 
 48 H       -6.2710    -3.6080     1.6670 H     1 <1>   0.0800 
 49 H       -6.1160    -6.0440    -0.0300 H     1 <1>   0.1500 
 50 H       -0.3820    -7.8980    -1.0290 H     1 <1>   0.0800 
 51 H       -1.9740    -8.3870    -1.5910 H     1 <1>   0.0800 
 52 H       -1.7400    -7.9020     0.0950 H     1 <1>   0.0800 
 53 H       -5.4080    -9.3280    -1.3400 H     1 <1>   0.0800 
 54 H       -6.1750    -7.7760    -1.6560 H     1 <1>   0.0800 
 55 H       -5.9210    -8.3260     0.0120 H     1 <1>   0.0800 
@<TRIPOS>BOND
  1   1   2  2   
  2   1   3  2   
  3   1   4  am  
  4   1   5  1   
  5   4   6  1   
  6   4   7  1   
  7   5   8  1   
  8   5  27  1   
  9   5  28  1   
 10   6   9  1   
 11   6  29  1   
 12   6  30  1   
 13   7  10  1   
 14   7  31  1   
 15   7  32  1   
 16   8  11  1   
 17   8  12  1   
 18   8  33  1   
 19   9  13  1   
 20   9  34  1   
 21   9  35  1   
 22  10  13  1   
 23  10  36  1   
 24  10  37  1   
 25  11  38  1   
 26  11  39  1   
 27  11  40  1   
 28  12  41  1   
 29  12  42  1   
 30  12  43  1   
 31  13  14  1   
 32  13  15  1   
 33  14  16  1   
 34  15  17  ar  
 35  15  18  ar  
 36  16  19  1   
 37  16  44  1   
 38  16  45  1   
 39  17  19  1   
 40  17  20  ar  
 41  18  21  ar  
 42  18  46  1   
 43  19  47  1   
 44  19  48  1   
 45  20  22  ar  
 46  20  49  1   
 47  21  22  ar  
 48  21  23  1   
 49  22  24  1   
 50  23  25  1   
 51  24  26  1   
 52  25  50  1   
 53  25  51  1   
 54  25  52  1   
 55  26  53  1   
 56  26  54  1   
 57  26  55  1   
@<TRIPOS>SUBSTRUCTURE
  1 ****  13 GROUP 4 **** **** 0

# MOE 2024.06 (io_trps.svl 2023.06)
