@<TRIPOS>MOLECULE
NONAME
49 51 1 0 0 
SMALL
USER_CHARGES


@<TRIPOS>ATOM
  1 S        0.2290    -0.3760     1.7930 S.o2  1 <1>   1.4470 
  2 O        0.9830    -1.5090     2.2860 O.2   1 <1>  -0.6500 
  3 O       -0.5050     0.4490     2.7240 O.2   1 <1>  -0.6500 
  4 N       -0.8940    -1.0130     0.6940 N.am  1 <1>  -0.8490 
  5 C        1.3030     0.6480     0.7500 C.ar  1 <1>  -0.0090 
  6 C       -1.7080    -2.0650     1.3280 C.3   1 <1>   0.1960 
  7 C       -1.7690     0.0160     0.1100 C.3   1 <1>   0.1960 
  8 C        1.1970     2.0340     0.7510 C.ar  1 <1>  -0.1500 
  9 C        2.2400     0.0700    -0.1010 C.ar  1 <1>  -0.1500 
 10 C       -2.5850    -2.7800     0.2700 C.3   1 <1>   0.4230 
 11 C       -2.6420    -0.6220    -0.9800 C.3   1 <1>  -0.1600 
 12 C        2.0010     2.7970    -0.0730 C.ar  1 <1>   0.1900 
 13 C        3.0460     0.8400    -0.9250 C.ar  1 <1>  -0.1500 
 14 N       -3.3720    -3.9550     0.7820 N.4   1 <1>  -0.9590 
 15 C       -3.5240    -1.7630    -0.4060 C.3   1 <1>  -0.1060 
 16 F        1.8260     4.0930    -0.0110 F     1 <1>  -0.1900 
 17 C        2.9440     2.2220    -0.9310 C.ar  1 <1>   0.0830 
 18 C       -4.0740    -4.6730    -0.3130 C.3   1 <1>   0.3430 
 19 C       -2.6450    -4.8740     1.6990 C.3   1 <1>   0.2630 
 20 C       -4.5030    -1.2070     0.6450 C.2   1 <1>   0.9060 
 21 C       -4.2880    -2.4550    -1.5590 C.3   1 <1>  -0.1600 
 22 O        3.7860     2.8670    -1.7850 O.3   1 <1>  -0.3630 
 23 C       -5.0070    -3.7220    -1.0680 C.3   1 <1>  -0.1600 
 24 O       -4.9220    -0.0580     0.5290 O.co2 1 <1>  -0.9000 
 25 O       -4.8390    -1.9320     1.5950 O.co2 1 <1>  -0.9000 
 26 C        3.8550     4.2720    -1.8840 C.3   1 <1>   0.0400 
 27 H       -1.0470    -2.7860     1.7730 H     1 <1>   0.0800 
 28 H       -2.3190    -1.6360     2.1070 H     1 <1>   0.0800 
 29 H       -2.3860     0.4660     0.8740 H     1 <1>   0.0800 
 30 H       -1.1770     0.7960    -0.3370 H     1 <1>   0.0800 
 31 H        0.4840     2.5220     1.3950 H     1 <1>   0.1500 
 32 H        2.3410    -1.0030    -0.1180 H     1 <1>   0.1500 
 33 H       -1.9070    -3.1460    -0.4810 H     1 <1>   0.0800 
 34 H       -3.2710     0.1410    -1.4060 H     1 <1>   0.0800 
 35 H       -2.0040    -0.9890    -1.7640 H     1 <1>   0.0800 
 36 H        3.7650     0.3690    -1.5730 H     1 <1>   0.1500 
 37 H       -4.1250    -3.4570     1.3320 H     1 <1>   0.4500 
 38 H       -3.3500    -5.0840    -0.9960 H     1 <1>   0.0800 
 39 H       -4.6560    -5.4820     0.0970 H     1 <1>   0.0800 
 40 H       -1.8050    -5.3210     1.1930 H     1 <1>   0.0800 
 41 H       -3.3060    -5.6540     2.0380 H     1 <1>   0.0800 
 42 H       -2.2900    -4.3350     2.5620 H     1 <1>   0.0800 
 43 H       -5.0120    -1.7680    -1.9690 H     1 <1>   0.0800 
 44 H       -3.6030    -2.7200    -2.3460 H     1 <1>   0.0800 
 45 H       -5.4330    -4.2390    -1.9100 H     1 <1>   0.0800 
 46 H       -5.8240    -3.4470    -0.4210 H     1 <1>   0.0800 
 47 H        4.6140     4.5180    -2.6040 H     1 <1>   0.0800 
 48 H        4.1180     4.6790    -0.9240 H     1 <1>   0.0800 
 49 H        2.9040     4.6480    -2.2160 H     1 <1>   0.0800 
@<TRIPOS>BOND
  1   1   2  2   
  2   1   3  2   
  3   1   4  am  
  4   1   5  1   
  5   4   6  1   
  6   4   7  1   
  7   5   8  ar  
  8   5   9  ar  
  9   6  10  1   
 10   6  27  1   
 11   6  28  1   
 12   7  11  1   
 13   7  29  1   
 14   7  30  1   
 15   8  12  ar  
 16   8  31  1   
 17   9  13  ar  
 18   9  32  1   
 19  10  14  1   
 20  10  15  1   
 21  10  33  1   
 22  11  15  1   
 23  11  34  1   
 24  11  35  1   
 25  12  16  1   
 26  12  17  ar  
 27  13  17  ar  
 28  13  36  1   
 29  14  18  1   
 30  14  19  1   
 31  14  37  1   
 32  15  20  1   
 33  15  21  1   
 34  17  22  1   
 35  18  23  1   
 36  18  38  1   
 37  18  39  1   
 38  19  40  1   
 39  19  41  1   
 40  19  42  1   
 41  20  24  ar  
 42  20  25  ar  
 43  21  23  1   
 44  21  43  1   
 45  21  44  1   
 46  22  26  1   
 47  23  45  1   
 48  23  46  1   
 49  26  47  1   
 50  26  48  1   
 51  26  49  1   
@<TRIPOS>SUBSTRUCTURE
  1 ****   4 GROUP 4 **** **** 0

# MOE 2024.06 (io_trps.svl 2023.06)
