@<TRIPOS>MOLECULE
NONAME
48 50 1 0 0 
SMALL
USER_CHARGES


@<TRIPOS>ATOM
  1 S        0.8800     0.3090    -1.9470 S.o2  1 <1>   1.3330 
  2 O        1.2570    -1.0320    -2.3330 O.2   1 <1>  -0.6500 
  3 O        0.2440     1.1830    -2.9070 O.2   1 <1>  -0.6500 
  4 N       -0.1570     0.1950    -0.6050 N.am  1 <1>  -0.8490 
  5 C        2.3350     1.1240    -1.2870 C.3   1 <1>  -0.0550 
  6 C       -0.9560     1.4060    -0.3830 C.3   1 <1>   0.1160 
  7 C       -1.0420    -0.9710    -0.6850 C.3   1 <1>   0.1160 
  8 C        3.1400     0.2720    -0.2820 C.3   1 <1>  -0.0800 
  9 C        4.4790     0.8640     0.1320 C.3   1 <1>   0.2200 
 10 C        2.4490     0.0200     1.0650 C.3   1 <1>   0.1200 
 11 N        4.3560     2.3190     0.4000 N.am  1 <1>  -0.7300 
 12 C        4.6990     0.1460     1.4550 C.3   1 <1>   0.1200 
 13 O        3.4380     0.1160     2.0500 O.3   1 <1>  -0.5600 
 14 C        4.7290     3.3150    -0.4530 C.2   1 <1>   0.5440 
 15 O        5.1230     3.0050    -1.5570 O.2   1 <1>  -0.5700 
 16 C        4.6190     4.6990    -0.0520 C.ar  1 <1>   0.0860 
 17 C        5.5970     5.6650    -0.3290 C.ar  1 <1>   0.0000 
 18 C        3.5200     5.1720     0.6470 C.ar  1 <1>  -0.1500 
 19 C        5.3840     6.9510     0.1040 C.ar  1 <1>   0.3970 
 20 C        6.8590     5.7680    -0.9510 C.2   1 <1>   0.1080 
 21 C        3.4210     6.5090     1.0330 C.ar  1 <1>   0.1670 
 22 O        6.4250     7.6820    -0.2530 O.3   1 <1>  -0.0190 
 23 N        4.3320     7.4160     0.7780 N.ar  1 <1>  -0.5670 
 24 N        7.3170     6.9620    -0.8890 N.2   1 <1>  -0.4100 
 25 C        7.6230     4.6420    -1.6170 C.3   1 <1>  -0.0590 
 26 C        2.2010     6.9890     1.7940 C.3   1 <1>  -0.0970 
 27 H        2.9830     1.3630    -2.1090 H     1 <1>   0.0800 
 28 H        2.0460     2.0500    -0.8320 H     1 <1>   0.0800 
 29 H       -1.5190     1.3160     0.5300 H     1 <1>   0.0800 
 30 H       -1.6390     1.5620    -1.2020 H     1 <1>   0.0800 
 31 H       -0.3130     2.2660    -0.3030 H     1 <1>   0.0800 
 32 H       -1.6790    -1.0190     0.1820 H     1 <1>   0.0800 
 33 H       -0.4590    -1.8760    -0.7220 H     1 <1>   0.0800 
 34 H       -1.6520    -0.9180    -1.5720 H     1 <1>   0.0800 
 35 H        3.3330    -0.6870    -0.7310 H     1 <1>   0.0800 
 36 H        5.2640     0.6680    -0.5800 H     1 <1>   0.0800 
 37 H        2.0050    -0.9610     1.1080 H     1 <1>   0.0800 
 38 H        1.7030     0.7640     1.2820 H     1 <1>   0.0800 
 39 H        4.0300     2.5280     1.3470 H     1 <1>   0.3700 
 40 H        5.3960     0.6530     2.0990 H     1 <1>   0.0800 
 41 H        5.0160    -0.8700     1.2950 H     1 <1>   0.0800 
 42 H        2.7200     4.4980     0.8930 H     1 <1>   0.1500 
 43 H        7.6650     3.7860    -0.9700 H     1 <1>   0.0800 
 44 H        8.6270     4.9570    -1.8390 H     1 <1>   0.0800 
 45 H        7.1390     4.3680    -2.5370 H     1 <1>   0.0800 
 46 H        1.5000     6.1920     1.9570 H     1 <1>   0.0800 
 47 H        1.7150     7.7700     1.2390 H     1 <1>   0.0800 
 48 H        2.5050     7.3840     2.7460 H     1 <1>   0.0800 
@<TRIPOS>BOND
  1   1   2  2   
  2   1   3  2   
  3   1   4  am  
  4   1   5  1   
  5   4   6  1   
  6   4   7  1   
  7   5   8  1   
  8   5  27  1   
  9   5  28  1   
 10   6  29  1   
 11   6  30  1   
 12   6  31  1   
 13   7  32  1   
 14   7  33  1   
 15   7  34  1   
 16   8   9  1   
 17   8  10  1   
 18   8  35  1   
 19   9  11  1   
 20   9  12  1   
 21   9  36  1   
 22  10  13  1   
 23  10  37  1   
 24  10  38  1   
 25  11  14  am  
 26  11  39  1   
 27  12  13  1   
 28  12  40  1   
 29  12  41  1   
 30  14  15  2   
 31  14  16  1   
 32  16  17  ar  
 33  16  18  ar  
 34  17  19  ar  
 35  17  20  1   
 36  18  21  ar  
 37  18  42  1   
 38  19  22  1   
 39  19  23  ar  
 40  20  24  2   
 41  20  25  1   
 42  21  23  ar  
 43  21  26  1   
 44  22  24  1   
 45  25  43  1   
 46  25  44  1   
 47  25  45  1   
 48  26  46  1   
 49  26  47  1   
 50  26  48  1   
@<TRIPOS>SUBSTRUCTURE
  1 ****  14 GROUP 4 **** **** 0

# MOE 2024.06 (io_trps.svl 2023.06)
