@<TRIPOS>MOLECULE
NONAME
45 47 1 0 0 
SMALL
USER_CHARGES


@<TRIPOS>ATOM
  1 O        0.0880    -0.0670    -0.0510 O.2   1 <1>  -0.5700 
  2 C       -0.8760     0.5940    -0.3520 C.2   1 <1>   0.5690 
  3 N       -2.1230     0.0400    -0.4270 N.am  1 <1>  -0.6600 
  4 C       -0.6650     2.0710    -0.6210 C.3   1 <1>  -0.0990 
  5 C       -3.4160     0.7390    -0.6290 C.3   1 <1>   0.1400 
  6 C       -2.3640    -1.3980    -0.1400 C.3   1 <1>   0.1400 
  7 C       -0.6670     2.8670     0.6870 C.3   1 <1>   0.0200 
  8 C       -4.4330    -0.1510     0.0810 C.3   1 <1>   0.2000 
  9 C       -3.8890    -1.5660    -0.1450 C.3   1 <1>  -0.0800 
 10 C       -0.5080     4.3530     0.4080 C.2   1 <1>  -0.3320 
 11 O       -4.3930     0.1550     1.4320 O.3   1 <1>  -0.6800 
 12 C       -4.4020    -2.6360     0.8370 C.3   1 <1>  -0.0170 
 13 N       -1.5050     5.2060     0.0760 N.pl3 1 <1>   0.3140 
 14 C        0.6280     5.0810     0.4390 C.2   1 <1>  -0.1500 
 15 C       -3.8760    -4.0130     0.4630 C.ar  1 <1>  -0.1440 
 16 N       -1.0410     6.4510    -0.1130 N.2   1 <1>  -0.7070 
 17 C       -2.9370     4.9100    -0.0680 C.3   1 <1>   0.0160 
 18 C        0.2350     6.3700     0.1070 C.2   1 <1>   0.1390 
 19 C       -2.7580    -4.5590     1.0610 C.ar  1 <1>  -0.1500 
 20 C       -4.4920    -4.7890    -0.4980 C.ar  1 <1>  -0.1500 
 21 C       -2.3200    -5.8150     0.6760 C.ar  1 <1>   0.1600 
 22 C       -3.9730    -6.0350    -0.8090 C.ar  1 <1>   0.1600 
 23 N       -2.9000    -6.5670    -0.2460 N.ar  1 <1>  -0.6200 
 24 H        0.2870     2.1950    -1.1030 H     1 <1>   0.0800 
 25 H       -1.4150     2.4410    -1.2920 H     1 <1>   0.0800 
 26 H       -3.4140     1.7340    -0.2210 H     1 <1>   0.0800 
 27 H       -3.6320     0.7760    -1.6830 H     1 <1>   0.0800 
 28 H       -1.8960    -2.0180    -0.8860 H     1 <1>   0.0800 
 29 H       -1.9490    -1.6360     0.8250 H     1 <1>   0.0800 
 30 H        0.1560     2.5330     1.2960 H     1 <1>   0.0800 
 31 H       -1.5720     2.6880     1.2400 H     1 <1>   0.0800 
 32 H       -5.4400    -0.0140    -0.2740 H     1 <1>   0.0800 
 33 H       -4.1700    -1.8650    -1.1400 H     1 <1>   0.0800 
 34 H       -3.4670     0.0860     1.7410 H     1 <1>   0.4000 
 35 H       -5.4780    -2.6500     0.8200 H     1 <1>   0.0800 
 36 H       -4.1020    -2.4000     1.8430 H     1 <1>   0.0800 
 37 H        1.6310     4.7650     0.6640 H     1 <1>   0.1500 
 38 H       -3.2850     4.4050     0.8130 H     1 <1>   0.0800 
 39 H       -3.0840     4.2960    -0.9340 H     1 <1>   0.0800 
 40 H       -3.4740     5.8330    -0.1870 H     1 <1>   0.0800 
 41 H        0.9020     7.2120     0.0370 H     1 <1>   0.1500 
 42 H       -2.2210    -4.0220     1.8210 H     1 <1>   0.1500 
 43 H       -5.3700    -4.4380    -1.0080 H     1 <1>   0.1500 
 44 H       -1.4450    -6.2240     1.1520 H     1 <1>   0.1500 
 45 H       -4.4670    -6.6260    -1.5610 H     1 <1>   0.1500 
@<TRIPOS>BOND
  1   1   2  2   
  2   2   3  am  
  3   2   4  1   
  4   3   5  1   
  5   3   6  1   
  6   4   7  1   
  7   4  24  1   
  8   4  25  1   
  9   5   8  1   
 10   5  26  1   
 11   5  27  1   
 12   6   9  1   
 13   6  28  1   
 14   6  29  1   
 15   7  10  1   
 16   7  30  1   
 17   7  31  1   
 18   8   9  1   
 19   8  11  1   
 20   8  32  1   
 21   9  12  1   
 22   9  33  1   
 23  10  13  1   
 24  10  14  2   
 25  11  34  1   
 26  12  15  1   
 27  12  35  1   
 28  12  36  1   
 29  13  16  1   
 30  13  17  1   
 31  14  18  1   
 32  14  37  1   
 33  15  19  ar  
 34  15  20  ar  
 35  16  18  2   
 36  17  38  1   
 37  17  39  1   
 38  17  40  1   
 39  18  41  1   
 40  19  21  ar  
 41  19  42  1   
 42  20  22  ar  
 43  20  43  1   
 44  21  23  ar  
 45  21  44  1   
 46  22  23  ar  
 47  22  45  1   
@<TRIPOS>SUBSTRUCTURE
  1 ****   3 GROUP 4 **** **** 0

# MOE 2024.06 (io_trps.svl 2023.06)
