@<TRIPOS>MOLECULE
NONAME
53 55 1 0 0 
SMALL
USER_CHARGES


@<TRIPOS>ATOM
  1 O        0.2030    -0.3780     0.8850 O.2   1 <1>  -0.5700 
  2 C        1.1780    -0.8890     0.3670 C.2   1 <1>   0.5440 
  3 N        2.2750    -0.1170     0.0580 N.am  1 <1>  -0.4940 
  4 C        1.2040    -2.3110     0.0970 C.ar  1 <1>   0.0860 
  5 C        2.4890     1.2810     0.1260 C.2   1 <1>  -0.0880 
  6 C        0.4700    -3.2040     0.8820 C.ar  1 <1>  -0.1500 
  7 C        1.9500    -2.8580    -0.9510 C.ar  1 <1>  -0.1500 
  8 N        1.5840     2.2740    -0.1060 N.pl3 1 <1>   0.3140 
  9 C        3.6630     1.8990     0.4050 C.2   1 <1>  -0.1810 
 10 C        0.4900    -4.5640     0.6450 C.ar  1 <1>  -0.1500 
 11 C        1.9710    -4.2170    -1.1890 C.ar  1 <1>  -0.1500 
 12 N        2.1510     3.4940     0.0090 N.2   1 <1>  -0.7070 
 13 C        0.1810     2.1650    -0.5270 C.3   1 <1>   0.0160 
 14 C        3.3870     3.2620     0.3180 C.2   1 <1>   0.1080 
 15 C        5.0060     1.2770     0.7480 C.3   1 <1>  -0.0590 
 16 C        1.2440    -5.0960    -0.3950 C.ar  1 <1>   0.1000 
 17 C        4.3790     4.3880     0.5460 C.3   1 <1>   0.0210 
 18 N        1.2790    -6.4600    -0.6480 N.pl3 1 <1>  -0.8380 
 19 C        5.1100     4.7530    -0.7510 C.3   1 <1>  -0.2400 
 20 C        2.5780    -7.1960    -0.6310 C.3   1 <1>   0.2090 
 21 C        0.0350    -7.2860    -0.6690 C.3   1 <1>   0.2090 
 22 C        2.5690    -8.3100     0.4380 C.3   1 <1>   0.3430 
 23 C        0.0870    -8.4000     0.4000 C.3   1 <1>   0.3430 
 24 N        1.3600    -9.2120     0.3360 N.4   1 <1>  -0.9590 
 25 C        1.3830   -10.2670     1.3930 C.3   1 <1>   0.2630 
 26 H        3.1200    -0.6520    -0.1330 H     1 <1>   0.3700 
 27 H       -0.1230    -2.8110     1.6910 H     1 <1>   0.1500 
 28 H        2.5110    -2.2090    -1.6010 H     1 <1>   0.1500 
 29 H       -0.0830    -5.2140     1.2780 H     1 <1>   0.1500 
 30 H        2.5440    -4.6100    -2.0090 H     1 <1>   0.1500 
 31 H        0.0670     1.3180    -1.1750 H     1 <1>   0.0800 
 32 H       -0.1010     3.0610    -1.0480 H     1 <1>   0.0800 
 33 H       -0.4350     2.0460     0.3440 H     1 <1>   0.0800 
 34 H        4.9350     0.2070     0.7820 H     1 <1>   0.0800 
 35 H        5.3330     1.6270     1.7100 H     1 <1>   0.0800 
 36 H        5.7360     1.5530     0.0080 H     1 <1>   0.0800 
 37 H        5.0880     4.1000     1.2990 H     1 <1>   0.0800 
 38 H        3.8430     5.2480     0.9090 H     1 <1>   0.0800 
 39 H        5.6560     3.9050    -1.1230 H     1 <1>   0.0800 
 40 H        5.7940     5.5640    -0.5760 H     1 <1>   0.0800 
 41 H        4.3940     5.0550    -1.4950 H     1 <1>   0.0800 
 42 H        3.3810    -6.5110    -0.4200 H     1 <1>   0.0800 
 43 H        2.7560    -7.6230    -1.6030 H     1 <1>   0.0800 
 44 H       -0.0770    -7.7260    -1.6450 H     1 <1>   0.0800 
 45 H       -0.8250    -6.6610    -0.4990 H     1 <1>   0.0800 
 46 H        2.5830    -7.8390     1.4070 H     1 <1>   0.0800 
 47 H        3.4710    -8.8930     0.3430 H     1 <1>   0.0800 
 48 H       -0.7660    -9.0460     0.2730 H     1 <1>   0.0800 
 49 H        0.0070    -7.9360     1.3680 H     1 <1>   0.0800 
 50 H        1.3910    -9.6630    -0.5900 H     1 <1>   0.4500 
 51 H        1.3530    -9.8180     2.3730 H     1 <1>   0.0800 
 52 H        2.2810   -10.8580     1.3130 H     1 <1>   0.0800 
 53 H        0.5330   -10.9220     1.2880 H     1 <1>   0.0800 
@<TRIPOS>BOND
  1   1   2  2   
  2   2   3  am  
  3   2   4  1   
  4   3   5  1   
  5   3  26  1   
  6   4   6  ar  
  7   4   7  ar  
  8   5   8  1   
  9   5   9  2   
 10   6  10  ar  
 11   6  27  1   
 12   7  11  ar  
 13   7  28  1   
 14   8  12  1   
 15   8  13  1   
 16   9  14  1   
 17   9  15  1   
 18  10  16  ar  
 19  10  29  1   
 20  11  16  ar  
 21  11  30  1   
 22  12  14  2   
 23  13  31  1   
 24  13  32  1   
 25  13  33  1   
 26  14  17  1   
 27  15  34  1   
 28  15  35  1   
 29  15  36  1   
 30  16  18  1   
 31  17  19  1   
 32  17  37  1   
 33  17  38  1   
 34  18  20  1   
 35  18  21  1   
 36  19  39  1   
 37  19  40  1   
 38  19  41  1   
 39  20  22  1   
 40  20  42  1   
 41  20  43  1   
 42  21  23  1   
 43  21  44  1   
 44  21  45  1   
 45  22  24  1   
 46  22  46  1   
 47  22  47  1   
 48  23  24  1   
 49  23  48  1   
 50  23  49  1   
 51  24  25  1   
 52  24  50  1   
 53  25  51  1   
 54  25  52  1   
 55  25  53  1   
@<TRIPOS>SUBSTRUCTURE
  1 ****   4 GROUP 4 **** **** 0

# MOE 2024.06 (io_trps.svl 2023.06)
