@<TRIPOS>MOLECULE
NONAME
33 34 1 0 0 
SMALL
USER_CHARGES


@<TRIPOS>ATOM
  1 CL      -1.0060    -1.2380    -1.8150 Cl    1 <1>  -0.1770 
  2 C       -0.9740    -2.7400    -0.9300 C.ar  1 <1>   0.1770 
  3 C       -1.8620    -2.9290     0.1110 C.ar  1 <1>  -0.1500 
  4 C       -0.0650    -3.7160    -1.2860 C.ar  1 <1>  -0.1500 
  5 C       -1.8630    -4.1190     0.8300 C.ar  1 <1>  -0.0090 
  6 C       -0.0490    -4.9050    -0.5800 C.ar  1 <1>  -0.1500 
  7 S       -3.0560    -4.4020     2.1730 S.o2  1 <1>   1.4470 
  8 C       -0.9390    -5.0960     0.4650 C.ar  1 <1>  -0.1500 
  9 O       -2.4700    -5.3170     3.1290 O.2   1 <1>  -0.6500 
 10 O       -3.5380    -3.1140     2.6250 O.2   1 <1>  -0.6500 
 11 N       -4.3520    -5.1910     1.4130 N.am  1 <1>  -0.8490 
 12 C       -3.9620    -6.4710     0.7960 C.3   1 <1>   0.1960 
 13 C       -5.1180    -4.3330     0.5070 C.3   1 <1>   0.1960 
 14 C       -5.1760    -7.2460     0.2840 C.3   1 <1>  -0.1860 
 15 C       -6.3820    -5.0510     0.0360 C.3   1 <1>  -0.1600 
 16 C       -4.7290    -8.4770    -0.4690 C.2   1 <1>   0.9060 
 17 C       -6.0150    -6.3670    -0.6370 C.3   1 <1>   0.2000 
 18 O       -3.5230    -8.6960    -0.6220 O.co2 1 <1>  -0.9000 
 19 O       -5.6030    -9.2060    -0.9540 O.co2 1 <1>  -0.9000 
 20 O       -7.1740    -7.0400    -0.9510 O.3   1 <1>  -0.6800 
 21 H       -2.5550    -2.1440     0.3620 H     1 <1>   0.1500 
 22 H        0.6150    -3.5480    -2.1020 H     1 <1>   0.1500 
 23 H        0.6480    -5.6830    -0.8410 H     1 <1>   0.1500 
 24 H       -0.9190    -6.0300     1.0060 H     1 <1>   0.1500 
 25 H       -3.2950    -6.2890    -0.0310 H     1 <1>   0.0800 
 26 H       -3.4430    -7.0840     1.5160 H     1 <1>   0.0800 
 27 H       -5.4090    -3.4300     1.0190 H     1 <1>   0.0800 
 28 H       -4.5150    -4.0640    -0.3440 H     1 <1>   0.0800 
 29 H       -5.7600    -7.5610     1.1270 H     1 <1>   0.0800 
 30 H       -6.9140    -4.4280    -0.6590 H     1 <1>   0.0800 
 31 H       -7.0140    -5.2400     0.8860 H     1 <1>   0.0800 
 32 H       -5.4810    -6.1880    -1.5560 H     1 <1>   0.0800 
 33 H       -6.9020    -7.9920    -1.1010 H     1 <1>   0.4000 
@<TRIPOS>BOND
  1   1   2  1   
  2   2   3  ar  
  3   2   4  ar  
  4   3   5  ar  
  5   3  21  1   
  6   4   6  ar  
  7   4  22  1   
  8   5   7  1   
  9   5   8  ar  
 10   6   8  ar  
 11   6  23  1   
 12   7   9  2   
 13   7  10  2   
 14   7  11  am  
 15   8  24  1   
 16  11  12  1   
 17  11  13  1   
 18  12  14  1   
 19  12  25  1   
 20  12  26  1   
 21  13  15  1   
 22  13  27  1   
 23  13  28  1   
 24  14  16  1   
 25  14  17  1   
 26  14  29  1   
 27  15  17  1   
 28  15  30  1   
 29  15  31  1   
 30  16  18  ar  
 31  16  19  ar  
 32  17  20  1   
 33  17  32  1   
 34  20  33  1   
@<TRIPOS>SUBSTRUCTURE
  1 ****  12 GROUP 4 **** **** 0

# MOE 2024.06 (io_trps.svl 2023.06)
