@<TRIPOS>MOLECULE
NONAME
39 40 1 0 0 
SMALL
USER_CHARGES


@<TRIPOS>ATOM
  1 S        0.0210    -0.5100     0.5090 S.3   1 <1>  -0.0800 
  2 C       -1.5300    -0.9700    -0.1170 C.2   1 <1>   0.4420 
  3 C       -0.3910     1.1240     0.1240 C.2   1 <1>   0.1980 
  4 N       -2.1970     0.0440    -0.5370 N.2   1 <1>  -0.3380 
  5 N       -1.8360    -2.3130    -0.0860 N.am  1 <1>  -0.4940 
  6 N       -1.5430     1.2340    -0.3970 N.2   1 <1>  -0.3380 
  7 C        0.6060     2.2200     0.4270 C.3   1 <1>   0.0200 
  8 C       -2.9650    -2.9580    -0.5050 C.2   1 <1>   0.5690 
  9 C        0.0200     3.5610    -0.0340 C.3   1 <1>   0.3430 
 10 O       -3.9110    -2.3980    -0.9960 O.2   1 <1>  -0.5700 
 11 C       -3.0170    -4.4760    -0.3370 C.3   1 <1>  -0.0190 
 12 N        0.9610     4.7150     0.1630 N.4   1 <1>  -0.9590 
 13 C       -3.0150    -4.9240     1.1350 C.3   1 <1>  -0.1600 
 14 C       -1.8490    -5.2220    -1.0120 C.3   1 <1>  -0.1600 
 15 C        1.1790     5.0390     1.6100 C.3   1 <1>   0.2630 
 16 C        0.4310     5.9170    -0.5540 C.3   1 <1>   0.2630 
 17 C       -2.2080    -6.2170     1.1640 C.3   1 <1>  -0.1600 
 18 C       -1.1470    -6.0200     0.0880 C.3   1 <1>  -0.1600 
 19 H       -1.1220    -2.9200     0.3040 H     1 <1>   0.3700 
 20 H        1.5180     2.0120    -0.1020 H     1 <1>   0.0800 
 21 H        0.7920     2.2280     1.4840 H     1 <1>   0.0800 
 22 H       -0.9010     3.7440     0.4980 H     1 <1>   0.0800 
 23 H       -0.2270     3.4750    -1.0800 H     1 <1>   0.0800 
 24 H       -3.9310    -4.8220    -0.7890 H     1 <1>   0.0800 
 25 H        1.8700     4.4740    -0.2650 H     1 <1>   0.4500 
 26 H       -4.0160    -5.0710     1.5030 H     1 <1>   0.0800 
 27 H       -2.5280    -4.1930     1.7570 H     1 <1>   0.0800 
 28 H       -1.1630    -4.5630    -1.5160 H     1 <1>   0.0800 
 29 H       -2.2510    -5.9040    -1.7430 H     1 <1>   0.0800 
 30 H        0.2420     5.2820     2.0850 H     1 <1>   0.0800 
 31 H        1.8420     5.8840     1.7070 H     1 <1>   0.0800 
 32 H        1.6200     4.2010     2.1240 H     1 <1>   0.0800 
 33 H       -0.5240     6.2070    -0.1470 H     1 <1>   0.0800 
 34 H        0.3060     5.7030    -1.6040 H     1 <1>   0.0800 
 35 H        1.1140     6.7460    -0.4540 H     1 <1>   0.0800 
 36 H       -2.8440    -7.0440     0.8930 H     1 <1>   0.0800 
 37 H       -1.7760    -6.4070     2.1320 H     1 <1>   0.0800 
 38 H       -0.3310    -5.4450     0.4910 H     1 <1>   0.0800 
 39 H       -0.7660    -6.9600    -0.2770 H     1 <1>   0.0800 
@<TRIPOS>BOND
  1   1   2  1   
  2   1   3  1   
  3   2   4  2   
  4   2   5  1   
  5   3   6  2   
  6   3   7  1   
  7   4   6  1   
  8   5   8  am  
  9   5  19  1   
 10   7   9  1   
 11   7  20  1   
 12   7  21  1   
 13   8  10  2   
 14   8  11  1   
 15   9  12  1   
 16   9  22  1   
 17   9  23  1   
 18  11  13  1   
 19  11  14  1   
 20  11  24  1   
 21  12  15  1   
 22  12  16  1   
 23  12  25  1   
 24  13  17  1   
 25  13  26  1   
 26  13  27  1   
 27  14  18  1   
 28  14  28  1   
 29  14  29  1   
 30  15  30  1   
 31  15  31  1   
 32  15  32  1   
 33  16  33  1   
 34  16  34  1   
 35  16  35  1   
 36  17  18  1   
 37  17  36  1   
 38  17  37  1   
 39  18  38  1   
 40  18  39  1   
@<TRIPOS>SUBSTRUCTURE
  1 ****   2 GROUP 4 **** **** 0

# MOE 2024.06 (io_trps.svl 2023.06)
