@<TRIPOS>MOLECULE
NONAME
51 53 1 0 0 
SMALL
USER_CHARGES


@<TRIPOS>ATOM
  1 O       -2.6430    -2.0800     0.8370 O.3   1 <1>  -0.5600 
  2 C       -1.3640    -2.0310     1.4000 C.3   1 <1>   0.1200 
  3 C       -2.6950    -2.5620    -0.4750 C.3   1 <1>   0.1200 
  4 C       -0.7300    -3.4350     1.4130 C.3   1 <1>   0.3430 
  5 C       -2.1120    -3.9860    -0.5480 C.3   1 <1>   0.3430 
  6 N       -0.7260    -4.0500     0.0410 N.4   1 <1>  -0.9590 
  7 C       -0.2390    -5.4720     0.0950 C.3   1 <1>   0.3430 
  8 C        0.0310    -6.0870    -1.2940 C.3   1 <1>   0.2090 
  9 N       -0.4280    -7.5040    -1.3470 N.pl3 1 <1>  -0.8380 
 10 C       -1.7360    -7.8370    -1.0320 C.ar  1 <1>   0.4100 
 11 C        0.2330    -8.3030    -2.4220 C.3   1 <1>   0.1290 
 12 N       -2.6570    -6.9390    -1.3360 N.ar  1 <1>  -0.6200 
 13 C       -2.0730    -9.0480    -0.4390 C.ar  1 <1>  -0.1440 
 14 C       -3.9040    -7.3020    -1.1130 C.ar  1 <1>   0.4700 
 15 C       -3.4150    -9.2920    -0.2460 C.ar  1 <1>   0.3930 
 16 C       -1.0180   -10.0730    -0.0090 C.3   1 <1>  -0.0970 
 17 N       -4.3480    -8.4180    -0.5840 N.ar  1 <1>  -0.6200 
 18 O       -3.7930   -10.4780     0.2900 O.3   1 <1>  -0.1650 
 19 C       -5.0380   -10.7580     0.7630 C.ar  1 <1>   0.0820 
 20 C       -5.6960   -11.9270     0.3710 C.ar  1 <1>   0.1670 
 21 C       -5.6520    -9.9130     1.6710 C.ar  1 <1>  -0.1500 
 22 N       -6.8910   -12.2900     0.8160 N.ar  1 <1>  -0.6200 
 23 C       -5.0720   -12.8950    -0.6190 C.3   1 <1>  -0.0970 
 24 C       -6.8970   -10.2830     2.1310 C.ar  1 <1>  -0.1500 
 25 C       -7.4620   -11.4630     1.6780 C.ar  1 <1>   0.1600 
 26 H       -1.4650    -1.6610     2.4060 H     1 <1>   0.0800 
 27 H       -0.7640    -1.3350     0.8390 H     1 <1>   0.0800 
 28 H       -2.1540    -1.8860    -1.1150 H     1 <1>   0.0800 
 29 H       -3.7270    -2.5690    -0.7790 H     1 <1>   0.0800 
 30 H       -1.2970    -4.0550     2.0880 H     1 <1>   0.0800 
 31 H        0.2770    -3.3690     1.7920 H     1 <1>   0.0800 
 32 H       -2.0990    -4.3150    -1.5740 H     1 <1>   0.0800 
 33 H       -2.7660    -4.6490    -0.0050 H     1 <1>   0.0800 
 34 H       -0.0990    -3.4940    -0.5550 H     1 <1>   0.4500 
 35 H       -0.9820    -6.0740     0.5930 H     1 <1>   0.0800 
 36 H        0.6690    -5.5270     0.6700 H     1 <1>   0.0800 
 37 H        1.0880    -6.0490    -1.4910 H     1 <1>   0.0800 
 38 H       -0.4770    -5.5380    -2.0680 H     1 <1>   0.0800 
 39 H        1.2120    -8.6120    -2.0990 H     1 <1>   0.0800 
 40 H        0.3250    -7.7150    -3.3200 H     1 <1>   0.0800 
 41 H       -0.3470    -9.1800    -2.6540 H     1 <1>   0.0800 
 42 H       -4.6650    -6.5930    -1.3970 H     1 <1>   0.1500 
 43 H       -0.0780    -9.5970     0.2000 H     1 <1>   0.0800 
 44 H       -0.8740   -10.7990    -0.7890 H     1 <1>   0.0800 
 45 H       -1.3240   -10.5880     0.8840 H     1 <1>   0.0800 
 46 H       -5.1770    -9.0070     2.0010 H     1 <1>   0.1500 
 47 H       -4.2260   -12.4690    -1.1240 H     1 <1>   0.0800 
 48 H       -5.8030   -13.1670    -1.3590 H     1 <1>   0.0800 
 49 H       -4.7610   -13.7820    -0.1000 H     1 <1>   0.0800 
 50 H       -7.4260    -9.6660     2.8330 H     1 <1>   0.1500 
 51 H       -8.4350   -11.7420     2.0450 H     1 <1>   0.1500 
@<TRIPOS>BOND
  1   1   2  1   
  2   1   3  1   
  3   2   4  1   
  4   2  26  1   
  5   2  27  1   
  6   3   5  1   
  7   3  28  1   
  8   3  29  1   
  9   4   6  1   
 10   4  30  1   
 11   4  31  1   
 12   5   6  1   
 13   5  32  1   
 14   5  33  1   
 15   6   7  1   
 16   6  34  1   
 17   7   8  1   
 18   7  35  1   
 19   7  36  1   
 20   8   9  1   
 21   8  37  1   
 22   8  38  1   
 23   9  10  1   
 24   9  11  1   
 25  10  12  ar  
 26  10  13  ar  
 27  11  39  1   
 28  11  40  1   
 29  11  41  1   
 30  12  14  ar  
 31  13  15  ar  
 32  13  16  1   
 33  14  17  ar  
 34  14  42  1   
 35  15  17  ar  
 36  15  18  1   
 37  16  43  1   
 38  16  44  1   
 39  16  45  1   
 40  18  19  1   
 41  19  20  ar  
 42  19  21  ar  
 43  20  22  ar  
 44  20  23  1   
 45  21  24  ar  
 46  21  46  1   
 47  22  25  ar  
 48  23  47  1   
 49  23  48  1   
 50  23  49  1   
 51  24  25  ar  
 52  24  50  1   
 53  25  51  1   
@<TRIPOS>SUBSTRUCTURE
  1 ****  14 GROUP 4 **** **** 0

# MOE 2024.06 (io_trps.svl 2023.06)
