@<TRIPOS>MOLECULE
NONAME
50 52 1 0 0 
SMALL
USER_CHARGES


@<TRIPOS>ATOM
  1 CL      -1.9860    -2.4160     3.8660 Cl    1 <1>  -0.1770 
  2 C       -2.5560    -2.1460     2.2370 C.ar  1 <1>   0.1770 
  3 C       -2.6580    -3.2140     1.3650 C.ar  1 <1>  -0.1500 
  4 C       -2.9050    -0.8660     1.8490 C.ar  1 <1>  -0.1500 
  5 C       -3.1250    -3.0130     0.0740 C.ar  1 <1>  -0.1440 
  6 C       -3.3580    -0.6540     0.5590 C.ar  1 <1>  -0.1500 
  7 C       -3.4590    -1.7190    -0.3250 C.ar  1 <1>   0.0830 
  8 C       -3.2740    -4.2140    -0.8630 C.3   1 <1>   0.2280 
  9 O       -3.8990    -1.4670    -1.5760 O.3   1 <1>  -0.3630 
 10 N       -4.2710    -5.1720    -0.2470 N.3   1 <1>  -0.8100 
 11 C       -1.8890    -4.7780    -1.2960 C.2   1 <1>   0.9060 
 12 C       -2.8890    -1.2960    -2.5490 C.3   1 <1>   0.0400 
 13 C       -4.1820    -6.5020    -0.8730 C.3   1 <1>   0.1100 
 14 C       -5.6320    -4.6250    -0.3010 C.3   1 <1>   0.1100 
 15 O       -1.5370    -4.6070    -2.4730 O.co2 1 <1>  -0.9000 
 16 O       -1.2060    -5.4600    -0.5150 O.co2 1 <1>  -0.9000 
 17 C       -5.1720    -7.4800    -0.2250 C.3   1 <1>   0.3430 
 18 C       -6.6310    -5.5910     0.3580 C.3   1 <1>   0.3430 
 19 N       -6.5920    -6.9660    -0.2670 N.4   1 <1>  -0.9590 
 20 C       -7.5740    -7.9150     0.3370 C.3   1 <1>   0.4230 
 21 C       -7.4950    -9.2790    -0.3660 C.3   1 <1>  -0.1600 
 22 C       -8.9960    -7.3420     0.2360 C.3   1 <1>  -0.1600 
 23 C       -8.6460   -10.1880     0.0660 C.3   1 <1>   0.1200 
 24 C      -10.0400    -8.3890     0.6250 C.3   1 <1>   0.1200 
 25 O       -9.8390    -9.5160    -0.1590 O.3   1 <1>  -0.5600 
 26 H       -2.3730    -4.2030     1.6830 H     1 <1>   0.1500 
 27 H       -2.8180    -0.0540     2.5470 H     1 <1>   0.1500 
 28 H       -3.6330     0.3310     0.2290 H     1 <1>   0.1500 
 29 H       -3.7040    -3.8730    -1.7850 H     1 <1>   0.0800 
 30 H       -3.3590    -1.1450    -3.5030 H     1 <1>   0.0800 
 31 H       -2.2700    -2.1760    -2.5840 H     1 <1>   0.0800 
 32 H       -2.2940    -0.4400    -2.2870 H     1 <1>   0.0800 
 33 H       -3.1920    -6.9040    -0.7310 H     1 <1>   0.0800 
 34 H       -4.3590    -6.4300    -1.9330 H     1 <1>   0.0800 
 35 H       -5.9160    -4.4380    -1.3230 H     1 <1>   0.0800 
 36 H       -5.6600    -3.6870     0.2270 H     1 <1>   0.0800 
 37 H       -4.8680    -7.6310     0.7980 H     1 <1>   0.0800 
 38 H       -5.0980    -8.4230    -0.7380 H     1 <1>   0.0800 
 39 H       -7.6170    -5.1690     0.2700 H     1 <1>   0.0800 
 40 H       -6.3870    -5.6610     1.4050 H     1 <1>   0.0800 
 41 H       -6.8310    -6.8500    -1.2580 H     1 <1>   0.4500 
 42 H       -7.3390    -8.0570     1.3800 H     1 <1>   0.0800 
 43 H       -6.5770    -9.7810    -0.1240 H     1 <1>   0.0800 
 44 H       -7.5530    -9.1550    -1.4330 H     1 <1>   0.0800 
 45 H       -9.2030    -7.0270    -0.7720 H     1 <1>   0.0800 
 46 H       -9.1170    -6.5030     0.8940 H     1 <1>   0.0800 
 47 H       -8.5860   -10.4530     1.1090 H     1 <1>   0.0800 
 48 H       -8.6620   -11.0900    -0.5220 H     1 <1>   0.0800 
 49 H      -11.0350    -8.0270     0.4290 H     1 <1>   0.0800 
 50 H       -9.9690    -8.6690     1.6630 H     1 <1>   0.0800 
@<TRIPOS>BOND
  1   1   2  1   
  2   2   3  ar  
  3   2   4  ar  
  4   3   5  ar  
  5   3  26  1   
  6   4   6  ar  
  7   4  27  1   
  8   5   7  ar  
  9   5   8  1   
 10   6   7  ar  
 11   6  28  1   
 12   7   9  1   
 13   8  10  1   
 14   8  11  1   
 15   8  29  1   
 16   9  12  1   
 17  10  13  1   
 18  10  14  1   
 19  11  15  ar  
 20  11  16  ar  
 21  12  30  1   
 22  12  31  1   
 23  12  32  1   
 24  13  17  1   
 25  13  33  1   
 26  13  34  1   
 27  14  18  1   
 28  14  35  1   
 29  14  36  1   
 30  17  19  1   
 31  17  37  1   
 32  17  38  1   
 33  18  19  1   
 34  18  39  1   
 35  18  40  1   
 36  19  20  1   
 37  19  41  1   
 38  20  21  1   
 39  20  22  1   
 40  20  42  1   
 41  21  23  1   
 42  21  43  1   
 43  21  44  1   
 44  22  24  1   
 45  22  45  1   
 46  22  46  1   
 47  23  25  1   
 48  23  47  1   
 49  23  48  1   
 50  24  25  1   
 51  24  49  1   
 52  24  50  1   
@<TRIPOS>SUBSTRUCTURE
  1 ****  10 GROUP 4 **** **** 0

# MOE 2024.06 (io_trps.svl 2023.06)
