@<TRIPOS>MOLECULE
NONAME
43 44 1 0 0 
SMALL
USER_CHARGES


@<TRIPOS>ATOM
  1 CL       0.8010     0.1120    -1.3310 Cl    1 <1>  -0.1770 
  2 C        1.5710    -1.0880    -0.3080 C.ar  1 <1>   0.1770 
  3 C        1.2690    -2.4380    -0.4390 C.ar  1 <1>   0.4100 
  4 C        2.4840    -0.7150     0.6370 C.ar  1 <1>   0.1600 
  5 N        1.8560    -3.3350     0.3370 N.ar  1 <1>  -0.6200 
  6 N        0.3520    -2.8930    -1.3640 N.pl3 1 <1>  -0.8690 
  7 N        3.0790    -1.6040     1.4160 N.ar  1 <1>  -0.6200 
  8 C        2.7280    -2.8630     1.2140 C.ar  1 <1>   0.4770 
  9 C        0.2040    -4.3060    -1.7540 C.3   1 <1>   0.2090 
 10 C        3.4060    -3.8810     2.0990 C.3   1 <1>  -0.0970 
 11 C       -0.8270    -4.9420    -0.8230 C.3   1 <1>  -0.1600 
 12 C       -0.8490    -6.4560    -1.0020 C.3   1 <1>   0.3430 
 13 N       -1.6820    -7.0910     0.0610 N.4   1 <1>  -0.9590 
 14 C       -1.3650    -8.5490     0.1750 C.3   1 <1>   0.4230 
 15 C       -3.1440    -6.7840    -0.1030 C.3   1 <1>   0.2630 
 16 C       -1.8450    -9.3620    -1.0390 C.3   1 <1>  -0.1600 
 17 C       -2.0550    -9.1710     1.3920 C.3   1 <1>  -0.1600 
 18 C       -2.8710   -10.3830    -0.5320 C.3   1 <1>  -0.1600 
 19 C       -3.2770    -9.9230     0.8640 C.3   1 <1>  -0.1600 
 20 H        2.7370     0.3230     0.7620 H     1 <1>   0.1500 
 21 H       -0.0030    -2.1980    -2.0320 H     1 <1>   0.4000 
 22 H        1.1570    -4.8030    -1.6630 H     1 <1>   0.0800 
 23 H       -0.1160    -4.3670    -2.7810 H     1 <1>   0.0800 
 24 H        3.3870    -4.8510     1.6390 H     1 <1>   0.0800 
 25 H        2.8980    -3.9250     3.0430 H     1 <1>   0.0800 
 26 H        4.4290    -3.5960     2.2650 H     1 <1>   0.0800 
 27 H       -1.7890    -4.5160    -1.0380 H     1 <1>   0.0800 
 28 H       -0.5530    -4.7130     0.1920 H     1 <1>   0.0800 
 29 H        0.1620    -6.8250    -0.9280 H     1 <1>   0.0800 
 30 H       -1.2300    -6.7100    -1.9780 H     1 <1>   0.0800 
 31 H       -1.3830    -6.6700     0.9520 H     1 <1>   0.4500 
 32 H       -0.2990    -8.6680     0.2870 H     1 <1>   0.0800 
 33 H       -3.5210    -7.2130    -1.0160 H     1 <1>   0.0800 
 34 H       -3.3060    -5.7200    -0.1290 H     1 <1>   0.0800 
 35 H       -3.7050    -7.1880     0.7240 H     1 <1>   0.0800 
 36 H       -1.0120    -9.8880    -1.4730 H     1 <1>   0.0800 
 37 H       -2.2840    -8.7460    -1.8020 H     1 <1>   0.0800 
 38 H       -2.3080    -8.4570     2.1560 H     1 <1>   0.0800 
 39 H       -1.3820    -9.8940     1.8190 H     1 <1>   0.0800 
 40 H       -2.4040   -11.3530    -0.4610 H     1 <1>   0.0800 
 41 H       -3.7220   -10.4640    -1.1880 H     1 <1>   0.0800 
 42 H       -4.1280    -9.2680     0.7990 H     1 <1>   0.0800 
 43 H       -3.5380   -10.7560     1.4970 H     1 <1>   0.0800 
@<TRIPOS>BOND
  1   1   2  1   
  2   2   3  ar  
  3   2   4  ar  
  4   3   5  ar  
  5   3   6  1   
  6   4   7  ar  
  7   4  20  1   
  8   5   8  ar  
  9   6   9  1   
 10   6  21  1   
 11   7   8  ar  
 12   8  10  1   
 13   9  11  1   
 14   9  22  1   
 15   9  23  1   
 16  10  24  1   
 17  10  25  1   
 18  10  26  1   
 19  11  12  1   
 20  11  27  1   
 21  11  28  1   
 22  12  13  1   
 23  12  29  1   
 24  12  30  1   
 25  13  14  1   
 26  13  15  1   
 27  13  31  1   
 28  14  16  1   
 29  14  17  1   
 30  14  32  1   
 31  15  33  1   
 32  15  34  1   
 33  15  35  1   
 34  16  18  1   
 35  16  36  1   
 36  16  37  1   
 37  17  19  1   
 38  17  38  1   
 39  17  39  1   
 40  18  19  1   
 41  18  40  1   
 42  18  41  1   
 43  19  42  1   
 44  19  43  1   
@<TRIPOS>SUBSTRUCTURE
  1 ****  11 GROUP 4 **** **** 0

# MOE 2024.06 (io_trps.svl 2023.06)
