@<TRIPOS>MOLECULE
NONAME
50 52 1 0 0 
SMALL
USER_CHARGES


@<TRIPOS>ATOM
  1 CL      -2.8200     0.7680     3.7110 Cl    1 <1>  -0.1770 
  2 C       -3.5020     1.4790     2.2670 C.ar  1 <1>   0.1770 
  3 C       -3.9050     0.6770     1.2140 C.ar  1 <1>  -0.1440 
  4 C       -3.6280     2.8510     2.2060 C.ar  1 <1>  -0.1500 
  5 C       -4.4420     1.2910     0.0940 C.ar  1 <1>  -0.1500 
  6 C       -3.7680    -0.8370     1.2750 C.3   1 <1>  -0.0960 
  7 C       -4.1650     3.4550     1.0790 C.ar  1 <1>  -0.1430 
  8 C       -4.5880     2.6740    -0.0030 C.ar  1 <1>  -0.0090 
  9 C       -4.2790     4.9750     1.0740 C.3   1 <1>  -0.0960 
 10 S       -5.3210     3.3700    -1.5230 S.o2  1 <1>   1.4470 
 11 O       -5.9170     2.3120    -2.3130 O.2   1 <1>  -0.6500 
 12 O       -4.3710     4.2540    -2.1640 O.2   1 <1>  -0.6500 
 13 N       -6.6080     4.3290    -0.9800 N.am  1 <1>  -0.8490 
 14 C       -7.6250     3.5440    -0.2470 C.3   1 <1>   0.1960 
 15 C       -7.1980     5.1200    -2.0530 C.3   1 <1>   0.1960 
 16 C       -8.9330     4.3370     0.0650 C.3   1 <1>   0.0000 
 17 C       -8.1260     6.2000    -1.4720 C.3   1 <1>  -0.1600 
 18 C       -9.5060     3.9910     1.4520 C.3   1 <1>   0.2000 
 19 C       -8.6930     5.8530    -0.0820 C.3   1 <1>  -0.1600 
 20 C      -10.0690     3.8490    -0.8540 C.3   1 <1>  -0.1600 
 21 O       -8.5120     3.9250     2.4300 O.3   1 <1>  -0.5600 
 22 C      -10.2080     2.6430     1.2780 C.3   1 <1>  -0.1600 
 23 C      -10.6210     2.5780    -0.1990 C.3   1 <1>  -0.1600 
 24 C       -8.9730     3.9360     3.7440 C.3   1 <1>   0.0400 
 25 H       -3.3040     3.4380     3.0470 H     1 <1>   0.1500 
 26 H       -4.7600     0.6790    -0.7350 H     1 <1>   0.1500 
 27 H       -4.1270    -1.2960     0.3720 H     1 <1>   0.0800 
 28 H       -4.3350    -1.2230     2.1030 H     1 <1>   0.0800 
 29 H       -2.7350    -1.1060     1.4070 H     1 <1>   0.0800 
 30 H       -3.7060     5.4080     1.8740 H     1 <1>   0.0800 
 31 H       -5.3060     5.2680     1.2010 H     1 <1>   0.0800 
 32 H       -3.9120     5.3850     0.1500 H     1 <1>   0.0800 
 33 H       -7.8760     2.6600    -0.8090 H     1 <1>   0.0800 
 34 H       -7.1720     3.2060     0.6670 H     1 <1>   0.0800 
 35 H       -6.4250     5.6020    -2.6290 H     1 <1>   0.0800 
 36 H       -7.7440     4.4700    -2.7160 H     1 <1>   0.0800 
 37 H       -7.5820     7.1250    -1.4020 H     1 <1>   0.0800 
 38 H       -8.9320     6.3590    -2.1660 H     1 <1>   0.0800 
 39 H      -10.2240     4.7440     1.7340 H     1 <1>   0.0800 
 40 H       -9.5940     6.4110     0.0990 H     1 <1>   0.0800 
 41 H       -7.9730     6.1460     0.6630 H     1 <1>   0.0800 
 42 H      -10.8520     4.5880    -0.8830 H     1 <1>   0.0800 
 43 H       -9.7430     3.6640    -1.8630 H     1 <1>   0.0800 
 44 H       -9.5230     1.8410     1.4960 H     1 <1>   0.0800 
 45 H      -11.0660     2.5720     1.9220 H     1 <1>   0.0800 
 46 H      -10.1880     1.7050    -0.6580 H     1 <1>   0.0800 
 47 H      -11.6910     2.5290    -0.3050 H     1 <1>   0.0800 
 48 H       -8.1190     3.9000     4.3960 H     1 <1>   0.0800 
 49 H       -9.5940     3.0750     3.9150 H     1 <1>   0.0800 
 50 H       -9.5240     4.8440     3.9190 H     1 <1>   0.0800 
@<TRIPOS>BOND
  1   1   2  1   
  2   2   3  ar  
  3   2   4  ar  
  4   3   5  ar  
  5   3   6  1   
  6   4   7  ar  
  7   4  25  1   
  8   5   8  ar  
  9   5  26  1   
 10   6  27  1   
 11   6  28  1   
 12   6  29  1   
 13   7   8  ar  
 14   7   9  1   
 15   8  10  1   
 16   9  30  1   
 17   9  31  1   
 18   9  32  1   
 19  10  11  2   
 20  10  12  2   
 21  10  13  am  
 22  13  14  1   
 23  13  15  1   
 24  14  16  1   
 25  14  33  1   
 26  14  34  1   
 27  15  17  1   
 28  15  35  1   
 29  15  36  1   
 30  16  18  1   
 31  16  19  1   
 32  16  20  1   
 33  17  19  1   
 34  17  37  1   
 35  17  38  1   
 36  18  21  1   
 37  18  22  1   
 38  18  39  1   
 39  19  40  1   
 40  19  41  1   
 41  20  23  1   
 42  20  42  1   
 43  20  43  1   
 44  21  24  1   
 45  22  23  1   
 46  22  44  1   
 47  22  45  1   
 48  23  46  1   
 49  23  47  1   
 50  24  48  1   
 51  24  49  1   
 52  24  50  1   
@<TRIPOS>SUBSTRUCTURE
  1 ****  14 GROUP 4 **** **** 0

# MOE 2024.06 (io_trps.svl 2023.06)
