@<TRIPOS>MOLECULE
NONAME
47 49 1 0 0 
SMALL
USER_CHARGES


@<TRIPOS>ATOM
  1 F       -1.4010    -3.3270     2.4170 F     1 <1>  -0.1900 
  2 C       -2.4190    -3.0430     1.6520 C.ar  1 <1>   0.1900 
  3 C       -2.8540    -1.7420     1.5750 C.ar  1 <1>  -0.1500 
  4 C       -3.0220    -4.0670     0.9410 C.ar  1 <1>  -0.1500 
  5 C       -3.9390    -1.4400     0.7580 C.ar  1 <1>   0.1170 
  6 C       -4.0950    -3.7670     0.1290 C.ar  1 <1>  -0.1500 
  7 N       -4.3930    -0.1320     0.6540 N.am  1 <1>  -0.5470 
  8 C       -4.5860    -2.4560     0.0210 C.ar  1 <1>   0.0280 
  9 C       -5.4330     0.2310    -0.1390 C.2   1 <1>   0.6160 
 10 C       -5.7130    -2.0940    -0.8100 C.2   1 <1>  -0.0140 
 11 O       -5.7600     1.4020    -0.1720 O.2   1 <1>  -0.5700 
 12 C       -6.0880    -0.7850    -0.8770 C.2   1 <1>  -0.1360 
 13 C       -6.4270    -3.0960    -1.5680 C.2   1 <1>   0.6160 
 14 O       -6.3780    -3.0550    -2.7820 O.2   1 <1>  -0.5700 
 15 N       -7.1760    -4.0720    -0.9540 N.am  1 <1>  -0.6600 
 16 C       -7.7840    -5.1910    -1.7570 C.3   1 <1>   0.1400 
 17 C       -7.4450    -4.0900     0.5230 C.3   1 <1>   0.1400 
 18 C       -8.0040    -6.4210    -0.8690 C.3   1 <1>   0.2000 
 19 C       -8.8340    -4.6730     0.7900 C.3   1 <1>  -0.1600 
 20 O       -8.4360    -7.5100    -1.6070 O.3   1 <1>  -0.6800 
 21 C       -8.9490    -6.1630     0.3350 C.3   1 <1>  -0.1060 
 22 C       -8.3990    -7.1260     1.4010 C.2   1 <1>   0.9060 
 23 C      -10.4600    -6.4930     0.0920 C.3   1 <1>  -0.1600 
 24 O       -7.8430    -6.6850     2.4140 O.co2 1 <1>  -0.9000 
 25 O       -8.4620    -8.3430     1.1720 O.co2 1 <1>  -0.9000 
 26 C      -11.1420    -5.8210    -1.1160 C.3   1 <1>  -0.1600 
 27 C      -12.6210    -6.2130    -1.1910 C.3   1 <1>  -0.2400 
 28 H       -2.3580    -0.9740     2.1390 H     1 <1>   0.1500 
 29 H       -2.6520    -5.0730     1.0310 H     1 <1>   0.1500 
 30 H       -4.5590    -4.5650    -0.4260 H     1 <1>   0.1500 
 31 H       -3.9490     0.6320     1.1640 H     1 <1>   0.3700 
 32 H       -6.9050    -0.4660    -1.4960 H     1 <1>   0.1500 
 33 H       -8.7200    -4.8590    -2.1650 H     1 <1>   0.0800 
 34 H       -7.1250    -5.4540    -2.5650 H     1 <1>   0.0800 
 35 H       -6.7030    -4.6930     1.0220 H     1 <1>   0.0800 
 36 H       -7.3980    -3.0930     0.9240 H     1 <1>   0.0800 
 37 H       -7.0300    -6.6960    -0.4960 H     1 <1>   0.0800 
 38 H       -9.0560    -4.5970     1.8400 H     1 <1>   0.0800 
 39 H       -9.5420    -4.0470     0.2830 H     1 <1>   0.0800 
 40 H       -8.5780    -8.2330    -0.9450 H     1 <1>   0.4000 
 41 H      -10.5640    -7.5580    -0.0280 H     1 <1>   0.0800 
 42 H      -11.0010    -6.2390     0.9870 H     1 <1>   0.0800 
 43 H      -11.0740    -4.7510    -1.0550 H     1 <1>   0.0800 
 44 H      -10.6600    -6.1350    -2.0240 H     1 <1>   0.0800 
 45 H      -13.1380    -5.8960    -0.3030 H     1 <1>   0.0800 
 46 H      -12.7170    -7.2800    -1.2860 H     1 <1>   0.0800 
 47 H      -13.0820    -5.7490    -2.0440 H     1 <1>   0.0800 
@<TRIPOS>BOND
  1   1   2  1   
  2   2   3  ar  
  3   2   4  ar  
  4   3   5  ar  
  5   3  28  1   
  6   4   6  ar  
  7   4  29  1   
  8   5   7  1   
  9   5   8  ar  
 10   6   8  ar  
 11   6  30  1   
 12   7   9  am  
 13   7  31  1   
 14   8  10  1   
 15   9  11  2   
 16   9  12  1   
 17  10  12  2   
 18  10  13  1   
 19  12  32  1   
 20  13  14  2   
 21  13  15  am  
 22  15  16  1   
 23  15  17  1   
 24  16  18  1   
 25  16  33  1   
 26  16  34  1   
 27  17  19  1   
 28  17  35  1   
 29  17  36  1   
 30  18  20  1   
 31  18  21  1   
 32  18  37  1   
 33  19  21  1   
 34  19  38  1   
 35  19  39  1   
 36  20  40  1   
 37  21  22  1   
 38  21  23  1   
 39  22  24  ar  
 40  22  25  ar  
 41  23  26  1   
 42  23  41  1   
 43  23  42  1   
 44  26  27  1   
 45  26  43  1   
 46  26  44  1   
 47  27  45  1   
 48  27  46  1   
 49  27  47  1   
@<TRIPOS>SUBSTRUCTURE
  1 ****  17 GROUP 4 **** **** 0

# MOE 2024.06 (io_trps.svl 2023.06)
