@<TRIPOS>MOLECULE
NONAME
48 52 1 0 0 
SMALL
USER_CHARGES


@<TRIPOS>ATOM
  1 CL      -2.2560    -1.5500     1.6950 Cl    1 <1>  -0.1770 
  2 C       -2.6610     0.0130     1.0170 C.ar  1 <1>   0.1770 
  3 C       -3.0950     0.1170    -0.3080 C.ar  1 <1>  -0.1440 
  4 C       -2.5380     1.1210     1.8410 C.ar  1 <1>  -0.1500 
  5 C       -3.4070     1.3730    -0.8230 C.ar  1 <1>  -0.1500 
  6 C       -3.2360    -1.1160    -1.1840 C.3   1 <1>   0.2540 
  7 C       -2.8630     2.3480     1.3010 C.ar  1 <1>   0.0830 
  8 C       -3.2840     2.4690     0.0080 C.ar  1 <1>   0.0830 
  9 N       -4.3710    -1.9300    -0.7170 N.3   1 <1>  -0.8100 
 10 O       -2.8330     3.5470     1.8890 O.3   1 <1>  -0.3630 
 11 O       -3.5370     3.7500    -0.2750 O.3   1 <1>  -0.3630 
 12 C       -5.6920    -1.2790    -0.8770 C.3   1 <1>   0.1100 
 13 C       -4.3750    -3.2920    -1.2920 C.3   1 <1>   0.1100 
 14 C       -3.2480     4.4950     0.9080 C.3   1 <1>   0.4000 
 15 C       -6.8100    -2.0750    -0.1530 C.3   1 <1>   0.4230 
 16 C       -5.5640    -4.1380    -0.7730 C.3   1 <1>   0.3430 
 17 N       -6.3140    -3.4230     0.3170 N.4   1 <1>  -0.9590 
 18 C       -8.0710    -2.2230    -1.0340 C.3   1 <1>   0.1200 
 19 C       -7.4190    -4.2010     0.9570 C.3   1 <1>   0.5180 
 20 O       -9.0500    -2.9740    -0.3720 O.3   1 <1>  -0.5600 
 21 C       -6.8860    -5.5760     1.4070 C.3   1 <1>  -0.1950 
 22 C       -8.6540    -4.2620     0.0230 C.3   1 <1>   0.1200 
 23 C       -6.8490    -6.8060     0.5470 C.3   1 <1>  -0.2000 
 24 C       -7.7850    -6.7350     1.7210 C.3   1 <1>  -0.2000 
 25 H       -2.2040     1.0320     2.8580 H     1 <1>   0.1500 
 26 H       -3.7380     1.5120    -1.8370 H     1 <1>   0.1500 
 27 H       -2.3260    -1.6900    -1.1190 H     1 <1>   0.0800 
 28 H       -3.3790    -0.8360    -2.2140 H     1 <1>   0.0800 
 29 H       -5.6690    -0.2860    -0.4600 H     1 <1>   0.0800 
 30 H       -5.9190    -1.1800    -1.9260 H     1 <1>   0.0800 
 31 H       -4.4160    -3.2410    -2.3670 H     1 <1>   0.0800 
 32 H       -3.4570    -3.7880    -1.0240 H     1 <1>   0.0800 
 33 H       -4.1370     4.9990     1.2440 H     1 <1>   0.0800 
 34 H       -2.4480     5.1870     0.7120 H     1 <1>   0.0800 
 35 H       -7.0990    -1.4990     0.7100 H     1 <1>   0.0800 
 36 H       -5.1810    -5.0770    -0.4080 H     1 <1>   0.0800 
 37 H       -6.2280    -4.3550    -1.5930 H     1 <1>   0.0800 
 38 H       -5.5930    -3.2000     1.0170 H     1 <1>   0.4500 
 39 H       -7.8420    -2.7030    -1.9690 H     1 <1>   0.0800 
 40 H       -8.4920    -1.2550    -1.2410 H     1 <1>   0.0800 
 41 H       -7.7330    -3.6760     1.8450 H     1 <1>   0.0800 
 42 H       -6.0780    -5.4480     2.1070 H     1 <1>   0.1000 
 43 H       -9.4860    -4.7060     0.5400 H     1 <1>   0.0800 
 44 H       -8.4510    -4.8430    -0.8590 H     1 <1>   0.0800 
 45 H       -7.2950    -6.8300    -0.4320 H     1 <1>   0.1000 
 46 H       -6.0060    -7.4740     0.6210 H     1 <1>   0.1000 
 47 H       -7.5660    -7.3430     2.5830 H     1 <1>   0.1000 
 48 H       -8.8420    -6.7000     1.5170 H     1 <1>   0.1000 
@<TRIPOS>BOND
  1   1   2  1   
  2   2   3  ar  
  3   2   4  ar  
  4   3   5  ar  
  5   3   6  1   
  6   4   7  ar  
  7   4  25  1   
  8   5   8  ar  
  9   5  26  1   
 10   6   9  1   
 11   6  27  1   
 12   6  28  1   
 13   7   8  ar  
 14   7  10  1   
 15   8  11  1   
 16   9  12  1   
 17   9  13  1   
 18  10  14  1   
 19  11  14  1   
 20  12  15  1   
 21  12  29  1   
 22  12  30  1   
 23  13  16  1   
 24  13  31  1   
 25  13  32  1   
 26  14  33  1   
 27  14  34  1   
 28  15  17  1   
 29  15  18  1   
 30  15  35  1   
 31  16  17  1   
 32  16  36  1   
 33  16  37  1   
 34  17  19  1   
 35  17  38  1   
 36  18  20  1   
 37  18  39  1   
 38  18  40  1   
 39  19  21  1   
 40  19  22  1   
 41  19  41  1   
 42  20  22  1   
 43  21  23  1   
 44  21  24  1   
 45  21  42  1   
 46  22  43  1   
 47  22  44  1   
 48  23  24  1   
 49  23  45  1   
 50  23  46  1   
 51  24  47  1   
 52  24  48  1   
@<TRIPOS>SUBSTRUCTURE
  1 ****  12 GROUP 4 **** **** 0

# MOE 2024.06 (io_trps.svl 2023.06)
