@<TRIPOS>MOLECULE
NONAME
46 47 1 0 0 
SMALL
USER_CHARGES


@<TRIPOS>ATOM
  1 O        0.1750    -0.2470     1.1320 O.2   1 <1>  -0.5700 
  2 C        0.9680    -0.6070     0.2790 C.2   1 <1>   0.7160 
  3 N        1.8430     0.2880    -0.2880 N.am  1 <1>  -0.4940 
  4 C        1.0180    -1.9880    -0.1570 C.2   1 <1>   0.2030 
  5 C        2.1480     1.6430    -0.0120 C.2   1 <1>  -0.0880 
  6 N        1.8310    -2.4750    -1.0470 N.2   1 <1>  -0.4100 
  7 C        0.2100    -3.0160     0.3020 C.2   1 <1>  -0.1500 
  8 N        1.3030     2.6320     0.4000 N.pl3 1 <1>   0.3140 
  9 C        3.3710     2.2150    -0.1270 C.2   1 <1>  -0.1810 
 10 O        1.6110    -3.7570    -1.2070 O.3   1 <1>  -0.0190 
 11 C        0.6280    -4.0790    -0.3920 C.2   1 <1>  -0.0400 
 12 N        1.9570     3.8030     0.5520 N.2   1 <1>  -0.7070 
 13 C       -0.1530     2.5880     0.5850 C.3   1 <1>   0.0160 
 14 C        3.1870     3.5450     0.2420 C.2   1 <1>   0.1080 
 15 C        4.6710     1.5530    -0.5560 C.3   1 <1>   0.0210 
 16 C        0.1760    -5.5330    -0.3790 C.3   1 <1>   0.0200 
 17 C        4.2620     4.6170     0.2920 C.3   1 <1>   0.0210 
 18 C        5.3880     0.9550     0.6550 C.3   1 <1>  -0.2400 
 19 C       -1.1310    -5.7850     0.3990 C.3   1 <1>  -0.0800 
 20 C        4.3950     5.3320    -1.0560 C.3   1 <1>  -0.2400 
 21 C       -1.3670    -7.2920     0.5660 C.3   1 <1>  -0.2400 
 22 C       -2.3440    -5.1590    -0.3090 C.3   1 <1>  -0.2400 
 23 H        2.4940    -0.1750    -0.9260 H     1 <1>   0.3700 
 24 H       -0.5580    -2.9190     1.0480 H     1 <1>   0.1500 
 25 H       -0.5870     1.9320    -0.1440 H     1 <1>   0.0800 
 26 H       -0.5520     3.5780     0.4630 H     1 <1>   0.0800 
 27 H       -0.3670     2.2340     1.5750 H     1 <1>   0.0800 
 28 H        5.3070     2.2750    -1.0390 H     1 <1>   0.0800 
 29 H        4.4630     0.7770    -1.2700 H     1 <1>   0.0800 
 30 H        0.9680    -6.1160     0.0560 H     1 <1>   0.0800 
 31 H        0.0520    -5.8650    -1.3940 H     1 <1>   0.0800 
 32 H        5.2010     4.1750     0.5700 H     1 <1>   0.0800 
 33 H        3.9970     5.3310     1.0520 H     1 <1>   0.0800 
 34 H        5.6120     1.7240     1.3720 H     1 <1>   0.0800 
 35 H        6.3060     0.4860     0.3490 H     1 <1>   0.0800 
 36 H        4.7620     0.2190     1.1270 H     1 <1>   0.0800 
 37 H       -1.0390    -5.3540     1.3820 H     1 <1>   0.0800 
 38 H        4.6630     4.6310    -1.8260 H     1 <1>   0.0800 
 39 H        5.1480     6.0960    -0.9990 H     1 <1>   0.0800 
 40 H        3.4550     5.7870    -1.3170 H     1 <1>   0.0800 
 41 H       -1.4630    -7.7710    -0.3930 H     1 <1>   0.0800 
 42 H       -2.2680    -7.4690     1.1270 H     1 <1>   0.0800 
 43 H       -0.5490    -7.7440     1.0970 H     1 <1>   0.0800 
 44 H       -2.4740    -5.5880    -1.2870 H     1 <1>   0.0800 
 45 H       -2.2250    -4.0970    -0.4180 H     1 <1>   0.0800 
 46 H       -3.2390    -5.3370     0.2610 H     1 <1>   0.0800 
@<TRIPOS>BOND
  1   1   2  2   
  2   2   3  am  
  3   2   4  1   
  4   3   5  1   
  5   3  23  1   
  6   4   6  2   
  7   4   7  1   
  8   5   8  1   
  9   5   9  2   
 10   6  10  1   
 11   7  11  2   
 12   7  24  1   
 13   8  12  1   
 14   8  13  1   
 15   9  14  1   
 16   9  15  1   
 17  10  11  1   
 18  11  16  1   
 19  12  14  2   
 20  13  25  1   
 21  13  26  1   
 22  13  27  1   
 23  14  17  1   
 24  15  18  1   
 25  15  28  1   
 26  15  29  1   
 27  16  19  1   
 28  16  30  1   
 29  16  31  1   
 30  17  20  1   
 31  17  32  1   
 32  17  33  1   
 33  18  34  1   
 34  18  35  1   
 35  18  36  1   
 36  19  21  1   
 37  19  22  1   
 38  19  37  1   
 39  20  38  1   
 40  20  39  1   
 41  20  40  1   
 42  21  41  1   
 43  21  42  1   
 44  21  43  1   
 45  22  44  1   
 46  22  45  1   
 47  22  46  1   
@<TRIPOS>SUBSTRUCTURE
  1 ****   2 GROUP 4 **** **** 0

# MOE 2024.06 (io_trps.svl 2023.06)
