@<TRIPOS>MOLECULE
NONAME
50 53 1 0 0 
SMALL
USER_CHARGES


@<TRIPOS>ATOM
  1 O       -1.6630     0.2450     2.0390 O.2   1 <1>  -0.5700 
  2 C       -2.0450     0.8300     1.0380 C.2   1 <1>   0.7150 
  3 N       -2.7980     0.1340     0.1180 N.am  1 <1>  -0.6600 
  4 C       -1.6260     2.1920     0.8060 C.2   1 <1>   0.1020 
  5 C       -2.6160    -1.3510     0.0270 C.3   1 <1>   0.3640 
  6 C       -3.7530     0.8210    -0.8040 C.3   1 <1>   0.1400 
  7 N       -2.3880     3.2280     0.5670 N.2   1 <1>  -0.3380 
  8 N       -0.3320     2.5610     0.7860 N.pl3 1 <1>   0.0480 
  9 C       -1.1810    -1.6180    -0.4420 C.ar  1 <1>  -0.1440 
 10 C       -3.6240    -2.1040    -0.8930 C.3   1 <1>   0.2000 
 11 C       -4.3600    -0.1070    -1.8620 C.3   1 <1>   0.1200 
 12 N       -1.5980     4.2760     0.3880 N.2   1 <1>  -0.3380 
 13 C       -0.3840     3.8630     0.5220 C.2   1 <1>   0.0060 
 14 C        0.8740     1.7140     0.9580 C.3   1 <1>   0.0960 
 15 C       -0.6780    -1.0360    -1.6000 C.ar  1 <1>  -0.1500 
 16 C       -0.3560    -2.4460     0.3050 C.ar  1 <1>  -0.1500 
 17 O       -4.7200    -1.3200    -1.2820 O.3   1 <1>  -0.5600 
 18 C       -4.1920    -3.3610    -0.2200 C.3   1 <1>   0.1200 
 19 C        0.8330     4.7590     0.3870 C.3   1 <1>   0.0200 
 20 C        1.7820     1.7600    -0.2790 C.3   1 <1>  -0.1600 
 21 C        0.6230    -1.2830    -2.0050 C.ar  1 <1>  -0.1500 
 22 C        0.9450    -2.6920    -0.0970 C.ar  1 <1>  -0.1500 
 23 O       -3.1720    -4.2330     0.1530 O.3   1 <1>  -0.6800 
 24 C        1.7630     4.3070    -0.7470 C.3   1 <1>  -0.1600 
 25 C        2.5950     3.0570    -0.4170 C.3   1 <1>  -0.1600 
 26 C        1.4360    -2.1110    -1.2530 C.ar  1 <1>  -0.1500 
 27 H       -2.7240    -1.7500     1.0220 H     1 <1>   0.0800 
 28 H       -4.5510     1.2420    -0.2160 H     1 <1>   0.0800 
 29 H       -3.2580     1.6330    -1.3070 H     1 <1>   0.0800 
 30 H       -3.1250    -2.4060    -1.7970 H     1 <1>   0.0800 
 31 H       -3.6650    -0.2920    -2.6620 H     1 <1>   0.0800 
 32 H       -5.2480     0.3390    -2.2750 H     1 <1>   0.0800 
 33 H        1.4090     2.0440     1.8300 H     1 <1>   0.0800 
 34 H        0.5740     0.6950     1.1210 H     1 <1>   0.0800 
 35 H       -1.2950    -0.3830    -2.1900 H     1 <1>   0.1500 
 36 H       -0.7260    -2.9020     1.2080 H     1 <1>   0.1500 
 37 H       -4.8500    -3.8830    -0.8920 H     1 <1>   0.0800 
 38 H       -4.7310    -3.0900     0.6720 H     1 <1>   0.0800 
 39 H        0.4900     5.7570     0.1760 H     1 <1>   0.0800 
 40 H        1.3650     4.7910     1.3210 H     1 <1>   0.0800 
 41 H        2.4780     0.9430    -0.1980 H     1 <1>   0.0800 
 42 H        1.1960     1.5860    -1.1660 H     1 <1>   0.0800 
 43 H        1.0020    -0.8300    -2.9040 H     1 <1>   0.1500 
 44 H        1.5750    -3.3370     0.4910 H     1 <1>   0.1500 
 45 H       -2.7040    -4.5850    -0.6310 H     1 <1>   0.4000 
 46 H        1.1830     4.1380    -1.6390 H     1 <1>   0.0800 
 47 H        2.4440     5.1140    -0.9580 H     1 <1>   0.0800 
 48 H        3.1630     3.2270     0.4820 H     1 <1>   0.0800 
 49 H        3.3060     2.9160    -1.2140 H     1 <1>   0.0800 
 50 H        2.4470    -2.3050    -1.5660 H     1 <1>   0.1500 
@<TRIPOS>BOND
  1   1   2  2   
  2   2   3  am  
  3   2   4  1   
  4   3   5  1   
  5   3   6  1   
  6   4   7  2   
  7   4   8  1   
  8   5   9  1   
  9   5  10  1   
 10   5  27  1   
 11   6  11  1   
 12   6  28  1   
 13   6  29  1   
 14   7  12  1   
 15   8  13  1   
 16   8  14  1   
 17   9  15  ar  
 18   9  16  ar  
 19  10  17  1   
 20  10  18  1   
 21  10  30  1   
 22  11  17  1   
 23  11  31  1   
 24  11  32  1   
 25  12  13  2   
 26  13  19  1   
 27  14  20  1   
 28  14  33  1   
 29  14  34  1   
 30  15  21  ar  
 31  15  35  1   
 32  16  22  ar  
 33  16  36  1   
 34  18  23  1   
 35  18  37  1   
 36  18  38  1   
 37  19  24  1   
 38  19  39  1   
 39  19  40  1   
 40  20  25  1   
 41  20  41  1   
 42  20  42  1   
 43  21  26  ar  
 44  21  43  1   
 45  22  26  ar  
 46  22  44  1   
 47  23  45  1   
 48  24  25  1   
 49  24  46  1   
 50  24  47  1   
 51  25  48  1   
 52  25  49  1   
 53  26  50  1   
@<TRIPOS>SUBSTRUCTURE
  1 ****   2 GROUP 4 **** **** 0

# MOE 2024.06 (io_trps.svl 2023.06)
