@<TRIPOS>MOLECULE
NONAME
46 49 1 0 0 
SMALL
USER_CHARGES


@<TRIPOS>ATOM
  1 O        2.0300    -2.6680     0.6700 O.3   1 <1>  -0.0190 
  2 N        1.5180    -3.8220     0.4310 N.2   1 <1>  -0.4100 
  3 C        1.3160    -1.7280     0.1090 C.2   1 <1>   0.4780 
  4 C        0.4970    -3.5520    -0.2840 C.2   1 <1>   0.3350 
  5 N        0.3110    -2.2490    -0.5170 N.2   1 <1>  -0.5650 
  6 C        1.6840    -0.3440     0.2470 C.2   1 <1>   0.1400 
  7 C       -0.4660    -4.6090    -0.8290 C.3   1 <1>   0.5240 
  8 O        0.9180     0.6130    -0.2680 O.3   1 <1>  -0.2800 
  9 C        2.7540     0.2400     0.8560 C.2   1 <1>  -0.1500 
 10 N       -1.7680    -4.6580    -0.0740 N.4   1 <1>  -0.9590 
 11 C        1.4660     1.7800    -0.0070 C.2   1 <1>  -0.0100 
 12 C        2.6100     1.6190     0.6890 C.2   1 <1>  -0.1500 
 13 C       -2.5510    -5.8800    -0.4550 C.3   1 <1>   0.3430 
 14 C       -2.5690    -3.4070    -0.2510 C.3   1 <1>   0.3430 
 15 C       -3.8500    -6.0010     0.3620 C.3   1 <1>   0.2000 
 16 C       -3.8580    -3.4870     0.5730 C.3   1 <1>  -0.1600 
 17 O       -4.6000    -7.0610    -0.1420 O.3   1 <1>  -0.5600 
 18 C       -4.6950    -4.7310     0.2300 C.3   1 <1>  -0.1600 
 19 C       -4.5040    -8.2670     0.5770 C.3   1 <1>   0.2630 
 20 C       -3.1090    -8.8870     0.4700 C.ar  1 <1>   0.1670 
 21 N       -2.1810    -8.4580     1.3230 N.ar  1 <1>  -0.6200 
 22 C       -2.8780    -9.8550    -0.4960 C.ar  1 <1>  -0.1500 
 23 C       -0.9980    -9.0490     1.2300 C.ar  1 <1>   0.1600 
 24 C       -1.6350   -10.4420    -0.5950 C.ar  1 <1>  -0.1500 
 25 C       -0.6770   -10.0240     0.3030 C.ar  1 <1>  -0.1500 
 26 H        0.0230    -5.5660    -0.7610 H     1 <1>   0.0800 
 27 H       -0.6530    -4.4020    -1.8690 H     1 <1>   0.0800 
 28 H        3.5670    -0.2410     1.3710 H     1 <1>   0.1500 
 29 H       -1.5300    -4.7390     0.9240 H     1 <1>   0.4500 
 30 H        0.9780     2.6760    -0.3520 H     1 <1>   0.1500 
 31 H        3.2880     2.3730     1.0520 H     1 <1>   0.1500 
 32 H       -1.9500    -6.7590    -0.2980 H     1 <1>   0.0800 
 33 H       -2.8140    -5.8270    -1.4980 H     1 <1>   0.0800 
 34 H       -2.8180    -3.2760    -1.2920 H     1 <1>   0.0800 
 35 H       -2.0000    -2.5470     0.0680 H     1 <1>   0.0800 
 36 H       -3.6230    -6.1800     1.4000 H     1 <1>   0.0800 
 37 H       -4.4450    -2.6050     0.3860 H     1 <1>   0.0800 
 38 H       -3.6110    -3.4880     1.6210 H     1 <1>   0.0800 
 39 H       -5.5420    -4.7930     0.8920 H     1 <1>   0.0800 
 40 H       -5.0600    -4.6490    -0.7800 H     1 <1>   0.0800 
 41 H       -5.2350    -8.9410     0.1660 H     1 <1>   0.0800 
 42 H       -4.7600    -8.0850     1.6060 H     1 <1>   0.0800 
 43 H       -3.6650   -10.1530    -1.1660 H     1 <1>   0.1500 
 44 H       -0.2410    -8.7420     1.9330 H     1 <1>   0.1500 
 45 H       -1.4250   -11.1990    -1.3320 H     1 <1>   0.1500 
 46 H        0.3090   -10.4540     0.2880 H     1 <1>   0.1500 
@<TRIPOS>BOND
  1   1   2  1   
  2   1   3  1   
  3   2   4  2   
  4   3   5  2   
  5   3   6  1   
  6   4   5  1   
  7   4   7  1   
  8   6   8  1   
  9   6   9  2   
 10   7  10  1   
 11   7  26  1   
 12   7  27  1   
 13   8  11  1   
 14   9  12  1   
 15   9  28  1   
 16  10  13  1   
 17  10  14  1   
 18  10  29  1   
 19  11  12  2   
 20  11  30  1   
 21  12  31  1   
 22  13  15  1   
 23  13  32  1   
 24  13  33  1   
 25  14  16  1   
 26  14  34  1   
 27  14  35  1   
 28  15  17  1   
 29  15  18  1   
 30  15  36  1   
 31  16  18  1   
 32  16  37  1   
 33  16  38  1   
 34  17  19  1   
 35  18  39  1   
 36  18  40  1   
 37  19  20  1   
 38  19  41  1   
 39  19  42  1   
 40  20  21  ar  
 41  20  22  ar  
 42  21  23  ar  
 43  22  24  ar  
 44  22  43  1   
 45  23  25  ar  
 46  23  44  1   
 47  24  25  ar  
 48  24  45  1   
 49  25  46  1   
@<TRIPOS>SUBSTRUCTURE
  1 ****  10 GROUP 4 **** **** 0

# MOE 2024.06 (io_trps.svl 2023.06)
