@<TRIPOS>MOLECULE
NONAME
55 57 1 0 0 
SMALL
USER_CHARGES


@<TRIPOS>ATOM
  1 O       -2.7150    -0.7540     2.9400 O.2   1 <1>  -0.5700 
  2 C       -2.7340    -0.2430     1.8510 C.2   1 <1>   0.4230 
  3 C       -3.6900    -0.6160     0.8470 C.ar  1 <1>   0.0860 
  4 C       -1.6490     0.7750     1.5590 C.3   1 <1>  -0.1790 
  5 C       -4.3850     0.2470     0.0000 C.ar  1 <1>   0.1660 
  6 C       -3.9830    -1.9600     0.6720 C.ar  1 <1>   0.1600 
  7 N       -5.2010    -0.1860    -0.9270 N.ar  1 <1>  -0.6200 
  8 C       -4.2770     1.7600     0.1000 C.3   1 <1>  -0.0960 
  9 N       -4.8040    -2.4170    -0.2400 N.ar  1 <1>  -0.6200 
 10 C       -5.3670    -1.4960    -1.0110 C.ar  1 <1>   0.7200 
 11 N       -6.2110    -1.8930    -1.9810 N.pl3 1 <1>  -0.8690 
 12 C       -6.4330    -3.2790    -2.4400 C.3   1 <1>   0.2090 
 13 C       -7.3960    -4.0060    -1.4830 C.3   1 <1>  -0.0800 
 14 C       -7.6370    -5.4550    -1.9300 C.3   1 <1>  -0.1600 
 15 C       -8.7460    -3.2810    -1.3320 C.3   1 <1>  -0.1600 
 16 C       -8.5950    -6.1760    -0.9800 C.3   1 <1>   0.3430 
 17 C       -9.6790    -4.0400    -0.3920 C.3   1 <1>   0.3430 
 18 N       -9.8880    -5.4300    -0.8960 N.4   1 <1>  -0.9590 
 19 C      -10.8940    -6.1300    -0.0380 C.3   1 <1>   0.3430 
 20 C      -11.3950    -7.4300    -0.6720 C.3   1 <1>  -0.0170 
 21 C      -12.4830    -8.0050     0.2130 C.ar  1 <1>  -0.1430 
 22 C      -12.1580    -8.8650     1.2520 C.ar  1 <1>  -0.1500 
 23 C      -13.8110    -7.6670    -0.0010 C.ar  1 <1>  -0.1500 
 24 C      -13.1490    -9.3750     2.0720 C.ar  1 <1>  -0.1500 
 25 C      -14.8020    -8.1780     0.8190 C.ar  1 <1>  -0.1500 
 26 C      -14.4710    -9.0310     1.8570 C.ar  1 <1>  -0.1500 
 27 H       -1.5080     0.8930     0.5010 H     1 <1>   0.0800 
 28 H       -0.7230     0.4380     1.9890 H     1 <1>   0.0800 
 29 H       -1.9050     1.7200     2.0000 H     1 <1>   0.0800 
 30 H       -3.5040    -2.6760     1.3200 H     1 <1>   0.1500 
 31 H       -4.1630     2.0730     1.1210 H     1 <1>   0.0800 
 32 H       -5.1710     2.2180    -0.2850 H     1 <1>   0.0800 
 33 H       -3.4440     2.1090    -0.4830 H     1 <1>   0.0800 
 34 H       -6.4990    -1.1380    -2.6030 H     1 <1>   0.4000 
 35 H       -5.4870    -3.7950    -2.4700 H     1 <1>   0.0800 
 36 H       -6.8380    -3.2590    -3.4370 H     1 <1>   0.0800 
 37 H       -6.9210    -4.0390    -0.5160 H     1 <1>   0.0800 
 38 H       -6.7000    -5.9850    -1.9410 H     1 <1>   0.0800 
 39 H       -8.0350    -5.4810    -2.9300 H     1 <1>   0.0800 
 40 H       -9.2160    -3.1540    -2.2910 H     1 <1>   0.0800 
 41 H       -8.5840    -2.3000    -0.9190 H     1 <1>   0.0800 
 42 H       -8.1470    -6.2390    -0.0010 H     1 <1>   0.0800 
 43 H       -8.7640    -7.1780    -1.3400 H     1 <1>   0.0800 
 44 H      -10.6220    -3.5210    -0.3290 H     1 <1>   0.0800 
 45 H       -9.2430    -4.0700     0.5950 H     1 <1>   0.0800 
 46 H      -10.2680    -5.3490    -1.8480 H     1 <1>   0.4500 
 47 H      -11.7440    -5.4850     0.1170 H     1 <1>   0.0800 
 48 H      -10.4680    -6.3470     0.9290 H     1 <1>   0.0800 
 49 H      -10.6000    -8.1480    -0.7600 H     1 <1>   0.0800 
 50 H      -11.7980    -7.2370    -1.6500 H     1 <1>   0.0800 
 51 H      -11.1370    -9.1500     1.4350 H     1 <1>   0.1500 
 52 H      -14.0930    -7.0090    -0.8050 H     1 <1>   0.1500 
 53 H      -12.8940   -10.0430     2.8770 H     1 <1>   0.1500 
 54 H      -15.8320    -7.9150     0.6510 H     1 <1>   0.1500 
 55 H      -15.2420    -9.4290     2.4940 H     1 <1>   0.1500 
@<TRIPOS>BOND
  1   1   2  2   
  2   2   3  1   
  3   2   4  1   
  4   3   5  ar  
  5   3   6  ar  
  6   4  27  1   
  7   4  28  1   
  8   4  29  1   
  9   5   7  ar  
 10   5   8  1   
 11   6   9  ar  
 12   6  30  1   
 13   7  10  ar  
 14   8  31  1   
 15   8  32  1   
 16   8  33  1   
 17   9  10  ar  
 18  10  11  1   
 19  11  12  1   
 20  11  34  1   
 21  12  13  1   
 22  12  35  1   
 23  12  36  1   
 24  13  14  1   
 25  13  15  1   
 26  13  37  1   
 27  14  16  1   
 28  14  38  1   
 29  14  39  1   
 30  15  17  1   
 31  15  40  1   
 32  15  41  1   
 33  16  18  1   
 34  16  42  1   
 35  16  43  1   
 36  17  18  1   
 37  17  44  1   
 38  17  45  1   
 39  18  19  1   
 40  18  46  1   
 41  19  20  1   
 42  19  47  1   
 43  19  48  1   
 44  20  21  1   
 45  20  49  1   
 46  20  50  1   
 47  21  22  ar  
 48  21  23  ar  
 49  22  24  ar  
 50  22  51  1   
 51  23  25  ar  
 52  23  52  1   
 53  24  26  ar  
 54  24  53  1   
 55  25  26  ar  
 56  25  54  1   
 57  26  55  1   
@<TRIPOS>SUBSTRUCTURE
  1 ****  13 GROUP 4 **** **** 0

# MOE 2024.06 (io_trps.svl 2023.06)
