@<TRIPOS>MOLECULE
NONAME
53 55 1 0 0 
SMALL
USER_CHARGES


@<TRIPOS>ATOM
  1 F       -0.6090     0.1010    -0.5800 F     1 <1>  -0.1900 
  2 C       -1.8580     0.4580    -0.4220 C.ar  1 <1>   0.1900 
  3 C       -2.2400     1.7980    -0.3080 C.ar  1 <1>   0.0830 
  4 C       -2.7870    -0.5630    -0.3740 C.ar  1 <1>  -0.1500 
  5 O       -1.4220     2.8900    -0.3390 O.3   1 <1>  -0.3630 
  6 C       -3.5880     2.0710    -0.1450 C.ar  1 <1>  -0.1500 
  7 C       -4.1250    -0.2550    -0.2130 C.ar  1 <1>  -0.1500 
  8 C       -0.0200     2.7990    -0.4630 C.3   1 <1>   0.0400 
  9 C       -4.5610     1.0680    -0.0930 C.ar  1 <1>   0.0530 
 10 C       -5.9570     1.4070     0.0750 C.2   1 <1>   0.0870 
 11 O       -6.3640     2.6370    -0.1200 O.3   1 <1>  -0.0190 
 12 C       -7.0610     0.6870     0.4120 C.2   1 <1>  -0.0860 
 13 N       -7.6480     2.7920     0.0640 N.2   1 <1>  -0.4100 
 14 C       -8.0920     1.6310     0.3980 C.2   1 <1>   0.3720 
 15 C       -7.2130    -0.6970     0.7250 C.2   1 <1>   0.7160 
 16 N       -9.4370     1.3600     0.6930 N.pl3 1 <1>  -0.8210 
 17 O       -6.7810    -1.1020     1.7910 O.2   1 <1>  -0.5700 
 18 N       -7.7830    -1.5980    -0.1560 N.am  1 <1>  -0.6600 
 19 C      -10.4350     2.3410     0.1860 C.3   1 <1>   0.1290 
 20 C       -9.7130     0.9220     2.0910 C.3   1 <1>   0.1290 
 21 C       -8.2990    -1.1890    -1.4950 C.3   1 <1>   0.1400 
 22 C       -7.9370    -3.0290     0.2210 C.3   1 <1>   0.1400 
 23 C       -9.6140    -1.8720    -1.8980 C.3   1 <1>  -0.1600 
 24 C       -9.2550    -3.2240     0.9750 C.3   1 <1>  -0.1600 
 25 C      -10.6750    -1.9340    -0.7800 C.3   1 <1>  -0.0800 
 26 C      -10.5130    -3.1950     0.0920 C.3   1 <1>  -0.1600 
 27 C      -12.0780    -1.9390    -1.4020 C.3   1 <1>  -0.2400 
 28 H       -2.4640    -1.5850    -0.4630 H     1 <1>   0.1500 
 29 H       -3.8840     3.1010    -0.0550 H     1 <1>   0.1500 
 30 H       -4.8320    -1.0630    -0.1810 H     1 <1>   0.1500 
 31 H        0.3830     3.7950    -0.4420 H     1 <1>   0.0800 
 32 H        0.2200     2.3290    -1.4000 H     1 <1>   0.0800 
 33 H        0.3690     2.2320     0.3650 H     1 <1>   0.0800 
 34 H      -10.2330     2.5650    -0.8470 H     1 <1>   0.0800 
 35 H      -10.3800     3.2520     0.7560 H     1 <1>   0.0800 
 36 H      -11.4260     1.9290     0.2630 H     1 <1>   0.0800 
 37 H       -8.8210     0.5410     2.5580 H     1 <1>   0.0800 
 38 H      -10.4550     0.1440     2.0830 H     1 <1>   0.0800 
 39 H      -10.0730     1.7500     2.6760 H     1 <1>   0.0800 
 40 H       -7.5480    -1.4010    -2.2360 H     1 <1>   0.0800 
 41 H       -8.4730    -0.1280    -1.5090 H     1 <1>   0.0800 
 42 H       -7.1190    -3.3190     0.8590 H     1 <1>   0.0800 
 43 H       -7.9000    -3.6550    -0.6540 H     1 <1>   0.0800 
 44 H       -9.4130    -2.8590    -2.2740 H     1 <1>   0.0800 
 45 H      -10.0050    -1.3080    -2.7270 H     1 <1>   0.0800 
 46 H       -9.3310    -2.4760     1.7460 H     1 <1>   0.0800 
 47 H       -9.2180    -4.1790     1.4670 H     1 <1>   0.0800 
 48 H      -10.5940    -1.0570    -0.1600 H     1 <1>   0.0800 
 49 H      -11.3650    -3.2770     0.7450 H     1 <1>   0.0800 
 50 H      -10.5170    -4.0660    -0.5400 H     1 <1>   0.0800 
 51 H      -12.2070    -2.7930    -2.0440 H     1 <1>   0.0800 
 52 H      -12.2350    -1.0460    -1.9800 H     1 <1>   0.0800 
 53 H      -12.8290    -1.9710    -0.6320 H     1 <1>   0.0800 
@<TRIPOS>BOND
  1   1   2  1   
  2   2   3  ar  
  3   2   4  ar  
  4   3   5  1   
  5   3   6  ar  
  6   4   7  ar  
  7   4  28  1   
  8   5   8  1   
  9   6   9  ar  
 10   6  29  1   
 11   7   9  ar  
 12   7  30  1   
 13   8  31  1   
 14   8  32  1   
 15   8  33  1   
 16   9  10  1   
 17  10  11  1   
 18  10  12  2   
 19  11  13  1   
 20  12  14  1   
 21  12  15  1   
 22  13  14  2   
 23  14  16  1   
 24  15  17  2   
 25  15  18  am  
 26  16  19  1   
 27  16  20  1   
 28  18  21  1   
 29  18  22  1   
 30  19  34  1   
 31  19  35  1   
 32  19  36  1   
 33  20  37  1   
 34  20  38  1   
 35  20  39  1   
 36  21  23  1   
 37  21  40  1   
 38  21  41  1   
 39  22  24  1   
 40  22  42  1   
 41  22  43  1   
 42  23  25  1   
 43  23  44  1   
 44  23  45  1   
 45  24  26  1   
 46  24  46  1   
 47  24  47  1   
 48  25  26  1   
 49  25  27  1   
 50  25  48  1   
 51  26  49  1   
 52  26  50  1   
 53  27  51  1   
 54  27  52  1   
 55  27  53  1   
@<TRIPOS>SUBSTRUCTURE
  1 ****  12 GROUP 4 **** **** 0

# MOE 2024.06 (io_trps.svl 2023.06)
