@<TRIPOS>MOLECULE
NONAME
46 48 1 0 0 
SMALL
USER_CHARGES


@<TRIPOS>ATOM
  1 F       -0.1400    -0.5630     0.0900 F     1 <1>  -0.3400 
  2 C       -0.0630    -1.8460    -0.2350 C.3   1 <1>   0.8800 
  3 F       -0.1420    -1.8910    -1.5590 F     1 <1>  -0.3400 
  4 O       -1.1860    -2.4990     0.3070 O.3   1 <1>  -0.3630 
  5 C       -1.2430    -3.8480     0.3860 C.ar  1 <1>   0.0830 
  6 C       -0.3520    -4.7070    -0.2520 C.ar  1 <1>  -0.1500 
  7 C       -2.2560    -4.3850     1.1640 C.ar  1 <1>  -0.1500 
  8 C       -0.4840    -6.0750    -0.1000 C.ar  1 <1>  -0.1500 
  9 C       -2.3800    -5.7540     1.3090 C.ar  1 <1>  -0.1500 
 10 C       -1.5010    -6.6330     0.6740 C.ar  1 <1>   0.0860 
 11 C       -1.6260    -8.0720     0.8110 C.2   1 <1>   0.5440 
 12 O       -0.6370    -8.7420     1.0440 O.2   1 <1>  -0.5700 
 13 N       -2.8380    -8.7070     0.6600 N.am  1 <1>  -0.6600 
 14 C       -3.9610    -8.1750    -0.1570 C.3   1 <1>   0.1400 
 15 C       -3.0180   -10.1650     0.8540 C.3   1 <1>   0.1400 
 16 C       -4.8600    -9.3790    -0.4800 C.3   1 <1>   0.2000 
 17 C       -3.9450   -10.5920    -0.2840 C.3   1 <1>  -0.0800 
 18 O       -5.9080    -9.4500     0.4460 O.3   1 <1>  -0.5600 
 19 C       -4.6800   -11.9180    -0.0150 C.3   1 <1>   0.0200 
 20 C       -7.0350    -8.6950     0.1270 C.3   1 <1>   0.0400 
 21 C       -3.7530   -13.1220    -0.0010 C.2   1 <1>  -0.0400 
 22 O       -4.2500   -14.2940     0.2980 O.3   1 <1>  -0.0190 
 23 C       -2.4420   -13.2870    -0.2440 C.2   1 <1>  -0.1500 
 24 N       -3.3450   -15.2300     0.2700 N.2   1 <1>  -0.4100 
 25 C       -2.2450   -14.6510    -0.0530 C.2   1 <1>   0.1080 
 26 C       -0.9200   -15.3640    -0.2010 C.3   1 <1>  -0.0590 
 27 H        0.8720    -2.2560     0.1030 H     1 <1>   0.0800 
 28 H        0.4440    -4.3400    -0.8740 H     1 <1>   0.1500 
 29 H       -2.9440    -3.7220     1.6590 H     1 <1>   0.1500 
 30 H        0.2110    -6.7380    -0.5870 H     1 <1>   0.1500 
 31 H       -3.1620    -6.1560     1.9280 H     1 <1>   0.1500 
 32 H       -4.5020    -7.4180     0.3810 H     1 <1>   0.0800 
 33 H       -3.5650    -7.7610    -1.0680 H     1 <1>   0.0800 
 34 H       -2.0790   -10.6900     0.8260 H     1 <1>   0.0800 
 35 H       -3.4900   -10.3300     1.8080 H     1 <1>   0.0800 
 36 H       -5.2670    -9.3410    -1.4760 H     1 <1>   0.0800 
 37 H       -3.3480   -10.6980    -1.1710 H     1 <1>   0.0800 
 38 H       -5.4230   -12.0730    -0.7770 H     1 <1>   0.0800 
 39 H       -5.1900   -11.8670     0.9310 H     1 <1>   0.0800 
 40 H       -7.7540    -8.8210     0.9180 H     1 <1>   0.0800 
 41 H       -7.4520    -9.0530    -0.7980 H     1 <1>   0.0800 
 42 H       -6.7650    -7.6570     0.0460 H     1 <1>   0.0800 
 43 H       -1.6880   -12.5740    -0.5230 H     1 <1>   0.1500 
 44 H       -0.1890   -14.9120     0.4430 H     1 <1>   0.0800 
 45 H       -0.5850   -15.3010    -1.2200 H     1 <1>   0.0800 
 46 H       -1.0280   -16.3990     0.0670 H     1 <1>   0.0800 
@<TRIPOS>BOND
  1   1   2  1   
  2   2   3  1   
  3   2   4  1   
  4   2  27  1   
  5   4   5  1   
  6   5   6  ar  
  7   5   7  ar  
  8   6   8  ar  
  9   6  28  1   
 10   7   9  ar  
 11   7  29  1   
 12   8  10  ar  
 13   8  30  1   
 14   9  10  ar  
 15   9  31  1   
 16  10  11  1   
 17  11  12  2   
 18  11  13  am  
 19  13  14  1   
 20  13  15  1   
 21  14  16  1   
 22  14  32  1   
 23  14  33  1   
 24  15  17  1   
 25  15  34  1   
 26  15  35  1   
 27  16  17  1   
 28  16  18  1   
 29  16  36  1   
 30  17  19  1   
 31  17  37  1   
 32  18  20  1   
 33  19  21  1   
 34  19  38  1   
 35  19  39  1   
 36  20  40  1   
 37  20  41  1   
 38  20  42  1   
 39  21  22  1   
 40  21  23  2   
 41  22  24  1   
 42  23  25  1   
 43  23  43  1   
 44  24  25  2   
 45  25  26  1   
 46  26  44  1   
 47  26  45  1   
 48  26  46  1   
@<TRIPOS>SUBSTRUCTURE
  1 ****  13 GROUP 4 **** **** 0

# MOE 2024.06 (io_trps.svl 2023.06)
