@<TRIPOS>MOLECULE
NONAME
44 46 1 0 0 
SMALL
USER_CHARGES


@<TRIPOS>ATOM
  1 O        2.5700    -0.8940     1.8020 O.3   1 <1>  -0.0190 
  2 N        2.9790     0.2980     1.4970 N.2   1 <1>  -0.4100 
  3 C        1.5080    -1.0560     1.0590 C.2   1 <1>   0.2980 
  4 C        2.1770     0.7720     0.6250 C.2   1 <1>   0.3350 
  5 N        1.1880    -0.0670     0.3210 N.2   1 <1>  -0.5650 
  6 C        0.7600    -2.3800     1.1120 C.3   1 <1>   0.5230 
  7 C        2.3110     2.1510    -0.0200 C.3   1 <1>   0.3010 
  8 N       -0.2410    -2.4280    -0.0120 N.4   1 <1>  -0.9590 
  9 O        2.3770     2.0350    -1.4160 O.3   1 <1>  -0.5600 
 10 C       -1.6200    -2.8080     0.4140 C.3   1 <1>   0.4230 
 11 C        0.3170    -3.2110    -1.1590 C.3   1 <1>   0.2630 
 12 C        2.5510     3.2450    -2.0810 C.3   1 <1>   0.0400 
 13 C       -2.6050    -2.6850    -0.7530 C.3   1 <1>  -0.1600 
 14 C       -2.1760    -1.7620     1.3880 C.3   1 <1>  -0.1600 
 15 C       -2.8900    -1.1810    -0.8820 C.3   1 <1>  -0.0800 
 16 C       -2.6240    -0.5870     0.5050 C.3   1 <1>  -0.0800 
 17 C       -4.3340    -0.8140    -1.2540 C.3   1 <1>  -0.1600 
 18 C       -3.9190     0.1100     0.9450 C.3   1 <1>  -0.1600 
 19 C       -4.6620     0.3740    -0.3580 C.3   1 <1>   0.2000 
 20 O       -6.0180     0.4400    -0.1300 O.3   1 <1>  -0.6800 
 21 H        0.2700    -2.4610     2.0670 H     1 <1>   0.0800 
 22 H        1.4620    -3.1910     1.0240 H     1 <1>   0.0800 
 23 H        3.2100     2.6270     0.3280 H     1 <1>   0.0800 
 24 H        1.4580     2.7540     0.2330 H     1 <1>   0.0800 
 25 H       -0.2970    -1.4370    -0.3180 H     1 <1>   0.4500 
 26 H       -1.6300    -3.8000     0.8380 H     1 <1>   0.0800 
 27 H        0.3530    -4.2610    -0.9190 H     1 <1>   0.0800 
 28 H        1.3150    -2.8720    -1.3910 H     1 <1>   0.0800 
 29 H       -0.2890    -3.0770    -2.0400 H     1 <1>   0.0800 
 30 H        2.5880     3.0450    -3.1370 H     1 <1>   0.0800 
 31 H        3.4780     3.6950    -1.7680 H     1 <1>   0.0800 
 32 H        1.7210     3.8950    -1.8650 H     1 <1>   0.0800 
 33 H       -2.2750    -3.1230    -1.6760 H     1 <1>   0.0800 
 34 H       -3.5070    -3.1970    -0.4640 H     1 <1>   0.0800 
 35 H       -3.0340    -2.1970     1.8700 H     1 <1>   0.0800 
 36 H       -1.4990    -1.4480     2.1600 H     1 <1>   0.0800 
 37 H       -2.2120    -0.7300    -1.5890 H     1 <1>   0.0800 
 38 H       -1.8350     0.1440     0.4240 H     1 <1>   0.0800 
 39 H       -5.0030    -1.6280    -1.0370 H     1 <1>   0.0800 
 40 H       -4.4180    -0.5480    -2.2930 H     1 <1>   0.0800 
 41 H       -3.7160     1.0280     1.4660 H     1 <1>   0.0800 
 42 H       -4.5080    -0.5360     1.5720 H     1 <1>   0.0800 
 43 H       -4.3390     1.2990    -0.8080 H     1 <1>   0.0800 
 44 H       -6.3420    -0.3890     0.2670 H     1 <1>   0.4000 
@<TRIPOS>BOND
  1   1   2  1   
  2   1   3  1   
  3   2   4  2   
  4   3   5  2   
  5   3   6  1   
  6   4   5  1   
  7   4   7  1   
  8   6   8  1   
  9   6  21  1   
 10   6  22  1   
 11   7   9  1   
 12   7  23  1   
 13   7  24  1   
 14   8  10  1   
 15   8  11  1   
 16   8  25  1   
 17   9  12  1   
 18  10  13  1   
 19  10  14  1   
 20  10  26  1   
 21  11  27  1   
 22  11  28  1   
 23  11  29  1   
 24  12  30  1   
 25  12  31  1   
 26  12  32  1   
 27  13  15  1   
 28  13  33  1   
 29  13  34  1   
 30  14  16  1   
 31  14  35  1   
 32  14  36  1   
 33  15  16  1   
 34  15  17  1   
 35  15  37  1   
 36  16  18  1   
 37  16  38  1   
 38  17  19  1   
 39  17  39  1   
 40  17  40  1   
 41  18  19  1   
 42  18  41  1   
 43  18  42  1   
 44  19  20  1   
 45  19  43  1   
 46  20  44  1   
@<TRIPOS>SUBSTRUCTURE
  1 ****   5 GROUP 4 **** **** 0

# MOE 2024.06 (io_trps.svl 2023.06)
