@<TRIPOS>MOLECULE
NONAME
35 38 1 0 0 
SMALL
USER_CHARGES


@<TRIPOS>ATOM
  1 S       -0.0960    -0.7690     1.3590 S.3   1 <1>  -0.4600 
  2 C       -1.2850     0.4140     0.6480 C.3   1 <1>   0.2510 
  3 C       -0.9780    -2.3140     0.9850 C.3   1 <1>   0.2510 
  4 C       -2.3670    -0.4810     0.0910 C.2   1 <1>   0.1080 
  5 C       -2.2140    -1.8420     0.2560 C.2   1 <1>  -0.1810 
  6 N       -3.4520    -0.1640    -0.5390 N.2   1 <1>  -0.7070 
  7 C       -3.3030    -2.4020    -0.3210 C.2   1 <1>  -0.0880 
  8 N       -4.0480    -1.3560    -0.7960 N.pl3 1 <1>   0.3140 
  9 N       -3.5820    -3.7860    -0.4210 N.am  1 <1>  -0.4940 
 10 C       -5.2950    -1.3900    -1.5720 C.3   1 <1>   0.0160 
 11 C       -4.7750    -4.4710    -0.3420 C.2   1 <1>   0.7160 
 12 O       -5.7960    -3.8600    -0.0740 O.2   1 <1>  -0.5700 
 13 C       -4.7850    -5.8800    -0.5610 C.2   1 <1>  -0.0860 
 14 C       -5.6800    -6.8370    -0.1480 C.2   1 <1>  -0.0680 
 15 C       -3.8400    -6.6360    -1.2750 C.2   1 <1>   0.1390 
 16 N       -5.2410    -8.0210    -0.6000 N.pl3 1 <1>   0.6010 
 17 N       -6.8500    -7.0200     0.5610 N.pl3 1 <1>  -0.5530 
 18 N       -4.0870    -7.9100    -1.3030 N.2   1 <1>  -0.7070 
 19 C       -6.1330    -8.9900    -0.1830 C.2   1 <1>  -0.1810 
 20 C       -7.1100    -8.3810     0.5210 C.2   1 <1>  -0.0500 
 21 C       -7.6790    -5.9640     1.1830 C.3   1 <1>   0.1290 
 22 H       -0.7910     0.9780    -0.1210 H     1 <1>   0.0800 
 23 H       -1.6510     1.0480     1.4350 H     1 <1>   0.0800 
 24 H       -1.2120    -2.7980     1.9160 H     1 <1>   0.0800 
 25 H       -0.3400    -2.9210     0.3680 H     1 <1>   0.0800 
 26 H       -2.7640    -4.3890    -0.3790 H     1 <1>   0.3700 
 27 H       -5.3590    -0.5040    -2.1760 H     1 <1>   0.0800 
 28 H       -6.1270    -1.4220    -0.8940 H     1 <1>   0.0800 
 29 H       -5.3040    -2.2580    -2.2030 H     1 <1>   0.0800 
 30 H       -2.9810    -6.2120    -1.7680 H     1 <1>   0.1500 
 31 H       -5.9730   -10.0190    -0.4370 H     1 <1>   0.1500 
 32 H       -7.9770    -8.8110     0.9980 H     1 <1>   0.1500 
 33 H       -7.0730    -5.3760     1.8500 H     1 <1>   0.0800 
 34 H       -8.4890    -6.4070     1.7340 H     1 <1>   0.0800 
 35 H       -8.0770    -5.3230     0.4160 H     1 <1>   0.0800 
@<TRIPOS>BOND
  1   1   2  1   
  2   1   3  1   
  3   2   4  1   
  4   2  22  1   
  5   2  23  1   
  6   3   5  1   
  7   3  24  1   
  8   3  25  1   
  9   4   5  1   
 10   4   6  2   
 11   5   7  2   
 12   6   8  1   
 13   7   8  1   
 14   7   9  1   
 15   8  10  1   
 16   9  11  am  
 17   9  26  1   
 18  10  27  1   
 19  10  28  1   
 20  10  29  1   
 21  11  12  2   
 22  11  13  1   
 23  13  14  2   
 24  13  15  1   
 25  14  16  1   
 26  14  17  1   
 27  15  18  2   
 28  15  30  1   
 29  16  18  1   
 30  16  19  1   
 31  17  20  1   
 32  17  21  1   
 33  19  20  2   
 34  19  31  1   
 35  20  32  1   
 36  21  33  1   
 37  21  34  1   
 38  21  35  1   
@<TRIPOS>SUBSTRUCTURE
  1 ****  11 GROUP 4 **** **** 0

# MOE 2024.06 (io_trps.svl 2023.06)
