@<TRIPOS>MOLECULE
NONAME
51 53 1 0 0 
SMALL
USER_CHARGES


@<TRIPOS>ATOM
  1 F       -0.6320     0.8110    -0.3280 F     1 <1>  -0.1900 
  2 C       -1.9050     1.0220    -0.1070 C.ar  1 <1>   0.1900 
  3 C       -2.4910     2.2810    -0.2810 C.ar  1 <1>   0.0820 
  4 C       -2.6450    -0.0680     0.3100 C.ar  1 <1>  -0.1500 
  5 O       -1.8700     3.4270    -0.6850 O.3   1 <1>  -0.3630 
  6 C       -3.8460     2.4000    -0.0210 C.ar  1 <1>  -0.1500 
  7 C       -3.9950     0.0870     0.5630 C.ar  1 <1>  -0.1500 
  8 C       -0.4950     3.4920    -0.9890 C.3   1 <1>   0.0400 
  9 C       -4.6270     1.3210     0.4000 C.ar  1 <1>   0.0530 
 10 C       -6.0330     1.4960     0.6700 C.2   1 <1>   0.0870 
 11 O       -6.4530     2.6170     1.2010 O.3   1 <1>  -0.0190 
 12 C       -7.1280     0.7030     0.5070 C.2   1 <1>  -0.0860 
 13 N       -7.7410     2.6320     1.4140 N.2   1 <1>  -0.4100 
 14 C       -8.1740     1.4930     1.0040 C.2   1 <1>   0.3720 
 15 C       -7.2740    -0.6080    -0.0450 C.2   1 <1>   0.7160 
 16 N       -9.5290     1.1170     1.0440 N.pl3 1 <1>  -0.8210 
 17 O       -6.4710    -1.0580    -0.8420 O.2   1 <1>  -0.5700 
 18 N       -8.3490    -1.3590     0.3080 N.am  1 <1>  -0.7300 
 19 C      -10.2340     1.2920    -0.2600 C.3   1 <1>   0.1290 
 20 C      -10.3100     1.7050     2.1700 C.3   1 <1>   0.1290 
 21 C       -8.9940    -2.4380    -0.4890 C.3   1 <1>   0.3610 
 22 C       -9.3160    -1.9770    -1.9440 C.2   1 <1>   0.5690 
 23 C       -8.1380    -3.7100    -0.4120 C.3   1 <1>  -0.1600 
 24 C      -10.2410    -2.8700     0.2950 C.3   1 <1>  -0.1600 
 25 O      -10.4450    -1.7020    -2.2720 O.2   1 <1>  -0.5700 
 26 N       -8.3230    -1.8330    -2.8480 N.am  1 <1>  -0.8000 
 27 C       -8.3880    -4.3120     0.9760 C.3   1 <1>  -0.1600 
 28 C       -9.7430    -3.7640     1.4370 C.3   1 <1>  -0.1600 
 29 H       -2.1670    -1.0230     0.4350 H     1 <1>   0.1500 
 30 H       -4.3070     3.3630    -0.1520 H     1 <1>   0.1500 
 31 H       -4.5660    -0.7630     0.8930 H     1 <1>   0.1500 
 32 H       -0.2640     4.5020    -1.2770 H     1 <1>   0.0800 
 33 H       -0.2840     2.8240    -1.8050 H     1 <1>   0.0800 
 34 H        0.0710     3.2240    -0.1140 H     1 <1>   0.0800 
 35 H       -9.0350    -0.8210     0.8560 H     1 <1>   0.3700 
 36 H       -9.6140     0.9500    -1.0720 H     1 <1>   0.0800 
 37 H      -10.4660     2.3310    -0.4200 H     1 <1>   0.0800 
 38 H      -11.1460     0.7200    -0.2660 H     1 <1>   0.0800 
 39 H       -9.7680     1.5840     3.0930 H     1 <1>   0.0800 
 40 H      -11.2600     1.2070     2.2600 H     1 <1>   0.0800 
 41 H      -10.4740     2.7560     2.0010 H     1 <1>   0.0800 
 42 H       -7.0940    -3.5240    -0.5920 H     1 <1>   0.0800 
 43 H       -8.4890    -4.4030    -1.1560 H     1 <1>   0.0800 
 44 H      -10.8660    -3.4630    -0.3510 H     1 <1>   0.0800 
 45 H      -10.8180    -2.0320     0.6420 H     1 <1>   0.0800 
 46 H       -8.5230    -1.4760    -3.7800 H     1 <1>   0.3700 
 47 H       -7.3420    -1.8000    -2.5390 H     1 <1>   0.3700 
 48 H       -7.6190    -3.9880     1.6570 H     1 <1>   0.0800 
 49 H       -8.3870    -5.3880     0.9370 H     1 <1>   0.0800 
 50 H      -10.4430    -4.5560     1.6410 H     1 <1>   0.0800 
 51 H       -9.6100    -3.1770     2.3300 H     1 <1>   0.0800 
@<TRIPOS>BOND
  1   1   2  1   
  2   2   3  ar  
  3   2   4  ar  
  4   3   5  1   
  5   3   6  ar  
  6   4   7  ar  
  7   4  29  1   
  8   5   8  1   
  9   6   9  ar  
 10   6  30  1   
 11   7   9  ar  
 12   7  31  1   
 13   8  32  1   
 14   8  33  1   
 15   8  34  1   
 16   9  10  1   
 17  10  11  1   
 18  10  12  2   
 19  11  13  1   
 20  12  14  1   
 21  12  15  1   
 22  13  14  2   
 23  14  16  1   
 24  15  17  2   
 25  15  18  am  
 26  16  19  1   
 27  16  20  1   
 28  18  21  1   
 29  18  35  1   
 30  19  36  1   
 31  19  37  1   
 32  19  38  1   
 33  20  39  1   
 34  20  40  1   
 35  20  41  1   
 36  21  22  1   
 37  21  23  1   
 38  21  24  1   
 39  22  25  2   
 40  22  26  am  
 41  23  27  1   
 42  23  42  1   
 43  23  43  1   
 44  24  28  1   
 45  24  44  1   
 46  24  45  1   
 47  26  46  1   
 48  26  47  1   
 49  27  28  1   
 50  27  48  1   
 51  27  49  1   
 52  28  50  1   
 53  28  51  1   
@<TRIPOS>SUBSTRUCTURE
  1 ****  12 GROUP 4 **** **** 0

# MOE 2024.06 (io_trps.svl 2023.06)
