@<TRIPOS>MOLECULE
NONAME
45 48 1 0 0 
SMALL
USER_CHARGES


@<TRIPOS>ATOM
  1 F        2.6390     1.5520     2.1690 F     1 <1>  -0.1900 
  2 C        2.5750     0.5500     1.3300 C.ar  1 <1>   0.1900 
  3 C        3.3780     0.5910     0.1670 C.ar  1 <1>   0.3100 
  4 C        1.7310    -0.4840     1.6330 C.ar  1 <1>  -0.1500 
  5 N        4.1970     1.6460    -0.0860 N.ar  1 <1>  -0.6200 
  6 C        3.2810    -0.5180    -0.7030 C.ar  1 <1>   0.0000 
  7 C        1.6500    -1.5690     0.7540 C.ar  1 <1>  -0.1500 
  8 C        4.9290     1.6470    -1.1810 C.ar  1 <1>   0.3960 
  9 C        4.0720    -0.5080    -1.8620 C.ar  1 <1>  -0.1500 
 10 C        2.4090    -1.5810    -0.3860 C.ar  1 <1>  -0.1500 
 11 C        5.8160     2.7790    -1.4750 C.2   1 <1>   0.5440 
 12 C        4.8800     0.5630    -2.0860 C.ar  1 <1>  -0.1500 
 13 O        6.7850     2.6610    -2.2090 O.2   1 <1>  -0.5700 
 14 N        5.6650     4.0240    -0.9040 N.am  1 <1>  -0.6600 
 15 C        6.0380     4.1760     0.5480 C.3   1 <1>   0.2200 
 16 C        5.6870     5.2310    -1.7870 C.3   1 <1>   0.1400 
 17 C        5.3830     5.3930     1.2180 C.3   1 <1>   0.1200 
 18 C        7.5790     4.2180     0.7060 C.3   1 <1>   0.3430 
 19 C        6.6320     6.3570    -1.3230 C.3   1 <1>  -0.0800 
 20 O        6.1690     6.5360     1.0430 O.3   1 <1>  -0.5600 
 21 N        8.2880     4.5360    -0.5850 N.4   1 <1>  -0.9590 
 22 C        6.0270     7.1820    -0.1760 C.3   1 <1>   0.1200 
 23 C        8.0960     5.9470    -1.0460 C.3   1 <1>   0.3430 
 24 C        9.7270     4.1570    -0.5370 C.3   1 <1>   0.2630 
 25 H        1.1380    -0.4690     2.5300 H     1 <1>   0.1500 
 26 H        0.9870    -2.3860     0.9870 H     1 <1>   0.1500 
 27 H        4.0260    -1.3380    -2.5460 H     1 <1>   0.1500 
 28 H        2.3490    -2.4160    -1.0630 H     1 <1>   0.1500 
 29 H        5.4990     0.6040    -2.9650 H     1 <1>   0.1500 
 30 H        5.6800     3.3150     1.0830 H     1 <1>   0.0800 
 31 H        5.9700     4.9330    -2.7830 H     1 <1>   0.0800 
 32 H        4.6830     5.6160    -1.8550 H     1 <1>   0.0800 
 33 H        5.3270     5.2220     2.2790 H     1 <1>   0.0800 
 34 H        4.3830     5.5620     0.8540 H     1 <1>   0.0800 
 35 H        7.8970     3.2480     1.0490 H     1 <1>   0.0800 
 36 H        7.8470     4.9330     1.4660 H     1 <1>   0.0800 
 37 H        6.6750     7.0470    -2.1460 H     1 <1>   0.0800 
 38 H        7.8090     3.9330    -1.2930 H     1 <1>   0.4500 
 39 H        4.9830     7.3930    -0.3420 H     1 <1>   0.0800 
 40 H        6.5450     8.1220    -0.0900 H     1 <1>   0.0800 
 41 H        8.5140     6.6230    -0.3170 H     1 <1>   0.0800 
 42 H        8.6490     6.0770    -1.9610 H     1 <1>   0.0800 
 43 H       10.2460     4.7480     0.2000 H     1 <1>   0.0800 
 44 H       10.1860     4.3170    -1.4990 H     1 <1>   0.0800 
 45 H        9.8280     3.1150    -0.2810 H     1 <1>   0.0800 
@<TRIPOS>BOND
  1   1   2  1   
  2   2   3  ar  
  3   2   4  ar  
  4   3   5  ar  
  5   3   6  ar  
  6   4   7  ar  
  7   4  25  1   
  8   5   8  ar  
  9   6   9  ar  
 10   6  10  ar  
 11   7  10  ar  
 12   7  26  1   
 13   8  11  1   
 14   8  12  ar  
 15   9  12  ar  
 16   9  27  1   
 17  10  28  1   
 18  11  13  2   
 19  11  14  am  
 20  12  29  1   
 21  14  15  1   
 22  14  16  1   
 23  15  17  1   
 24  15  18  1   
 25  15  30  1   
 26  16  19  1   
 27  16  31  1   
 28  16  32  1   
 29  17  20  1   
 30  17  33  1   
 31  17  34  1   
 32  18  21  1   
 33  18  35  1   
 34  18  36  1   
 35  19  22  1   
 36  19  23  1   
 37  19  37  1   
 38  20  22  1   
 39  21  23  1   
 40  21  24  1   
 41  21  38  1   
 42  22  39  1   
 43  22  40  1   
 44  23  41  1   
 45  23  42  1   
 46  24  43  1   
 47  24  44  1   
 48  24  45  1   
@<TRIPOS>SUBSTRUCTURE
  1 ****  11 GROUP 4 **** **** 0

# MOE 2024.06 (io_trps.svl 2023.06)
