@<TRIPOS>MOLECULE
NONAME
49 51 1 0 0 
SMALL
USER_CHARGES


@<TRIPOS>ATOM
  1 CL       0.4430    -0.4290    -1.7480 Cl    1 <1>  -0.1770 
  2 C        1.9740    -0.8360    -1.0070 C.ar  1 <1>   0.1770 
  3 C        2.0900    -1.9360    -0.1510 C.ar  1 <1>   0.0530 
  4 C        3.0530    -0.0320    -1.3230 C.ar  1 <1>  -0.1500 
  5 C        0.9840    -2.7920     0.2150 C.2   1 <1>   0.0870 
  6 C        3.3610    -2.1940     0.3640 C.ar  1 <1>  -0.1500 
  7 C        4.2990    -0.3110    -0.7900 C.ar  1 <1>  -0.1500 
  8 O        1.1990    -4.0890     0.3950 O.3   1 <1>  -0.2800 
  9 C       -0.3310    -2.5380     0.4500 C.2   1 <1>  -0.1500 
 10 C        4.4500    -1.3980     0.0530 C.ar  1 <1>  -0.1500 
 11 C        0.0650    -4.6720     0.7270 C.2   1 <1>  -0.0400 
 12 C       -0.9250    -3.7560     0.7810 C.2   1 <1>  -0.1500 
 13 C        0.0710    -6.1720     0.9820 C.3   1 <1>   0.2900 
 14 N       -1.2900    -6.7440     0.9700 N.3   1 <1>  -0.8100 
 15 C       -1.9140    -6.7210    -0.3590 C.3   1 <1>   0.1100 
 16 C       -1.3190    -8.1460     1.4140 C.3   1 <1>   0.1100 
 17 C       -3.0420    -7.7380    -0.2450 C.3   1 <1>   0.2000 
 18 C       -2.4180    -8.8530     0.5940 C.3   1 <1>  -0.0800 
 19 O       -4.0460    -7.1590     0.5050 O.3   1 <1>  -0.6800 
 20 C       -1.8500    -9.9590    -0.3170 C.3   1 <1>  -0.0550 
 21 S       -1.2220   -11.3850     0.5720 S.o2  1 <1>   1.3330 
 22 O       -2.3090   -11.9440     1.3430 O.2   1 <1>  -0.6500 
 23 O        0.0180   -11.0360     1.2280 O.2   1 <1>  -0.6500 
 24 N       -0.8540   -12.4640    -0.6870 N.am  1 <1>  -0.8490 
 25 C       -1.0180   -13.8660    -0.2870 C.3   1 <1>   0.1160 
 26 C        0.4820   -12.2620    -1.2590 C.3   1 <1>   0.1160 
 27 H        2.9180     0.8050    -1.9840 H     1 <1>   0.1500 
 28 H        3.4930    -3.0360     1.0220 H     1 <1>   0.1500 
 29 H        5.1450     0.3110    -1.0310 H     1 <1>   0.1500 
 30 H       -0.8440    -1.5940     0.4050 H     1 <1>   0.1500 
 31 H        5.4170    -1.6240     0.4700 H     1 <1>   0.1500 
 32 H       -1.9600    -3.9120     1.0290 H     1 <1>   0.1500 
 33 H        0.5250    -6.3470     1.9420 H     1 <1>   0.0800 
 34 H        0.6740    -6.6550     0.2330 H     1 <1>   0.0800 
 35 H       -2.2840    -5.7430    -0.6140 H     1 <1>   0.0800 
 36 H       -1.2100    -7.0420    -1.1070 H     1 <1>   0.0800 
 37 H       -0.3590    -8.6060     1.2550 H     1 <1>   0.0800 
 38 H       -1.5470    -8.1840     2.4660 H     1 <1>   0.0800 
 39 H       -3.4510    -8.0540    -1.1890 H     1 <1>   0.0800 
 40 H       -3.1540    -9.2940     1.2450 H     1 <1>   0.0800 
 41 H       -3.6030    -6.7130     1.2590 H     1 <1>   0.4000 
 42 H       -1.0730    -9.5530    -0.9340 H     1 <1>   0.0800 
 43 H       -2.6370   -10.2960    -0.9640 H     1 <1>   0.0800 
 44 H       -0.7900   -14.5190    -1.1110 H     1 <1>   0.0800 
 45 H       -2.0370   -14.0470     0.0120 H     1 <1>   0.0800 
 46 H       -0.3680   -14.0980     0.5410 H     1 <1>   0.0800 
 47 H        0.6210   -12.9080    -2.1090 H     1 <1>   0.0800 
 48 H        1.2420   -12.4790    -0.5260 H     1 <1>   0.0800 
 49 H        0.5970   -11.2430    -1.5850 H     1 <1>   0.0800 
@<TRIPOS>BOND
  1   1   2  1   
  2   2   3  ar  
  3   2   4  ar  
  4   3   5  1   
  5   3   6  ar  
  6   4   7  ar  
  7   4  27  1   
  8   5   8  1   
  9   5   9  2   
 10   6  10  ar  
 11   6  28  1   
 12   7  10  ar  
 13   7  29  1   
 14   8  11  1   
 15   9  12  1   
 16   9  30  1   
 17  10  31  1   
 18  11  12  2   
 19  11  13  1   
 20  12  32  1   
 21  13  14  1   
 22  13  33  1   
 23  13  34  1   
 24  14  15  1   
 25  14  16  1   
 26  15  17  1   
 27  15  35  1   
 28  15  36  1   
 29  16  18  1   
 30  16  37  1   
 31  16  38  1   
 32  17  18  1   
 33  17  19  1   
 34  17  39  1   
 35  18  20  1   
 36  18  40  1   
 37  19  41  1   
 38  20  21  1   
 39  20  42  1   
 40  20  43  1   
 41  21  22  2   
 42  21  23  2   
 43  21  24  am  
 44  24  25  1   
 45  24  26  1   
 46  25  44  1   
 47  25  45  1   
 48  25  46  1   
 49  26  47  1   
 50  26  48  1   
 51  26  49  1   
@<TRIPOS>SUBSTRUCTURE
  1 ****  13 GROUP 4 **** **** 0

# MOE 2024.06 (io_trps.svl 2023.06)
