@<TRIPOS>MOLECULE
NONAME
49 52 1 0 0 
SMALL
USER_CHARGES


@<TRIPOS>ATOM
  1 O        0.4300     0.1450    -3.4710 O.2   1 <1>  -0.5700 
  2 C        0.6330    -0.6520    -2.5840 C.2   1 <1>   0.5690 
  3 N        1.2490    -0.3280    -1.4110 N.am  1 <1>  -0.4930 
  4 C        0.1700    -2.0990    -2.7630 C.3   1 <1>   0.1610 
  5 C        1.7530     0.9200    -0.9730 C.2   1 <1>   0.0630 
  6 C       -0.3580    -2.6910    -1.4560 C.2   1 <1>  -0.3320 
  7 C        1.3300    -2.9730    -3.2980 C.3   1 <1>  -0.1600 
  8 C        1.8170     2.1380    -1.6510 C.2   1 <1>   0.1390 
  9 C        2.2860     1.1790     0.2370 C.2   1 <1>  -0.3020 
 10 N       -1.2540    -2.0840    -0.6180 N.pl3 1 <1>   0.0330 
 11 C       -0.0150    -3.8960    -0.9520 C.2   1 <1>  -0.1810 
 12 C        1.0800    -4.4850    -3.1180 C.3   1 <1>  -0.1600 
 13 N        2.3460     3.0790    -0.9260 N.2   1 <1>  -0.7070 
 14 N        2.6390     2.4860     0.2480 N.pl3 1 <1>   0.3140 
 15 C       -1.4530    -2.9130     0.4570 C.ar  1 <1>  -0.1520 
 16 C       -0.6890    -4.0620     0.2760 C.ar  1 <1>   0.0000 
 17 C        0.9260    -4.8670    -1.6350 C.3   1 <1>   0.0210 
 18 C        3.2690     3.2400     1.3670 C.3   1 <1>   0.1760 
 19 C       -2.2490    -2.7560     1.5930 C.ar  1 <1>  -0.1500 
 20 C       -0.7200    -5.0720     1.2440 C.ar  1 <1>  -0.1500 
 21 C        4.6370     2.6420     1.7250 C.3   1 <1>  -0.2400 
 22 C        2.3440     3.2700     2.5910 C.3   1 <1>  -0.2400 
 23 C       -2.2680    -3.7580     2.5360 C.ar  1 <1>  -0.1500 
 24 C       -1.5030    -4.9210     2.3660 C.ar  1 <1>  -0.1430 
 25 C       -1.5580    -5.9980     3.4340 C.3   1 <1>  -0.0970 
 26 H        1.3080    -1.0920    -0.7330 H     1 <1>   0.3700 
 27 H       -0.6320    -2.1100    -3.4800 H     1 <1>   0.0800 
 28 H        2.2360    -2.7170    -2.7740 H     1 <1>   0.0800 
 29 H        1.4850    -2.7490    -4.3390 H     1 <1>   0.0800 
 30 H        1.4700     2.2860    -2.6590 H     1 <1>   0.1500 
 31 H        2.4330     0.5260     1.0750 H     1 <1>   0.1500 
 32 H       -1.7070    -1.1720    -0.7490 H     1 <1>   0.2700 
 33 H        1.8920    -5.0450    -3.5490 H     1 <1>   0.0800 
 34 H        0.1780    -4.7530    -3.6420 H     1 <1>   0.0800 
 35 H        0.5370    -5.8670    -1.5560 H     1 <1>   0.0800 
 36 H        1.8810    -4.8330    -1.1410 H     1 <1>   0.0800 
 37 H        3.4160     4.2490     1.0230 H     1 <1>   0.0800 
 38 H       -2.8360    -1.8650     1.7210 H     1 <1>   0.1500 
 39 H       -0.1260    -5.9530     1.0880 H     1 <1>   0.1500 
 40 H        4.5320     1.6360     2.0910 H     1 <1>   0.0800 
 41 H        5.1100     3.2360     2.4860 H     1 <1>   0.0800 
 42 H        5.2720     2.6380     0.8560 H     1 <1>   0.0800 
 43 H        2.1850     2.2790     2.9760 H     1 <1>   0.0800 
 44 H        1.3960     3.7030     2.3220 H     1 <1>   0.0800 
 45 H        2.7810     3.8730     3.3670 H     1 <1>   0.0800 
 46 H       -2.8760    -3.6540     3.4170 H     1 <1>   0.1500 
 47 H       -0.9260    -6.8280     3.1750 H     1 <1>   0.0800 
 48 H       -2.5670    -6.3550     3.5400 H     1 <1>   0.0800 
 49 H       -1.2290    -5.5970     4.3750 H     1 <1>   0.0800 
@<TRIPOS>BOND
  1   1   2  2   
  2   2   3  am  
  3   2   4  1   
  4   3   5  1   
  5   3  26  1   
  6   4   6  1   
  7   4   7  1   
  8   4  27  1   
  9   5   8  1   
 10   5   9  2   
 11   6  10  1   
 12   6  11  2   
 13   7  12  1   
 14   7  28  1   
 15   7  29  1   
 16   8  13  2   
 17   8  30  1   
 18   9  14  1   
 19   9  31  1   
 20  10  15  1   
 21  10  32  1   
 22  11  16  1   
 23  11  17  1   
 24  12  17  1   
 25  12  33  1   
 26  12  34  1   
 27  13  14  1   
 28  14  18  1   
 29  15  16  ar  
 30  15  19  ar  
 31  16  20  ar  
 32  17  35  1   
 33  17  36  1   
 34  18  21  1   
 35  18  22  1   
 36  18  37  1   
 37  19  23  ar  
 38  19  38  1   
 39  20  24  ar  
 40  20  39  1   
 41  21  40  1   
 42  21  41  1   
 43  21  42  1   
 44  22  43  1   
 45  22  44  1   
 46  22  45  1   
 47  23  24  ar  
 48  23  46  1   
 49  24  25  1   
 50  25  47  1   
 51  25  48  1   
 52  25  49  1   
@<TRIPOS>SUBSTRUCTURE
  1 ****   3 GROUP 4 **** **** 0

# MOE 2024.06 (io_trps.svl 2023.06)
