@<TRIPOS>MOLECULE
NONAME
53 56 1 0 0 
SMALL
USER_CHARGES


@<TRIPOS>ATOM
  1 O       -0.4850    -0.3370    -0.1070 O.2   1 <1>  -0.5700 
  2 C       -1.4740     0.3690    -0.0700 C.2   1 <1>   0.7160 
  3 N       -2.6950    -0.2240    -0.1990 N.am  1 <1>  -0.7300 
  4 C       -1.3780     1.7890     0.1080 C.2   1 <1>  -0.0860 
  5 C       -3.0360    -1.6340    -0.4930 C.3   1 <1>   0.2200 
  6 C       -2.4460     2.6990     0.0910 C.2   1 <1>   0.3720 
  7 C       -0.3010     2.5870     0.3550 C.2   1 <1>   0.0870 
  8 C       -2.3550    -2.5890     0.5020 C.3   1 <1>   0.0960 
  9 C       -2.6770    -1.9200    -1.9540 C.3   1 <1>  -0.2400 
 10 N       -2.0430     3.8990     0.3190 N.2   1 <1>  -0.4100 
 11 N       -3.7920     2.3820    -0.1510 N.pl3 1 <1>  -0.8210 
 12 O       -0.7510     3.8100     0.4780 O.3   1 <1>  -0.0190 
 13 C        1.1120     2.3490     0.5000 C.ar  1 <1>   0.0530 
 14 N       -2.8150    -3.9720     0.2970 N.pl3 1 <1>   0.3140 
 15 C       -4.2880     2.8870    -1.4630 C.3   1 <1>   0.2090 
 16 C       -4.7270     2.8500     0.9140 C.3   1 <1>   0.2090 
 17 C        1.8240     2.9360     1.5460 C.ar  1 <1>  -0.1500 
 18 C        1.8280     1.5530    -0.3950 C.ar  1 <1>  -0.1500 
 19 N       -4.0680    -4.3580     0.4970 N.2   1 <1>  -0.7070 
 20 C       -2.1050    -5.0280    -0.1110 C.2   1 <1>   0.0360 
 21 C       -5.7020     3.3890    -1.2110 C.3   1 <1>  -0.1600 
 22 C       -5.6800     3.8300     0.2430 C.3   1 <1>  -0.1600 
 23 C        3.1820     2.7310     1.6970 C.ar  1 <1>  -0.1500 
 24 C        3.1860     1.3420    -0.2510 C.ar  1 <1>  -0.1500 
 25 C       -4.0230    -5.6150     0.1980 C.2   1 <1>   0.3660 
 26 N       -2.8300    -6.0850    -0.1870 N.2   1 <1>  -0.5650 
 27 C        3.8770     1.9320     0.8040 C.ar  1 <1>   0.0830 
 28 O        5.2040     1.7780     1.0200 O.3   1 <1>  -0.3620 
 29 C        5.9970     0.9660     0.1840 C.3   1 <1>   0.0400 
 30 H       -3.4800     0.4460    -0.2200 H     1 <1>   0.3700 
 31 H       -4.1020    -1.7390    -0.3730 H     1 <1>   0.0800 
 32 H       -2.6030    -2.3020     1.5060 H     1 <1>   0.0800 
 33 H       -1.2890    -2.5680     0.3810 H     1 <1>   0.0800 
 34 H       -1.6130    -1.8670    -2.1020 H     1 <1>   0.0800 
 35 H       -3.1590    -1.2070    -2.5990 H     1 <1>   0.0800 
 36 H       -3.0140    -2.9010    -2.2360 H     1 <1>   0.0800 
 37 H       -4.2790     2.1020    -2.2000 H     1 <1>   0.0800 
 38 H       -3.6690     3.7010    -1.8070 H     1 <1>   0.0800 
 39 H       -4.2060     3.3180     1.7330 H     1 <1>   0.0800 
 40 H       -5.2750     2.0030     1.2890 H     1 <1>   0.0800 
 41 H        1.3020     3.5610     2.2490 H     1 <1>   0.1500 
 42 H        1.3090     1.0940    -1.2170 H     1 <1>   0.1500 
 43 H       -1.0560    -4.9770    -0.3420 H     1 <1>   0.1500 
 44 H       -6.3940     2.5750    -1.3410 H     1 <1>   0.0800 
 45 H       -5.9670     4.1890    -1.8790 H     1 <1>   0.0800 
 46 H       -5.2670     4.8210     0.3200 H     1 <1>   0.0800 
 47 H       -6.6550     3.8160     0.6960 H     1 <1>   0.0800 
 48 H        3.7160     3.1890     2.5100 H     1 <1>   0.1500 
 49 H        3.6900     0.7180    -0.9640 H     1 <1>   0.1500 
 50 H       -4.8810    -6.2660     0.2480 H     1 <1>   0.1500 
 51 H        7.0060     0.9900     0.5540 H     1 <1>   0.0800 
 52 H        5.9650     1.3590    -0.8170 H     1 <1>   0.0800 
 53 H        5.6200    -0.0410     0.2160 H     1 <1>   0.0800 
@<TRIPOS>BOND
  1   1   2  2   
  2   2   3  am  
  3   2   4  1   
  4   3   5  1   
  5   3  30  1   
  6   4   6  1   
  7   4   7  2   
  8   5   8  1   
  9   5   9  1   
 10   5  31  1   
 11   6  10  2   
 12   6  11  1   
 13   7  12  1   
 14   7  13  1   
 15   8  14  1   
 16   8  32  1   
 17   8  33  1   
 18   9  34  1   
 19   9  35  1   
 20   9  36  1   
 21  10  12  1   
 22  11  15  1   
 23  11  16  1   
 24  13  17  ar  
 25  13  18  ar  
 26  14  19  1   
 27  14  20  1   
 28  15  21  1   
 29  15  37  1   
 30  15  38  1   
 31  16  22  1   
 32  16  39  1   
 33  16  40  1   
 34  17  23  ar  
 35  17  41  1   
 36  18  24  ar  
 37  18  42  1   
 38  19  25  2   
 39  20  26  2   
 40  20  43  1   
 41  21  22  1   
 42  21  44  1   
 43  21  45  1   
 44  22  46  1   
 45  22  47  1   
 46  23  27  ar  
 47  23  48  1   
 48  24  27  ar  
 49  24  49  1   
 50  25  26  1   
 51  25  50  1   
 52  27  28  1   
 53  28  29  1   
 54  29  51  1   
 55  29  52  1   
 56  29  53  1   
@<TRIPOS>SUBSTRUCTURE
  1 ****   2 GROUP 4 **** **** 0

# MOE 2024.06 (io_trps.svl 2023.06)
