@<TRIPOS>MOLECULE
NONAME
40 41 1 0 0 
SMALL
USER_CHARGES


@<TRIPOS>ATOM
  1 S        0.3220     0.8220    -0.9130 S.o2  1 <1>   1.3330 
  2 O        0.6180    -0.5760    -1.1300 O.2   1 <1>  -0.6500 
  3 O       -0.0700     1.6350    -2.0430 O.2   1 <1>  -0.6500 
  4 N        1.6880     1.5160    -0.1850 N.am  1 <1>  -0.8490 
  5 C       -0.9750     0.9220     0.3340 C.3   1 <1>  -0.0550 
  6 C        2.4340     0.6050     0.6850 C.3   1 <1>   0.1160 
  7 C        2.5940     2.1540    -1.1440 C.3   1 <1>   0.1160 
  8 C       -1.4000     2.3000     0.9060 C.3   1 <1>  -0.0800 
  9 C       -1.7450     3.3630    -0.1440 C.3   1 <1>   0.2000 
 10 C       -0.3400     2.9580     1.8000 C.3   1 <1>   0.1400 
 11 O       -2.7620     4.1450     0.3810 O.3   1 <1>  -0.6800 
 12 C       -0.4960     4.2380    -0.2680 C.3   1 <1>   0.1400 
 13 N        0.2040     4.1030     1.0340 N.am  1 <1>  -0.6600 
 14 C        1.3950     4.7160     1.3850 C.2   1 <1>   0.5440 
 15 O        1.8530     4.4340     2.4820 O.2   1 <1>  -0.5700 
 16 C        2.1000     5.6970     0.5470 C.ar  1 <1>   0.3960 
 17 N        2.1230     5.5790    -0.7950 N.ar  1 <1>  -0.6200 
 18 C        2.7580     6.7540     1.1800 C.ar  1 <1>  -0.1500 
 19 C        2.7780     6.5020    -1.4750 C.ar  1 <1>   0.1600 
 20 C        3.4400     7.7110     0.4620 C.ar  1 <1>  -0.1500 
 21 C        3.4430     7.5730    -0.9070 C.ar  1 <1>  -0.1500 
 22 H       -1.8530     0.4770    -0.0920 H     1 <1>   0.0800 
 23 H       -0.6930     0.2980     1.1580 H     1 <1>   0.0800 
 24 H        3.2090     1.1450     1.2030 H     1 <1>   0.0800 
 25 H        2.8810    -0.1870     0.1060 H     1 <1>   0.0800 
 26 H        1.7770     0.1700     1.4180 H     1 <1>   0.0800 
 27 H        3.4040     2.6360    -0.6250 H     1 <1>   0.0800 
 28 H        2.0700     2.9060    -1.7090 H     1 <1>   0.0800 
 29 H        2.9910     1.4220    -1.8280 H     1 <1>   0.0800 
 30 H       -2.2680     2.1030     1.5110 H     1 <1>   0.0800 
 31 H       -2.0800     2.9640    -1.0860 H     1 <1>   0.0800 
 32 H        0.4480     2.2760     2.0680 H     1 <1>   0.0800 
 33 H       -0.7920     3.3330     2.7020 H     1 <1>   0.0800 
 34 H       -2.4050     4.6610     1.1310 H     1 <1>   0.4000 
 35 H       -0.7440     5.2640    -0.4800 H     1 <1>   0.0800 
 36 H        0.1390     3.8660    -1.0500 H     1 <1>   0.0800 
 37 H        2.7290     6.8150     2.2540 H     1 <1>   0.1500 
 38 H        2.7880     6.4020    -2.5480 H     1 <1>   0.1500 
 39 H        3.9470     8.5280     0.9480 H     1 <1>   0.1500 
 40 H        3.9550     8.2850    -1.5290 H     1 <1>   0.1500 
@<TRIPOS>BOND
  1   1   2  2   
  2   1   3  2   
  3   1   4  am  
  4   1   5  1   
  5   4   6  1   
  6   4   7  1   
  7   5   8  1   
  8   5  22  1   
  9   5  23  1   
 10   6  24  1   
 11   6  25  1   
 12   6  26  1   
 13   7  27  1   
 14   7  28  1   
 15   7  29  1   
 16   8   9  1   
 17   8  10  1   
 18   8  30  1   
 19   9  11  1   
 20   9  12  1   
 21   9  31  1   
 22  10  13  1   
 23  10  32  1   
 24  10  33  1   
 25  11  34  1   
 26  12  13  1   
 27  12  35  1   
 28  12  36  1   
 29  13  14  am  
 30  14  15  2   
 31  14  16  1   
 32  16  17  ar  
 33  16  18  ar  
 34  17  19  ar  
 35  18  20  ar  
 36  18  37  1   
 37  19  21  ar  
 38  19  38  1   
 39  20  21  ar  
 40  20  39  1   
 41  21  40  1   
@<TRIPOS>SUBSTRUCTURE
  1 ****  13 GROUP 4 **** **** 0

# MOE 2024.06 (io_trps.svl 2023.06)
