@<TRIPOS>MOLECULE
NONAME
41 42 1 0 0 
SMALL
USER_CHARGES


@<TRIPOS>ATOM
  1 O        0.8300    -0.2540     1.9460 O.co2 1 <1>  -0.9000 
  2 C        1.3420    -0.4850     0.8440 C.2   1 <1>   0.9060 
  3 O        1.0520    -1.5090     0.2020 O.co2 1 <1>  -0.9000 
  4 C        2.3580     0.5030     0.2360 C.3   1 <1>  -0.1060 
  5 C        3.5770    -0.3270    -0.2390 C.3   1 <1>   0.2000 
  6 C        2.9030     1.4780     1.3200 C.3   1 <1>  -0.1600 
  7 C        1.6950     1.2790    -0.9480 C.3   1 <1>  -0.1600 
  8 O        3.1990    -1.1910    -1.2570 O.3   1 <1>  -0.6800 
  9 C        4.7600     0.5310    -0.7190 C.3   1 <1>   0.2090 
 10 C        4.0490     2.3670     0.8250 C.3   1 <1>   0.2090 
 11 C        0.4960     2.1590    -0.5540 C.3   1 <1>  -0.1600 
 12 N        5.1710     1.5280     0.3190 N.pl3 1 <1>  -0.8380 
 13 C       -0.1600     2.7790    -1.7910 C.3   1 <1>  -0.2400 
 14 C        6.4180     2.1080     0.1750 C.ar  1 <1>   0.4100 
 15 N        6.4660     3.4060    -0.1060 N.ar  1 <1>  -0.6200 
 16 C        7.5580     1.3230     0.3230 C.ar  1 <1>  -0.1500 
 17 C        7.6750     3.9220    -0.2480 C.ar  1 <1>   0.1600 
 18 C        8.8080     1.8740     0.1720 C.ar  1 <1>  -0.1500 
 19 C        8.8660     3.2210    -0.1250 C.ar  1 <1>  -0.1440 
 20 C       10.2120     3.9000    -0.3060 C.3   1 <1>  -0.0970 
 21 H        3.9160    -0.9430     0.5760 H     1 <1>   0.0800 
 22 H        3.2660     0.9040     2.1550 H     1 <1>   0.0800 
 23 H        2.1100     2.0920     1.7030 H     1 <1>   0.0800 
 24 H        2.4210     1.8930    -1.4480 H     1 <1>   0.0800 
 25 H        1.3470     0.5570    -1.6670 H     1 <1>   0.0800 
 26 H        2.3240    -1.5750    -0.9470 H     1 <1>   0.4000 
 27 H        4.4870     1.0560    -1.6170 H     1 <1>   0.0800 
 28 H        5.5860    -0.1180    -0.9450 H     1 <1>   0.0800 
 29 H        4.4040     2.9780     1.6370 H     1 <1>   0.0800 
 30 H        3.7090     3.0210     0.0410 H     1 <1>   0.0800 
 31 H       -0.2330     1.5630    -0.0290 H     1 <1>   0.0800 
 32 H        0.8130     2.9500     0.1020 H     1 <1>   0.0800 
 33 H       -0.5170     2.0050    -2.4480 H     1 <1>   0.0800 
 34 H        0.5470     3.3900    -2.3230 H     1 <1>   0.0800 
 35 H       -0.9940     3.3900    -1.4960 H     1 <1>   0.0800 
 36 H        7.4360     0.2840     0.5630 H     1 <1>   0.1500 
 37 H        7.7180     4.9720    -0.4770 H     1 <1>   0.1500 
 38 H        9.6990     1.2810     0.2820 H     1 <1>   0.1500 
 39 H       10.7520     3.4310    -1.1090 H     1 <1>   0.0800 
 40 H       10.7890     3.8160     0.5970 H     1 <1>   0.0800 
 41 H       10.0900     4.9430    -0.5390 H     1 <1>   0.0800 
@<TRIPOS>BOND
  1   1   2  ar  
  2   2   3  ar  
  3   2   4  1   
  4   4   5  1   
  5   4   6  1   
  6   4   7  1   
  7   5   8  1   
  8   5   9  1   
  9   5  21  1   
 10   6  10  1   
 11   6  22  1   
 12   6  23  1   
 13   7  11  1   
 14   7  24  1   
 15   7  25  1   
 16   8  26  1   
 17   9  12  1   
 18   9  27  1   
 19   9  28  1   
 20  10  12  1   
 21  10  29  1   
 22  10  30  1   
 23  11  13  1   
 24  11  31  1   
 25  11  32  1   
 26  12  14  1   
 27  13  33  1   
 28  13  34  1   
 29  13  35  1   
 30  14  15  ar  
 31  14  16  ar  
 32  15  17  ar  
 33  16  18  ar  
 34  16  36  1   
 35  17  19  ar  
 36  17  37  1   
 37  18  19  ar  
 38  18  38  1   
 39  19  20  1   
 40  20  39  1   
 41  20  40  1   
 42  20  41  1   
@<TRIPOS>SUBSTRUCTURE
  1 ****  12 GROUP 4 **** **** 0

# MOE 2024.06 (io_trps.svl 2023.06)
