@<TRIPOS>MOLECULE
NONAME
46 49 1 0 0 
SMALL
USER_CHARGES


@<TRIPOS>ATOM
  1 S       -0.1200    -0.1590    -0.4890 S.3   1 <1>  -0.0800 
  2 C       -1.0960    -1.1260     0.6130 C.2   1 <1>  -0.0450 
  3 C       -0.2630     1.3020     0.4860 C.2   1 <1>  -0.0450 
  4 C       -1.3410    -2.5120     0.2980 C.2   1 <1>   0.7150 
  5 C       -1.4740    -0.3320     1.6490 C.2   1 <1>  -0.1500 
  6 C        0.3650     2.5230     0.0710 C.2   1 <1>   0.5940 
  7 C       -1.0180     1.0080     1.5770 C.2   1 <1>  -0.1500 
  8 O       -0.5880    -3.1230    -0.4400 O.2   1 <1>  -0.5700 
  9 N       -2.4340    -3.1790     0.8060 N.am  1 <1>  -0.6600 
 10 O        0.2650     3.5470     0.6980 O.2   1 <1>  -0.5700 
 11 C        1.1920     2.5660    -1.1970 C.3   1 <1>  -0.1790 
 12 C       -2.5090    -4.6760     0.7940 C.3   1 <1>   0.1400 
 13 C       -3.7820    -2.5410     0.9000 C.3   1 <1>   0.1400 
 14 C       -3.5390    -5.1700    -0.2380 C.3   1 <1>   0.3440 
 15 C       -4.7510    -3.1530    -0.1320 C.3   1 <1>   0.2950 
 16 O       -4.7770    -4.5450    -0.0130 O.3   1 <1>  -0.5600 
 17 C       -3.7020    -6.6850    -0.1470 C.ar  1 <1>  -0.1440 
 18 C       -6.1820    -2.6480     0.0750 C.3   1 <1>  -0.1950 
 19 C       -2.8860    -7.5050    -0.9130 C.ar  1 <1>  -0.1500 
 20 C       -4.6400    -7.2670     0.6960 C.ar  1 <1>  -0.1500 
 21 C       -7.1810    -2.6800    -1.0370 C.3   1 <1>  -0.2000 
 22 C       -6.6470    -1.3650    -0.5420 C.3   1 <1>  -0.2000 
 23 C       -3.0030    -8.8830    -0.8370 C.ar  1 <1>  -0.1500 
 24 C       -4.7590    -8.6440     0.7720 C.ar  1 <1>  -0.1500 
 25 C       -3.9400    -9.4530     0.0060 C.ar  1 <1>  -0.1500 
 26 H       -2.0680    -0.6660     2.4830 H     1 <1>   0.1500 
 27 H       -1.2600     1.7260     2.3430 H     1 <1>   0.1500 
 28 H        2.0060     1.8690    -1.1270 H     1 <1>   0.0800 
 29 H        1.5940     3.5530    -1.3380 H     1 <1>   0.0800 
 30 H        0.5780     2.3190    -2.0430 H     1 <1>   0.0800 
 31 H       -1.5480    -5.1030     0.5680 H     1 <1>   0.0800 
 32 H       -2.7970    -5.0250     1.7700 H     1 <1>   0.0800 
 33 H       -4.1760    -2.6880     1.8900 H     1 <1>   0.0800 
 34 H       -3.7190    -1.4830     0.7200 H     1 <1>   0.0800 
 35 H       -3.2110    -4.9100    -1.2290 H     1 <1>   0.0800 
 36 H       -4.4250    -2.9080    -1.1280 H     1 <1>   0.0800 
 37 H       -6.5490    -2.8770     1.0610 H     1 <1>   0.1000 
 38 H       -2.1510    -7.0760    -1.5720 H     1 <1>   0.1500 
 39 H       -5.2860    -6.6470     1.2940 H     1 <1>   0.1500 
 40 H       -6.8680    -3.0460    -2.0000 H     1 <1>   0.1000 
 41 H       -8.1950    -2.9560    -0.8040 H     1 <1>   0.1000 
 42 H       -7.3060    -0.7250     0.0210 H     1 <1>   0.1000 
 43 H       -5.9900    -0.8110    -1.1890 H     1 <1>   0.1000 
 44 H       -2.3650    -9.5100    -1.4350 H     1 <1>   0.1500 
 45 H       -5.4910    -9.0840     1.4270 H     1 <1>   0.1500 
 46 H       -4.0320   -10.5240     0.0640 H     1 <1>   0.1500 
@<TRIPOS>BOND
  1   1   2  1   
  2   1   3  1   
  3   2   4  1   
  4   2   5  2   
  5   3   6  1   
  6   3   7  2   
  7   4   8  2   
  8   4   9  am  
  9   5   7  1   
 10   5  26  1   
 11   6  10  2   
 12   6  11  1   
 13   7  27  1   
 14   9  12  1   
 15   9  13  1   
 16  11  28  1   
 17  11  29  1   
 18  11  30  1   
 19  12  14  1   
 20  12  31  1   
 21  12  32  1   
 22  13  15  1   
 23  13  33  1   
 24  13  34  1   
 25  14  16  1   
 26  14  17  1   
 27  14  35  1   
 28  15  16  1   
 29  15  18  1   
 30  15  36  1   
 31  17  19  ar  
 32  17  20  ar  
 33  18  21  1   
 34  18  22  1   
 35  18  37  1   
 36  19  23  ar  
 37  19  38  1   
 38  20  24  ar  
 39  20  39  1   
 40  21  22  1   
 41  21  40  1   
 42  21  41  1   
 43  22  42  1   
 44  22  43  1   
 45  23  25  ar  
 46  23  44  1   
 47  24  25  ar  
 48  24  45  1   
 49  25  46  1   
@<TRIPOS>SUBSTRUCTURE
  1 ****   9 GROUP 4 **** **** 0

# MOE 2024.06 (io_trps.svl 2023.06)
