@<TRIPOS>MOLECULE
NONAME
57 60 1 0 0 
SMALL
USER_CHARGES


@<TRIPOS>ATOM
  1 O        1.7270     0.7770    -2.2330 O.2   1 <1>  -0.5700 
  2 C        1.8750     0.8860    -1.0280 C.2   1 <1>   0.5440 
  3 N        1.2680     1.9430    -0.3870 N.am  1 <1>  -0.6600 
  4 C        2.6870    -0.0490    -0.2940 C.ar  1 <1>   0.0860 
  5 C        1.2390     2.1520     1.0770 C.3   1 <1>   0.1400 
  6 C        0.3780     2.8960    -1.0830 C.3   1 <1>   0.1400 
  7 C        2.2730    -1.3720    -0.0310 C.ar  1 <1>   0.4100 
  8 C        3.9290     0.3530     0.1790 C.ar  1 <1>  -0.1500 
  9 C        0.0270     3.0470     1.3070 C.3   1 <1>  -0.1600 
 10 C       -0.1160     3.8400     0.0090 C.3   1 <1>  -0.1600 
 11 N        3.0180    -2.2460     0.6490 N.ar  1 <1>  -0.6200 
 12 N        1.0590    -1.8820    -0.4560 N.pl3 1 <1>  -0.8380 
 13 C        4.6880    -0.5540     0.8800 C.ar  1 <1>  -0.1500 
 14 C        4.1880    -1.8270     1.0830 C.ar  1 <1>   0.1600 
 15 C        1.0110    -3.1410    -1.2350 C.3   1 <1>   0.2090 
 16 C       -0.2380    -1.1790    -0.2960 C.3   1 <1>   0.2090 
 17 C        0.0190    -4.1030    -0.5790 C.3   1 <1>  -0.1600 
 18 C       -1.2540    -2.1260     0.3440 C.3   1 <1>  -0.1600 
 19 C       -1.3780    -3.4590    -0.4250 C.3   1 <1>  -0.0800 
 20 C       -2.4270    -4.3900     0.2260 C.3   1 <1>   0.2000 
 21 O       -2.0300    -4.6850     1.5210 O.3   1 <1>  -0.6800 
 22 C       -2.6500    -5.7020    -0.5500 C.3   1 <1>  -0.0170 
 23 C       -3.9590    -6.3880    -0.1750 C.ar  1 <1>  -0.1430 
 24 C       -5.0480    -6.3410    -1.0330 C.ar  1 <1>  -0.1500 
 25 C       -4.0740    -7.0710     1.0250 C.ar  1 <1>  -0.1500 
 26 C       -6.2340    -6.9700    -0.6970 C.ar  1 <1>  -0.1500 
 27 C       -5.2590    -7.7010     1.3650 C.ar  1 <1>  -0.1500 
 28 C       -6.3400    -7.6520     0.5030 C.ar  1 <1>  -0.1500 
 29 H        2.1400     2.6590     1.3760 H     1 <1>   0.0800 
 30 H        1.1500     1.2200     1.6100 H     1 <1>   0.0800 
 31 H       -0.4420     2.3540    -1.5220 H     1 <1>   0.0800 
 32 H        0.9150     3.4210    -1.8550 H     1 <1>   0.0800 
 33 H        4.2810     1.3530    -0.0080 H     1 <1>   0.1500 
 34 H        0.1560     3.6830     2.1650 H     1 <1>   0.0800 
 35 H       -0.8410     2.4290     1.4550 H     1 <1>   0.0800 
 36 H       -1.1270     4.1600    -0.1690 H     1 <1>   0.0800 
 37 H        0.5250     4.7040     0.0360 H     1 <1>   0.0800 
 38 H        5.6550    -0.2860     1.2640 H     1 <1>   0.1500 
 39 H        4.7860    -2.5360     1.6310 H     1 <1>   0.1500 
 40 H        1.9880    -3.5930    -1.2770 H     1 <1>   0.0800 
 41 H        0.7020    -2.9170    -2.2420 H     1 <1>   0.0800 
 42 H       -0.5830    -0.8520    -1.2620 H     1 <1>   0.0800 
 43 H       -0.1180    -0.3170     0.3350 H     1 <1>   0.0800 
 44 H        0.4180    -4.3790     0.3810 H     1 <1>   0.0800 
 45 H       -0.0370    -4.9890    -1.1830 H     1 <1>   0.0800 
 46 H       -2.2110    -1.6380     0.3840 H     1 <1>   0.0800 
 47 H       -0.9420    -2.3100     1.3570 H     1 <1>   0.0800 
 48 H       -1.7350    -3.2210    -1.4120 H     1 <1>   0.0800 
 49 H       -3.3680    -3.8710     0.2940 H     1 <1>   0.0800 
 50 H       -1.0620    -4.8000     1.5460 H     1 <1>   0.4000 
 51 H       -1.8290    -6.3750    -0.3830 H     1 <1>   0.0800 
 52 H       -2.6730    -5.4810    -1.6010 H     1 <1>   0.0800 
 53 H       -4.9810    -5.8150    -1.9690 H     1 <1>   0.1500 
 54 H       -3.2400    -7.1080     1.7040 H     1 <1>   0.1500 
 55 H       -7.0740    -6.9300    -1.3670 H     1 <1>   0.1500 
 56 H       -5.3390    -8.2270     2.3000 H     1 <1>   0.1500 
 57 H       -7.2620    -8.1410     0.7660 H     1 <1>   0.1500 
@<TRIPOS>BOND
  1   1   2  2   
  2   2   3  am  
  3   2   4  1   
  4   3   5  1   
  5   3   6  1   
  6   4   7  ar  
  7   4   8  ar  
  8   5   9  1   
  9   5  29  1   
 10   5  30  1   
 11   6  10  1   
 12   6  31  1   
 13   6  32  1   
 14   7  11  ar  
 15   7  12  1   
 16   8  13  ar  
 17   8  33  1   
 18   9  10  1   
 19   9  34  1   
 20   9  35  1   
 21  10  36  1   
 22  10  37  1   
 23  11  14  ar  
 24  12  15  1   
 25  12  16  1   
 26  13  14  ar  
 27  13  38  1   
 28  14  39  1   
 29  15  17  1   
 30  15  40  1   
 31  15  41  1   
 32  16  18  1   
 33  16  42  1   
 34  16  43  1   
 35  17  19  1   
 36  17  44  1   
 37  17  45  1   
 38  18  19  1   
 39  18  46  1   
 40  18  47  1   
 41  19  20  1   
 42  19  48  1   
 43  20  21  1   
 44  20  22  1   
 45  20  49  1   
 46  21  50  1   
 47  22  23  1   
 48  22  51  1   
 49  22  52  1   
 50  23  24  ar  
 51  23  25  ar  
 52  24  26  ar  
 53  24  53  1   
 54  25  27  ar  
 55  25  54  1   
 56  26  28  ar  
 57  26  55  1   
 58  27  28  ar  
 59  27  56  1   
 60  28  57  1   
@<TRIPOS>SUBSTRUCTURE
  1 ****  18 GROUP 4 **** **** 0

# MOE 2024.06 (io_trps.svl 2023.06)
