@<TRIPOS>MOLECULE
NONAME
47 50 1 0 0 
SMALL
USER_CHARGES


@<TRIPOS>ATOM
  1 O        0.4820    -0.5810     1.3050 O.2   1 <1>  -0.5700 
  2 C        0.3110    -1.7810     1.1460 C.2   1 <1>   0.6160 
  3 N        0.8750    -2.4430     0.0650 N.am  1 <1>  -0.4690 
  4 C       -0.4700    -2.5480     2.0520 C.2   1 <1>  -0.1360 
  5 C        0.6650    -3.7900    -0.1150 C.2   1 <1>  -0.0410 
  6 C        1.7220    -1.6810    -0.8880 C.3   1 <1>   0.0600 
  7 C       -0.6730    -3.8790     1.8650 C.2   1 <1>  -0.1500 
  8 C       -0.1050    -4.5460     0.7350 C.2   1 <1>   0.0140 
  9 C       -0.3220    -5.9580     0.5120 C.2   1 <1>   0.6160 
 10 O        0.5260    -6.6200    -0.0600 O.2   1 <1>  -0.5700 
 11 N       -1.4840    -6.5900     0.8980 N.am  1 <1>  -0.6600 
 12 C       -1.5450    -8.0800     1.0290 C.3   1 <1>   0.1400 
 13 C       -2.8280    -5.9890     0.6370 C.3   1 <1>   0.1400 
 14 C       -2.3160    -8.7040    -0.1470 C.3   1 <1>   0.3430 
 15 C       -3.5480    -6.7250    -0.5180 C.3   1 <1>   0.2950 
 16 O       -3.5800    -8.1000    -0.2640 O.3   1 <1>  -0.5600 
 17 C       -2.4800   -10.2070     0.0570 C.ar  1 <1>  -0.1440 
 18 C       -5.0030    -6.2830    -0.7540 C.3   1 <1>  -0.1950 
 19 C       -1.5040   -11.0700    -0.4210 C.ar  1 <1>  -0.1500 
 20 C       -3.5770   -10.7360     0.7250 C.ar  1 <1>  -0.1500 
 21 C       -5.5040    -4.8940    -0.4960 C.3   1 <1>  -0.2000 
 22 C       -5.9900    -6.0410     0.3460 C.3   1 <1>  -0.2000 
 23 C       -1.6210   -12.4370    -0.2350 C.ar  1 <1>  -0.1500 
 24 C       -3.6960   -12.1030     0.9110 C.ar  1 <1>  -0.1500 
 25 C       -2.7170   -12.9540     0.4320 C.ar  1 <1>  -0.1500 
 26 H       -0.8790    -2.0140     2.8880 H     1 <1>   0.1500 
 27 H        1.1330    -4.2580    -0.9670 H     1 <1>   0.1500 
 28 H        2.1020    -2.3260    -1.6600 H     1 <1>   0.0800 
 29 H        2.5490    -1.2400    -0.3580 H     1 <1>   0.0800 
 30 H        1.1390    -0.8950    -1.3370 H     1 <1>   0.0800 
 31 H       -1.2530    -4.4590     2.5620 H     1 <1>   0.1500 
 32 H       -0.5540    -8.4970     1.0650 H     1 <1>   0.0800 
 33 H       -2.0400    -8.3380     1.9480 H     1 <1>   0.0800 
 34 H       -3.4190    -6.0540     1.5330 H     1 <1>   0.0800 
 35 H       -2.7270    -4.9510     0.3770 H     1 <1>   0.0800 
 36 H       -1.7780    -8.5290    -1.0630 H     1 <1>   0.0800 
 37 H       -2.9950    -6.5680    -1.4280 H     1 <1>   0.0800 
 38 H       -5.3900    -6.7630    -1.6360 H     1 <1>   0.1000 
 39 H       -0.6450   -10.6820    -0.9400 H     1 <1>   0.1500 
 40 H       -4.3470   -10.0820     1.0990 H     1 <1>   0.1500 
 41 H       -4.8800    -4.1550    -0.0250 H     1 <1>   0.1000 
 42 H       -6.1850    -4.4540    -1.2050 H     1 <1>   0.1000 
 43 H       -6.9960    -6.4000     0.2090 H     1 <1>   0.1000 
 44 H       -5.6730    -6.1130     1.3710 H     1 <1>   0.1000 
 45 H       -0.8590   -13.0980    -0.6100 H     1 <1>   0.1500 
 46 H       -4.5510   -12.5010     1.4280 H     1 <1>   0.1500 
 47 H       -2.8090   -14.0160     0.5760 H     1 <1>   0.1500 
@<TRIPOS>BOND
  1   1   2  2   
  2   2   3  am  
  3   2   4  1   
  4   3   5  1   
  5   3   6  1   
  6   4   7  2   
  7   4  26  1   
  8   5   8  2   
  9   5  27  1   
 10   6  28  1   
 11   6  29  1   
 12   6  30  1   
 13   7   8  1   
 14   7  31  1   
 15   8   9  1   
 16   9  10  2   
 17   9  11  am  
 18  11  12  1   
 19  11  13  1   
 20  12  14  1   
 21  12  32  1   
 22  12  33  1   
 23  13  15  1   
 24  13  34  1   
 25  13  35  1   
 26  14  16  1   
 27  14  17  1   
 28  14  36  1   
 29  15  16  1   
 30  15  18  1   
 31  15  37  1   
 32  17  19  ar  
 33  17  20  ar  
 34  18  21  1   
 35  18  22  1   
 36  18  38  1   
 37  19  23  ar  
 38  19  39  1   
 39  20  24  ar  
 40  20  40  1   
 41  21  22  1   
 42  21  41  1   
 43  21  42  1   
 44  22  43  1   
 45  22  44  1   
 46  23  25  ar  
 47  23  45  1   
 48  24  25  ar  
 49  24  46  1   
 50  25  47  1   
@<TRIPOS>SUBSTRUCTURE
  1 ****  11 GROUP 4 **** **** 0

# MOE 2024.06 (io_trps.svl 2023.06)
