@<TRIPOS>MOLECULE
NONAME
63 66 1 0 0 
SMALL
USER_CHARGES


@<TRIPOS>ATOM
  1 O        0.3650    -0.0510     0.5510 O.2   1 <1>  -0.5700 
  2 C        1.4230     0.0950     1.1230 C.2   1 <1>   0.5440 
  3 N        1.5720    -0.6030     2.2730 N.am  1 <1>  -0.8000 
  4 C        2.4560     0.9800     0.6090 C.ar  1 <1>   0.0860 
  5 C        3.7920     0.8780     1.0050 C.ar  1 <1>  -0.1500 
  6 C        2.1450     1.9780    -0.3170 C.ar  1 <1>  -0.1500 
  7 C        4.7590     1.7350     0.5130 C.ar  1 <1>  -0.1500 
  8 C        3.1050     2.8390    -0.8160 C.ar  1 <1>  -0.1500 
  9 C        4.4270     2.7230    -0.3990 C.ar  1 <1>   0.0830 
 10 O        5.4280     3.5230    -0.8320 O.3   1 <1>  -0.3630 
 11 C        5.2060     4.5350    -1.7870 C.3   1 <1>   0.1200 
 12 C        6.5420     5.2310    -2.0490 C.3   1 <1>  -0.1600 
 13 C        7.1770     5.6700    -0.7280 C.3   1 <1>   0.3430 
 14 N        8.4790     6.3590    -0.9700 N.4   1 <1>  -0.9590 
 15 C        8.9040     7.2020     0.1990 C.3   1 <1>   0.4230 
 16 C        9.5210     5.3530    -1.3360 C.3   1 <1>   0.3430 
 17 C       10.2700     7.8790    -0.0460 C.3   1 <1>  -0.0800 
 18 C        7.8770     8.3170     0.4610 C.3   1 <1>  -0.1600 
 19 C       10.8480     6.0320    -1.6470 C.3   1 <1>  -0.1600 
 20 C       11.3320     6.8350    -0.4380 C.3   1 <1>   0.4240 
 21 C       10.2040     9.1200    -0.9890 C.3   1 <1>  -0.1600 
 22 C        7.6480     9.2360    -0.7570 C.3   1 <1>  -0.1600 
 23 O       11.4220     5.9320     0.6000 O.3   1 <1>  -0.6800 
 24 C       12.7350     7.4460    -0.5830 C.ar  1 <1>  -0.1430 
 25 C        8.8600     9.3280    -1.7040 C.3   1 <1>  -0.1600 
 26 C       13.4160     7.4920    -1.7980 C.ar  1 <1>  -0.1500 
 27 C       13.3620     7.9830     0.5380 C.ar  1 <1>  -0.1500 
 28 C       14.6780     8.0530    -1.8850 C.ar  1 <1>  -0.1500 
 29 C       14.6230     8.5450     0.4530 C.ar  1 <1>  -0.1500 
 30 C       15.2830     8.5810    -0.7600 C.ar  1 <1>  -0.1500 
 31 H        0.7920    -1.1810     2.5910 H     1 <1>   0.3700 
 32 H        2.3460    -0.4800     2.9220 H     1 <1>   0.3700 
 33 H        4.0820     0.1130     1.7020 H     1 <1>   0.1500 
 34 H        1.1240     2.0740    -0.6470 H     1 <1>   0.1500 
 35 H        5.7810     1.6360     0.8320 H     1 <1>   0.1500 
 36 H        2.8010     3.5850    -1.5260 H     1 <1>   0.1500 
 37 H        4.8250     4.0810    -2.6860 H     1 <1>   0.0800 
 38 H        4.4820     5.2250    -1.3870 H     1 <1>   0.0800 
 39 H        7.1750     4.5380    -2.5720 H     1 <1>   0.0800 
 40 H        6.3670     6.0840    -2.6790 H     1 <1>   0.0800 
 41 H        7.3280     4.8130    -0.0900 H     1 <1>   0.0800 
 42 H        6.4880     6.3310    -0.2320 H     1 <1>   0.0800 
 43 H        8.3600     7.0190    -1.7450 H     1 <1>   0.4500 
 44 H        8.9900     6.5750     1.0730 H     1 <1>   0.0800 
 45 H        9.6610     4.6650    -0.5150 H     1 <1>   0.0800 
 46 H        9.2060     4.7860    -2.1960 H     1 <1>   0.0800 
 47 H       10.5800     8.2700     0.9070 H     1 <1>   0.0800 
 48 H        6.9440     7.9250     0.8220 H     1 <1>   0.0800 
 49 H        8.2610     8.9230     1.2640 H     1 <1>   0.0800 
 50 H       10.7290     6.6710    -2.5020 H     1 <1>   0.0800 
 51 H       11.5780     5.2820    -1.8940 H     1 <1>   0.0800 
 52 H       10.3930     9.9980    -0.3920 H     1 <1>   0.0800 
 53 H       10.9870     9.0910    -1.7270 H     1 <1>   0.0800 
 54 H        6.7930     8.8980    -1.3170 H     1 <1>   0.0800 
 55 H        7.4120    10.2230    -0.3940 H     1 <1>   0.0800 
 56 H       12.3740     5.7330     0.7320 H     1 <1>   0.4000 
 57 H        8.8590    10.2950    -2.1800 H     1 <1>   0.0800 
 58 H        8.7650     8.6050    -2.4940 H     1 <1>   0.0800 
 59 H       12.9900     7.0990    -2.7020 H     1 <1>   0.1500 
 60 H       12.8740     7.9730     1.4980 H     1 <1>   0.1500 
 61 H       15.1920     8.0820    -2.8300 H     1 <1>   0.1500 
 62 H       15.0930     8.9560     1.3300 H     1 <1>   0.1500 
 63 H       16.2650     9.0180    -0.8290 H     1 <1>   0.1500 
@<TRIPOS>BOND
  1   1   2  2   
  2   2   3  am  
  3   2   4  1   
  4   3  31  1   
  5   3  32  1   
  6   4   5  ar  
  7   4   6  ar  
  8   5   7  ar  
  9   5  33  1   
 10   6   8  ar  
 11   6  34  1   
 12   7   9  ar  
 13   7  35  1   
 14   8   9  ar  
 15   8  36  1   
 16   9  10  1   
 17  10  11  1   
 18  11  12  1   
 19  11  37  1   
 20  11  38  1   
 21  12  13  1   
 22  12  39  1   
 23  12  40  1   
 24  13  14  1   
 25  13  41  1   
 26  13  42  1   
 27  14  15  1   
 28  14  16  1   
 29  14  43  1   
 30  15  17  1   
 31  15  18  1   
 32  15  44  1   
 33  16  19  1   
 34  16  45  1   
 35  16  46  1   
 36  17  20  1   
 37  17  21  1   
 38  17  47  1   
 39  18  22  1   
 40  18  48  1   
 41  18  49  1   
 42  19  20  1   
 43  19  50  1   
 44  19  51  1   
 45  20  23  1   
 46  20  24  1   
 47  21  25  1   
 48  21  52  1   
 49  21  53  1   
 50  22  25  1   
 51  22  54  1   
 52  22  55  1   
 53  23  56  1   
 54  24  26  ar  
 55  24  27  ar  
 56  25  57  1   
 57  25  58  1   
 58  26  28  ar  
 59  26  59  1   
 60  27  29  ar  
 61  27  60  1   
 62  28  30  ar  
 63  28  61  1   
 64  29  30  ar  
 65  29  62  1   
 66  30  63  1   
@<TRIPOS>SUBSTRUCTURE
  1 ****  13 GROUP 4 **** **** 0

# MOE 2024.06 (io_trps.svl 2023.06)
