@<TRIPOS>MOLECULE
NONAME
53 54 1 0 0 
SMALL
USER_CHARGES


@<TRIPOS>ATOM
  1 CL       0.0130     1.3030    -0.0270 Cl    1 <1>  -0.1770 
  2 C       -1.7200     1.4940    -0.0200 C.ar  1 <1>   0.1770 
  3 C       -2.4530     1.0350     1.0580 C.ar  1 <1>  -0.1500 
  4 C       -2.3410     2.1060    -1.0920 C.ar  1 <1>  -0.1500 
  5 C       -3.8270     1.1920     1.0580 C.ar  1 <1>  -0.1500 
  6 C       -3.7170     2.2560    -1.0810 C.ar  1 <1>  -0.1500 
  7 C       -4.4900     1.8000    -0.0100 C.ar  1 <1>   0.0530 
  8 C       -5.9190     1.9820    -0.0200 C.2   1 <1>   0.0870 
  9 O       -6.4040     3.1540    -0.3480 O.3   1 <1>  -0.0190 
 10 C       -6.9830     1.1670     0.2310 C.2   1 <1>  -0.0860 
 11 N       -7.7070     3.1950    -0.3200 N.2   1 <1>  -0.4100 
 12 C       -8.0750     2.0220     0.0380 C.2   1 <1>   0.3720 
 13 C       -7.0410    -0.2280     0.5580 C.2   1 <1>   0.7160 
 14 N       -9.4180     1.7210     0.1960 N.pl3 1 <1>  -0.8520 
 15 O       -6.0460    -0.8210     0.9240 O.2   1 <1>  -0.5700 
 16 N       -8.2170    -0.9080     0.4510 N.am  1 <1>  -0.7300 
 17 C       -9.9240     1.8800     1.5880 C.3   1 <1>   0.2090 
 18 C       -8.5700    -2.3480     0.6100 C.3   1 <1>   0.3610 
 19 C      -10.9320     0.7790     1.9190 C.3   1 <1>   0.1200 
 20 C      -10.0960    -2.5450     0.2730 C.2   1 <1>   0.5690 
 21 C       -7.6830    -3.1250    -0.3790 C.3   1 <1>  -0.2400 
 22 C       -8.2600    -2.7030     2.0770 C.3   1 <1>  -0.2400 
 23 O      -11.4930     1.0440     3.1670 O.3   1 <1>  -0.5600 
 24 O      -10.6770    -1.5740    -0.1720 O.2   1 <1>  -0.5700 
 25 N      -10.8110    -3.7220     0.4590 N.am  1 <1>  -0.6600 
 26 C      -12.4280     0.0940     3.5650 C.3   1 <1>   0.0400 
 27 C      -12.2760    -3.7680     0.1670 C.3   1 <1>   0.0600 
 28 C      -10.2980    -5.0510     0.9020 C.3   1 <1>   0.0600 
 29 H       -1.9510     0.5610     1.8820 H     1 <1>   0.1500 
 30 H       -1.7520     2.4580    -1.9200 H     1 <1>   0.1500 
 31 H       -4.3980     0.8370     1.8980 H     1 <1>   0.1500 
 32 H       -4.2050     2.7330    -1.9130 H     1 <1>   0.1500 
 33 H       -9.9510     2.3610    -0.4050 H     1 <1>   0.4000 
 34 H       -9.0260    -0.3530     0.1250 H     1 <1>   0.3700 
 35 H      -10.4030     2.8390     1.6810 H     1 <1>   0.0800 
 36 H       -9.1080     1.8300     2.2890 H     1 <1>   0.0800 
 37 H      -10.4360    -0.1730     1.9660 H     1 <1>   0.0800 
 38 H      -11.7170     0.7560     1.1830 H     1 <1>   0.0800 
 39 H       -7.8230    -2.7350    -1.3720 H     1 <1>   0.0800 
 40 H       -7.9260    -4.1670    -0.4030 H     1 <1>   0.0800 
 41 H       -6.6450    -3.0410    -0.1150 H     1 <1>   0.0800 
 42 H       -8.8600    -2.0970     2.7320 H     1 <1>   0.0800 
 43 H       -7.2240    -2.5360     2.3040 H     1 <1>   0.0800 
 44 H       -8.4650    -3.7290     2.2960 H     1 <1>   0.0800 
 45 H      -12.8020     0.3770     4.5330 H     1 <1>   0.0800 
 46 H      -11.9520    -0.8700     3.6260 H     1 <1>   0.0800 
 47 H      -13.2370     0.0720     2.8550 H     1 <1>   0.0800 
 48 H      -12.6900    -2.7800     0.0690 H     1 <1>   0.0800 
 49 H      -12.7950    -4.2700     0.9650 H     1 <1>   0.0800 
 50 H      -12.4430    -4.3010    -0.7530 H     1 <1>   0.0800 
 51 H       -9.2300    -5.1040     0.8860 H     1 <1>   0.0800 
 52 H      -10.6750    -5.8190     0.2480 H     1 <1>   0.0800 
 53 H      -10.6390    -5.2520     1.9030 H     1 <1>   0.0800 
@<TRIPOS>BOND
  1   1   2  1   
  2   2   3  ar  
  3   2   4  ar  
  4   3   5  ar  
  5   3  29  1   
  6   4   6  ar  
  7   4  30  1   
  8   5   7  ar  
  9   5  31  1   
 10   6   7  ar  
 11   6  32  1   
 12   7   8  1   
 13   8   9  1   
 14   8  10  2   
 15   9  11  1   
 16  10  12  1   
 17  10  13  1   
 18  11  12  2   
 19  12  14  1   
 20  13  15  2   
 21  13  16  am  
 22  14  17  1   
 23  14  33  1   
 24  16  18  1   
 25  16  34  1   
 26  17  19  1   
 27  17  35  1   
 28  17  36  1   
 29  18  20  1   
 30  18  21  1   
 31  18  22  1   
 32  19  23  1   
 33  19  37  1   
 34  19  38  1   
 35  20  24  2   
 36  20  25  am  
 37  21  39  1   
 38  21  40  1   
 39  21  41  1   
 40  22  42  1   
 41  22  43  1   
 42  22  44  1   
 43  23  26  1   
 44  25  27  1   
 45  25  28  1   
 46  26  45  1   
 47  26  46  1   
 48  26  47  1   
 49  27  48  1   
 50  27  49  1   
 51  27  50  1   
 52  28  51  1   
 53  28  52  1   
 54  28  53  1   
@<TRIPOS>SUBSTRUCTURE
  1 ****  13 GROUP 4 **** **** 0

# MOE 2024.06 (io_trps.svl 2023.06)
